MODEL 1
REMARK VINA RESULT: -8.387734990      0.000      0.000
REMARK  8 active torsions:
REMARK  status: ('A' for Active; 'I' for Inactive)
REMARK    1  A    between atoms: O1_2  and  C2_3 
REMARK    2  A    between atoms: N1_6  and  C5_7 
REMARK    3  A    between atoms: C8_12  and  N3_13 
REMARK    4  A    between atoms: N3_13  and  C9_15 
REMARK    5  A    between atoms: C14_24  and  C15_25 
REMARK    6  A    between atoms: C15_25  and  O2_27 
REMARK    7  A    between atoms: N6_29  and  C17_30 
REMARK    8  A    between atoms: C17_30  and  C19_32 
ROOT
HETATM    1  C9  UNL     1     -53.681   1.534 -21.852  1.00  0.00     0.108 A 
HETATM    2  C10 UNL     1     -52.727   0.503 -21.885  1.00  0.00     0.080 A 
HETATM    3  C11 UNL     1     -52.073   0.160 -20.729  1.00  0.00     0.068 A 
HETATM    4  C12 UNL     1     -52.329   0.797 -19.556  1.00  0.00     0.076 A 
HETATM    5  C13 UNL     1     -53.270   1.813 -19.532  1.00  0.00     0.121 A 
HETATM    6  N4  UNL     1     -53.888   2.119 -20.676  1.00  0.00    -0.350 N 
ATOM      7  H4  UNL     1     -54.579   2.869 -20.644  1.00  0.00     0.166 HD
HETATM    8  N5  UNL     1     -51.549   0.259 -18.640  1.00  0.00    -0.341 N 
ATOM      9  H5  UNL     1     -51.515   0.532 -17.657  1.00  0.00     0.167 HD
HETATM   10  C14 UNL     1     -50.791  -0.727 -19.220  1.00  0.00     0.114 A 
HETATM   11  N6  UNL     1     -51.106  -0.799 -20.508  1.00  0.00    -0.319 N 
ENDROOT
BRANCH   1  12
HETATM   12  N3  UNL     1     -54.351   1.887 -23.029  1.00  0.00    -0.328 N 
ATOM     13  H3  UNL     1     -54.748   2.826 -23.058  1.00  0.00     0.169 HD
BRANCH  12  14
HETATM   14  C8  UNL     1     -54.540   1.097 -24.174  1.00  0.00     0.123 A 
HETATM   15  C7  UNL     1     -55.711   1.081 -24.878  1.00  0.00     0.067 A 
HETATM   16  C6  UNL     1     -55.784   0.248 -26.010  1.00  0.00     0.110 A 
HETATM   17  N2  UNL     1     -54.730  -0.490 -26.363  1.00  0.00    -0.202 N 
HETATM   18  C5  UNL     1     -53.578  -0.476 -25.673  1.00  0.00     0.681 A 
ATOM     19  H2  UNL     1     -54.803  -1.087 -27.188  1.00  0.00     0.183 HD
HETATM   20  N7  UNL     1     -53.503   0.306 -24.605  1.00  0.00    -0.176 N 
ATOM     21  H7  UNL     1     -52.630   0.322 -24.076  1.00  0.00     0.186 HD
BRANCH  18  22
HETATM   22  N1  UNL     1     -52.491  -1.288 -26.101  1.00  0.00    -0.215 N 
HETATM   23  C4  UNL     1     -51.481  -0.750 -26.989  1.00  0.00     0.144 C 
HETATM   24  C3  UNL     1     -50.135  -1.203 -26.435  1.00  0.00     0.055 C 
HETATM   25  C2  UNL     1     -50.034  -2.696 -26.599  1.00  0.00     0.158 C 
HETATM   26  C21 UNL     1     -51.389  -3.370 -26.559  1.00  0.00     0.217 C 
HETATM   27  C20 UNL     1     -52.356  -2.658 -25.670  1.00  0.00     0.181 C 
HETATM   28  F4  UNL     1     -51.904  -3.419 -27.846  1.00  0.00    -0.245 F 
BRANCH  25  29
HETATM   29  O1  UNL     1     -49.469  -2.933 -27.860  1.00  0.00    -0.388 OA
HETATM   30  C1  UNL     1     -48.129  -3.320 -27.716  1.00  0.00     0.202 C 
ENDBRANCH  25  29
ENDBRANCH  18  22
ENDBRANCH  12  14
ENDBRANCH   1  12
BRANCH  11  31
HETATM   31  C17 UNL     1     -50.610  -1.657 -21.515  1.00  0.00     0.195 C 
HETATM   32  C18 UNL     1     -51.594  -2.546 -22.207  1.00  0.00     0.042 C 
BRANCH  31  33
HETATM   33  C19 UNL     1     -49.652  -1.000 -22.509  1.00  0.00     0.407 C 
HETATM   34  F1  UNL     1     -48.817  -0.074 -21.915  1.00  0.00    -0.169 F 
HETATM   35  F2  UNL     1     -48.793  -1.969 -23.034  1.00  0.00    -0.169 F 
HETATM   36  F3  UNL     1     -50.294  -0.315 -23.513  1.00  0.00    -0.169 F 
ENDBRANCH  31  33
ENDBRANCH  11  31
BRANCH  10  37
HETATM   37  C15 UNL     1     -49.811  -1.487 -18.451  1.00  0.00     0.181 C 
HETATM   38  C16 UNL     1     -50.291  -2.957 -18.290  1.00  0.00     0.047 C 
BRANCH  37  39
HETATM   39  O2  UNL     1     -48.559  -1.618 -18.974  1.00  0.00    -0.388 OA
ATOM     40  H2  UNL     1     -47.905  -2.060 -18.446  1.00  0.00     0.210 HD
ENDBRANCH  37  39
ENDBRANCH  10  37
TORSDOF 8
ENDMDL
