MODEL 3
REMARK VINA RESULT: -8.098399883      1.387      1.711
REMARK  8 active torsions:
REMARK  status: ('A' for Active; 'I' for Inactive)
REMARK    1  A    between atoms: O1_2  and  C2_3 
REMARK    2  A    between atoms: N1_6  and  C5_7 
REMARK    3  A    between atoms: C8_12  and  N3_13 
REMARK    4  A    between atoms: N3_13  and  C9_15 
REMARK    5  A    between atoms: C14_24  and  C15_25 
REMARK    6  A    between atoms: C15_25  and  O2_27 
REMARK    7  A    between atoms: N6_29  and  C17_30 
REMARK    8  A    between atoms: C17_30  and  C19_32 
ROOT
HETATM    1  C9  UNL     1     -53.899   1.622 -21.729  1.00  0.00     0.108 A 
HETATM    2  C10 UNL     1     -52.911   0.625 -21.778  1.00  0.00     0.080 A 
HETATM    3  C11 UNL     1     -52.182   0.349 -20.649  1.00  0.00     0.068 A 
HETATM    4  C12 UNL     1     -52.396   1.020 -19.487  1.00  0.00     0.076 A 
HETATM    5  C13 UNL     1     -53.373   2.002 -19.447  1.00  0.00     0.121 A 
HETATM    6  N4  UNL     1     -54.063   2.243 -20.564  1.00  0.00    -0.350 N 
ATOM      7  H4  UNL     1     -54.779   2.968 -20.520  1.00  0.00     0.166 HD
HETATM    8  N5  UNL     1     -51.548   0.545 -18.598  1.00  0.00    -0.341 N 
ATOM      9  H5  UNL     1     -51.470   0.856 -17.629  1.00  0.00     0.167 HD
HETATM   10  C14 UNL     1     -50.786  -0.434 -19.184  1.00  0.00     0.114 A 
HETATM   11  N6  UNL     1     -51.168  -0.566 -20.449  1.00  0.00    -0.319 N 
ENDROOT
BRANCH   1  12
HETATM   12  N3  UNL     1     -54.645   1.907 -22.878  1.00  0.00    -0.328 N 
ATOM     13  H3  UNL     1     -55.196   2.765 -22.857  1.00  0.00     0.169 HD
BRANCH  12  14
HETATM   14  C8  UNL     1     -54.724   1.146 -24.055  1.00  0.00     0.123 A 
HETATM   15  C7  UNL     1     -55.858   1.069 -24.813  1.00  0.00     0.067 A 
HETATM   16  C6  UNL     1     -55.818   0.273 -25.974  1.00  0.00     0.110 A 
HETATM   17  N2  UNL     1     -54.698  -0.373 -26.301  1.00  0.00    -0.202 N 
HETATM   18  C5  UNL     1     -53.581  -0.299 -25.557  1.00  0.00     0.681 A 
ATOM     19  H2  UNL     1     -54.689  -0.944 -27.146  1.00  0.00     0.183 HD
HETATM   20  N7  UNL     1     -53.613   0.449 -24.462  1.00  0.00    -0.176 N 
ATOM     21  H7  UNL     1     -52.768   0.509 -23.893  1.00  0.00     0.186 HD
BRANCH  18  22
HETATM   22  N1  UNL     1     -52.419  -1.014 -25.959  1.00  0.00    -0.215 N 
HETATM   23  C4  UNL     1     -52.424  -1.789 -27.183  1.00  0.00     0.144 C 
HETATM   24  C3  UNL     1     -51.109  -1.483 -27.892  1.00  0.00     0.055 C 
HETATM   25  C2  UNL     1     -49.985  -2.061 -27.075  1.00  0.00     0.158 C 
HETATM   26  C21 UNL     1     -50.316  -2.111 -25.599  1.00  0.00     0.217 C 
HETATM   27  C20 UNL     1     -51.209  -0.992 -25.174  1.00  0.00     0.181 C 
HETATM   28  F4  UNL     1     -50.935  -3.320 -25.318  1.00  0.00    -0.245 F 
BRANCH  25  29
HETATM   29  O1  UNL     1     -49.790  -3.376 -27.521  1.00  0.00    -0.388 OA
HETATM   30  C1  UNL     1     -48.418  -3.662 -27.575  1.00  0.00     0.202 C 
ENDBRANCH  25  29
ENDBRANCH  18  22
ENDBRANCH  12  14
ENDBRANCH   1  12
BRANCH  11  31
HETATM   31  C17 UNL     1     -50.696  -1.443 -21.451  1.00  0.00     0.195 C 
HETATM   32  C18 UNL     1     -49.218  -1.489 -21.684  1.00  0.00     0.042 C 
BRANCH  31  33
HETATM   33  C19 UNL     1     -51.303  -2.845 -21.421  1.00  0.00     0.407 C 
HETATM   34  F1  UNL     1     -52.174  -3.027 -20.364  1.00  0.00    -0.169 F 
HETATM   35  F2  UNL     1     -52.084  -3.036 -22.563  1.00  0.00    -0.169 F 
HETATM   36  F3  UNL     1     -50.365  -3.842 -21.293  1.00  0.00    -0.169 F 
ENDBRANCH  31  33
ENDBRANCH  11  31
BRANCH  10  37
HETATM   37  C15 UNL     1     -49.738  -1.130 -18.444  1.00  0.00     0.181 C 
HETATM   38  C16 UNL     1     -49.707  -0.627 -16.974  1.00  0.00     0.047 C 
BRANCH  37  39
HETATM   39  O2  UNL     1     -49.845  -2.483 -18.315  1.00  0.00    -0.388 OA
ATOM     40  H2  UNL     1     -49.201  -3.021 -18.760  1.00  0.00     0.210 HD
ENDBRANCH  37  39
ENDBRANCH  10  37
TORSDOF 8
ENDMDL
