MODEL 6
REMARK VINA RESULT: -7.736717944      3.353      4.746
REMARK  8 active torsions:
REMARK  status: ('A' for Active; 'I' for Inactive)
REMARK    1  A    between atoms: O1_2  and  C2_3 
REMARK    2  A    between atoms: N1_6  and  C5_7 
REMARK    3  A    between atoms: C8_12  and  N3_13 
REMARK    4  A    between atoms: N3_13  and  C9_15 
REMARK    5  A    between atoms: C14_24  and  C15_25 
REMARK    6  A    between atoms: C15_25  and  O2_27 
REMARK    7  A    between atoms: N6_29  and  C17_30 
REMARK    8  A    between atoms: C17_30  and  C19_32 
ROOT
HETATM    1  C9  UNL     1     -50.689  -0.733 -19.764  1.00  0.00     0.108 A 
HETATM    2  C10 UNL     1     -50.670  -0.293 -18.430  1.00  0.00     0.080 A 
HETATM    3  C11 UNL     1     -50.751  -1.218 -17.419  1.00  0.00     0.068 A 
HETATM    4  C12 UNL     1     -50.852  -2.547 -17.683  1.00  0.00     0.076 A 
HETATM    5  C13 UNL     1     -50.870  -2.972 -19.002  1.00  0.00     0.121 A 
HETATM    6  N4  UNL     1     -50.788  -2.045 -19.959  1.00  0.00    -0.350 N 
ATOM      7  H4  UNL     1     -50.802  -2.373 -20.925  1.00  0.00     0.166 HD
HETATM    8  N5  UNL     1     -50.922  -3.172 -16.526  1.00  0.00    -0.341 N 
ATOM      9  H5  UNL     1     -51.005  -4.181 -16.402  1.00  0.00     0.167 HD
HETATM   10  C14 UNL     1     -50.865  -2.247 -15.513  1.00  0.00     0.114 A 
HETATM   11  N6  UNL     1     -50.759  -1.038 -16.051  1.00  0.00    -0.319 N 
ENDROOT
BRANCH   1  12
HETATM   12  N3  UNL     1     -50.605   0.206 -20.798  1.00  0.00    -0.328 N 
ATOM     13  H3  UNL     1     -49.830   0.867 -20.746  1.00  0.00     0.169 HD
BRANCH  12  14
HETATM   14  C8  UNL     1     -51.466   0.342 -21.899  1.00  0.00     0.123 A 
HETATM   15  C7  UNL     1     -52.581   1.131 -21.874  1.00  0.00     0.067 A 
HETATM   16  C6  UNL     1     -53.370   1.189 -23.038  1.00  0.00     0.110 A 
HETATM   17  N2  UNL     1     -53.018   0.488 -24.116  1.00  0.00    -0.202 N 
HETATM   18  C5  UNL     1     -51.922  -0.289 -24.144  1.00  0.00     0.681 A 
ATOM     19  H2  UNL     1     -53.602   0.544 -24.951  1.00  0.00     0.183 HD
HETATM   20  N7  UNL     1     -51.175  -0.348 -23.049  1.00  0.00    -0.176 N 
ATOM     21  H7  UNL     1     -50.341  -0.937 -23.064  1.00  0.00     0.186 HD
BRANCH  18  22
HETATM   22  N1  UNL     1     -51.602  -1.014 -25.326  1.00  0.00    -0.215 N 
HETATM   23  C4  UNL     1     -50.290  -1.604 -25.489  1.00  0.00     0.144 C 
HETATM   24  C3  UNL     1     -50.514  -3.009 -26.038  1.00  0.00     0.055 C 
HETATM   25  C2  UNL     1     -51.059  -2.889 -27.436  1.00  0.00     0.158 C 
HETATM   26  C21 UNL     1     -51.858  -1.619 -27.633  1.00  0.00     0.217 C 
HETATM   27  C20 UNL     1     -52.562  -1.186 -26.389  1.00  0.00     0.181 C 
HETATM   28  F4  UNL     1     -51.001  -0.609 -28.047  1.00  0.00    -0.245 F 
BRANCH  25  29
HETATM   29  O1  UNL     1     -49.957  -2.848 -28.302  1.00  0.00    -0.388 OA
HETATM   30  C1  UNL     1     -49.070  -3.889 -27.993  1.00  0.00     0.202 C 
ENDBRANCH  25  29
ENDBRANCH  18  22
ENDBRANCH  12  14
ENDBRANCH   1  12
BRANCH  11  31
HETATM   31  C17 UNL     1     -50.658   0.225 -15.427  1.00  0.00     0.195 C 
HETATM   32  C18 UNL     1     -49.572   1.140 -15.899  1.00  0.00     0.042 C 
BRANCH  31  33
HETATM   33  C19 UNL     1     -51.982   0.969 -15.256  1.00  0.00     0.407 C 
HETATM   34  F1  UNL     1     -52.642   1.167 -16.453  1.00  0.00    -0.169 F 
HETATM   35  F2  UNL     1     -52.855   0.191 -14.493  1.00  0.00    -0.169 F 
HETATM   36  F3  UNL     1     -51.837   2.224 -14.712  1.00  0.00    -0.169 F 
ENDBRANCH  31  33
ENDBRANCH  11  31
BRANCH  10  37
HETATM   37  C15 UNL     1     -50.945  -2.646 -14.111  1.00  0.00     0.181 C 
HETATM   38  C16 UNL     1     -52.394  -3.093 -13.771  1.00  0.00     0.047 C 
BRANCH  37  39
HETATM   39  O2  UNL     1     -50.185  -3.704 -13.709  1.00  0.00    -0.388 OA
ATOM     40  H2  UNL     1     -49.592  -4.088 -14.344  1.00  0.00     0.210 HD
ENDBRANCH  37  39
ENDBRANCH  10  37
TORSDOF 8
ENDMDL
