MODEL 5
REMARK VINA RESULT: -7.738126639      3.245      5.262
REMARK  8 active torsions:
REMARK  status: ('A' for Active; 'I' for Inactive)
REMARK    1  A    between atoms: O1_2  and  C2_3 
REMARK    2  A    between atoms: N1_6  and  C5_7 
REMARK    3  A    between atoms: C8_12  and  N3_13 
REMARK    4  A    between atoms: N3_13  and  C9_15 
REMARK    5  A    between atoms: C14_24  and  C15_25 
REMARK    6  A    between atoms: C15_25  and  O2_27 
REMARK    7  A    between atoms: N6_29  and  C17_30 
REMARK    8  A    between atoms: C17_30  and  C19_32 
ROOT
HETATM    1  C9  UNL     1     -52.429   0.351 -22.869  1.00  0.00     0.108 A 
HETATM    2  C10 UNL     1     -51.807   0.178 -21.622  1.00  0.00     0.080 A 
HETATM    3  C11 UNL     1     -52.313   0.829 -20.525  1.00  0.00     0.068 A 
HETATM    4  C12 UNL     1     -53.401   1.638 -20.623  1.00  0.00     0.076 A 
HETATM    5  C13 UNL     1     -54.008   1.804 -21.857  1.00  0.00     0.121 A 
HETATM    6  N4  UNL     1     -53.490   1.154 -22.901  1.00  0.00    -0.350 N 
ATOM      7  H4  UNL     1     -53.947   1.285 -23.804  1.00  0.00     0.166 HD
HETATM    8  N5  UNL     1     -53.639   2.122 -19.421  1.00  0.00    -0.341 N 
ATOM      9  H5  UNL     1     -54.394   2.764 -19.179  1.00  0.00     0.167 HD
HETATM   10  C14 UNL     1     -52.706   1.625 -18.545  1.00  0.00     0.114 A 
HETATM   11  N6  UNL     1     -51.883   0.826 -19.214  1.00  0.00    -0.319 N 
ENDROOT
BRANCH   1  12
HETATM   12  N3  UNL     1     -51.917  -0.311 -23.990  1.00  0.00    -0.328 N 
ATOM     13  H3  UNL     1     -51.597   0.280 -24.757  1.00  0.00     0.169 HD
BRANCH  12  14
HETATM   14  C8  UNL     1     -51.796  -1.697 -24.180  1.00  0.00     0.123 A 
HETATM   15  C7  UNL     1     -52.368  -2.354 -25.233  1.00  0.00     0.067 A 
HETATM   16  C6  UNL     1     -52.178  -3.746 -25.320  1.00  0.00     0.110 A 
HETATM   17  N2  UNL     1     -51.458  -4.378 -24.393  1.00  0.00    -0.202 N 
HETATM   18  C5  UNL     1     -50.894  -3.736 -23.356  1.00  0.00     0.681 A 
ATOM     19  H2  UNL     1     -51.331  -5.388 -24.474  1.00  0.00     0.183 HD
HETATM   20  N7  UNL     1     -51.070  -2.424 -23.269  1.00  0.00    -0.176 N 
ATOM     21  H7  UNL     1     -50.644  -1.930 -22.484  1.00  0.00     0.186 HD
BRANCH  18  22
HETATM   22  N1  UNL     1     -50.139  -4.469 -22.400  1.00  0.00    -0.215 N 
HETATM   23  C4  UNL     1     -50.778  -5.000 -21.214  1.00  0.00     0.144 C 
HETATM   24  C3  UNL     1     -50.263  -6.425 -21.047  1.00  0.00     0.055 C 
HETATM   25  C2  UNL     1     -48.800  -6.361 -20.699  1.00  0.00     0.158 C 
HETATM   26  C21 UNL     1     -48.127  -5.134 -21.275  1.00  0.00     0.217 C 
HETATM   27  C20 UNL     1     -48.727  -4.709 -22.575  1.00  0.00     0.181 C 
HETATM   28  F4  UNL     1     -48.230  -4.095 -20.363  1.00  0.00    -0.245 F 
BRANCH  25  29
HETATM   29  O1  UNL     1     -48.716  -6.287 -19.301  1.00  0.00    -0.388 OA
HETATM   30  C1  UNL     1     -48.751  -7.577 -18.752  1.00  0.00     0.202 C 
ENDBRANCH  25  29
ENDBRANCH  18  22
ENDBRANCH  12  14
ENDBRANCH   1  12
BRANCH  11  31
HETATM   31  C17 UNL     1     -50.776   0.077 -18.756  1.00  0.00     0.195 C 
HETATM   32  C18 UNL     1     -50.157   0.490 -17.457  1.00  0.00     0.042 C 
BRANCH  31  33
HETATM   33  C19 UNL     1     -50.942  -1.440 -18.841  1.00  0.00     0.407 C 
HETATM   34  F1  UNL     1     -50.203  -2.002 -19.863  1.00  0.00    -0.169 F 
HETATM   35  F2  UNL     1     -50.442  -2.026 -17.676  1.00  0.00    -0.169 F 
HETATM   36  F3  UNL     1     -52.239  -1.834 -19.073  1.00  0.00    -0.169 F 
ENDBRANCH  31  33
ENDBRANCH  11  31
BRANCH  10  37
HETATM   37  C15 UNL     1     -52.702   2.007 -17.137  1.00  0.00     0.181 C 
HETATM   38  C16 UNL     1     -53.280   3.441 -16.977  1.00  0.00     0.047 C 
BRANCH  37  39
HETATM   39  O2  UNL     1     -53.456   1.264 -16.277  1.00  0.00    -0.388 OA
ATOM     40  H2  UNL     1     -53.501   1.548 -15.372  1.00  0.00     0.210 HD
ENDBRANCH  37  39
ENDBRANCH  10  37
TORSDOF 8
ENDMDL
