MODEL 4
REMARK VINA RESULT: -7.819725925      2.882      5.230
REMARK  8 active torsions:
REMARK  status: ('A' for Active; 'I' for Inactive)
REMARK    1  A    between atoms: O1_2  and  C2_3 
REMARK    2  A    between atoms: N1_6  and  C5_7 
REMARK    3  A    between atoms: C8_12  and  N3_13 
REMARK    4  A    between atoms: N3_13  and  C9_15 
REMARK    5  A    between atoms: C14_24  and  C15_25 
REMARK    6  A    between atoms: C15_25  and  O2_27 
REMARK    7  A    between atoms: N6_29  and  C17_30 
REMARK    8  A    between atoms: C17_30  and  C19_32 
ROOT
HETATM    1  C9  UNL     1     -50.135  -5.134 -20.288  1.00  0.00     0.108 A 
HETATM    2  C10 UNL     1     -50.683  -3.856 -20.485  1.00  0.00     0.080 A 
HETATM    3  C11 UNL     1     -50.392  -2.857 -19.590  1.00  0.00     0.068 A 
HETATM    4  C12 UNL     1     -49.587  -3.081 -18.519  1.00  0.00     0.076 A 
HETATM    5  C13 UNL     1     -49.051  -4.344 -18.331  1.00  0.00     0.121 A 
HETATM    6  N4  UNL     1     -49.354  -5.291 -19.222  1.00  0.00    -0.350 N 
ATOM      7  H4  UNL     1     -48.952  -6.216 -19.072  1.00  0.00     0.166 HD
HETATM    8  N5  UNL     1     -49.505  -1.950 -17.848  1.00  0.00    -0.341 N 
ATOM      9  H5  UNL     1     -48.969  -1.807 -16.991  1.00  0.00     0.167 HD
HETATM   10  C14 UNL     1     -50.255  -0.994 -18.487  1.00  0.00     0.114 A 
HETATM   11  N6  UNL     1     -50.807  -1.541 -19.564  1.00  0.00    -0.319 N 
ENDROOT
BRANCH   1  12
HETATM   12  N3  UNL     1     -50.428  -6.155 -21.198  1.00  0.00    -0.328 N 
ATOM     13  H3  UNL     1     -50.772  -7.030 -20.800  1.00  0.00     0.169 HD
BRANCH  12  14
HETATM   14  C8  UNL     1     -50.302  -6.115 -22.596  1.00  0.00     0.123 A 
HETATM   15  C7  UNL     1     -49.620  -7.062 -23.306  1.00  0.00     0.067 A 
HETATM   16  C6  UNL     1     -49.561  -6.917 -24.705  1.00  0.00     0.110 A 
HETATM   17  N2  UNL     1     -50.160  -5.881 -25.293  1.00  0.00    -0.202 N 
HETATM   18  C5  UNL     1     -50.832  -4.947 -24.597  1.00  0.00     0.681 A 
ATOM     19  H2  UNL     1     -50.106  -5.793 -26.308  1.00  0.00     0.183 HD
HETATM   20  N7  UNL     1     -50.891  -5.079 -23.278  1.00  0.00    -0.176 N 
ATOM     21  H7  UNL     1     -51.399  -4.374 -22.744  1.00  0.00     0.186 HD
BRANCH  18  22
HETATM   22  N1  UNL     1     -51.448  -3.865 -25.284  1.00  0.00    -0.215 N 
HETATM   23  C4  UNL     1     -52.712  -3.331 -24.823  1.00  0.00     0.144 C 
HETATM   24  C3  UNL     1     -52.581  -1.813 -24.868  1.00  0.00     0.055 C 
HETATM   25  C2  UNL     1     -52.488  -1.388 -26.309  1.00  0.00     0.158 C 
HETATM   26  C21 UNL     1     -51.859  -2.455 -27.181  1.00  0.00     0.217 C 
HETATM   27  C20 UNL     1     -50.842  -3.267 -26.448  1.00  0.00     0.181 C 
HETATM   28  F4  UNL     1     -52.858  -3.294 -27.654  1.00  0.00    -0.245 F 
BRANCH  25  29
HETATM   29  O1  UNL     1     -53.799  -1.177 -26.759  1.00  0.00    -0.388 OA
HETATM   30  C1  UNL     1     -54.447  -0.257 -25.922  1.00  0.00     0.202 C 
ENDBRANCH  25  29
ENDBRANCH  18  22
ENDBRANCH  12  14
ENDBRANCH   1  12
BRANCH  11  31
HETATM   31  C17 UNL     1     -51.649  -0.966 -20.541  1.00  0.00     0.195 C 
HETATM   32  C18 UNL     1     -53.084  -0.753 -20.173  1.00  0.00     0.042 C 
BRANCH  31  33
HETATM   33  C19 UNL     1     -51.068   0.251 -21.260  1.00  0.00     0.407 C 
HETATM   34  F1  UNL     1     -49.690   0.309 -21.182  1.00  0.00    -0.169 F 
HETATM   35  F2  UNL     1     -51.344   0.158 -22.626  1.00  0.00    -0.169 F 
HETATM   36  F3  UNL     1     -51.510   1.448 -20.748  1.00  0.00    -0.169 F 
ENDBRANCH  31  33
ENDBRANCH  11  31
BRANCH  10  37
HETATM   37  C15 UNL     1     -50.374   0.361 -17.959  1.00  0.00     0.181 C 
HETATM   38  C16 UNL     1     -51.756   0.541 -17.271  1.00  0.00     0.047 C 
BRANCH  37  39
HETATM   39  O2  UNL     1     -49.488   0.745 -16.996  1.00  0.00    -0.388 OA
ATOM     40  H2  UNL     1     -49.826   1.241 -16.259  1.00  0.00     0.210 HD
ENDBRANCH  37  39
ENDBRANCH  10  37
TORSDOF 8
ENDMDL
