MODEL 9
REMARK VINA RESULT: -7.781972258      3.650      5.287
REMARK  8 active torsions:
REMARK  status: ('A' for Active; 'I' for Inactive)
REMARK    1  A    between atoms: O1_2  and  C2_3 
REMARK    2  A    between atoms: N1_6  and  C5_7 
REMARK    3  A    between atoms: C8_12  and  N3_13 
REMARK    4  A    between atoms: N3_13  and  C9_15 
REMARK    5  A    between atoms: C14_24  and  C15_25 
REMARK    6  A    between atoms: C15_25  and  O2_27 
REMARK    7  A    between atoms: N6_29  and  C17_30 
REMARK    8  A    between atoms: C17_30  and  C19_32 
ROOT
HETATM    1  C9  UNL     1     -51.915   0.589 -21.526  1.00  0.00     0.108 A 
HETATM    2  C10 UNL     1     -51.405   0.338 -20.294  1.00  0.00     0.081 A 
HETATM    3  C11 UNL     1     -51.930   0.871 -19.105  1.00  0.00     0.072 A 
HETATM    4  C12 UNL     1     -53.016   1.694 -19.185  1.00  0.00     0.077 A 
HETATM    5  C13 UNL     1     -53.537   1.956 -20.429  1.00  0.00     0.121 A 
HETATM    6  N4  UNL     1     -53.012   1.430 -21.535  1.00  0.00    -0.350 N 
ATOM      7  H4  UNL     1     -53.440   1.659 -22.432  1.00  0.00     0.166 HD
HETATM    8  N5  UNL     1     -53.271   2.028 -17.921  1.00  0.00    -0.337 N 
ATOM      9  H5  UNL     1     -54.030   2.643 -17.628  1.00  0.00     0.167 HD
HETATM   10  C14 UNL     1     -52.378   1.438 -17.071  1.00  0.00     0.142 A 
HETATM   11  N6  UNL     1     -51.539   0.716 -17.803  1.00  0.00    -0.292 N 
ENDROOT
BRANCH   1  12
HETATM   12  N3  UNL     1     -51.494   0.039 -22.715  1.00  0.00    -0.328 N 
ATOM     13  H3  UNL     1     -50.891   0.654 -23.261  1.00  0.00     0.169 HD
BRANCH  12  14
HETATM   14  C8  UNL     1     -51.732  -1.197 -23.321  1.00  0.00     0.123 A 
HETATM   15  C7  UNL     1     -52.491  -1.376 -24.443  1.00  0.00     0.067 A 
HETATM   16  C6  UNL     1     -52.713  -2.668 -24.903  1.00  0.00     0.110 A 
HETATM   17  N2  UNL     1     -52.204  -3.728 -24.280  1.00  0.00    -0.202 N 
HETATM   18  C5  UNL     1     -51.445  -3.578 -23.165  1.00  0.00     0.681 A 
ATOM     19  H2  UNL     1     -52.386  -4.663 -24.645  1.00  0.00     0.183 HD
HETATM   20  N7  UNL     1     -51.247  -2.340 -22.742  1.00  0.00    -0.176 N 
ATOM     21  H7  UNL     1     -50.677  -2.225 -21.904  1.00  0.00     0.186 HD
BRANCH  18  22
HETATM   22  N1  UNL     1     -50.892  -4.709 -22.488  1.00  0.00    -0.215 N 
HETATM   23  C4  UNL     1     -50.659  -5.905 -23.269  1.00  0.00     0.144 C 
HETATM   24  C3  UNL     1     -49.639  -6.824 -22.635  1.00  0.00     0.055 C 
HETATM   25  C2  UNL     1     -50.044  -6.995 -21.186  1.00  0.00     0.158 C 
HETATM   26  C21 UNL     1     -49.832  -5.691 -20.494  1.00  0.00     0.217 C 
HETATM   27  C20 UNL     1     -50.613  -4.570 -21.083  1.00  0.00     0.181 C 
HETATM   28  F4  UNL     1     -48.485  -5.344 -20.521  1.00  0.00    -0.245 F 
BRANCH  25  29
HETATM   29  O1  UNL     1     -49.397  -8.026 -20.558  1.00  0.00    -0.388 OA
HETATM   30  C1  UNL     1     -48.480  -8.686 -21.371  1.00  0.00     0.202 C 
ENDBRANCH  25  29
ENDBRANCH  18  22
ENDBRANCH  12  14
ENDBRANCH   1  12
BRANCH  11  31
HETATM   31  C17 UNL     1     -50.430  -0.072 -17.369  1.00  0.00     0.098 C 
HETATM   32  C18 UNL     1     -49.452   0.655 -16.463  1.00  0.00     0.073 C 
BRANCH  31  33
HETATM   33  C19 UNL     1     -50.716  -1.469 -16.924  1.00  0.00     0.428 C 
HETATM   34  F1  UNL     1     -51.294  -2.171 -17.989  1.00  0.00    -0.165 F 
HETATM   35  F2  UNL     1     -49.491  -2.166 -16.760  1.00  0.00    -0.165 F 
HETATM   36  F3  UNL     1     -51.339  -1.631 -15.742  1.00  0.00    -0.165 F 
ENDBRANCH  31  33
ENDBRANCH  11  31
BRANCH  10  37
HETATM   37  C15 UNL     1     -52.452   1.659 -15.612  1.00  0.00     0.084 C 
HETATM   38  C16 UNL     1     -52.571   3.119 -15.219  1.00  0.00     0.080 C 
BRANCH  37  39
HETATM   39  O2  UNL     1     -53.221   0.797 -14.894  1.00  0.00    -0.361 OA
ATOM     40  H2  UNL     1     -53.030  -0.130 -14.985  1.00  0.00     0.217 HD
ENDBRANCH  37  39
ENDBRANCH  10  37
TORSDOF 8
ENDMDL
