MODEL 7
REMARK VINA RESULT: -7.822137958      3.415      4.994
REMARK  8 active torsions:
REMARK  status: ('A' for Active; 'I' for Inactive)
REMARK    1  A    between atoms: O1_2  and  C2_3 
REMARK    2  A    between atoms: N1_6  and  C5_7 
REMARK    3  A    between atoms: C8_12  and  N3_13 
REMARK    4  A    between atoms: N3_13  and  C9_15 
REMARK    5  A    between atoms: C14_24  and  C15_25 
REMARK    6  A    between atoms: C15_25  and  O2_27 
REMARK    7  A    between atoms: N6_29  and  C17_30 
REMARK    8  A    between atoms: C17_30  and  C19_32 
ROOT
HETATM    1  C9  UNL     1     -50.815  -0.768 -19.405  1.00  0.00     0.108 A 
HETATM    2  C10 UNL     1     -50.832  -0.470 -18.082  1.00  0.00     0.081 A 
HETATM    3  C11 UNL     1     -50.881  -1.436 -17.062  1.00  0.00     0.072 A 
HETATM    4  C12 UNL     1     -50.918  -2.753 -17.415  1.00  0.00     0.077 A 
HETATM    5  C13 UNL     1     -50.904  -3.064 -18.753  1.00  0.00     0.121 A 
HETATM    6  N4  UNL     1     -50.855  -2.120 -19.692  1.00  0.00    -0.350 N 
ATOM      7  H4  UNL     1     -50.847  -2.408 -20.671  1.00  0.00     0.166 HD
HETATM    8  N5  UNL     1     -50.959  -3.405 -16.254  1.00  0.00    -0.337 N 
ATOM      9  H5  UNL     1     -50.995  -4.420 -16.162  1.00  0.00     0.167 HD
HETATM   10  C14 UNL     1     -50.949  -2.531 -15.203  1.00  0.00     0.142 A 
HETATM   11  N6  UNL     1     -50.901  -1.302 -15.700  1.00  0.00    -0.292 N 
ENDROOT
BRANCH   1  12
HETATM   12  N3  UNL     1     -50.691   0.125 -20.445  1.00  0.00    -0.328 N 
ATOM     13  H3  UNL     1     -50.058   0.900 -20.248  1.00  0.00     0.169 HD
BRANCH  12  14
HETATM   14  C8  UNL     1     -51.262   0.176 -21.719  1.00  0.00     0.123 A 
HETATM   15  C7  UNL     1     -52.453   0.779 -22.009  1.00  0.00     0.067 A 
HETATM   16  C6  UNL     1     -52.949   0.695 -23.305  1.00  0.00     0.110 A 
HETATM   17  N2  UNL     1     -52.292   0.046 -24.263  1.00  0.00    -0.202 N 
HETATM   18  C5  UNL     1     -51.106  -0.560 -24.002  1.00  0.00     0.681 A 
ATOM     19  H2  UNL     1     -52.684   0.004 -25.203  1.00  0.00     0.183 HD
HETATM   20  N7  UNL     1     -50.652  -0.469 -22.762  1.00  0.00    -0.176 N 
ATOM     21  H7  UNL     1     -49.761  -0.924 -22.563  1.00  0.00     0.186 HD
BRANCH  18  22
HETATM   22  N1  UNL     1     -50.391  -1.258 -25.023  1.00  0.00    -0.215 N 
HETATM   23  C4  UNL     1     -49.309  -2.124 -24.606  1.00  0.00     0.144 C 
HETATM   24  C3  UNL     1     -48.970  -3.172 -25.642  1.00  0.00     0.055 C 
HETATM   25  C2  UNL     1     -48.827  -2.450 -26.965  1.00  0.00     0.158 C 
HETATM   26  C21 UNL     1     -50.178  -1.967 -27.372  1.00  0.00     0.217 C 
HETATM   27  C20 UNL     1     -50.802  -1.044 -26.385  1.00  0.00     0.181 C 
HETATM   28  F4  UNL     1     -51.038  -3.043 -27.565  1.00  0.00    -0.245 F 
BRANCH  25  29
HETATM   29  O1  UNL     1     -48.235  -3.211 -27.938  1.00  0.00    -0.388 OA
HETATM   30  C1  UNL     1     -47.978  -4.521 -27.543  1.00  0.00     0.202 C 
ENDBRANCH  25  29
ENDBRANCH  18  22
ENDBRANCH  12  14
ENDBRANCH   1  12
BRANCH  11  31
HETATM   31  C17 UNL     1     -50.884  -0.058 -15.000  1.00  0.00     0.098 C 
HETATM   32  C18 UNL     1     -49.712   0.846 -15.341  1.00  0.00     0.073 C 
BRANCH  31  33
HETATM   33  C19 UNL     1     -52.178   0.678 -14.881  1.00  0.00     0.428 C 
HETATM   34  F1  UNL     1     -53.034  -0.048 -14.043  1.00  0.00    -0.165 F 
HETATM   35  F2  UNL     1     -51.975   1.859 -14.120  1.00  0.00    -0.165 F 
HETATM   36  F3  UNL     1     -52.749   1.122 -16.017  1.00  0.00    -0.165 F 
ENDBRANCH  31  33
ENDBRANCH  11  31
BRANCH  10  37
HETATM   37  C15 UNL     1     -50.993  -3.014 -13.808  1.00  0.00     0.084 C 
HETATM   38  C16 UNL     1     -52.396  -3.205 -13.269  1.00  0.00     0.080 C 
BRANCH  37  39
HETATM   39  O2  UNL     1     -50.097  -3.977 -13.459  1.00  0.00    -0.361 OA
ATOM     40  H2  UNL     1     -49.526  -4.304 -14.144  1.00  0.00     0.217 HD
ENDBRANCH  37  39
ENDBRANCH  10  37
TORSDOF 8
ENDMDL
