MODEL 8
REMARK VINA RESULT: -7.786374905      1.959      6.570
REMARK  8 active torsions:
REMARK  status: ('A' for Active; 'I' for Inactive)
REMARK    1  A    between atoms: O1_2  and  C2_3 
REMARK    2  A    between atoms: N1_6  and  C5_7 
REMARK    3  A    between atoms: C8_12  and  N3_13 
REMARK    4  A    between atoms: N3_13  and  C9_15 
REMARK    5  A    between atoms: C14_24  and  C15_25 
REMARK    6  A    between atoms: C15_25  and  O2_27 
REMARK    7  A    between atoms: N6_29  and  C17_30 
REMARK    8  A    between atoms: C17_30  and  C19_32 
ROOT
HETATM    1  C9  UNL     1     -54.050   1.147 -23.000  1.00  0.00     0.108 A 
HETATM    2  C10 UNL     1     -53.276   0.143 -23.483  1.00  0.00     0.081 A 
HETATM    3  C11 UNL     1     -53.454  -0.444 -24.747  1.00  0.00     0.072 A 
HETATM    4  C12 UNL     1     -54.465   0.014 -25.541  1.00  0.00     0.077 A 
HETATM    5  C13 UNL     1     -55.256   1.028 -25.058  1.00  0.00     0.121 A 
HETATM    6  N4  UNL     1     -55.055   1.562 -23.853  1.00  0.00    -0.350 N 
ATOM      7  H4  UNL     1     -55.673   2.312 -23.546  1.00  0.00     0.166 HD
HETATM    8  N5  UNL     1     -54.377  -0.724 -26.647  1.00  0.00    -0.337 N 
ATOM      9  H5  UNL     1     -54.995  -0.634 -27.452  1.00  0.00     0.167 HD
HETATM   10  C14 UNL     1     -53.346  -1.617 -26.556  1.00  0.00     0.142 A 
HETATM   11  N6  UNL     1     -52.767  -1.448 -25.374  1.00  0.00    -0.292 N 
ENDROOT
BRANCH   1  12
HETATM   12  N3  UNL     1     -53.880   1.812 -21.807  1.00  0.00    -0.328 N 
ATOM     13  H3  UNL     1     -54.286   2.748 -21.798  1.00  0.00     0.169 HD
BRANCH  12  14
HETATM   14  C8  UNL     1     -53.261   1.456 -20.607  1.00  0.00     0.123 A 
HETATM   15  C7  UNL     1     -53.373   2.157 -19.440  1.00  0.00     0.067 A 
HETATM   16  C6  UNL     1     -52.644   1.738 -18.334  1.00  0.00     0.110 A 
HETATM   17  N2  UNL     1     -51.847   0.675 -18.385  1.00  0.00    -0.202 N 
HETATM   18  C5  UNL     1     -51.719  -0.041 -19.531  1.00  0.00     0.681 A 
ATOM     19  H2  UNL     1     -51.326   0.394 -17.554  1.00  0.00     0.183 HD
HETATM   20  N7  UNL     1     -52.420   0.375 -20.574  1.00  0.00    -0.176 N 
ATOM     21  H7  UNL     1     -52.325  -0.161 -21.436  1.00  0.00     0.186 HD
BRANCH  18  22
HETATM   22  N1  UNL     1     -50.866  -1.186 -19.597  1.00  0.00    -0.215 N 
HETATM   23  C4  UNL     1     -51.391  -2.438 -19.094  1.00  0.00     0.144 C 
HETATM   24  C3  UNL     1     -50.665  -3.640 -19.656  1.00  0.00     0.055 C 
HETATM   25  C2  UNL     1     -49.184  -3.376 -19.487  1.00  0.00     0.158 C 
HETATM   26  C21 UNL     1     -48.808  -2.266 -20.409  1.00  0.00     0.217 C 
HETATM   27  C20 UNL     1     -49.553  -1.003 -20.158  1.00  0.00     0.181 C 
HETATM   28  F4  UNL     1     -49.025  -2.643 -21.731  1.00  0.00    -0.245 F 
BRANCH  25  29
HETATM   29  O1  UNL     1     -48.408  -4.490 -19.673  1.00  0.00    -0.388 OA
HETATM   30  C1  UNL     1     -49.138  -5.629 -20.003  1.00  0.00     0.202 C 
ENDBRANCH  25  29
ENDBRANCH  18  22
ENDBRANCH  12  14
ENDBRANCH   1  12
BRANCH  11  31
HETATM   31  C17 UNL     1     -51.658  -2.154 -24.817  1.00  0.00     0.098 C 
HETATM   32  C18 UNL     1     -50.429  -1.300 -24.558  1.00  0.00     0.073 C 
BRANCH  31  33
HETATM   33  C19 UNL     1     -51.945  -3.119 -23.714  1.00  0.00     0.428 C 
HETATM   34  F1  UNL     1     -53.051  -3.899 -24.075  1.00  0.00    -0.165 F 
HETATM   35  F2  UNL     1     -50.916  -4.095 -23.668  1.00  0.00    -0.165 F 
HETATM   36  F3  UNL     1     -51.986  -2.635 -22.458  1.00  0.00    -0.165 F 
ENDBRANCH  31  33
ENDBRANCH  11  31
BRANCH  10  37
HETATM   37  C15 UNL     1     -53.047  -2.552 -27.660  1.00  0.00     0.084 C 
HETATM   38  C16 UNL     1     -53.411  -2.018 -29.031  1.00  0.00     0.080 C 
BRANCH  37  39
HETATM   39  O2  UNL     1     -51.871  -3.233 -27.593  1.00  0.00    -0.361 OA
ATOM     40  H2  UNL     1     -51.892  -4.154 -27.826  1.00  0.00     0.217 HD
ENDBRANCH  37  39
ENDBRANCH  10  37
TORSDOF 8
ENDMDL
