MODEL 2
REMARK VINA RESULT: -8.417458139      1.196      1.438
REMARK  8 active torsions:
REMARK  status: ('A' for Active; 'I' for Inactive)
REMARK    1  A    between atoms: O1_2  and  C2_3 
REMARK    2  A    between atoms: N1_6  and  C5_7 
REMARK    3  A    between atoms: C8_12  and  N3_13 
REMARK    4  A    between atoms: N3_13  and  C9_15 
REMARK    5  A    between atoms: C14_24  and  C15_25 
REMARK    6  A    between atoms: C15_25  and  O2_27 
REMARK    7  A    between atoms: N6_29  and  C17_30 
REMARK    8  A    between atoms: C17_30  and  C19_32 
ROOT
HETATM    1  C9  UNL     1     -53.852   1.471 -21.903  1.00  0.00     0.108 A 
HETATM    2  C10 UNL     1     -52.944   0.473 -21.764  1.00  0.00     0.081 A 
HETATM    3  C11 UNL     1     -52.238   0.216 -20.577  1.00  0.00     0.072 A 
HETATM    4  C12 UNL     1     -52.470   1.016 -19.496  1.00  0.00     0.077 A 
HETATM    5  C13 UNL     1     -53.386   2.032 -19.629  1.00  0.00     0.121 A 
HETATM    6  N4  UNL     1     -54.038   2.243 -20.772  1.00  0.00    -0.350 N 
ATOM      7  H4  UNL     1     -54.707   3.011 -20.814  1.00  0.00     0.166 HD
HETATM    8  N5  UNL     1     -51.669   0.532 -18.549  1.00  0.00    -0.337 N 
ATOM      9  H5  UNL     1     -51.598   0.909 -17.604  1.00  0.00     0.167 HD
HETATM   10  C14 UNL     1     -50.955  -0.537 -19.013  1.00  0.00     0.142 A 
HETATM   11  N6  UNL     1     -51.304  -0.738 -20.277  1.00  0.00    -0.292 N 
ENDROOT
BRANCH   1  12
HETATM   12  N3  UNL     1     -54.629   1.724 -23.011  1.00  0.00    -0.328 N 
ATOM     13  H3  UNL     1     -55.177   2.582 -22.941  1.00  0.00     0.169 HD
BRANCH  12  14
HETATM   14  C8  UNL     1     -54.813   1.036 -24.213  1.00  0.00     0.123 A 
HETATM   15  C7  UNL     1     -55.983   1.008 -24.917  1.00  0.00     0.067 A 
HETATM   16  C6  UNL     1     -56.058   0.223 -26.062  1.00  0.00     0.110 A 
HETATM   17  N2  UNL     1     -55.020  -0.494 -26.485  1.00  0.00    -0.202 N 
HETATM   18  C5  UNL     1     -53.846  -0.482 -25.806  1.00  0.00     0.681 A 
ATOM     19  H2  UNL     1     -55.109  -1.059 -27.330  1.00  0.00     0.183 HD
HETATM   20  N7  UNL     1     -53.795   0.271 -24.718  1.00  0.00    -0.176 N 
ATOM     21  H7  UNL     1     -52.914   0.281 -24.206  1.00  0.00     0.186 HD
BRANCH  18  22
HETATM   22  N1  UNL     1     -52.724  -1.247 -26.252  1.00  0.00    -0.215 N 
HETATM   23  C4  UNL     1     -52.960  -2.237 -27.281  1.00  0.00     0.144 C 
HETATM   24  C3  UNL     1     -51.699  -2.609 -28.029  1.00  0.00     0.055 C 
HETATM   25  C2  UNL     1     -50.645  -2.912 -26.987  1.00  0.00     0.158 C 
HETATM   26  C21 UNL     1     -50.293  -1.633 -26.305  1.00  0.00     0.217 C 
HETATM   27  C20 UNL     1     -51.450  -0.973 -25.642  1.00  0.00     0.181 C 
HETATM   28  F4  UNL     1     -49.746  -0.736 -27.217  1.00  0.00    -0.245 F 
BRANCH  25  29
HETATM   29  O1  UNL     1     -49.543  -3.548 -27.496  1.00  0.00    -0.388 OA
HETATM   30  C1  UNL     1     -48.518  -3.715 -26.568  1.00  0.00     0.202 C 
ENDBRANCH  25  29
ENDBRANCH  18  22
ENDBRANCH  12  14
ENDBRANCH   1  12
BRANCH  11  31
HETATM   31  C17 UNL     1     -50.824  -1.729 -21.187  1.00  0.00     0.098 C 
HETATM   32  C18 UNL     1     -49.418  -1.484 -21.707  1.00  0.00     0.073 C 
BRANCH  31  33
HETATM   33  C19 UNL     1     -51.080  -3.158 -20.839  1.00  0.00     0.428 C 
HETATM   34  F1  UNL     1     -52.276  -3.237 -20.113  1.00  0.00    -0.165 F 
HETATM   35  F2  UNL     1     -51.420  -3.872 -22.018  1.00  0.00    -0.165 F 
HETATM   36  F3  UNL     1     -50.060  -3.866 -20.317  1.00  0.00    -0.165 F 
ENDBRANCH  31  33
ENDBRANCH  11  31
BRANCH  10  37
HETATM   37  C15 UNL     1     -49.991  -1.246 -18.146  1.00  0.00     0.084 C 
HETATM   38  C16 UNL     1     -50.601  -2.391 -17.362  1.00  0.00     0.080 C 
BRANCH  37  39
HETATM   39  O2  UNL     1     -48.754  -1.484 -18.661  1.00  0.00    -0.361 OA
ATOM     40  H2  UNL     1     -48.088  -1.793 -18.058  1.00  0.00     0.217 HD
ENDBRANCH  37  39
ENDBRANCH  10  37
TORSDOF 8
ENDMDL
