MODEL 3
REMARK VINA RESULT: -8.386578415      1.065      1.367
REMARK  8 active torsions:
REMARK  status: ('A' for Active; 'I' for Inactive)
REMARK    1  A    between atoms: O1_2  and  C2_3 
REMARK    2  A    between atoms: N1_6  and  C5_7 
REMARK    3  A    between atoms: C8_12  and  N3_13 
REMARK    4  A    between atoms: N3_13  and  C9_15 
REMARK    5  A    between atoms: C14_24  and  C15_25 
REMARK    6  A    between atoms: C15_25  and  O2_27 
REMARK    7  A    between atoms: N6_29  and  C17_30 
REMARK    8  A    between atoms: C17_30  and  C19_32 
ROOT
HETATM    1  C9  UNL     1     -53.742   1.501 -21.884  1.00  0.00     0.108 A 
HETATM    2  C10 UNL     1     -52.770   0.582 -21.655  1.00  0.00     0.081 A 
HETATM    3  C11 UNL     1     -52.147   0.396 -20.409  1.00  0.00     0.072 A 
HETATM    4  C12 UNL     1     -52.534   1.184 -19.364  1.00  0.00     0.077 A 
HETATM    5  C13 UNL     1     -53.515   2.119 -19.588  1.00  0.00     0.121 A 
HETATM    6  N4  UNL     1     -54.084   2.265 -20.785  1.00  0.00    -0.350 N 
ATOM      7  H4  UNL     1     -54.808   2.975 -20.894  1.00  0.00     0.166 HD
HETATM    8  N5  UNL     1     -51.778   0.776 -18.346  1.00  0.00    -0.337 N 
ATOM      9  H5  UNL     1     -51.817   1.166 -17.404  1.00  0.00     0.167 HD
HETATM   10  C14 UNL     1     -50.942  -0.235 -18.733  1.00  0.00     0.142 A 
HETATM   11  N6  UNL     1     -51.167  -0.476 -20.018  1.00  0.00    -0.292 N 
ENDROOT
BRANCH   1  12
HETATM   12  N3  UNL     1     -54.441   1.679 -23.056  1.00  0.00    -0.328 N 
ATOM     13  H3  UNL     1     -55.018   2.521 -23.066  1.00  0.00     0.169 HD
BRANCH  12  14
HETATM   14  C8  UNL     1     -54.515   0.933 -24.235  1.00  0.00     0.123 A 
HETATM   15  C7  UNL     1     -55.593   0.917 -25.074  1.00  0.00     0.067 A 
HETATM   16  C6  UNL     1     -55.570   0.073 -26.178  1.00  0.00     0.110 A 
HETATM   17  N2  UNL     1     -54.528  -0.713 -26.434  1.00  0.00    -0.202 N 
HETATM   18  C5  UNL     1     -53.443  -0.714 -25.618  1.00  0.00     0.681 A 
ATOM     19  H2  UNL     1     -54.543  -1.320 -27.253  1.00  0.00     0.183 HD
HETATM   20  N7  UNL     1     -53.485   0.096 -24.572  1.00  0.00    -0.176 N 
ATOM     21  H7  UNL     1     -52.672   0.096 -23.957  1.00  0.00     0.186 HD
BRANCH  18  22
HETATM   22  N1  UNL     1     -52.318  -1.553 -25.884  1.00  0.00    -0.215 N 
HETATM   23  C4  UNL     1     -51.269  -1.014 -26.724  1.00  0.00     0.144 C 
HETATM   24  C3  UNL     1     -49.948  -1.725 -26.532  1.00  0.00     0.055 C 
HETATM   25  C2  UNL     1     -50.231  -3.209 -26.622  1.00  0.00     0.158 C 
HETATM   26  C21 UNL     1     -51.026  -3.597 -25.420  1.00  0.00     0.217 C 
HETATM   27  C20 UNL     1     -52.316  -2.867 -25.298  1.00  0.00     0.181 C 
HETATM   28  F4  UNL     1     -50.289  -3.374 -24.262  1.00  0.00    -0.245 F 
BRANCH  25  29
HETATM   29  O1  UNL     1     -49.102  -3.971 -26.764  1.00  0.00    -0.388 OA
HETATM   30  C1  UNL     1     -48.209  -3.474 -27.710  1.00  0.00     0.202 C 
ENDBRANCH  25  29
ENDBRANCH  18  22
ENDBRANCH  12  14
ENDBRANCH   1  12
BRANCH  11  31
HETATM   31  C17 UNL     1     -50.534  -1.431 -20.869  1.00  0.00     0.098 C 
HETATM   32  C18 UNL     1     -51.435  -2.563 -21.333  1.00  0.00     0.073 C 
BRANCH  31  33
HETATM   33  C19 UNL     1     -49.650  -0.904 -21.951  1.00  0.00     0.428 C 
HETATM   34  F1  UNL     1     -48.920   0.181 -21.447  1.00  0.00    -0.165 F 
HETATM   35  F2  UNL     1     -48.616  -1.842 -22.208  1.00  0.00    -0.165 F 
HETATM   36  F3  UNL     1     -50.202  -0.694 -23.161  1.00  0.00    -0.165 F 
ENDBRANCH  31  33
ENDBRANCH  11  31
BRANCH  10  37
HETATM   37  C15 UNL     1     -50.001  -0.854 -17.778  1.00  0.00     0.084 C 
HETATM   38  C16 UNL     1     -50.672  -1.715 -16.726  1.00  0.00     0.080 C 
BRANCH  37  39
HETATM   39  O2  UNL     1     -48.841  -1.353 -18.288  1.00  0.00    -0.361 OA
ATOM     40  H2  UNL     1     -48.566  -2.207 -17.977  1.00  0.00     0.217 HD
ENDBRANCH  37  39
ENDBRANCH  10  37
TORSDOF 8
ENDMDL
