MODEL 4
REMARK VINA RESULT: -8.128506372      1.630      1.969
REMARK  8 active torsions:
REMARK  status: ('A' for Active; 'I' for Inactive)
REMARK    1  A    between atoms: O1_2  and  C2_3 
REMARK    2  A    between atoms: N1_6  and  C5_7 
REMARK    3  A    between atoms: C8_12  and  N3_13 
REMARK    4  A    between atoms: N3_13  and  C9_15 
REMARK    5  A    between atoms: C14_24  and  C15_25 
REMARK    6  A    between atoms: C15_25  and  O2_27 
REMARK    7  A    between atoms: N6_29  and  C17_30 
REMARK    8  A    between atoms: C17_30  and  C19_32 
ROOT
HETATM    1  C9  UNL     1     -53.833   1.542 -21.827  1.00  0.00     0.108 A 
HETATM    2  C10 UNL     1     -52.865   0.643 -21.519  1.00  0.00     0.081 A 
HETATM    3  C11 UNL     1     -52.266   0.540 -20.253  1.00  0.00     0.072 A 
HETATM    4  C12 UNL     1     -52.672   1.394 -19.269  1.00  0.00     0.077 A 
HETATM    5  C13 UNL     1     -53.650   2.310 -19.573  1.00  0.00     0.121 A 
HETATM    6  N4  UNL     1     -54.197   2.376 -20.786  1.00  0.00    -0.350 N 
ATOM      7  H4  UNL     1     -54.919   3.076 -20.956  1.00  0.00     0.166 HD
HETATM    8  N5  UNL     1     -51.935   1.055 -18.212  1.00  0.00    -0.337 N 
ATOM      9  H5  UNL     1     -51.992   1.506 -17.299  1.00  0.00     0.167 HD
HETATM   10  C14 UNL     1     -51.092   0.023 -18.516  1.00  0.00     0.142 A 
HETATM   11  N6  UNL     1     -51.292  -0.302 -19.787  1.00  0.00    -0.292 N 
ENDROOT
BRANCH   1  12
HETATM   12  N3  UNL     1     -54.510   1.642 -23.021  1.00  0.00    -0.328 N 
ATOM     13  H3  UNL     1     -55.172   2.418 -23.054  1.00  0.00     0.169 HD
BRANCH  12  14
HETATM   14  C8  UNL     1     -54.469   0.888 -24.196  1.00  0.00     0.123 A 
HETATM   15  C7  UNL     1     -55.507   0.766 -25.075  1.00  0.00     0.067 A 
HETATM   16  C6  UNL     1     -55.363  -0.076 -26.171  1.00  0.00     0.110 A 
HETATM   17  N2  UNL     1     -54.241  -0.759 -26.383  1.00  0.00    -0.202 N 
HETATM   18  C5  UNL     1     -53.194  -0.655 -25.527  1.00  0.00     0.681 A 
ATOM     19  H2  UNL     1     -54.168  -1.368 -27.198  1.00  0.00     0.183 HD
HETATM   20  N7  UNL     1     -53.352   0.151 -24.488  1.00  0.00    -0.176 N 
ATOM     21  H7  UNL     1     -52.566   0.231 -23.844  1.00  0.00     0.186 HD
BRANCH  18  22
HETATM   22  N1  UNL     1     -51.984  -1.383 -25.745  1.00  0.00    -0.215 N 
HETATM   23  C4  UNL     1     -51.340  -1.236 -27.033  1.00  0.00     0.144 C 
HETATM   24  C3  UNL     1     -49.873  -1.601 -26.995  1.00  0.00     0.055 C 
HETATM   25  C2  UNL     1     -49.773  -2.944 -26.305  1.00  0.00     0.158 C 
HETATM   26  C21 UNL     1     -50.132  -2.751 -24.871  1.00  0.00     0.217 C 
HETATM   27  C20 UNL     1     -51.502  -2.206 -24.667  1.00  0.00     0.181 C 
HETATM   28  F4  UNL     1     -49.227  -1.890 -24.259  1.00  0.00    -0.245 F 
BRANCH  25  29
HETATM   29  O1  UNL     1     -48.551  -3.544 -26.457  1.00  0.00    -0.388 OA
HETATM   30  C1  UNL     1     -48.162  -3.691 -27.786  1.00  0.00     0.202 C 
ENDBRANCH  25  29
ENDBRANCH  18  22
ENDBRANCH  12  14
ENDBRANCH   1  12
BRANCH  11  31
HETATM   31  C17 UNL     1     -50.642  -1.310 -20.561  1.00  0.00     0.098 C 
HETATM   32  C18 UNL     1     -49.137  -1.144 -20.683  1.00  0.00     0.073 C 
BRANCH  31  33
HETATM   33  C19 UNL     1     -51.060  -2.725 -20.330  1.00  0.00     0.428 C 
HETATM   34  F1  UNL     1     -52.383  -2.735 -19.871  1.00  0.00    -0.165 F 
HETATM   35  F2  UNL     1     -51.191  -3.383 -21.581  1.00  0.00    -0.165 F 
HETATM   36  F3  UNL     1     -50.220  -3.518 -19.637  1.00  0.00    -0.165 F 
ENDBRANCH  31  33
ENDBRANCH  11  31
BRANCH  10  37
HETATM   37  C15 UNL     1     -50.168  -0.530 -17.505  1.00  0.00     0.084 C 
HETATM   38  C16 UNL     1     -49.753   0.468 -16.443  1.00  0.00     0.080 C 
BRANCH  37  39
HETATM   39  O2  UNL     1     -50.425  -1.789 -17.055  1.00  0.00    -0.361 OA
ATOM     40  H2  UNL     1     -50.411  -1.922 -16.115  1.00  0.00     0.217 HD
ENDBRANCH  37  39
ENDBRANCH  10  37
TORSDOF 8
ENDMDL
