MODEL 1
REMARK VINA RESULT: -8.509307824      0.000      0.000
REMARK  8 active torsions:
REMARK  status: ('A' for Active; 'I' for Inactive)
REMARK    1  A    between atoms: O1_2  and  C2_3 
REMARK    2  A    between atoms: N1_6  and  C5_7 
REMARK    3  A    between atoms: C8_12  and  N3_13 
REMARK    4  A    between atoms: N3_13  and  C9_15 
REMARK    5  A    between atoms: C14_24  and  C15_25 
REMARK    6  A    between atoms: C15_25  and  O2_27 
REMARK    7  A    between atoms: N6_29  and  C17_30 
REMARK    8  A    between atoms: C17_30  and  C19_32 
ROOT
HETATM    1  C9  UNL     1     -53.736   1.450 -21.841  1.00  0.00     0.108 A 
HETATM    2  C10 UNL     1     -52.786   0.486 -21.754  1.00  0.00     0.081 A 
HETATM    3  C11 UNL     1     -52.100   0.167 -20.570  1.00  0.00     0.072 A 
HETATM    4  C12 UNL     1     -52.399   0.865 -19.437  1.00  0.00     0.077 A 
HETATM    5  C13 UNL     1     -53.358   1.846 -19.516  1.00  0.00     0.121 A 
HETATM    6  N4  UNL     1     -53.989   2.118 -20.658  1.00  0.00    -0.350 N 
ATOM      7  H4  UNL     1     -54.693   2.857 -20.659  1.00  0.00     0.166 HD
HETATM    8  N5  UNL     1     -51.601   0.343 -18.507  1.00  0.00    -0.337 N 
ATOM      9  H5  UNL     1     -51.573   0.645 -17.533  1.00  0.00     0.167 HD
HETATM   10  C14 UNL     1     -50.824  -0.651 -19.033  1.00  0.00     0.142 A 
HETATM   11  N6  UNL     1     -51.130  -0.765 -20.319  1.00  0.00    -0.292 N 
ENDROOT
BRANCH   1  12
HETATM   12  N3  UNL     1     -54.495   1.756 -22.948  1.00  0.00    -0.328 N 
ATOM     13  H3  UNL     1     -54.954   2.665 -22.892  1.00  0.00     0.169 HD
BRANCH  12  14
HETATM   14  C8  UNL     1     -54.757   1.066 -24.134  1.00  0.00     0.123 A 
HETATM   15  C7  UNL     1     -55.976   1.021 -24.749  1.00  0.00     0.067 A 
HETATM   16  C6  UNL     1     -56.124   0.235 -25.886  1.00  0.00     0.110 A 
HETATM   17  N2  UNL     1     -55.110  -0.468 -26.385  1.00  0.00    -0.202 N 
HETATM   18  C5  UNL     1     -53.889  -0.439 -25.795  1.00  0.00     0.681 A 
ATOM     19  H2  UNL     1     -55.253  -1.034 -27.222  1.00  0.00     0.183 HD
HETATM   20  N7  UNL     1     -53.769   0.314 -24.712  1.00  0.00    -0.176 N 
ATOM     21  H7  UNL     1     -52.853   0.337 -24.267  1.00  0.00     0.186 HD
BRANCH  18  22
HETATM   22  N1  UNL     1     -52.793  -1.189 -26.323  1.00  0.00    -0.215 N 
HETATM   23  C4  UNL     1     -53.085  -2.157 -27.358  1.00  0.00     0.144 C 
HETATM   24  C3  UNL     1     -51.870  -2.507 -28.187  1.00  0.00     0.055 C 
HETATM   25  C2  UNL     1     -50.754  -2.827 -27.215  1.00  0.00     0.158 C 
HETATM   26  C21 UNL     1     -50.368  -1.561 -26.528  1.00  0.00     0.217 C 
HETATM   27  C20 UNL     1     -51.486  -0.922 -25.783  1.00  0.00     0.181 C 
HETATM   28  F4  UNL     1     -49.878  -0.642 -27.450  1.00  0.00    -0.245 F 
BRANCH  25  29
HETATM   29  O1  UNL     1     -49.682  -3.446 -27.802  1.00  0.00    -0.388 OA
HETATM   30  C1  UNL     1     -48.608  -3.640 -26.937  1.00  0.00     0.202 C 
ENDBRANCH  25  29
ENDBRANCH  18  22
ENDBRANCH  12  14
ENDBRANCH   1  12
BRANCH  11  31
HETATM   31  C17 UNL     1     -50.579  -1.656 -21.289  1.00  0.00     0.098 C 
HETATM   32  C18 UNL     1     -51.605  -2.486 -22.042  1.00  0.00     0.073 C 
BRANCH  31  33
HETATM   33  C19 UNL     1     -49.495  -1.125 -22.168  1.00  0.00     0.428 C 
HETATM   34  F1  UNL     1     -50.080  -0.449 -23.246  1.00  0.00    -0.165 F 
HETATM   35  F2  UNL     1     -48.829  -0.065 -21.499  1.00  0.00    -0.165 F 
HETATM   36  F3  UNL     1     -48.500  -1.967 -22.508  1.00  0.00    -0.165 F 
ENDBRANCH  31  33
ENDBRANCH  11  31
BRANCH  10  37
HETATM   37  C15 UNL     1     -49.852  -1.384 -18.196  1.00  0.00     0.084 C 
HETATM   38  C16 UNL     1     -50.434  -2.597 -17.499  1.00  0.00     0.080 C 
BRANCH  37  39
HETATM   39  O2  UNL     1     -48.599  -1.546 -18.703  1.00  0.00    -0.361 OA
ATOM     40  H2  UNL     1     -47.873  -1.281 -18.150  1.00  0.00     0.217 HD
ENDBRANCH  37  39
ENDBRANCH  10  37
TORSDOF 8
ENDMDL
