MODEL 9
REMARK VINA RESULT: -5.636888994      2.856      6.649
REMARK  6 active torsions:
REMARK  status: ('A' for Active; 'I' for Inactive)
REMARK    1  A    between atoms: N1_1  and  C1_5 
REMARK    2  A    between atoms: C1_5  and  C2_6 
REMARK    3  A    between atoms: C1_5  and  P1_12 
REMARK    4  A    between atoms: P1_12  and  C8_15 
REMARK    5  A    between atoms: C8_15  and  C9_16 
REMARK    6  A    between atoms: C9_16  and  C10_17 
ROOT
HETATM    1  C1  UNL     1     172.542  14.015  84.563  1.00  0.00     0.306 C 
ENDROOT
BRANCH   1   2
HETATM    2  N1  UNL     1     171.898  13.347  85.683  1.00  0.00    -0.061 N 
ATOM      3  H13 UNL     1     171.202  12.659  85.396  1.00  0.00     0.275 HD
ATOM      4  H12 UNL     1     172.516  12.705  86.179  1.00  0.00     0.275 HD
ATOM      5  H11 UNL     1     171.517  14.082  86.280  1.00  0.00     0.275 HD
ENDBRANCH   1   2
BRANCH   1   6
HETATM    6  C2  UNL     1     171.690  15.164  84.212  1.00  0.00    -0.018 A 
HETATM    7  C3  UNL     1     170.840  15.001  83.109  1.00  0.00     0.010 A 
HETATM    8  C4  UNL     1     169.992  16.000  82.687  1.00  0.00     0.001 A 
HETATM    9  C5  UNL     1     169.948  17.208  83.338  1.00  0.00     0.000 A 
HETATM   10  C6  UNL     1     170.779  17.378  84.422  1.00  0.00     0.001 A 
HETATM   11  C7  UNL     1     171.620  16.366  84.829  1.00  0.00     0.010 A 
ENDBRANCH   1   6
BRANCH   1  12
HETATM   12  P1  UNL     1     174.243  14.356  84.693  1.00  0.00     0.142 P 
HETATM   13  O1  UNL     1     174.598  12.994  85.428  1.00  0.00    -0.666 OA
HETATM   14  O2  UNL     1     174.322  15.440  83.624  1.00  0.00    -0.666 OA
BRANCH  12  15
HETATM   15  C8  UNL     1     174.797  15.372  85.983  1.00  0.00     0.116 C 
BRANCH  15  16
HETATM   16  C9  UNL     1     175.607  16.606  85.649  1.00  0.00     0.123 C 
BRANCH  16  17
HETATM   17  C10 UNL     1     177.048  16.453  85.783  1.00  0.00     0.173 C 
HETATM   18  O3  UNL     1     177.651  16.982  86.758  1.00  0.00    -0.648 OA
HETATM   19  O4  UNL     1     177.818  15.739  84.878  1.00  0.00    -0.648 OA
ENDBRANCH  16  17
ENDBRANCH  15  16
ENDBRANCH  12  15
ENDBRANCH   1  12
TORSDOF 6
ENDMDL
