MODEL 1
REMARK VINA RESULT: -5.945418919      0.000      0.000
REMARK  6 active torsions:
REMARK  status: ('A' for Active; 'I' for Inactive)
REMARK    1  A    between atoms: N1_1  and  C1_5 
REMARK    2  A    between atoms: C1_5  and  C2_6 
REMARK    3  A    between atoms: C1_5  and  P1_12 
REMARK    4  A    between atoms: P1_12  and  C8_15 
REMARK    5  A    between atoms: C8_15  and  C9_16 
REMARK    6  A    between atoms: C9_16  and  C10_17 
ROOT
HETATM    1  C1  UNL     1     177.171  15.470  84.957  1.00  0.00     0.306 C 
ENDROOT
BRANCH   1   2
HETATM    2  N1  UNL     1     177.187  14.197  84.254  1.00  0.00    -0.061 N 
ATOM      3  H13 UNL     1     176.367  13.621  84.445  1.00  0.00     0.275 HD
ATOM      4  H12 UNL     1     177.046  14.291  83.248  1.00  0.00     0.275 HD
ATOM      5  H11 UNL     1     178.067  13.741  84.497  1.00  0.00     0.275 HD
ENDBRANCH   1   2
BRANCH   1   6
HETATM    6  C2  UNL     1     178.503  16.071  84.770  1.00  0.00    -0.018 A 
HETATM    7  C3  UNL     1     179.284  16.237  85.922  1.00  0.00     0.010 A 
HETATM    8  C4  UNL     1     180.548  16.781  85.875  1.00  0.00     0.001 A 
HETATM    9  C5  UNL     1     181.096  17.186  84.684  1.00  0.00     0.000 A 
HETATM   10  C6  UNL     1     180.337  17.027  83.547  1.00  0.00     0.001 A 
HETATM   11  C7  UNL     1     179.075  16.480  83.614  1.00  0.00     0.010 A 
ENDBRANCH   1   6
BRANCH   1  12
HETATM   12  P1  UNL     1     175.824  16.533  84.677  1.00  0.00     0.142 P 
HETATM   13  O1  UNL     1     175.979  17.312  86.052  1.00  0.00    -0.666 OA
HETATM   14  O2  UNL     1     175.722  16.350  83.167  1.00  0.00    -0.666 OA
BRANCH  12  15
HETATM   15  C8  UNL     1     174.222  15.960  85.009  1.00  0.00     0.116 C 
BRANCH  15  16
HETATM   16  C9  UNL     1     173.659  14.830  84.173  1.00  0.00     0.123 C 
BRANCH  16  17
HETATM   17  C10 UNL     1     173.623  13.534  84.833  1.00  0.00     0.173 C 
HETATM   18  O3  UNL     1     172.542  12.884  84.890  1.00  0.00    -0.648 OA
HETATM   19  O4  UNL     1     174.738  12.955  85.419  1.00  0.00    -0.648 OA
ENDBRANCH  16  17
ENDBRANCH  15  16
ENDBRANCH  12  15
ENDBRANCH   1  12
TORSDOF 6
ENDMDL
