MODEL 7
REMARK VINA RESULT: -5.727968861      1.154      1.859
REMARK  6 active torsions:
REMARK  status: ('A' for Active; 'I' for Inactive)
REMARK    1  A    between atoms: N1_1  and  C1_5 
REMARK    2  A    between atoms: C1_5  and  C2_6 
REMARK    3  A    between atoms: C1_5  and  P1_12 
REMARK    4  A    between atoms: P1_12  and  C8_15 
REMARK    5  A    between atoms: C8_15  and  C9_16 
REMARK    6  A    between atoms: C9_16  and  C10_17 
ROOT
HETATM    1  C1  UNL     1     176.810  15.192  84.503  1.00  0.00     0.306 C 
ENDROOT
BRANCH   1   2
HETATM    2  N1  UNL     1     177.183  14.705  83.184  1.00  0.00    -0.061 N 
ATOM      3  H13 UNL     1     176.535  14.993  82.450  1.00  0.00     0.275 HD
ATOM      4  H12 UNL     1     178.013  15.160  82.806  1.00  0.00     0.275 HD
ATOM      5  H11 UNL     1     177.278  13.692  83.263  1.00  0.00     0.275 HD
ENDBRANCH   1   2
BRANCH   1   6
HETATM    6  C2  UNL     1     177.985  15.905  85.035  1.00  0.00    -0.018 A 
HETATM    7  C3  UNL     1     179.151  15.862  84.259  1.00  0.00     0.010 A 
HETATM    8  C4  UNL     1     180.310  16.494  84.647  1.00  0.00     0.001 A 
HETATM    9  C5  UNL     1     180.368  17.198  85.823  1.00  0.00     0.000 A 
HETATM   10  C6  UNL     1     179.228  17.247  86.593  1.00  0.00     0.001 A 
HETATM   11  C7  UNL     1     178.078  16.608  86.188  1.00  0.00     0.010 A 
ENDBRANCH   1   6
BRANCH   1  12
HETATM   12  P1  UNL     1     175.294  16.027  84.659  1.00  0.00     0.142 P 
HETATM   13  O1  UNL     1     174.992  15.488  86.122  1.00  0.00    -0.666 OA
HETATM   14  O2  UNL     1     175.506  17.057  83.555  1.00  0.00    -0.666 OA
BRANCH  12  15
HETATM   15  C8  UNL     1     173.876  15.329  83.947  1.00  0.00     0.116 C 
BRANCH  15  16
HETATM   16  C9  UNL     1     172.632  15.168  84.794  1.00  0.00     0.123 C 
BRANCH  16  17
HETATM   17  C10 UNL     1     172.065  13.828  84.807  1.00  0.00     0.173 C 
HETATM   18  O3  UNL     1     172.818  12.824  84.949  1.00  0.00    -0.648 OA
HETATM   19  O4  UNL     1     170.707  13.582  84.671  1.00  0.00    -0.648 OA
ENDBRANCH  16  17
ENDBRANCH  15  16
ENDBRANCH  12  15
ENDBRANCH   1  12
TORSDOF 6
ENDMDL
