MODEL 4
REMARK VINA RESULT: -5.849354446      0.118      1.419
REMARK  6 active torsions:
REMARK  status: ('A' for Active; 'I' for Inactive)
REMARK    1  A    between atoms: N1_1  and  C1_5 
REMARK    2  A    between atoms: C1_5  and  C2_6 
REMARK    3  A    between atoms: C1_5  and  P1_12 
REMARK    4  A    between atoms: P1_12  and  C8_15 
REMARK    5  A    between atoms: C8_15  and  C9_16 
REMARK    6  A    between atoms: C9_16  and  C10_17 
ROOT
HETATM    1  C1  UNL     1     177.236  15.431  84.981  1.00  0.00     0.306 C 
ENDROOT
BRANCH   1   2
HETATM    2  N1  UNL     1     177.304  14.210  84.193  1.00  0.00    -0.061 N 
ATOM      3  H13 UNL     1     176.958  13.390  84.690  1.00  0.00     0.275 HD
ATOM      4  H12 UNL     1     176.633  14.187  83.426  1.00  0.00     0.275 HD
ATOM      5  H11 UNL     1     178.272  14.116  83.885  1.00  0.00     0.275 HD
ENDBRANCH   1   2
BRANCH   1   6
HETATM    6  C2  UNL     1     178.580  16.031  84.945  1.00  0.00    -0.018 A 
HETATM    7  C3  UNL     1     179.079  16.379  83.682  1.00  0.00     0.010 A 
HETATM    8  C4  UNL     1     180.320  16.953  83.520  1.00  0.00     0.001 A 
HETATM    9  C5  UNL     1     181.124  17.208  84.602  1.00  0.00     0.000 A 
HETATM   10  C6  UNL     1     180.644  16.870  85.846  1.00  0.00     0.001 A 
HETATM   11  C7  UNL     1     179.400  16.297  85.988  1.00  0.00     0.010 A 
ENDBRANCH   1   6
BRANCH   1  12
HETATM   12  P1  UNL     1     175.920  16.524  84.667  1.00  0.00     0.142 P 
HETATM   13  O1  UNL     1     176.084  17.326  86.028  1.00  0.00    -0.666 OA
HETATM   14  O2  UNL     1     175.826  16.313  83.160  1.00  0.00    -0.666 OA
BRANCH  12  15
HETATM   15  C8  UNL     1     174.300  16.000  84.997  1.00  0.00     0.116 C 
BRANCH  15  16
HETATM   16  C9  UNL     1     173.716  14.866  84.182  1.00  0.00     0.123 C 
BRANCH  16  17
HETATM   17  C10 UNL     1     173.636  13.588  84.874  1.00  0.00     0.173 C 
HETATM   18  O3  UNL     1     174.665  13.098  85.416  1.00  0.00    -0.648 OA
HETATM   19  O4  UNL     1     172.462  12.858  84.976  1.00  0.00    -0.648 OA
ENDBRANCH  16  17
ENDBRANCH  15  16
ENDBRANCH  12  15
ENDBRANCH   1  12
TORSDOF 6
ENDMDL
