MODEL 3
REMARK VINA RESULT: -8.927008606      1.919      6.366
REMARK  6 active torsions:
REMARK  status: ('A' for Active; 'I' for Inactive)
REMARK    1  A    between atoms: N1_1  and  C1_5 
REMARK    2  A    between atoms: C1_5  and  C2_6 
REMARK    3  A    between atoms: C1_5  and  C14_24 
REMARK    4  A    between atoms: C2_6  and  C3_7 
REMARK    5  A    between atoms: C7_13  and  C8_14 
REMARK    6  A    between atoms: C11_19  and  O1_20 
ROOT
HETATM    1  C3  UNL     1       8.466  14.681  52.634  1.00  0.00    -0.053 A 
HETATM    2  C4  UNL     1       9.367  13.634  52.735  1.00  0.00     0.032 A 
HETATM    3  C5  UNL     1       9.750  12.871  51.651  1.00  0.00     0.057 A 
HETATM    4 CL1  UNL     1      10.883  11.556  51.795  1.00  0.00    -0.083 Cl
HETATM    5  C6  UNL     1       9.228  13.143  50.395  1.00  0.00     0.067 A 
HETATM    6 CL2  UNL     1       9.723  12.161  49.030  1.00  0.00    -0.082 Cl
HETATM    7  C7  UNL     1       8.331  14.180  50.270  1.00  0.00    -0.001 A 
HETATM    8  C13 UNL     1       7.965  14.927  51.374  1.00  0.00     0.021 A 
ENDROOT
BRANCH   1   9
HETATM    9  C2  UNL     1       8.104  15.447  53.849  1.00  0.00     0.082 C 
BRANCH   9  10
HETATM   10  C1  UNL     1       8.374  16.929  53.729  1.00  0.00     0.287 C 
BRANCH  10  11
HETATM   11  N1  UNL     1       9.202  17.357  54.836  1.00  0.00    -0.065 N 
ATOM     12  H13 UNL     1       8.653  17.564  55.670  1.00  0.00     0.275 HD
ATOM     13  H12 UNL     1       9.762  16.594  55.216  1.00  0.00     0.275 HD
ATOM     14  H11 UNL     1       9.775  18.148  54.544  1.00  0.00     0.275 HD
ENDBRANCH  10  11
BRANCH  10  15
HETATM   15  C14 UNL     1       7.150  17.745  53.710  1.00  0.00     0.204 C 
HETATM   16  O2  UNL     1       6.369  17.676  52.734  1.00  0.00    -0.646 OA
HETATM   17  O3  UNL     1       6.854  18.585  54.754  1.00  0.00    -0.646 OA
ENDBRANCH  10  15
ENDBRANCH   9  10
ENDBRANCH   1   9
BRANCH   7  18
HETATM   18  C8  UNL     1       7.781  14.477  48.955  1.00  0.00    -0.006 A 
HETATM   19  C9  UNL     1       7.635  15.745  48.439  1.00  0.00     0.100 A 
HETATM   20  N2  UNL     1       7.120  15.979  47.208  1.00  0.00    -0.372 N 
HETATM   21  C10 UNL     1       6.719  14.972  46.415  1.00  0.00     0.124 A 
ATOM     22  H2  UNL     1       7.035  16.940  46.877  1.00  0.00     0.164 HD
HETATM   23  C11 UNL     1       6.841  13.683  46.877  1.00  0.00     0.081 A 
HETATM   24  C12 UNL     1       7.367  13.431  48.139  1.00  0.00     0.051 A 
BRANCH  23  25
HETATM   25  O1  UNL     1       6.423  12.629  46.050  1.00  0.00    -0.359 OA
ATOM     26  H1  UNL     1       6.928  11.825  46.047  1.00  0.00     0.217 HD
ENDBRANCH  23  25
ENDBRANCH   7  18
TORSDOF 6
ENDMDL
