MODEL 4
REMARK VINA RESULT: -8.525173461      2.015      6.168
REMARK  6 active torsions:
REMARK  status: ('A' for Active; 'I' for Inactive)
REMARK    1  A    between atoms: N1_1  and  C1_5 
REMARK    2  A    between atoms: C1_5  and  C2_6 
REMARK    3  A    between atoms: C1_5  and  C14_24 
REMARK    4  A    between atoms: C2_6  and  C3_7 
REMARK    5  A    between atoms: C7_13  and  C8_14 
REMARK    6  A    between atoms: C11_19  and  O1_20 
ROOT
HETATM    1  C3  UNL     1       8.449  14.691  52.674  1.00  0.00    -0.053 A 
HETATM    2  C4  UNL     1       9.336  13.634  52.794  1.00  0.00     0.032 A 
HETATM    3  C5  UNL     1       9.729  12.863  51.718  1.00  0.00     0.057 A 
HETATM    4 CL1  UNL     1      10.846  11.537  51.886  1.00  0.00    -0.083 Cl
HETATM    5  C6  UNL     1       9.230  13.135  50.453  1.00  0.00     0.067 A 
HETATM    6 CL2  UNL     1       9.736  12.142  49.100  1.00  0.00    -0.082 Cl
HETATM    7  C7  UNL     1       8.346  14.181  50.310  1.00  0.00    -0.001 A 
HETATM    8  C13 UNL     1       7.970  14.937  51.405  1.00  0.00     0.021 A 
ENDROOT
BRANCH   1   9
HETATM    9  C2  UNL     1       8.075  15.465  53.879  1.00  0.00     0.082 C 
BRANCH   9  10
HETATM   10  C1  UNL     1       8.356  16.945  53.755  1.00  0.00     0.287 C 
BRANCH  10  11
HETATM   11  N1  UNL     1       9.208  17.365  54.846  1.00  0.00    -0.065 N 
ATOM     12  H13 UNL     1       9.002  16.865  55.711  1.00  0.00     0.275 HD
ATOM     13  H12 UNL     1      10.172  17.054  54.724  1.00  0.00     0.275 HD
ATOM     14  H11 UNL     1       9.140  18.376  54.959  1.00  0.00     0.275 HD
ENDBRANCH  10  11
BRANCH  10  15
HETATM   15  C14 UNL     1       7.138  17.771  53.760  1.00  0.00     0.204 C 
HETATM   16  O2  UNL     1       6.351  17.729  52.788  1.00  0.00    -0.646 OA
HETATM   17  O3  UNL     1       6.855  18.592  54.823  1.00  0.00    -0.646 OA
ENDBRANCH  10  15
ENDBRANCH   9  10
ENDBRANCH   1   9
BRANCH   7  18
HETATM   18  C8  UNL     1       7.820  14.478  48.985  1.00  0.00    -0.006 A 
HETATM   19  C9  UNL     1       7.333  13.533  48.110  1.00  0.00     0.100 A 
HETATM   20  N2  UNL     1       6.848  13.852  46.886  1.00  0.00    -0.372 N 
HETATM   21  C10 UNL     1       6.815  15.124  46.455  1.00  0.00     0.124 A 
ATOM     22  H2  UNL     1       6.501  13.110  46.278  1.00  0.00     0.164 HD
HETATM   23  C11 UNL     1       7.288  16.111  47.288  1.00  0.00     0.081 A 
HETATM   24  C12 UNL     1       7.788  15.796  48.545  1.00  0.00     0.051 A 
BRANCH  23  25
HETATM   25  O1  UNL     1       7.255  17.441  46.840  1.00  0.00    -0.359 OA
ATOM     26  H1  UNL     1       6.929  18.111  47.429  1.00  0.00     0.217 HD
ENDBRANCH  23  25
ENDBRANCH   7  18
TORSDOF 6
ENDMDL
