MODEL 2
REMARK VINA RESULT: -8.941683140      1.168      1.385
REMARK  6 active torsions:
REMARK  status: ('A' for Active; 'I' for Inactive)
REMARK    1  A    between atoms: N1_1  and  C1_5 
REMARK    2  A    between atoms: C1_5  and  C2_6 
REMARK    3  A    between atoms: C1_5  and  C14_24 
REMARK    4  A    between atoms: C2_6  and  C3_7 
REMARK    5  A    between atoms: C7_13  and  C8_14 
REMARK    6  A    between atoms: C11_19  and  O1_20 
ROOT
HETATM    1  C3  UNL     1       8.527  13.779  49.165  1.00  0.00    -0.053 A 
HETATM    2  C4  UNL     1       9.306  12.687  49.510  1.00  0.00     0.032 A 
HETATM    3  C5  UNL     1       9.834  12.516  50.773  1.00  0.00     0.057 A 
HETATM    4 CL1  UNL     1      10.813  11.137  51.191  1.00  0.00    -0.083 Cl
HETATM    5  C6  UNL     1       9.591  13.461  51.759  1.00  0.00     0.067 A 
HETATM    6 CL2  UNL     1      10.275  13.230  53.356  1.00  0.00    -0.082 Cl
HETATM    7  C7  UNL     1       8.819  14.556  51.439  1.00  0.00    -0.001 A 
HETATM    8  C13 UNL     1       8.302  14.701  50.165  1.00  0.00     0.021 A 
ENDROOT
BRANCH   1   9
HETATM    9  C2  UNL     1       8.002  13.890  47.785  1.00  0.00     0.082 C 
BRANCH   9  10
HETATM   10  C1  UNL     1       6.667  13.207  47.591  1.00  0.00     0.287 C 
BRANCH  10  11
HETATM   11  N1  UNL     1       6.799  11.801  47.904  1.00  0.00    -0.065 N 
ATOM     12  H13 UNL     1       6.343  11.207  47.210  1.00  0.00     0.275 HD
ATOM     13  H12 UNL     1       7.754  11.465  47.778  1.00  0.00     0.275 HD
ATOM     14  H11 UNL     1       6.452  11.630  48.847  1.00  0.00     0.275 HD
ENDBRANCH  10  11
BRANCH  10  15
HETATM   15  C14 UNL     1       6.137  13.342  46.226  1.00  0.00     0.204 C 
HETATM   16  O2  UNL     1       6.757  12.837  45.263  1.00  0.00    -0.646 OA
HETATM   17  O3  UNL     1       4.966  14.019  45.995  1.00  0.00    -0.646 OA
ENDBRANCH  10  15
ENDBRANCH   9  10
ENDBRANCH   1   9
BRANCH   7  18
HETATM   18  C8  UNL     1       8.554  15.552  52.467  1.00  0.00    -0.006 A 
HETATM   19  C9  UNL     1       9.349  15.763  53.572  1.00  0.00     0.100 A 
HETATM   20  N2  UNL     1       9.068  16.704  54.505  1.00  0.00    -0.372 N 
HETATM   21  C10 UNL     1       7.986  17.492  54.401  1.00  0.00     0.124 A 
ATOM     22  H2  UNL     1       9.692  16.815  55.304  1.00  0.00     0.164 HD
HETATM   23  C11 UNL     1       7.156  17.328  53.317  1.00  0.00     0.081 A 
HETATM   24  C12 UNL     1       7.433  16.365  52.354  1.00  0.00     0.051 A 
BRANCH  23  25
HETATM   25  O1  UNL     1       6.025  18.150  53.206  1.00  0.00    -0.359 OA
ATOM     26  H1  UNL     1       5.703  18.590  53.984  1.00  0.00     0.217 HD
ENDBRANCH  23  25
ENDBRANCH   7  18
TORSDOF 6
ENDMDL
