MODEL 5
REMARK VINA RESULT: -8.093639834      3.720      5.923
REMARK  6 active torsions:
REMARK  status: ('A' for Active; 'I' for Inactive)
REMARK    1  A    between atoms: N1_1  and  C1_5 
REMARK    2  A    between atoms: C1_5  and  C2_6 
REMARK    3  A    between atoms: C1_5  and  C14_24 
REMARK    4  A    between atoms: C2_6  and  C3_7 
REMARK    5  A    between atoms: C7_13  and  C8_14 
REMARK    6  A    between atoms: C11_19  and  O1_20 
ROOT
HETATM    1  C3  UNL     1       8.882  14.567  52.226  1.00  0.00    -0.053 A 
HETATM    2  C4  UNL     1       8.221  15.341  53.165  1.00  0.00     0.032 A 
HETATM    3  C5  UNL     1       7.436  16.423  52.821  1.00  0.00     0.057 A 
HETATM    4 CL1  UNL     1       6.611  17.388  54.014  1.00  0.00    -0.083 Cl
HETATM    5  C6  UNL     1       7.285  16.773  51.487  1.00  0.00     0.067 A 
HETATM    6 CL2  UNL     1       6.289  18.153  51.070  1.00  0.00    -0.082 Cl
HETATM    7  C7  UNL     1       7.933  16.018  50.536  1.00  0.00    -0.001 A 
HETATM    8  C13 UNL     1       8.713  14.939  50.909  1.00  0.00     0.021 A 
ENDROOT
BRANCH   1   9
HETATM    9  C2  UNL     1       9.709  13.426  52.679  1.00  0.00     0.082 C 
BRANCH   9  10
HETATM   10  C1  UNL     1       9.454  12.153  51.905  1.00  0.00     0.287 C 
BRANCH  10  11
HETATM   11  N1  UNL     1       9.183  11.075  52.831  1.00  0.00    -0.065 N 
ATOM     12  H13 UNL     1       8.681  10.304  52.389  1.00  0.00     0.275 HD
ATOM     13  H12 UNL     1      10.028  10.568  53.091  1.00  0.00     0.275 HD
ATOM     14  H11 UNL     1       8.688  11.443  53.643  1.00  0.00     0.275 HD
ENDBRANCH  10  11
BRANCH  10  15
HETATM   15  C14 UNL     1      10.578  11.762  51.039  1.00  0.00     0.204 C 
HETATM   16  O2  UNL     1      11.460  10.988  51.472  1.00  0.00    -0.646 OA
HETATM   17  O3  UNL     1      10.670  12.242  49.756  1.00  0.00    -0.646 OA
ENDBRANCH  10  15
ENDBRANCH   9  10
ENDBRANCH   1   9
BRANCH   7  18
HETATM   18  C8  UNL     1       7.779  16.373  49.133  1.00  0.00    -0.006 A 
HETATM   19  C9  UNL     1       8.197  17.563  48.579  1.00  0.00     0.100 A 
HETATM   20  N2  UNL     1       8.037  17.854  47.266  1.00  0.00    -0.372 N 
HETATM   21  C10 UNL     1       7.455  16.986  46.423  1.00  0.00     0.124 A 
ATOM     22  H2  UNL     1       8.365  18.752  46.910  1.00  0.00     0.164 HD
HETATM   23  C11 UNL     1       7.018  15.780  46.919  1.00  0.00     0.081 A 
HETATM   24  C12 UNL     1       7.176  15.471  48.265  1.00  0.00     0.051 A 
BRANCH  23  25
HETATM   25  O1  UNL     1       6.409  14.872  46.040  1.00  0.00    -0.359 OA
ATOM     26  H1  UNL     1       6.171  14.012  46.366  1.00  0.00     0.217 HD
ENDBRANCH  23  25
ENDBRANCH   7  18
TORSDOF 6
ENDMDL
