MODEL 1
REMARK VINA RESULT: -9.377753874      0.000      0.000
REMARK  6 active torsions:
REMARK  status: ('A' for Active; 'I' for Inactive)
REMARK    1  A    between atoms: N1_1  and  C1_5 
REMARK    2  A    between atoms: C1_5  and  C2_6 
REMARK    3  A    between atoms: C1_5  and  C14_24 
REMARK    4  A    between atoms: C2_6  and  C3_7 
REMARK    5  A    between atoms: C7_13  and  C8_14 
REMARK    6  A    between atoms: C11_19  and  O1_20 
ROOT
HETATM    1  C3  UNL     1       8.627  13.603  49.248  1.00  0.00    -0.053 A 
HETATM    2  C4  UNL     1       9.449  12.599  49.732  1.00  0.00     0.032 A 
HETATM    3  C5  UNL     1       9.830  12.518  51.056  1.00  0.00     0.057 A 
HETATM    4 CL1  UNL     1      10.864  11.249  51.649  1.00  0.00    -0.083 Cl
HETATM    5  C6  UNL     1       9.386  13.470  51.962  1.00  0.00     0.067 A 
HETATM    6 CL2  UNL     1       9.884  13.356  53.639  1.00  0.00    -0.082 Cl
HETATM    7  C7  UNL     1       8.568  14.479  51.504  1.00  0.00    -0.001 A 
HETATM    8  C13 UNL     1       8.203  14.534  50.172  1.00  0.00     0.021 A 
ENDROOT
BRANCH   1   9
HETATM    9  C2  UNL     1       8.270  13.620  47.811  1.00  0.00     0.082 C 
BRANCH   9  10
HETATM   10  C1  UNL     1       6.855  13.163  47.537  1.00  0.00     0.287 C 
BRANCH  10  11
HETATM   11  N1  UNL     1       6.734  11.758  47.857  1.00  0.00    -0.065 N 
ATOM     12  H13 UNL     1       7.376  11.181  47.312  1.00  0.00     0.275 HD
ATOM     13  H12 UNL     1       7.096  11.541  48.786  1.00  0.00     0.275 HD
ATOM     14  H11 UNL     1       5.763  11.467  47.744  1.00  0.00     0.275 HD
ENDBRANCH  10  11
BRANCH  10  15
HETATM   15  C14 UNL     1       6.436  13.370  46.142  1.00  0.00     0.204 C 
HETATM   16  O2  UNL     1       6.762  12.540  45.263  1.00  0.00    -0.646 OA
HETATM   17  O3  UNL     1       5.691  14.468  45.792  1.00  0.00    -0.646 OA
ENDBRANCH  10  15
ENDBRANCH   9  10
ENDBRANCH   1   9
BRANCH   7  18
HETATM   18  C8  UNL     1       8.094  15.481  52.447  1.00  0.00    -0.006 A 
HETATM   19  C9  UNL     1       6.772  15.832  52.613  1.00  0.00     0.100 A 
HETATM   20  N2  UNL     1       6.371  16.769  53.505  1.00  0.00    -0.372 N 
HETATM   21  C10 UNL     1       7.252  17.412  54.287  1.00  0.00     0.124 A 
ATOM     22  H2  UNL     1       5.379  16.990  53.585  1.00  0.00     0.164 HD
HETATM   23  C11 UNL     1       8.587  17.102  54.167  1.00  0.00     0.081 A 
HETATM   24  C12 UNL     1       9.010  16.144  53.254  1.00  0.00     0.051 A 
BRANCH  23  25
HETATM   25  O1  UNL     1       9.509  17.774  54.984  1.00  0.00    -0.359 OA
ATOM     26  H1  UNL     1       9.993  17.274  55.631  1.00  0.00     0.217 HD
ENDBRANCH  23  25
ENDBRANCH   7  18
TORSDOF 6
ENDMDL
