MODEL 20
REMARK VINA RESULT: -6.959172338      5.504      7.672
REMARK  6 active torsions:
REMARK  status: ('A' for Active; 'I' for Inactive)
REMARK    1  A    between atoms: N1_1  and  C1_5 
REMARK    2  A    between atoms: C1_5  and  C2_6 
REMARK    3  A    between atoms: C1_5  and  C15_21 
REMARK    4  A    between atoms: C2_6  and  C3_7 
REMARK    5  A    between atoms: C7_11  and  C8_12 
REMARK    6  A    between atoms: C12_16  and  O1_17 
ROOT
HETATM    1  C3  UNL     1      61.016   0.737  41.739  1.00  0.00    -0.055 A 
HETATM    2  C4  UNL     1      60.947   0.139  42.998  1.00  0.00     0.007 A 
HETATM    3  C5  UNL     1      60.146  -0.958  43.235  1.00  0.00     0.001 A 
HETATM    4  C6  UNL     1      59.381  -1.508  42.230  1.00  0.00     0.012 A 
HETATM    5  C7  UNL     1      59.431  -0.936  40.977  1.00  0.00    -0.025 A 
HETATM    6  C14 UNL     1      60.238   0.162  40.756  1.00  0.00     0.019 A 
ENDROOT
BRANCH   1   7
HETATM    7  C2  UNL     1      61.884   1.922  41.498  1.00  0.00     0.082 C 
BRANCH   7   8
HETATM    8  C1  UNL     1      62.171   2.669  42.779  1.00  0.00     0.287 C 
BRANCH   8   9
HETATM    9  N1  UNL     1      63.460   3.285  42.741  1.00  0.00    -0.065 N 
ATOM     10  H13 UNL     1      63.389   4.302  42.740  1.00  0.00     0.275 HD
ATOM     11  H12 UNL     1      63.959   3.164  43.622  1.00  0.00     0.275 HD
ATOM     12  H11 UNL     1      64.007   2.947  41.949  1.00  0.00     0.275 HD
ENDBRANCH   8   9
BRANCH   8  13
HETATM   13  C15 UNL     1      61.130   3.710  42.929  1.00  0.00     0.204 C 
HETATM   14  O2  UNL     1      60.894   4.579  42.048  1.00  0.00    -0.646 OA
HETATM   15  O3  UNL     1      60.376   3.734  44.089  1.00  0.00    -0.646 OA
ENDBRANCH   8  13
ENDBRANCH   7   8
ENDBRANCH   1   7
BRANCH   5  16
HETATM   16  C8  UNL     1      58.619  -1.512  39.888  1.00  0.00    -0.023 A 
HETATM   17  C9  UNL     1      58.491  -2.878  39.763  1.00  0.00     0.012 A 
HETATM   18  C10 UNL     1      57.723  -3.413  38.733  1.00  0.00     0.004 A 
HETATM   19  C11 UNL     1      57.080  -2.596  37.823  1.00  0.00     0.036 A 
HETATM   20  C12 UNL     1      57.205  -1.234  37.945  1.00  0.00     0.066 A 
HETATM   21  C13 UNL     1      57.971  -0.711  38.971  1.00  0.00     0.048 A 
BRANCH  20  22
HETATM   22  O1  UNL     1      56.553  -0.432  37.021  1.00  0.00    -0.361 OA
ATOM     23  H1  UNL     1      55.999   0.268  37.347  1.00  0.00     0.217 HD
ENDBRANCH  20  22
ENDBRANCH   5  16
TORSDOF 6
ENDMDL
