MODEL 3
REMARK VINA RESULT: -7.446533963      2.943      7.100
REMARK  6 active torsions:
REMARK  status: ('A' for Active; 'I' for Inactive)
REMARK    1  A    between atoms: N1_1  and  C1_5 
REMARK    2  A    between atoms: C1_5  and  C2_6 
REMARK    3  A    between atoms: C1_5  and  C15_21 
REMARK    4  A    between atoms: C2_6  and  C3_7 
REMARK    5  A    between atoms: C7_11  and  C8_12 
REMARK    6  A    between atoms: C12_16  and  O1_17 
ROOT
HETATM    1  C3  UNL     1      58.253  -2.940  40.321  1.00  0.00    -0.055 A 
HETATM    2  C4  UNL     1      58.011  -2.484  41.617  1.00  0.00     0.007 A 
HETATM    3  C5  UNL     1      57.925  -3.352  42.686  1.00  0.00     0.001 A 
HETATM    4  C6  UNL     1      58.078  -4.710  42.509  1.00  0.00     0.012 A 
HETATM    5  C7  UNL     1      58.318  -5.186  41.239  1.00  0.00    -0.025 A 
HETATM    6  C14 UNL     1      58.401  -4.303  40.180  1.00  0.00     0.019 A 
ENDROOT
BRANCH   1   7
HETATM    7  C2  UNL     1      58.342  -1.990  39.178  1.00  0.00     0.082 C 
BRANCH   7   8
HETATM    8  C1  UNL     1      57.193  -1.010  39.180  1.00  0.00     0.287 C 
BRANCH   8   9
HETATM    9  N1  UNL     1      57.649   0.319  39.439  1.00  0.00    -0.065 N 
ATOM     10  H13 UNL     1      58.479   0.323  40.030  1.00  0.00     0.275 HD
ATOM     11  H12 UNL     1      58.050   0.748  38.605  1.00  0.00     0.275 HD
ATOM     12  H11 UNL     1      56.905   0.894  39.835  1.00  0.00     0.275 HD
ENDBRANCH   8   9
BRANCH   8  13
HETATM   13  C15 UNL     1      56.561  -1.064  37.843  1.00  0.00     0.204 C 
HETATM   14  O2  UNL     1      55.312  -1.095  37.673  1.00  0.00    -0.646 OA
HETATM   15  O3  UNL     1      57.374  -1.079  36.723  1.00  0.00    -0.646 OA
ENDBRANCH   8  13
ENDBRANCH   7   8
ENDBRANCH   1   7
BRANCH   5  16
HETATM   16  C8  UNL     1      58.485  -6.637  41.031  1.00  0.00    -0.023 A 
HETATM   17  C9  UNL     1      59.702  -7.238  41.267  1.00  0.00     0.012 A 
HETATM   18  C10 UNL     1      59.851  -8.608  41.069  1.00  0.00     0.004 A 
HETATM   19  C11 UNL     1      58.795  -9.386  40.636  1.00  0.00     0.036 A 
HETATM   20  C12 UNL     1      57.581  -8.790  40.400  1.00  0.00     0.066 A 
HETATM   21  C13 UNL     1      57.442  -7.428  40.599  1.00  0.00     0.048 A 
BRANCH  20  22
HETATM   22  O1  UNL     1      56.533  -9.588  39.965  1.00  0.00    -0.361 OA
ATOM     23  H1  UNL     1      56.722 -10.493  39.742  1.00  0.00     0.217 HD
ENDBRANCH  20  22
ENDBRANCH   5  16
TORSDOF 6
ENDMDL
