MODEL 2
REMARK VINA RESULT: -7.500370457      5.050      7.723
REMARK  6 active torsions:
REMARK  status: ('A' for Active; 'I' for Inactive)
REMARK    1  A    between atoms: N1_1  and  C1_5 
REMARK    2  A    between atoms: C1_5  and  C2_6 
REMARK    3  A    between atoms: C1_5  and  C15_21 
REMARK    4  A    between atoms: C2_6  and  C3_7 
REMARK    5  A    between atoms: C7_11  and  C8_12 
REMARK    6  A    between atoms: C12_16  and  O1_17 
ROOT
HETATM    1  C3  UNL     1      60.916   1.250  41.332  1.00  0.00    -0.055 A 
HETATM    2  C4  UNL     1      61.092   0.601  42.555  1.00  0.00     0.007 A 
HETATM    3  C5  UNL     1      60.458  -0.589  42.841  1.00  0.00     0.001 A 
HETATM    4  C6  UNL     1      59.622  -1.186  41.922  1.00  0.00     0.012 A 
HETATM    5  C7  UNL     1      59.432  -0.566  40.706  1.00  0.00    -0.025 A 
HETATM    6  C14 UNL     1      60.074   0.626  40.436  1.00  0.00     0.019 A 
ENDROOT
BRANCH   1   7
HETATM    7  C2  UNL     1      61.607   2.535  41.038  1.00  0.00     0.082 C 
BRANCH   7   8
HETATM    8  C1  UNL     1      60.945   3.695  41.744  1.00  0.00     0.287 C 
BRANCH   8   9
HETATM    9  N1  UNL     1      59.538   3.714  41.499  1.00  0.00    -0.065 N 
ATOM     10  H13 UNL     1      59.022   4.077  42.301  1.00  0.00     0.275 HD
ATOM     11  H12 UNL     1      59.286   4.429  40.816  1.00  0.00     0.275 HD
ATOM     12  H11 UNL     1      59.199   2.794  41.221  1.00  0.00     0.275 HD
ENDBRANCH   8   9
BRANCH   8  13
HETATM   13  C15 UNL     1      61.192   3.532  43.194  1.00  0.00     0.204 C 
HETATM   14  O2  UNL     1      60.291   3.668  44.065  1.00  0.00    -0.646 OA
HETATM   15  O3  UNL     1      62.470   3.214  43.620  1.00  0.00    -0.646 OA
ENDBRANCH   8  13
ENDBRANCH   7   8
ENDBRANCH   1   7
BRANCH   5  16
HETATM   16  C8  UNL     1      58.541  -1.191  39.709  1.00  0.00    -0.023 A 
HETATM   17  C9  UNL     1      57.655  -0.421  38.990  1.00  0.00     0.012 A 
HETATM   18  C10 UNL     1      56.818  -1.018  38.051  1.00  0.00     0.004 A 
HETATM   19  C11 UNL     1      56.857  -2.380  37.823  1.00  0.00     0.036 A 
HETATM   20  C12 UNL     1      57.740  -3.151  38.539  1.00  0.00     0.066 A 
HETATM   21  C13 UNL     1      58.567  -2.548  39.470  1.00  0.00     0.048 A 
BRANCH  20  22
HETATM   22  O1  UNL     1      57.763  -4.516  38.296  1.00  0.00    -0.361 OA
ATOM     23  H1  UNL     1      58.306  -5.061  38.853  1.00  0.00     0.217 HD
ENDBRANCH  20  22
ENDBRANCH   5  16
TORSDOF 6
ENDMDL
