MODEL 4
REMARK VINA RESULT: -7.433018999      0.869      1.218
REMARK  6 active torsions:
REMARK  status: ('A' for Active; 'I' for Inactive)
REMARK    1  A    between atoms: N1_1  and  C1_5 
REMARK    2  A    between atoms: C1_5  and  C2_6 
REMARK    3  A    between atoms: C1_5  and  C15_21 
REMARK    4  A    between atoms: C2_6  and  C3_7 
REMARK    5  A    between atoms: C7_11  and  C8_12 
REMARK    6  A    between atoms: C12_16  and  O1_17 
ROOT
HETATM    1  C3  UNL     1      58.421  -5.898  40.985  1.00  0.00    -0.055 A 
HETATM    2  C4  UNL     1      58.124  -5.878  42.348  1.00  0.00     0.007 A 
HETATM    3  C5  UNL     1      57.800  -4.707  43.001  1.00  0.00     0.001 A 
HETATM    4  C6  UNL     1      57.757  -3.507  42.325  1.00  0.00     0.012 A 
HETATM    5  C7  UNL     1      58.046  -3.500  40.977  1.00  0.00    -0.025 A 
HETATM    6  C14 UNL     1      58.369  -4.681  40.339  1.00  0.00     0.019 A 
ENDROOT
BRANCH   1   7
HETATM    7  C2  UNL     1      58.770  -7.170  40.295  1.00  0.00     0.082 C 
BRANCH   7   8
HETATM    8  C1  UNL     1      58.486  -8.370  41.166  1.00  0.00     0.287 C 
BRANCH   8   9
HETATM    9  N1  UNL     1      58.103  -9.501  40.380  1.00  0.00    -0.065 N 
ATOM     10  H13 UNL     1      58.574  -9.505  39.476  1.00  0.00     0.275 HD
ATOM     11  H12 UNL     1      58.485 -10.367  40.759  1.00  0.00     0.275 HD
ATOM     12  H11 UNL     1      57.090  -9.552  40.275  1.00  0.00     0.275 HD
ENDBRANCH   8   9
BRANCH   8  13
HETATM   13  C15 UNL     1      59.725  -8.683  41.911  1.00  0.00     0.204 C 
HETATM   14  O2  UNL     1      60.873  -8.624  41.393  1.00  0.00    -0.646 OA
HETATM   15  O3  UNL     1      59.627  -9.056  43.240  1.00  0.00    -0.646 OA
ENDBRANCH   8  13
ENDBRANCH   7   8
ENDBRANCH   1   7
BRANCH   5  16
HETATM   16  C8  UNL     1      58.004  -2.224  40.237  1.00  0.00    -0.023 A 
HETATM   17  C9  UNL     1      57.147  -2.068  39.170  1.00  0.00     0.012 A 
HETATM   18  C10 UNL     1      57.114  -0.861  38.476  1.00  0.00     0.004 A 
HETATM   19  C11 UNL     1      57.930   0.193  38.838  1.00  0.00     0.036 A 
HETATM   20  C12 UNL     1      58.785   0.040  39.901  1.00  0.00     0.066 A 
HETATM   21  C13 UNL     1      58.812  -1.163  40.584  1.00  0.00     0.048 A 
BRANCH  20  22
HETATM   22  O1  UNL     1      59.596   1.110  40.247  1.00  0.00    -0.361 OA
ATOM     23  H1  UNL     1      59.202   1.974  40.298  1.00  0.00     0.217 HD
ENDBRANCH  20  22
ENDBRANCH   5  16
TORSDOF 6
ENDMDL
