MODEL 6
REMARK VINA RESULT: -7.286685163      5.118      8.311
REMARK  6 active torsions:
REMARK  status: ('A' for Active; 'I' for Inactive)
REMARK    1  A    between atoms: N1_1  and  C1_5 
REMARK    2  A    between atoms: C1_5  and  C2_6 
REMARK    3  A    between atoms: C1_5  and  C15_21 
REMARK    4  A    between atoms: C2_6  and  C3_7 
REMARK    5  A    between atoms: C7_11  and  C8_12 
REMARK    6  A    between atoms: C12_16  and  O1_17 
ROOT
HETATM    1  C3  UNL     1      60.991   1.308  41.534  1.00  0.00    -0.055 A 
HETATM    2  C4  UNL     1      61.157   0.621  42.737  1.00  0.00     0.007 A 
HETATM    3  C5  UNL     1      60.517  -0.575  42.982  1.00  0.00     0.001 A 
HETATM    4  C6  UNL     1      59.685  -1.140  42.040  1.00  0.00     0.012 A 
HETATM    5  C7  UNL     1      59.505  -0.482  40.842  1.00  0.00    -0.025 A 
HETATM    6  C14 UNL     1      60.153   0.715  40.613  1.00  0.00     0.019 A 
ENDROOT
BRANCH   1   7
HETATM    7  C2  UNL     1      61.689   2.599  41.284  1.00  0.00     0.082 C 
BRANCH   7   8
HETATM    8  C1  UNL     1      60.724   3.761  41.287  1.00  0.00     0.287 C 
BRANCH   8   9
HETATM    9  N1  UNL     1      60.436   4.191  42.618  1.00  0.00    -0.065 N 
ATOM     10  H13 UNL     1      59.677   3.649  43.031  1.00  0.00     0.275 HD
ATOM     11  H12 UNL     1      61.181   3.934  43.265  1.00  0.00     0.275 HD
ATOM     12  H11 UNL     1      60.241   5.192  42.649  1.00  0.00     0.275 HD
ENDBRANCH   8   9
BRANCH   8  13
HETATM   13  C15 UNL     1      61.359   4.867  40.537  1.00  0.00     0.204 C 
HETATM   14  O2  UNL     1      62.570   4.857  40.189  1.00  0.00    -0.646 OA
HETATM   15  O3  UNL     1      60.590   5.968  40.198  1.00  0.00    -0.646 OA
ENDBRANCH   8  13
ENDBRANCH   7   8
ENDBRANCH   1   7
BRANCH   5  16
HETATM   16  C8  UNL     1      58.618  -1.072  39.821  1.00  0.00    -0.023 A 
HETATM   17  C9  UNL     1      57.778  -0.269  39.082  1.00  0.00     0.012 A 
HETATM   18  C10 UNL     1      56.944  -0.834  38.120  1.00  0.00     0.004 A 
HETATM   19  C11 UNL     1      56.941  -2.195  37.889  1.00  0.00     0.036 A 
HETATM   20  C12 UNL     1      57.778  -2.999  38.623  1.00  0.00     0.066 A 
HETATM   21  C13 UNL     1      58.603  -2.429  39.577  1.00  0.00     0.048 A 
BRANCH  20  22
HETATM   22  O1  UNL     1      57.760  -4.363  38.376  1.00  0.00    -0.361 OA
ATOM     23  H1  UNL     1      58.216  -4.685  37.606  1.00  0.00     0.217 HD
ENDBRANCH  20  22
ENDBRANCH   5  16
TORSDOF 6
ENDMDL
