MODEL 1
REMARK VINA RESULT: -8.011455087      0.000      0.000
REMARK  6 active torsions:
REMARK  status: ('A' for Active; 'I' for Inactive)
REMARK    1  A    between atoms: N1_1  and  C1_5 
REMARK    2  A    between atoms: C1_5  and  C2_6 
REMARK    3  A    between atoms: C1_5  and  C15_21 
REMARK    4  A    between atoms: C2_6  and  C3_7 
REMARK    5  A    between atoms: C7_11  and  C8_12 
REMARK    6  A    between atoms: C12_16  and  O1_17 
ROOT
HETATM    1  C3  UNL     1      58.547  -5.856  40.841  1.00  0.00    -0.055 A 
HETATM    2  C4  UNL     1      58.407  -5.623  42.210  1.00  0.00     0.007 A 
HETATM    3  C5  UNL     1      58.008  -4.396  42.698  1.00  0.00     0.001 A 
HETATM    4  C6  UNL     1      57.731  -3.350  41.845  1.00  0.00     0.012 A 
HETATM    5  C7  UNL     1      57.861  -3.555  40.488  1.00  0.00    -0.025 A 
HETATM    6  C14 UNL     1      58.262  -4.789  40.016  1.00  0.00     0.019 A 
ENDROOT
BRANCH   1   7
HETATM    7  C2  UNL     1      58.979  -7.185  40.330  1.00  0.00     0.082 C 
BRANCH   7   8
HETATM    8  C1  UNL     1      58.492  -8.306  41.218  1.00  0.00     0.287 C 
BRANCH   8   9
HETATM    9  N1  UNL     1      58.027  -9.414  40.444  1.00  0.00    -0.065 N 
ATOM     10  H13 UNL     1      57.505  -9.105  39.624  1.00  0.00     0.275 HD
ATOM     11  H12 UNL     1      58.795  -9.889  39.970  1.00  0.00     0.275 HD
ATOM     12  H11 UNL     1      57.481 -10.059  41.015  1.00  0.00     0.275 HD
ENDBRANCH   8   9
BRANCH   8  13
HETATM   13  C15 UNL     1      59.632  -8.735  42.058  1.00  0.00     0.204 C 
HETATM   14  O2  UNL     1      59.503  -9.112  43.253  1.00  0.00    -0.646 OA
HETATM   15  O3  UNL     1      60.903  -8.725  41.510  1.00  0.00    -0.646 OA
ENDBRANCH   8  13
ENDBRANCH   7   8
ENDBRANCH   1   7
BRANCH   5  16
HETATM   16  C8  UNL     1      57.568  -2.446  39.559  1.00  0.00    -0.023 A 
HETATM   17  C9  UNL     1      57.291  -2.703  38.235  1.00  0.00     0.012 A 
HETATM   18  C10 UNL     1      57.015  -1.652  37.365  1.00  0.00     0.004 A 
HETATM   19  C11 UNL     1      57.014  -0.343  37.805  1.00  0.00     0.036 A 
HETATM   20  C12 UNL     1      57.290  -0.083  39.125  1.00  0.00     0.066 A 
HETATM   21  C13 UNL     1      57.563  -1.134  39.982  1.00  0.00     0.048 A 
BRANCH  20  22
HETATM   22  O1  UNL     1      57.284   1.238  39.547  1.00  0.00    -0.361 OA
ATOM     23  H1  UNL     1      57.981   1.528  40.124  1.00  0.00     0.217 HD
ENDBRANCH  20  22
ENDBRANCH   5  16
TORSDOF 6
ENDMDL
