MODEL 6
REMARK VINA RESULT: -7.131593638      3.484      5.653
REMARK  1 active torsions:
REMARK  status: ('A' for Active; 'I' for Inactive)
REMARK    1  A    between atoms: C1_2  and  C2_4 
ROOT
HETATM    1  C2  UNL     1      12.690   4.552  23.150  1.00  0.00     0.094 A 
HETATM    2  N1  UNL     1      11.850   4.411  24.109  1.00  0.00    -0.353 N 
ATOM      3  H1  UNL     1      11.848   3.521  24.607  1.00  0.00     0.166 HD
HETATM    4  C3  UNL     1      10.927   5.393  24.528  1.00  0.00     0.048 A 
HETATM    5  C4  UNL     1      10.041   5.199  25.567  1.00  0.00     0.054 A 
HETATM    6  C5  UNL     1       9.150   6.175  25.956  1.00  0.00     0.036 A 
HETATM    7 CL1  UNL     1       8.050   5.896  27.265  1.00  0.00    -0.084 Cl
HETATM    8  C6  UNL     1       9.132   7.391  25.294  1.00  0.00     0.025 A 
HETATM    9  C7  UNL     1      10.023   7.580  24.255  1.00  0.00     0.019 A 
HETATM   10  C8  UNL     1      10.924   6.593  23.860  1.00  0.00     0.037 A 
HETATM   11  C9  UNL     1      11.858   6.799  22.766  1.00  0.00     0.167 A 
HETATM   12  O3  UNL     1      11.791   7.934  22.201  1.00  0.00    -0.292 OA
HETATM   13  C10 UNL     1      12.823   5.768  22.330  1.00  0.00     0.148 A 
ENDROOT
BRANCH   1  14
HETATM   14  C1  UNL     1      13.574   3.423  22.854  1.00  0.00     0.222 C 
HETATM   15  O1  UNL     1      14.705   3.374  23.389  1.00  0.00    -0.643 OA
HETATM   16  O2  UNL     1      13.211   2.390  21.999  1.00  0.00    -0.643 OA
ENDBRANCH   1  14
TORSDOF 1
ENDMDL
