MODEL 1
REMARK VINA RESULT: -8.902893461      0.000      0.000
REMARK  1 active torsions:
REMARK  status: ('A' for Active; 'I' for Inactive)
REMARK    1  A    between atoms: C1_2  and  C2_4 
ROOT
HETATM    1  C2  UNL     1      11.698   7.936  23.407  1.00  0.00     0.094 A 
HETATM    2  N1  UNL     1      12.940   7.695  23.193  1.00  0.00    -0.353 N 
ATOM      3  H1  UNL     1      13.531   8.480  22.918  1.00  0.00     0.166 HD
HETATM    4  C3  UNL     1      13.551   6.429  23.310  1.00  0.00     0.048 A 
HETATM    5  C4  UNL     1      14.892   6.216  23.071  1.00  0.00     0.054 A 
HETATM    6  C5  UNL     1      15.464   4.968  23.192  1.00  0.00     0.036 A 
HETATM    7 CL1  UNL     1      17.152   4.737  22.885  1.00  0.00    -0.084 Cl
HETATM    8  C6  UNL     1      14.681   3.888  23.564  1.00  0.00     0.025 A 
HETATM    9  C7  UNL     1      13.338   4.108  23.802  1.00  0.00     0.019 A 
HETATM   10  C8  UNL     1      12.759   5.369  23.679  1.00  0.00     0.037 A 
HETATM   11  C9  UNL     1      11.345   5.593  23.931  1.00  0.00     0.167 A 
HETATM   12  O3  UNL     1      10.684   4.563  24.267  1.00  0.00    -0.292 OA
HETATM   13  C10 UNL     1      10.708   6.921  23.808  1.00  0.00     0.148 A 
ENDROOT
BRANCH   1  14
HETATM   14  C1  UNL     1      11.237   9.316  23.237  1.00  0.00     0.222 C 
HETATM   15  O1  UNL     1      12.079  10.241  23.199  1.00  0.00    -0.643 OA
HETATM   16  O2  UNL     1       9.894   9.649  23.112  1.00  0.00    -0.643 OA
ENDBRANCH   1  14
TORSDOF 1
ENDMDL
