MODEL 7
REMARK VINA RESULT: -6.915526834      3.403      5.649
REMARK  1 active torsions:
REMARK  status: ('A' for Active; 'I' for Inactive)
REMARK    1  A    between atoms: C1_2  and  C2_4 
ROOT
HETATM    1  C2  UNL     1      12.850   5.846  23.199  1.00  0.00     0.094 A 
HETATM    2  N1  UNL     1      11.776   5.566  23.842  1.00  0.00    -0.353 N 
ATOM      3  H1  UNL     1      11.634   4.596  24.122  1.00  0.00     0.166 HD
HETATM    4  C3  UNL     1      10.775   6.497  24.192  1.00  0.00     0.048 A 
HETATM    5  C4  UNL     1       9.634   6.152  24.886  1.00  0.00     0.054 A 
HETATM    6  C5  UNL     1       8.673   7.081  25.215  1.00  0.00     0.036 A 
HETATM    7 CL1  UNL     1       7.252   6.612  26.087  1.00  0.00    -0.084 Cl
HETATM    8  C6  UNL     1       8.843   8.405  24.845  1.00  0.00     0.025 A 
HETATM    9  C7  UNL     1       9.988   8.745  24.150  1.00  0.00     0.019 A 
HETATM   10  C8  UNL     1      10.961   7.806  23.817  1.00  0.00     0.037 A 
HETATM   11  C9  UNL     1      12.163   8.171  23.086  1.00  0.00     0.167 A 
HETATM   12  O3  UNL     1      12.258   9.399  22.776  1.00  0.00    -0.292 OA
HETATM   13  C10 UNL     1      13.209   7.193  22.721  1.00  0.00     0.148 A 
ENDROOT
BRANCH   1  14
HETATM   14  C1  UNL     1      13.779   4.748  22.923  1.00  0.00     0.222 C 
HETATM   15  O1  UNL     1      14.148   4.541  21.745  1.00  0.00    -0.643 OA
HETATM   16  O2  UNL     1      14.275   3.917  23.919  1.00  0.00    -0.643 OA
ENDBRANCH   1  14
TORSDOF 1
ENDMDL
