MODEL 5
REMARK VINA RESULT: -7.177316203      1.143      1.266
REMARK  1 active torsions:
REMARK  status: ('A' for Active; 'I' for Inactive)
REMARK    1  A    between atoms: C1_2  and  C2_4 
ROOT
HETATM    1  C2  UNL     1      10.430   7.902  23.458  1.00  0.00     0.094 A 
HETATM    2  N1  UNL     1      11.654   7.739  23.109  1.00  0.00    -0.353 N 
ATOM      3  H1  UNL     1      12.086   8.474  22.549  1.00  0.00     0.166 HD
HETATM    4  C3  UNL     1      12.449   6.622  23.441  1.00  0.00     0.048 A 
HETATM    5  C4  UNL     1      13.763   6.488  23.045  1.00  0.00     0.054 A 
HETATM    6  C5  UNL     1      14.517   5.386  23.383  1.00  0.00     0.036 A 
HETATM    7 CL1  UNL     1      16.165   5.252  22.867  1.00  0.00    -0.084 Cl
HETATM    8  C6  UNL     1      13.953   4.375  24.143  1.00  0.00     0.025 A 
HETATM    9  C7  UNL     1      12.636   4.515  24.537  1.00  0.00     0.019 A 
HETATM   10  C8  UNL     1      11.872   5.629  24.195  1.00  0.00     0.037 A 
HETATM   11  C9  UNL     1      10.488   5.769  24.614  1.00  0.00     0.167 A 
HETATM   12  O3  UNL     1      10.030   4.808  25.307  1.00  0.00    -0.292 OA
HETATM   13  C10 UNL     1       9.658   6.941  24.264  1.00  0.00     0.148 A 
ENDROOT
BRANCH   1  14
HETATM   14  C1  UNL     1       9.760   9.128  23.021  1.00  0.00     0.222 C 
HETATM   15  O1  UNL     1      10.378   9.937  22.293  1.00  0.00    -0.643 OA
HETATM   16  O2  UNL     1       8.455   9.439  23.381  1.00  0.00    -0.643 OA
ENDBRANCH   1  14
TORSDOF 1
ENDMDL
