MODEL 3
REMARK VINA RESULT: -7.319047178      3.542      5.314
REMARK  1 active torsions:
REMARK  status: ('A' for Active; 'I' for Inactive)
REMARK    1  A    between atoms: C1_2  and  C2_4 
ROOT
HETATM    1  C2  UNL     1      14.088   5.044  23.458  1.00  0.00     0.094 A 
HETATM    2  N1  UNL     1      13.378   4.653  24.453  1.00  0.00    -0.353 N 
ATOM      3  H1  UNL     1      13.769   3.926  25.053  1.00  0.00     0.166 HD
HETATM    4  C3  UNL     1      12.100   5.152  24.783  1.00  0.00     0.048 A 
HETATM    5  C4  UNL     1      11.372   4.702  25.864  1.00  0.00     0.054 A 
HETATM    6  C5  UNL     1      10.126   5.207  26.163  1.00  0.00     0.036 A 
HETATM    7 CL1  UNL     1       9.240   4.619  27.530  1.00  0.00    -0.084 Cl
HETATM    8  C6  UNL     1       9.575   6.195  25.364  1.00  0.00     0.025 A 
HETATM    9  C7  UNL     1      10.310   6.641  24.282  1.00  0.00     0.019 A 
HETATM   10  C8  UNL     1      11.570   6.131  23.978  1.00  0.00     0.037 A 
HETATM   11  C9  UNL     1      12.337   6.606  22.838  1.00  0.00     0.167 A 
HETATM   12  O3  UNL     1      11.776   7.511  22.146  1.00  0.00    -0.292 OA
HETATM   13  C10 UNL     1      13.675   6.081  22.496  1.00  0.00     0.148 A 
ENDROOT
BRANCH   1  14
HETATM   14  C1  UNL     1      15.395   4.412  23.270  1.00  0.00     0.222 C 
HETATM   15  O1  UNL     1      15.571   3.239  23.671  1.00  0.00    -0.643 OA
HETATM   16  O2  UNL     1      16.461   5.060  22.658  1.00  0.00    -0.643 OA
ENDBRANCH   1  14
TORSDOF 1
ENDMDL
