MODEL 1
REMARK VINA RESULT: -5.242726034      0.000      0.000
REMARK  5 active torsions:
REMARK  status: ('A' for Active; 'I' for Inactive)
REMARK    1  A    between atoms: C1_2  and  C2_4 
REMARK    2  A    between atoms: C2_4  and  O3_5 
REMARK    3  A    between atoms: C2_4  and  C3_7 
REMARK    4  A    between atoms: C3_7  and  O4_8 
REMARK    5  A    between atoms: C3_7  and  C4_10 
ROOT
HETATM    1  C2  UNL     1     115.741  30.135  25.737  1.00  0.00     0.258 C 
ENDROOT
BRANCH   1   2
HETATM    2  C1  UNL     1     116.861  30.760  24.992  1.00  0.00     0.206 C 
HETATM    3  O1  UNL     1     117.986  30.202  24.937  1.00  0.00    -0.646 OA
HETATM    4  O2  UNL     1     116.718  31.971  24.331  1.00  0.00    -0.646 OA
ENDBRANCH   1   2
BRANCH   1   5
HETATM    5  O3  UNL     1     114.610  30.122  24.930  1.00  0.00    -0.382 OA
ATOM      6  H3  UNL     1     114.168  30.959  25.004  1.00  0.00     0.210 HD
ENDBRANCH   1   5
BRANCH   1   7
HETATM    7  C3  UNL     1     115.425  30.890  27.013  1.00  0.00     0.258 C 
BRANCH   7   8
HETATM    8  O4  UNL     1     116.349  31.873  27.288  1.00  0.00    -0.382 OA
ATOM      9  H4  UNL     1     116.542  31.942  28.216  1.00  0.00     0.210 HD
ENDBRANCH   7   8
BRANCH   7  10
HETATM   10  C4  UNL     1     114.091  31.526  26.825  1.00  0.00     0.206 C 
HETATM   11  O5  UNL     1     113.019  31.010  27.242  1.00  0.00    -0.646 OA
HETATM   12  O6  UNL     1     113.998  32.746  26.161  1.00  0.00    -0.646 OA
ENDBRANCH   7  10
ENDBRANCH   1   7
TORSDOF 5
ENDMDL
