MODEL 3
REMARK VINA RESULT: -5.140423496      0.256      3.820
REMARK  5 active torsions:
REMARK  status: ('A' for Active; 'I' for Inactive)
REMARK    1  A    between atoms: C1_2  and  C2_4 
REMARK    2  A    between atoms: C2_4  and  O3_5 
REMARK    3  A    between atoms: C2_4  and  C3_7 
REMARK    4  A    between atoms: C3_7  and  O4_8 
REMARK    5  A    between atoms: C3_7  and  C4_10 
ROOT
HETATM    1  C2  UNL     1     115.406  30.724  26.924  1.00  0.00     0.258 C 
ENDROOT
BRANCH   1   2
HETATM    2  C1  UNL     1     114.088  31.403  26.966  1.00  0.00     0.206 C 
HETATM    3  O1  UNL     1     113.965  32.592  26.579  1.00  0.00    -0.646 OA
HETATM    4  O2  UNL     1     112.948  30.763  27.429  1.00  0.00    -0.646 OA
ENDBRANCH   1   2
BRANCH   1   5
HETATM    5  O3  UNL     1     116.402  31.651  27.206  1.00  0.00    -0.382 OA
ATOM      6  H3  UNL     1     117.009  31.272  27.830  1.00  0.00     0.210 HD
ENDBRANCH   1   5
BRANCH   1   7
HETATM    7  C3  UNL     1     115.678  30.109  25.566  1.00  0.00     0.258 C 
BRANCH   7   8
HETATM    8  O4  UNL     1     114.568  30.118  24.749  1.00  0.00    -0.382 OA
ATOM      9  H4  UNL     1     114.363  29.257  24.403  1.00  0.00     0.210 HD
ENDBRANCH   7   8
BRANCH   7  10
HETATM   10  C4  UNL     1     116.750  30.921  24.925  1.00  0.00     0.206 C 
HETATM   11  O5  UNL     1     116.558  32.083  24.478  1.00  0.00    -0.646 OA
HETATM   12  O6  UNL     1     118.032  30.392  24.801  1.00  0.00    -0.646 OA
ENDBRANCH   7  10
ENDBRANCH   1   7
TORSDOF 5
ENDMDL
