MODEL 7
REMARK VINA RESULT: -5.029949217      1.192      3.594
REMARK  5 active torsions:
REMARK  status: ('A' for Active; 'I' for Inactive)
REMARK    1  A    between atoms: C1_2  and  C2_4 
REMARK    2  A    between atoms: C2_4  and  O3_5 
REMARK    3  A    between atoms: C2_4  and  C3_7 
REMARK    4  A    between atoms: C3_7  and  O4_8 
REMARK    5  A    between atoms: C3_7  and  C4_10 
ROOT
HETATM    1  C2  UNL     1     114.361  31.149  26.063  1.00  0.00     0.258 C 
ENDROOT
BRANCH   1   2
HETATM    2  C1  UNL     1     113.971  30.422  27.296  1.00  0.00     0.206 C 
HETATM    3  O1  UNL     1     112.942  30.752  27.938  1.00  0.00    -0.646 OA
HETATM    4  O2  UNL     1     114.715  29.361  27.789  1.00  0.00    -0.646 OA
ENDBRANCH   1   2
BRANCH   1   5
HETATM    5  O3  UNL     1     114.370  30.259  24.996  1.00  0.00    -0.382 OA
ATOM      6  H3  UNL     1     115.240  30.240  24.617  1.00  0.00     0.210 HD
ENDBRANCH   1   5
BRANCH   1   7
HETATM    7  C3  UNL     1     115.734  31.775  26.192  1.00  0.00     0.258 C 
BRANCH   7   8
HETATM    8  O4  UNL     1     116.268  31.627  27.453  1.00  0.00    -0.382 OA
ATOM      9  H4  UNL     1     116.603  32.444  27.806  1.00  0.00     0.210 HD
ENDBRANCH   7   8
BRANCH   7  10
HETATM   10  C4  UNL     1     116.622  31.087  25.213  1.00  0.00     0.206 C 
HETATM   11  O5  UNL     1     116.792  31.497  24.033  1.00  0.00    -0.646 OA
HETATM   12  O6  UNL     1     117.304  29.935  25.595  1.00  0.00    -0.646 OA
ENDBRANCH   7  10
ENDBRANCH   1   7
TORSDOF 5
ENDMDL
