MODEL 5
REMARK VINA RESULT: -8.871705224      2.060      7.060
REMARK  3 active torsions:
REMARK  status: ('A' for Active; 'I' for Inactive)
REMARK    1  A    between atoms: N1_6  and  N2_8 
REMARK    2  A    between atoms: N2_8  and  C5_10 
REMARK    3  A    between atoms: C10_15  and  C11_16 
ROOT
HETATM    1  N2  UNL     1      10.902   0.413  32.289  1.00  0.00    -0.299 N 
ATOM      2  H2  UNL     1      10.042   0.002  31.924  1.00  0.00     0.187 HD
ENDROOT
BRANCH   1   3
HETATM    3  N1  UNL     1      11.386   1.633  31.759  1.00  0.00    -0.300 N 
HETATM    4  C4  UNL     1      11.114   1.884  30.517  1.00  0.00     0.048 A 
HETATM    5  C3  UNL     1      11.575   3.119  29.892  1.00  0.00     0.035 A 
HETATM    6  C12 UNL     1      10.344   0.964  29.685  1.00  0.00     0.035 A 
HETATM    7  C2  UNL     1      11.323   3.422  28.628  1.00  0.00     0.057 A 
HETATM    8  C1  UNL     1      10.553   2.499  27.803  1.00  0.00     0.172 A 
HETATM    9  O1  UNL     1      10.290   2.753  26.585  1.00  0.00    -0.289 OA
HETATM   10  C13 UNL     1      10.089   1.264  28.420  1.00  0.00     0.057 A 
ATOM     11  H1  UNL     1      11.925   2.285  32.328  1.00  0.00     0.187 HD
ENDBRANCH   1   3
BRANCH   1  12
HETATM   12  C5  UNL     1      11.608  -0.229  33.316  1.00  0.00     0.065 A 
HETATM   13  C6  UNL     1      12.947   0.132  33.517  1.00  0.00     0.032 A 
HETATM   14  C7  UNL     1      13.745  -0.410  34.476  1.00  0.00     0.002 A 
HETATM   15  C8  UNL     1      13.201  -1.373  35.299  1.00  0.00     0.001 A 
HETATM   16  C9  UNL     1      11.897  -1.744  35.124  1.00  0.00     0.021 A 
HETATM   17  C10 UNL     1      11.084  -1.175  34.130  1.00  0.00     0.068 A 
BRANCH  17  18
HETATM   18  C11 UNL     1       9.723  -1.633  34.026  1.00  0.00     0.211 C 
HETATM   19  O2  UNL     1       8.827  -1.150  33.303  1.00  0.00    -0.644 OA
HETATM   20  O3  UNL     1       9.281  -2.743  34.794  1.00  0.00    -0.644 OA
ENDBRANCH  17  18
ENDBRANCH   1  12
TORSDOF 3
ENDMDL
