MODEL 2
REMARK VINA RESULT: -10.100318980      1.309      1.797
REMARK  3 active torsions:
REMARK  status: ('A' for Active; 'I' for Inactive)
REMARK    1  A    between atoms: N1_6  and  N2_8 
REMARK    2  A    between atoms: N2_8  and  C5_10 
REMARK    3  A    between atoms: C10_15  and  C11_16 
ROOT
HETATM    1  N2  UNL     1      11.157   2.193  31.108  1.00  0.00    -0.299 N 
ATOM      2  H2  UNL     1      10.745   2.939  31.669  1.00  0.00     0.187 HD
ENDROOT
BRANCH   1   3
HETATM    3  N1  UNL     1      11.894   1.158  31.733  1.00  0.00    -0.300 N 
HETATM    4  C4  UNL     1      11.242   0.372  32.531  1.00  0.00     0.048 A 
HETATM    5  C3  UNL     1      11.925  -0.720  33.216  1.00  0.00     0.035 A 
HETATM    6  C12 UNL     1       9.814   0.529  32.787  1.00  0.00     0.035 A 
HETATM    7  C2  UNL     1      11.305  -1.551  34.040  1.00  0.00     0.057 A 
HETATM    8  C1  UNL     1       9.878  -1.389  34.291  1.00  0.00     0.172 A 
HETATM    9  O1  UNL     1       9.246  -2.164  35.076  1.00  0.00    -0.289 OA
HETATM   10  C13 UNL     1       9.189  -0.300  33.611  1.00  0.00     0.057 A 
ATOM     11  H1  UNL     1      12.892   1.037  31.564  1.00  0.00     0.187 HD
ENDBRANCH   1   3
BRANCH   1  12
HETATM   12  C5  UNL     1      10.995   2.189  29.716  1.00  0.00     0.065 A 
HETATM   13  C6  UNL     1       9.913   1.476  29.183  1.00  0.00     0.032 A 
HETATM   14  C7  UNL     1       9.641   1.389  27.852  1.00  0.00     0.002 A 
HETATM   15  C8  UNL     1      10.481   2.044  26.978  1.00  0.00     0.001 A 
HETATM   16  C9  UNL     1      11.545   2.747  27.471  1.00  0.00     0.021 A 
HETATM   17  C10 UNL     1      11.815   2.828  28.848  1.00  0.00     0.068 A 
BRANCH  17  18
HETATM   18  C11 UNL     1      12.960   3.593  29.268  1.00  0.00     0.211 C 
HETATM   19  O2  UNL     1      13.632   3.419  30.305  1.00  0.00    -0.644 OA
HETATM   20  O3  UNL     1      13.428   4.672  28.474  1.00  0.00    -0.644 OA
ENDBRANCH  17  18
ENDBRANCH   1  12
TORSDOF 3
ENDMDL
