MODEL 6
REMARK VINA RESULT: -8.728715461      2.087      6.859
REMARK  3 active torsions:
REMARK  status: ('A' for Active; 'I' for Inactive)
REMARK    1  A    between atoms: N1_6  and  N2_8 
REMARK    2  A    between atoms: N2_8  and  C5_10 
REMARK    3  A    between atoms: C10_15  and  C11_16 
ROOT
HETATM    1  N2  UNL     1      11.502   0.921  32.331  1.00  0.00    -0.299 N 
ATOM      2  H2  UNL     1      11.775   1.902  32.377  1.00  0.00     0.187 HD
ENDROOT
BRANCH   1   3
HETATM    3  N1  UNL     1      10.699   0.457  31.261  1.00  0.00    -0.300 N 
HETATM    4  C4  UNL     1      10.580   1.238  30.233  1.00  0.00     0.048 A 
HETATM    5  C3  UNL     1       9.771   0.837  29.088  1.00  0.00     0.035 A 
HETATM    6  C12 UNL     1      11.237   2.539  30.162  1.00  0.00     0.035 A 
HETATM    7  C2  UNL     1       9.619   1.597  28.014  1.00  0.00     0.057 A 
HETATM    8  C1  UNL     1      10.278   2.896  27.949  1.00  0.00     0.172 A 
HETATM    9  O1  UNL     1      10.156   3.656  26.937  1.00  0.00    -0.289 OA
HETATM   10  C13 UNL     1      11.087   3.303  29.090  1.00  0.00     0.057 A 
ATOM     11  H1  UNL     1      10.234  -0.450  31.297  1.00  0.00     0.187 HD
ENDBRANCH   1   3
BRANCH   1  12
HETATM   12  C5  UNL     1      11.920   0.026  33.326  1.00  0.00     0.065 A 
HETATM   13  C6  UNL     1      13.267   0.057  33.711  1.00  0.00     0.032 A 
HETATM   14  C7  UNL     1      13.805  -0.755  34.662  1.00  0.00     0.002 A 
HETATM   15  C8  UNL     1      12.971  -1.661  35.283  1.00  0.00     0.001 A 
HETATM   16  C9  UNL     1      11.653  -1.712  34.925  1.00  0.00     0.021 A 
HETATM   17  C10 UNL     1      11.111  -0.867  33.941  1.00  0.00     0.068 A 
BRANCH  17  18
HETATM   18  C11 UNL     1       9.710  -0.998  33.635  1.00  0.00     0.211 C 
HETATM   19  O2  UNL     1       8.911  -0.071  33.395  1.00  0.00    -0.644 OA
HETATM   20  O3  UNL     1       9.107  -2.282  33.585  1.00  0.00    -0.644 OA
ENDBRANCH  17  18
ENDBRANCH   1  12
TORSDOF 3
ENDMDL
