MODEL 4
REMARK VINA RESULT: -9.195541384      1.890      6.729
REMARK  3 active torsions:
REMARK  status: ('A' for Active; 'I' for Inactive)
REMARK    1  A    between atoms: N1_6  and  N2_8 
REMARK    2  A    between atoms: N2_8  and  C5_10 
REMARK    3  A    between atoms: C10_15  and  C11_16 
ROOT
HETATM    1  N2  UNL     1      10.432   0.829  32.481  1.00  0.00    -0.299 N 
ATOM      2  H2  UNL     1       9.926   1.613  32.893  1.00  0.00     0.187 HD
ENDROOT
BRANCH   1   3
HETATM    3  N1  UNL     1      10.270   0.522  31.109  1.00  0.00    -0.300 N 
HETATM    4  C4  UNL     1      10.828   1.323  30.257  1.00  0.00     0.048 A 
HETATM    5  C3  UNL     1      10.709   1.079  28.823  1.00  0.00     0.035 A 
HETATM    6  C12 UNL     1      11.594   2.493  30.672  1.00  0.00     0.035 A 
HETATM    7  C2  UNL     1      11.261   1.866  27.913  1.00  0.00     0.057 A 
HETATM    8  C1  UNL     1      12.026   3.034  28.334  1.00  0.00     0.172 A 
HETATM    9  O1  UNL     1      12.571   3.815  27.492  1.00  0.00    -0.289 OA
HETATM   10  C13 UNL     1      12.149   3.284  29.764  1.00  0.00     0.057 A 
ATOM     11  H1  UNL     1       9.737  -0.293  30.804  1.00  0.00     0.187 HD
ENDBRANCH   1   3
BRANCH   1  12
HETATM   12  C5  UNL     1      11.292   0.053  33.271  1.00  0.00     0.065 A 
HETATM   13  C6  UNL     1      12.637   0.439  33.351  1.00  0.00     0.032 A 
HETATM   14  C7  UNL     1      13.576  -0.224  34.080  1.00  0.00     0.002 A 
HETATM   15  C8  UNL     1      13.177  -1.341  34.782  1.00  0.00     0.001 A 
HETATM   16  C9  UNL     1      11.871  -1.739  34.721  1.00  0.00     0.021 A 
HETATM   17  C10 UNL     1      10.911  -1.046  33.964  1.00  0.00     0.068 A 
BRANCH  17  18
HETATM   18  C11 UNL     1       9.560  -1.544  33.965  1.00  0.00     0.211 C 
HETATM   19  O2  UNL     1       8.592  -1.070  33.338  1.00  0.00    -0.644 OA
HETATM   20  O3  UNL     1       9.222  -2.688  34.734  1.00  0.00    -0.644 OA
ENDBRANCH  17  18
ENDBRANCH   1  12
TORSDOF 3
ENDMDL
