MODEL 1
REMARK VINA RESULT: -10.947079479      0.000      0.000
REMARK  3 active torsions:
REMARK  status: ('A' for Active; 'I' for Inactive)
REMARK    1  A    between atoms: N1_6  and  N2_8 
REMARK    2  A    between atoms: N2_8  and  C5_10 
REMARK    3  A    between atoms: C10_15  and  C11_16 
ROOT
HETATM    1  N2  UNL     1      11.442   1.677  30.971  1.00  0.00    -0.299 N 
ATOM      2  H2  UNL     1      12.088   2.276  31.485  1.00  0.00     0.187 HD
ENDROOT
BRANCH   1   3
HETATM    3  N1  UNL     1      10.842   0.566  31.612  1.00  0.00    -0.300 N 
HETATM    4  C4  UNL     1      11.485   0.043  32.607  1.00  0.00     0.048 A 
HETATM    5  C3  UNL     1      10.938  -1.104  33.323  1.00  0.00     0.035 A 
HETATM    6  C12 UNL     1      12.771   0.561  33.064  1.00  0.00     0.035 A 
HETATM    7  C2  UNL     1      11.555  -1.674  34.346  1.00  0.00     0.057 A 
HETATM    8  C1  UNL     1      12.839  -1.152  34.798  1.00  0.00     0.172 A 
HETATM    9  O1  UNL     1      13.465  -1.670  35.776  1.00  0.00    -0.289 OA
HETATM   10  C13 UNL     1      13.392  -0.006  34.088  1.00  0.00     0.057 A 
ATOM     11  H1  UNL     1       9.944   0.194  31.303  1.00  0.00     0.187 HD
ENDBRANCH   1   3
BRANCH   1  12
HETATM   12  C5  UNL     1      11.144   1.951  29.629  1.00  0.00     0.065 A 
HETATM   13  C6  UNL     1      10.035   1.312  29.059  1.00  0.00     0.032 A 
HETATM   14  C7  UNL     1       9.636   1.487  27.770  1.00  0.00     0.002 A 
HETATM   15  C8  UNL     1      10.368   2.346  26.979  1.00  0.00     0.001 A 
HETATM   16  C9  UNL     1      11.455   2.983  27.510  1.00  0.00     0.021 A 
HETATM   17  C10 UNL     1      11.857   2.792  28.843  1.00  0.00     0.068 A 
BRANCH  17  18
HETATM   18  C11 UNL     1      13.016   3.508  29.309  1.00  0.00     0.211 C 
HETATM   19  O2  UNL     1      13.695   3.248  30.323  1.00  0.00    -0.644 OA
HETATM   20  O3  UNL     1      13.493   4.638  28.593  1.00  0.00    -0.644 OA
ENDBRANCH  17  18
ENDBRANCH   1  12
TORSDOF 3
ENDMDL
