MODEL 3
REMARK VINA RESULT: -9.811890976      1.790      2.109
REMARK  3 active torsions:
REMARK  status: ('A' for Active; 'I' for Inactive)
REMARK    1  A    between atoms: N1_6  and  N2_8 
REMARK    2  A    between atoms: N2_8  and  C5_10 
REMARK    3  A    between atoms: C10_15  and  C11_16 
ROOT
HETATM    1  N2  UNL     1      11.256   1.373  31.037  1.00  0.00    -0.299 N 
ATOM      2  H2  UNL     1      12.178   1.025  31.302  1.00  0.00     0.187 HD
ENDROOT
BRANCH   1   3
HETATM    3  N1  UNL     1      10.250   1.537  32.019  1.00  0.00    -0.300 N 
HETATM    4  C4  UNL     1       9.940   0.494  32.723  1.00  0.00     0.048 A 
HETATM    5  C3  UNL     1       8.913   0.576  33.756  1.00  0.00     0.035 A 
HETATM    6  C12 UNL     1      10.585  -0.800  32.527  1.00  0.00     0.035 A 
HETATM    7  C2  UNL     1       8.560  -0.460  34.501  1.00  0.00     0.057 A 
HETATM    8  C1  UNL     1       9.209  -1.750  34.301  1.00  0.00     0.172 A 
HETATM    9  O1  UNL     1       8.898  -2.769  34.995  1.00  0.00    -0.289 OA
HETATM   10  C13 UNL     1      10.235  -1.839  33.270  1.00  0.00     0.057 A 
ATOM     11  H1  UNL     1       9.791   2.435  32.167  1.00  0.00     0.187 HD
ENDBRANCH   1   3
BRANCH   1  12
HETATM   12  C5  UNL     1      10.982   1.691  29.700  1.00  0.00     0.065 A 
HETATM   13  C6  UNL     1       9.849   1.116  29.108  1.00  0.00     0.032 A 
HETATM   14  C7  UNL     1       9.468   1.339  27.820  1.00  0.00     0.002 A 
HETATM   15  C8  UNL     1      10.244   2.182  27.054  1.00  0.00     0.001 A 
HETATM   16  C9  UNL     1      11.355   2.756  27.607  1.00  0.00     0.021 A 
HETATM   17  C10 UNL     1      11.737   2.517  28.938  1.00  0.00     0.068 A 
BRANCH  17  18
HETATM   18  C11 UNL     1      12.924   3.169  29.428  1.00  0.00     0.211 C 
HETATM   19  O2  UNL     1      13.532   2.911  30.486  1.00  0.00    -0.644 OA
HETATM   20  O3  UNL     1      13.518   4.223  28.685  1.00  0.00    -0.644 OA
ENDBRANCH  17  18
ENDBRANCH   1  12
TORSDOF 3
ENDMDL
