MODEL 1
REMARK VINA RESULT: -7.433357769      0.000      0.000
REMARK  3 active torsions:
REMARK  status: ('A' for Active; 'I' for Inactive)
REMARK    1  A    between atoms: N1_2  and  C1_4 
REMARK    2  A    between atoms: C4_7  and  O3_8 
REMARK    3  A    between atoms: C5_10  and  O4_11 
ROOT
HETATM    1  C1  UNL     1      -5.774 -31.992 -18.827  1.00  0.00     0.105 A 
HETATM    2  C2  UNL     1      -6.382 -31.096 -19.681  1.00  0.00     0.039 A 
HETATM    3  C3  UNL     1      -6.240 -31.177 -21.052  1.00  0.00     0.042 A 
HETATM    4  C4  UNL     1      -5.477 -32.172 -21.628  1.00  0.00     0.098 A 
HETATM    5  C5  UNL     1      -4.868 -33.070 -20.775  1.00  0.00     0.101 A 
HETATM    6  C6  UNL     1      -5.011 -32.985 -19.405  1.00  0.00     0.075 A 
ENDROOT
BRANCH   1   7
HETATM    7  N1  UNL     1      -5.914 -31.914 -17.412  1.00  0.00    -0.116 N 
HETATM    8  O1  UNL     1      -5.195 -32.604 -16.664  1.00  0.00    -0.532 OA
HETATM    9  O2  UNL     1      -6.828 -31.092 -16.805  1.00  0.00    -0.532 OA
ENDBRANCH   1   7
BRANCH   5  10
HETATM   10  O4  UNL     1      -4.095 -34.072 -21.382  1.00  0.00    -0.358 OA
ATOM     11  H4  UNL     1      -4.082 -34.071 -22.332  1.00  0.00     0.217 HD
ENDBRANCH   5  10
BRANCH   4  12
HETATM   12  O3  UNL     1      -5.346 -32.238 -23.016  1.00  0.00    -0.358 OA
ATOM     13  H3  UNL     1      -6.072 -31.986 -23.574  1.00  0.00     0.217 HD
ENDBRANCH   4  12
TORSDOF 3
ENDMDL
