MODEL 5
REMARK VINA RESULT: -6.308638222      1.682      4.519
REMARK  3 active torsions:
REMARK  status: ('A' for Active; 'I' for Inactive)
REMARK    1  A    between atoms: N1_2  and  C1_4 
REMARK    2  A    between atoms: C4_7  and  O3_8 
REMARK    3  A    between atoms: C5_10  and  O4_11 
ROOT
HETATM    1  C1  UNL     1      -5.124 -32.806 -20.016  1.00  0.00     0.105 A 
HETATM    2  C2  UNL     1      -4.352 -33.211 -18.947  1.00  0.00     0.039 A 
HETATM    3  C3  UNL     1      -4.660 -32.866 -17.647  1.00  0.00     0.042 A 
HETATM    4  C4  UNL     1      -5.767 -32.094 -17.361  1.00  0.00     0.098 A 
HETATM    5  C5  UNL     1      -6.542 -31.688 -18.429  1.00  0.00     0.101 A 
HETATM    6  C6  UNL     1      -6.231 -32.034 -19.728  1.00  0.00     0.075 A 
ENDROOT
BRANCH   1   7
HETATM    7  N1  UNL     1      -4.813 -33.157 -21.360  1.00  0.00    -0.116 N 
HETATM    8  O1  UNL     1      -4.010 -34.077 -21.606  1.00  0.00    -0.532 OA
HETATM    9  O2  UNL     1      -5.369 -32.517 -22.438  1.00  0.00    -0.532 OA
ENDBRANCH   1   7
BRANCH   5  10
HETATM   10  O4  UNL     1      -7.662 -30.903 -18.115  1.00  0.00    -0.358 OA
ATOM     11  H4  UNL     1      -7.877 -30.215 -18.734  1.00  0.00     0.217 HD
ENDBRANCH   5  10
BRANCH   4  12
HETATM   12  O3  UNL     1      -6.062 -31.756 -16.040  1.00  0.00    -0.358 OA
ATOM     13  H3  UNL     1      -6.498 -32.383 -15.474  1.00  0.00     0.217 HD
ENDBRANCH   4  12
TORSDOF 3
ENDMDL
