MODEL 4
REMARK VINA RESULT: -6.677086567      1.709      4.653
REMARK  3 active torsions:
REMARK  status: ('A' for Active; 'I' for Inactive)
REMARK    1  A    between atoms: N1_2  and  C1_4 
REMARK    2  A    between atoms: C4_7  and  O3_8 
REMARK    3  A    between atoms: C5_10  and  O4_11 
ROOT
HETATM    1  C1  UNL     1      -5.649 -32.003 -19.824  1.00  0.00     0.105 A 
HETATM    2  C2  UNL     1      -4.677 -32.753 -19.195  1.00  0.00     0.039 A 
HETATM    3  C3  UNL     1      -4.668 -32.946 -17.829  1.00  0.00     0.042 A 
HETATM    4  C4  UNL     1      -5.645 -32.389 -17.028  1.00  0.00     0.098 A 
HETATM    5  C5  UNL     1      -6.618 -31.639 -17.655  1.00  0.00     0.101 A 
HETATM    6  C6  UNL     1      -6.624 -31.448 -19.021  1.00  0.00     0.075 A 
ENDROOT
BRANCH   1   7
HETATM    7  N1  UNL     1      -5.665 -31.799 -21.233  1.00  0.00    -0.116 N 
HETATM    8  O1  UNL     1      -5.896 -30.671 -21.708  1.00  0.00    -0.532 OA
HETATM    9  O2  UNL     1      -5.431 -32.811 -22.128  1.00  0.00    -0.532 OA
ENDBRANCH   1   7
BRANCH   5  10
HETATM   10  O4  UNL     1      -7.601 -31.081 -16.821  1.00  0.00    -0.358 OA
ATOM     11  H4  UNL     1      -8.049 -30.316 -17.158  1.00  0.00     0.217 HD
ENDBRANCH   5  10
BRANCH   4  12
HETATM   12  O3  UNL     1      -5.619 -32.596 -15.648  1.00  0.00    -0.358 OA
ATOM     13  H3  UNL     1      -5.586 -33.479 -15.300  1.00  0.00     0.217 HD
ENDBRANCH   4  12
TORSDOF 3
ENDMDL
