MODEL 8
REMARK VINA RESULT: -4.641510178      8.259      8.929
REMARK  3 active torsions:
REMARK  status: ('A' for Active; 'I' for Inactive)
REMARK    1  A    between atoms: N1_2  and  C1_4 
REMARK    2  A    between atoms: C4_7  and  O3_8 
REMARK    3  A    between atoms: C5_10  and  O4_11 
ROOT
HETATM    1  C1  UNL     1      -8.806 -32.185 -27.677  1.00  0.00     0.105 A 
HETATM    2  C2  UNL     1      -8.599 -33.418 -27.093  1.00  0.00     0.039 A 
HETATM    3  C3  UNL     1      -7.344 -33.984 -27.000  1.00  0.00     0.042 A 
HETATM    4  C4  UNL     1      -6.233 -33.330 -27.493  1.00  0.00     0.098 A 
HETATM    5  C5  UNL     1      -6.438 -32.097 -28.077  1.00  0.00     0.101 A 
HETATM    6  C6  UNL     1      -7.694 -31.534 -28.168  1.00  0.00     0.075 A 
ENDROOT
BRANCH   1   7
HETATM    7  N1  UNL     1     -10.097 -31.595 -27.777  1.00  0.00    -0.116 N 
HETATM    8  O1  UNL     1     -11.091 -32.288 -28.066  1.00  0.00    -0.532 OA
HETATM    9  O2  UNL     1     -10.316 -30.258 -27.565  1.00  0.00    -0.532 OA
ENDBRANCH   1   7
BRANCH   5  10
HETATM   10  O4  UNL     1      -5.294 -31.451 -28.572  1.00  0.00    -0.358 OA
ATOM     11  H4  UNL     1      -4.975 -31.752 -29.414  1.00  0.00     0.217 HD
ENDBRANCH   5  10
BRANCH   4  12
HETATM   12  O3  UNL     1      -4.971 -33.919 -27.389  1.00  0.00    -0.358 OA
ATOM     13  H3  UNL     1      -4.204 -33.378 -27.244  1.00  0.00     0.217 HD
ENDBRANCH   4  12
TORSDOF 3
ENDMDL
