MODEL 4
REMARK VINA RESULT: -7.706323504      1.085      1.110
REMARK  3 active torsions:
REMARK  status: ('A' for Active; 'I' for Inactive)
REMARK    1  A    between atoms: C3_3  and  N1_4 
REMARK    2  A    between atoms: N1_4  and  C4_6 
REMARK    3  A    between atoms: C8_10  and  O1_12 
ROOT
HETATM    1  C1  UNL     1     -24.974   1.625  -5.629  1.00  0.00     0.052 C 
HETATM    2  C2  UNL     1     -25.737   2.815  -5.213  1.00  0.00    -0.012 A 
HETATM    3  C3  UNL     1     -27.101   2.706  -5.046  1.00  0.00     0.036 A 
HETATM    4  C10 UNL     1     -27.802   3.826  -4.657  1.00  0.00     0.031 A 
HETATM    5  C11 UNL     1     -27.196   5.043  -4.429  1.00  0.00     0.027 A 
HETATM    6  C12 UNL     1     -25.834   5.132  -4.600  1.00  0.00     0.067 A 
HETATM    7  C13 UNL     1     -25.135   6.386  -4.376  1.00  0.00     0.101 C 
HETATM    8  N2  UNL     1     -24.592   7.394  -4.192  1.00  0.00    -0.191 NA
HETATM    9  C14 UNL     1     -25.115   4.019  -4.991  1.00  0.00     0.062 A 
HETATM   10 CL1  UNL     1     -23.367   4.201  -5.194  1.00  0.00    -0.082 Cl
ENDROOT
BRANCH   3  11
HETATM   11  N1  UNL     1     -27.720   1.450  -5.291  1.00  0.00    -0.382 N 
ATOM     12  H1  UNL     1     -27.592   0.965  -6.179  1.00  0.00     0.160 HD
BRANCH  11  13
HETATM   13  C4  UNL     1     -28.535   0.881  -4.243  1.00  0.00     0.115 C 
HETATM   14  C5  UNL     1     -27.602   0.508  -3.110  1.00  0.00     0.028 C 
HETATM   15  C6  UNL     1     -27.392  -1.007  -3.213  1.00  0.00     0.005 C 
HETATM   16  C7  UNL     1     -28.004  -1.385  -4.554  1.00  0.00     0.040 C 
HETATM   17  C8  UNL     1     -29.158  -0.421  -4.607  1.00  0.00     0.074 C 
HETATM   18  C9  UNL     1     -29.876  -0.419  -5.918  1.00  0.00     0.048 C 
BRANCH  17  19
HETATM   19  O1  UNL     1     -30.088  -0.741  -3.606  1.00  0.00    -0.388 OA
ATOM     20  H1  UNL     1     -30.326   0.067  -3.166  1.00  0.00     0.210 HD
ENDBRANCH  17  19
ENDBRANCH  11  13
ENDBRANCH   3  11
TORSDOF 3
ENDMDL
