MODEL 7
REMARK VINA RESULT: -6.437722815      3.154      6.084
REMARK  3 active torsions:
REMARK  status: ('A' for Active; 'I' for Inactive)
REMARK    1  A    between atoms: C3_3  and  N1_4 
REMARK    2  A    between atoms: N1_4  and  C4_6 
REMARK    3  A    between atoms: C8_10  and  O1_12 
ROOT
HETATM    1  C1  UNL     1     -25.058   1.276  -3.544  1.00  0.00     0.052 C 
HETATM    2  C2  UNL     1     -26.422   1.470  -4.066  1.00  0.00    -0.012 A 
HETATM    3  C3  UNL     1     -26.846   2.748  -4.362  1.00  0.00     0.036 A 
HETATM    4  C10 UNL     1     -28.123   2.915  -4.850  1.00  0.00     0.031 A 
HETATM    5  C11 UNL     1     -28.989   1.860  -5.052  1.00  0.00     0.027 A 
HETATM    6  C12 UNL     1     -28.548   0.593  -4.751  1.00  0.00     0.067 A 
HETATM    7  C13 UNL     1     -29.410  -0.561  -4.941  1.00  0.00     0.101 C 
HETATM    8  N2  UNL     1     -30.111  -1.471  -5.099  1.00  0.00    -0.191 NA
HETATM    9  C14 UNL     1     -27.270   0.406  -4.261  1.00  0.00     0.062 A 
HETATM   10 CL1  UNL     1     -26.765  -1.249  -3.894  1.00  0.00    -0.082 Cl
ENDROOT
BRANCH   3  11
HETATM   11  N1  UNL     1     -25.951   3.830  -4.143  1.00  0.00    -0.382 N 
ATOM     12  H1  UNL     1     -25.657   4.087  -3.201  1.00  0.00     0.160 HD
BRANCH  11  13
HETATM   13  C4  UNL     1     -25.471   4.555  -5.297  1.00  0.00     0.115 C 
HETATM   14  C5  UNL     1     -24.565   3.615  -6.064  1.00  0.00     0.028 C 
HETATM   15  C6  UNL     1     -23.130   4.027  -5.714  1.00  0.00     0.005 C 
HETATM   16  C7  UNL     1     -23.288   5.009  -4.563  1.00  0.00     0.040 C 
HETATM   17  C8  UNL     1     -24.569   5.690  -4.960  1.00  0.00     0.074 C 
HETATM   18  C9  UNL     1     -25.102   6.616  -3.914  1.00  0.00     0.048 C 
BRANCH  17  19
HETATM   19  O1  UNL     1     -24.366   6.434  -6.132  1.00  0.00    -0.388 OA
ATOM     20  H1  UNL     1     -23.429   6.477  -6.287  1.00  0.00     0.210 HD
ENDBRANCH  17  19
ENDBRANCH  11  13
ENDBRANCH   3  11
TORSDOF 3
ENDMDL
