MODEL 10
REMARK VINA RESULT: -6.098064536      2.936      6.074
REMARK  3 active torsions:
REMARK  status: ('A' for Active; 'I' for Inactive)
REMARK    1  A    between atoms: C3_3  and  N1_4 
REMARK    2  A    between atoms: N1_4  and  C4_6 
REMARK    3  A    between atoms: C8_10  and  O1_12 
ROOT
HETATM    1  C1  UNL     1     -24.718   0.775  -4.509  1.00  0.00     0.052 C 
HETATM    2  C2  UNL     1     -26.176   0.828  -4.302  1.00  0.00    -0.012 A 
HETATM    3  C3  UNL     1     -26.769   2.048  -4.055  1.00  0.00     0.036 A 
HETATM    4  C10 UNL     1     -28.132   2.084  -3.864  1.00  0.00     0.031 A 
HETATM    5  C11 UNL     1     -28.922   0.954  -3.908  1.00  0.00     0.027 A 
HETATM    6  C12 UNL     1     -28.312  -0.254  -4.155  1.00  0.00     0.067 A 
HETATM    7  C13 UNL     1     -29.087  -1.481  -4.214  1.00  0.00     0.101 C 
HETATM    8  N2  UNL     1     -29.721  -2.451  -4.259  1.00  0.00    -0.191 NA
HETATM    9  C14 UNL     1     -26.946  -0.308  -4.350  1.00  0.00     0.062 A 
HETATM   10 CL1  UNL     1     -26.224  -1.894  -4.662  1.00  0.00    -0.082 Cl
ENDROOT
BRANCH   3  11
HETATM   11  N1  UNL     1     -25.947   3.207  -4.003  1.00  0.00    -0.382 N 
ATOM     12  H1  UNL     1     -25.213   3.300  -3.301  1.00  0.00     0.160 HD
BRANCH  11  13
HETATM   13  C4  UNL     1     -26.183   4.248  -4.976  1.00  0.00     0.115 C 
HETATM   14  C5  UNL     1     -24.841   4.599  -5.584  1.00  0.00     0.028 C 
HETATM   15  C6  UNL     1     -24.391   5.896  -4.903  1.00  0.00     0.005 C 
HETATM   16  C7  UNL     1     -25.372   6.082  -3.755  1.00  0.00     0.040 C 
HETATM   17  C8  UNL     1     -26.628   5.538  -4.379  1.00  0.00     0.074 C 
HETATM   18  C9  UNL     1     -27.768   5.416  -3.420  1.00  0.00     0.048 C 
BRANCH  17  19
HETATM   19  O1  UNL     1     -27.035   6.374  -5.430  1.00  0.00    -0.388 OA
ATOM     20  H1  UNL     1     -26.302   6.937  -5.650  1.00  0.00     0.210 HD
ENDBRANCH  17  19
ENDBRANCH  11  13
ENDBRANCH   3  11
TORSDOF 3
ENDMDL
