MODEL 13
REMARK VINA RESULT: -5.770427351      3.251      6.269
REMARK  3 active torsions:
REMARK  status: ('A' for Active; 'I' for Inactive)
REMARK    1  A    between atoms: C3_3  and  N1_4 
REMARK    2  A    between atoms: N1_4  and  C4_6 
REMARK    3  A    between atoms: C8_10  and  O1_12 
ROOT
HETATM    1  C1  UNL     1     -28.684   2.290  -6.274  1.00  0.00     0.052 C 
HETATM    2  C2  UNL     1     -28.367   1.269  -5.260  1.00  0.00    -0.012 A 
HETATM    3  C3  UNL     1     -27.309   1.487  -4.405  1.00  0.00     0.036 A 
HETATM    4  C10 UNL     1     -27.024   0.525  -3.461  1.00  0.00     0.031 A 
HETATM    5  C11 UNL     1     -27.752  -0.640  -3.341  1.00  0.00     0.027 A 
HETATM    6  C12 UNL     1     -28.804  -0.840  -4.204  1.00  0.00     0.067 A 
HETATM    7  C13 UNL     1     -29.610  -2.046  -4.129  1.00  0.00     0.101 C 
HETATM    8  N2  UNL     1     -30.244  -3.014  -4.056  1.00  0.00    -0.191 NA
HETATM    9  C14 UNL     1     -29.104   0.115  -5.156  1.00  0.00     0.062 A 
HETATM   10 CL1  UNL     1     -30.471  -0.204  -6.234  1.00  0.00    -0.082 Cl
ENDROOT
BRANCH   3  11
HETATM   11  N1  UNL     1     -26.559   2.687  -4.540  1.00  0.00    -0.382 N 
ATOM     12  H1  UNL     1     -26.691   3.466  -3.896  1.00  0.00     0.160 HD
BRANCH  11  13
HETATM   13  C4  UNL     1     -25.603   2.769  -5.620  1.00  0.00     0.115 C 
HETATM   14  C5  UNL     1     -24.824   1.469  -5.622  1.00  0.00     0.028 C 
HETATM   15  C6  UNL     1     -23.482   1.776  -4.949  1.00  0.00     0.005 C 
HETATM   16  C7  UNL     1     -23.661   3.169  -4.362  1.00  0.00     0.040 C 
HETATM   17  C8  UNL     1     -24.543   3.793  -5.408  1.00  0.00     0.074 C 
HETATM   18  C9  UNL     1     -25.057   5.145  -5.027  1.00  0.00     0.048 C 
BRANCH  17  19
HETATM   19  O1  UNL     1     -23.832   3.924  -6.610  1.00  0.00    -0.388 OA
ATOM     20  H1  UNL     1     -23.460   4.798  -6.630  1.00  0.00     0.210 HD
ENDBRANCH  17  19
ENDBRANCH  11  13
ENDBRANCH   3  11
TORSDOF 3
ENDMDL
