MODEL 5
REMARK VINA RESULT: -7.446387910      1.121      1.818
REMARK  3 active torsions:
REMARK  status: ('A' for Active; 'I' for Inactive)
REMARK    1  A    between atoms: C3_3  and  N1_4 
REMARK    2  A    between atoms: N1_4  and  C4_6 
REMARK    3  A    between atoms: C8_10  and  O1_12 
ROOT
HETATM    1  C1  UNL     1     -24.740   2.147  -4.619  1.00  0.00     0.052 C 
HETATM    2  C2  UNL     1     -25.578   3.359  -4.623  1.00  0.00    -0.012 A 
HETATM    3  C3  UNL     1     -26.905   3.251  -4.267  1.00  0.00     0.036 A 
HETATM    4  C10 UNL     1     -27.677   4.391  -4.273  1.00  0.00     0.031 A 
HETATM    5  C11 UNL     1     -27.177   5.629  -4.621  1.00  0.00     0.027 A 
HETATM    6  C12 UNL     1     -25.851   5.717  -4.974  1.00  0.00     0.067 A 
HETATM    7  C13 UNL     1     -25.263   6.990  -5.351  1.00  0.00     0.101 C 
HETATM    8  N2  UNL     1     -24.809   8.015  -5.648  1.00  0.00    -0.191 NA
HETATM    9  C14 UNL     1     -25.062   4.583  -4.972  1.00  0.00     0.062 A 
HETATM   10 CL1  UNL     1     -23.364   4.765  -5.436  1.00  0.00    -0.082 Cl
ENDROOT
BRANCH   3  11
HETATM   11  N1  UNL     1     -27.415   1.971  -3.917  1.00  0.00    -0.382 N 
ATOM     12  H1  UNL     1     -27.932   1.830  -3.049  1.00  0.00     0.160 HD
BRANCH  11  13
HETATM   13  C4  UNL     1     -27.179   0.876  -4.829  1.00  0.00     0.115 C 
HETATM   14  C5  UNL     1     -27.881   1.220  -6.126  1.00  0.00     0.028 C 
HETATM   15  C6  UNL     1     -29.183   0.412  -6.132  1.00  0.00     0.005 C 
HETATM   16  C7  UNL     1     -29.286  -0.153  -4.723  1.00  0.00     0.040 C 
HETATM   17  C8  UNL     1     -27.833  -0.397  -4.421  1.00  0.00     0.074 C 
HETATM   18  C9  UNL     1     -27.575  -0.800  -3.005  1.00  0.00     0.048 C 
BRANCH  17  19
HETATM   19  O1  UNL     1     -27.341  -1.413  -5.255  1.00  0.00    -0.388 OA
ATOM     20  H1  UNL     1     -27.225  -2.191  -4.722  1.00  0.00     0.210 HD
ENDBRANCH  17  19
ENDBRANCH  11  13
ENDBRANCH   3  11
TORSDOF 3
ENDMDL
