MODEL 3
REMARK VINA RESULT: -7.908839121      0.864      1.605
REMARK  3 active torsions:
REMARK  status: ('A' for Active; 'I' for Inactive)
REMARK    1  A    between atoms: C3_3  and  N1_4 
REMARK    2  A    between atoms: N1_4  and  C4_6 
REMARK    3  A    between atoms: C8_10  and  O1_12 
ROOT
HETATM    1  C1  UNL     1     -24.231   2.278  -5.329  1.00  0.00     0.052 C 
HETATM    2  C2  UNL     1     -25.215   3.255  -4.828  1.00  0.00    -0.012 A 
HETATM    3  C3  UNL     1     -26.362   2.792  -4.219  1.00  0.00     0.036 A 
HETATM    4  C10 UNL     1     -27.272   3.715  -3.755  1.00  0.00     0.031 A 
HETATM    5  C11 UNL     1     -27.082   5.076  -3.876  1.00  0.00     0.027 A 
HETATM    6  C12 UNL     1     -25.932   5.519  -4.487  1.00  0.00     0.067 A 
HETATM    7  C13 UNL     1     -25.672   6.939  -4.646  1.00  0.00     0.101 C 
HETATM    8  N2  UNL     1     -25.479   8.076  -4.764  1.00  0.00    -0.191 NA
HETATM    9  C14 UNL     1     -25.008   4.606  -4.958  1.00  0.00     0.062 A 
HETATM   10 CL1  UNL     1     -23.550   5.242  -5.734  1.00  0.00    -0.082 Cl
ENDROOT
BRANCH   3  11
HETATM   11  N1  UNL     1     -26.554   1.388  -4.106  1.00  0.00    -0.382 N 
ATOM     12  H1  UNL     1     -26.041   0.841  -3.414  1.00  0.00     0.160 HD
BRANCH  11  13
HETATM   13  C4  UNL     1     -27.497   0.759  -5.000  1.00  0.00     0.115 C 
HETATM   14  C5  UNL     1     -28.633   1.740  -5.207  1.00  0.00     0.028 C 
HETATM   15  C6  UNL     1     -29.779   1.258  -4.311  1.00  0.00     0.005 C 
HETATM   16  C7  UNL     1     -29.153   0.179  -3.440  1.00  0.00     0.040 C 
HETATM   17  C8  UNL     1     -28.181  -0.427  -4.416  1.00  0.00     0.074 C 
HETATM   18  C9  UNL     1     -27.260  -1.430  -3.798  1.00  0.00     0.048 C 
BRANCH  17  19
HETATM   19  O1  UNL     1     -28.883  -1.065  -5.449  1.00  0.00    -0.388 OA
ATOM     20  H1  UNL     1     -29.263  -1.858  -5.092  1.00  0.00     0.210 HD
ENDBRANCH  17  19
ENDBRANCH  11  13
ENDBRANCH   3  11
TORSDOF 3
ENDMDL
