MODEL 2
REMARK VINA RESULT: -8.665184880      0.854      1.060
REMARK  3 active torsions:
REMARK  status: ('A' for Active; 'I' for Inactive)
REMARK    1  A    between atoms: C3_3  and  N1_4 
REMARK    2  A    between atoms: N1_4  and  C4_6 
REMARK    3  A    between atoms: C8_10  and  O1_12 
ROOT
HETATM    1  C1  UNL     1     -24.407   2.118  -4.676  1.00  0.00     0.052 C 
HETATM    2  C2  UNL     1     -25.349   3.245  -4.560  1.00  0.00    -0.012 A 
HETATM    3  C3  UNL     1     -26.625   3.002  -4.099  1.00  0.00     0.036 A 
HETATM    4  C10 UNL     1     -27.495   4.064  -3.995  1.00  0.00     0.031 A 
HETATM    5  C11 UNL     1     -27.141   5.354  -4.333  1.00  0.00     0.027 A 
HETATM    6  C12 UNL     1     -25.863   5.577  -4.791  1.00  0.00     0.067 A 
HETATM    7  C13 UNL     1     -25.427   6.912  -5.164  1.00  0.00     0.101 C 
HETATM    8  N2  UNL     1     -25.096   7.984  -5.456  1.00  0.00    -0.191 NA
HETATM    9  C14 UNL     1     -24.977   4.523  -4.902  1.00  0.00     0.062 A 
HETATM   10 CL1  UNL     1     -23.350   4.878  -5.498  1.00  0.00    -0.082 Cl
ENDROOT
BRANCH   3  11
HETATM   11  N1  UNL     1     -26.985   1.669  -3.761  1.00  0.00    -0.382 N 
ATOM     12  H1  UNL     1     -26.502   1.167  -3.016  1.00  0.00     0.160 HD
BRANCH  11  13
HETATM   13  C4  UNL     1     -28.055   1.047  -4.505  1.00  0.00     0.115 C 
HETATM   14  C5  UNL     1     -29.192   0.813  -3.533  1.00  0.00     0.028 C 
HETATM   15  C6  UNL     1     -29.133  -0.673  -3.159  1.00  0.00     0.005 C 
HETATM   16  C7  UNL     1     -27.809  -1.156  -3.732  1.00  0.00     0.040 C 
HETATM   17  C8  UNL     1     -27.735  -0.326  -4.984  1.00  0.00     0.074 C 
HETATM   18  C9  UNL     1     -26.430  -0.442  -5.703  1.00  0.00     0.048 C 
BRANCH  17  19
HETATM   19  O1  UNL     1     -28.752  -0.714  -5.870  1.00  0.00    -0.388 OA
ATOM     20  H1  UNL     1     -28.407  -1.411  -6.415  1.00  0.00     0.210 HD
ENDBRANCH  17  19
ENDBRANCH  11  13
ENDBRANCH   3  11
TORSDOF 3
ENDMDL
