MODEL 1
REMARK VINA RESULT: -8.755381000      0.000      0.000
REMARK  3 active torsions:
REMARK  status: ('A' for Active; 'I' for Inactive)
REMARK    1  A    between atoms: C3_3  and  N1_4 
REMARK    2  A    between atoms: N1_4  and  C4_6 
REMARK    3  A    between atoms: C8_10  and  O1_12 
ROOT
HETATM    1  C1  UNL     1     -24.466   2.146  -5.079  1.00  0.00     0.052 C 
HETATM    2  C2  UNL     1     -25.431   3.199  -4.720  1.00  0.00    -0.012 A 
HETATM    3  C3  UNL     1     -26.656   2.832  -4.204  1.00  0.00     0.036 A 
HETATM    4  C10 UNL     1     -27.549   3.826  -3.872  1.00  0.00     0.031 A 
HETATM    5  C11 UNL     1     -27.267   5.166  -4.034  1.00  0.00     0.027 A 
HETATM    6  C12 UNL     1     -26.040   5.514  -4.550  1.00  0.00     0.067 A 
HETATM    7  C13 UNL     1     -25.681   6.908  -4.746  1.00  0.00     0.101 C 
HETATM    8  N2  UNL     1     -25.411   8.025  -4.895  1.00  0.00    -0.191 NA
HETATM    9  C14 UNL     1     -25.132   4.529  -4.889  1.00  0.00     0.062 A 
HETATM   10 CL1  UNL     1     -23.572   5.043  -5.547  1.00  0.00    -0.082 Cl
ENDROOT
BRANCH   3  11
HETATM   11  N1  UNL     1     -26.942   1.448  -4.048  1.00  0.00    -0.382 N 
ATOM     12  H1  UNL     1     -26.192   0.762  -3.965  1.00  0.00     0.160 HD
BRANCH  11  13
HETATM   13  C4  UNL     1     -28.328   1.044  -4.010  1.00  0.00     0.115 C 
HETATM   14  C5  UNL     1     -28.431  -0.088  -3.008  1.00  0.00     0.028 C 
HETATM   15  C6  UNL     1     -28.497  -1.380  -3.831  1.00  0.00     0.005 C 
HETATM   16  C7  UNL     1     -28.164  -0.944  -5.250  1.00  0.00     0.040 C 
HETATM   17  C8  UNL     1     -28.805   0.417  -5.273  1.00  0.00     0.074 C 
HETATM   18  C9  UNL     1     -28.498   1.202  -6.508  1.00  0.00     0.048 C 
BRANCH  17  19
HETATM   19  O1  UNL     1     -30.199   0.285  -5.181  1.00  0.00    -0.388 OA
ATOM     20  H1  UNL     1     -30.543   0.247  -6.066  1.00  0.00     0.210 HD
ENDBRANCH  17  19
ENDBRANCH  11  13
ENDBRANCH   3  11
TORSDOF 3
ENDMDL
