MODEL 2
REMARK VINA RESULT: -8.878338884      0.466      1.412
REMARK  5 active torsions:
REMARK  status: ('A' for Active; 'I' for Inactive)
REMARK    1  A    between atoms: C4_5  and  C5_6 
REMARK    2  A    between atoms: C5_6  and  C6_8 
REMARK    3  A    between atoms: C9_11  and  C10_12 
REMARK    4  A    between atoms: C13_15  and  S1_16 
REMARK    5  A    between atoms: S1_16  and  N2_17 
ROOT
HETATM    1  C6  UNL     1      66.815  36.765  -0.664  1.00  0.00     0.015 A 
HETATM    2  C7  UNL     1      65.786  37.014  -1.570  1.00  0.00     0.016 A 
HETATM    3  C8  UNL     1      65.981  37.705  -2.745  1.00  0.00     0.013 A 
HETATM    4  C9  UNL     1      67.239  38.184  -3.069  1.00  0.00    -0.026 A 
HETATM    5  C16 UNL     1      68.271  37.951  -2.190  1.00  0.00     0.013 A 
HETATM    6  C17 UNL     1      68.056  37.254  -1.013  1.00  0.00     0.016 A 
ENDROOT
BRANCH   4   7
HETATM    7  C10 UNL     1      67.443  38.912  -4.312  1.00  0.00    -0.026 A 
HETATM    8  C11 UNL     1      68.650  38.880  -4.962  1.00  0.00     0.014 A 
HETATM    9  C12 UNL     1      68.809  39.586  -6.147  1.00  0.00     0.026 A 
HETATM   10  C13 UNL     1      67.758  40.330  -6.687  1.00  0.00     0.079 A 
HETATM   11  C14 UNL     1      66.547  40.358  -6.027  1.00  0.00     0.026 A 
HETATM   12  C15 UNL     1      66.416  39.640  -4.842  1.00  0.00     0.014 A 
BRANCH  10  13
HETATM   13  S1  UNL     1      67.969  41.221  -8.184  1.00  0.00     0.256 S 
HETATM   14  O2  UNL     1      68.334  42.653  -7.846  1.00  0.00    -0.201 OA
HETATM   15  O3  UNL     1      69.074  40.653  -9.020  1.00  0.00    -0.201 OA
BRANCH  13  16
HETATM   16  N2  UNL     1      66.458  41.250  -9.008  1.00  0.00    -0.324 N 
ATOM     17  H22 UNL     1      65.746  40.522  -8.953  1.00  0.00     0.169 HD
ATOM     18  H21 UNL     1      66.408  42.112  -9.550  1.00  0.00     0.169 HD
ENDBRANCH  13  16
ENDBRANCH  10  13
ENDBRANCH   4   7
BRANCH   1  19
HETATM   19  C5  UNL     1      66.517  36.041   0.541  1.00  0.00     0.192 C 
HETATM   20  O1  UNL     1      65.831  34.984   0.456  1.00  0.00    -0.287 OA
BRANCH  19  21
HETATM   21  C4  UNL     1      66.940  36.415   1.889  1.00  0.00     0.015 A 
HETATM   22  C3  UNL     1      66.011  36.520   2.916  1.00  0.00     0.017 A 
HETATM   23  C2  UNL     1      66.377  36.864   4.200  1.00  0.00     0.027 A 
HETATM   24  C1  UNL     1      67.688  37.125   4.530  1.00  0.00     0.046 A 
HETATM   25  N1  UNL     1      68.084  37.482   5.850  1.00  0.00    -0.102 NA
HETATM   26  C19 UNL     1      68.612  37.021   3.510  1.00  0.00     0.027 A 
HETATM   27  C18 UNL     1      68.255  36.675   2.217  1.00  0.00     0.017 A 
ENDBRANCH  19  21
ENDBRANCH   1  19
TORSDOF 5
ENDMDL
