MODEL 1
REMARK VINA RESULT: -8.887274494      0.000      0.000
REMARK  5 active torsions:
REMARK  status: ('A' for Active; 'I' for Inactive)
REMARK    1  A    between atoms: C4_5  and  C5_6 
REMARK    2  A    between atoms: C5_6  and  C6_8 
REMARK    3  A    between atoms: C9_11  and  C10_12 
REMARK    4  A    between atoms: C13_15  and  S1_16 
REMARK    5  A    between atoms: S1_16  and  N2_17 
ROOT
HETATM    1  C6  UNL     1      66.809  36.777  -0.688  1.00  0.00     0.015 A 
HETATM    2  C7  UNL     1      65.805  37.013  -1.626  1.00  0.00     0.016 A 
HETATM    3  C8  UNL     1      66.026  37.716  -2.791  1.00  0.00     0.013 A 
HETATM    4  C9  UNL     1      67.285  38.220  -3.069  1.00  0.00    -0.026 A 
HETATM    5  C16 UNL     1      68.291  38.000  -2.158  1.00  0.00     0.013 A 
HETATM    6  C17 UNL     1      68.051  37.291  -0.993  1.00  0.00     0.016 A 
ENDROOT
BRANCH   4   7
HETATM    7  C10 UNL     1      67.517  38.960  -4.300  1.00  0.00    -0.026 A 
HETATM    8  C11 UNL     1      66.551  39.781  -4.826  1.00  0.00     0.014 A 
HETATM    9  C12 UNL     1      66.807  40.472  -6.002  1.00  0.00     0.026 A 
HETATM   10  C13 UNL     1      68.032  40.344  -6.660  1.00  0.00     0.079 A 
HETATM   11  C14 UNL     1      68.997  39.516  -6.126  1.00  0.00     0.026 A 
HETATM   12  C15 UNL     1      68.714  38.836  -4.945  1.00  0.00     0.014 A 
BRANCH  10  13
HETATM   13  S1  UNL     1      68.344  41.220  -8.149  1.00  0.00     0.256 S 
HETATM   14  O2  UNL     1      69.651  41.974  -7.999  1.00  0.00    -0.201 OA
HETATM   15  O3  UNL     1      68.480  40.298  -9.321  1.00  0.00    -0.201 OA
BRANCH  13  16
HETATM   16  N2  UNL     1      67.093  42.383  -8.358  1.00  0.00    -0.324 N 
ATOM     17  H22 UNL     1      66.099  42.169  -8.428  1.00  0.00     0.169 HD
ATOM     18  H21 UNL     1      67.522  43.307  -8.398  1.00  0.00     0.169 HD
ENDBRANCH  13  16
ENDBRANCH  10  13
ENDBRANCH   4   7
BRANCH   1  19
HETATM   19  C5  UNL     1      66.484  36.039   0.501  1.00  0.00     0.192 C 
HETATM   20  O1  UNL     1      65.814  34.975   0.388  1.00  0.00    -0.287 OA
BRANCH  19  21
HETATM   21  C4  UNL     1      66.863  36.408   1.864  1.00  0.00     0.015 A 
HETATM   22  C3  UNL     1      68.201  36.519   2.219  1.00  0.00     0.017 A 
HETATM   23  C2  UNL     1      68.593  36.871   3.493  1.00  0.00     0.027 A 
HETATM   24  C1  UNL     1      67.672  37.131   4.484  1.00  0.00     0.046 A 
HETATM   25  N1  UNL     1      68.058  37.496   5.805  1.00  0.00    -0.102 NA
HETATM   26  C19 UNL     1      66.342  37.021   4.132  1.00  0.00     0.027 A 
HETATM   27  C18 UNL     1      65.938  36.669   2.854  1.00  0.00     0.017 A 
ENDBRANCH  19  21
ENDBRANCH   1  19
TORSDOF 5
ENDMDL
