MODEL 7
REMARK VINA RESULT: -8.631455695      3.780      9.525
REMARK  5 active torsions:
REMARK  status: ('A' for Active; 'I' for Inactive)
REMARK    1  A    between atoms: C4_5  and  C5_6 
REMARK    2  A    between atoms: C5_6  and  C6_8 
REMARK    3  A    between atoms: C9_11  and  C10_12 
REMARK    4  A    between atoms: C13_15  and  S1_16 
REMARK    5  A    between atoms: S1_16  and  N2_17 
ROOT
HETATM    1  C6  UNL     1      66.275  36.826  -4.156  1.00  0.00     0.015 A 
HETATM    2  C7  UNL     1      67.483  37.184  -3.561  1.00  0.00     0.016 A 
HETATM    3  C8  UNL     1      67.653  37.234  -2.195  1.00  0.00     0.013 A 
HETATM    4  C9  UNL     1      66.599  36.921  -1.352  1.00  0.00    -0.026 A 
HETATM    5  C16 UNL     1      65.397  36.566  -1.917  1.00  0.00     0.013 A 
HETATM    6  C17 UNL     1      65.245  36.521  -3.293  1.00  0.00     0.016 A 
ENDROOT
BRANCH   4   7
HETATM    7  C10 UNL     1      66.782  36.972   0.091  1.00  0.00    -0.026 A 
HETATM    8  C11 UNL     1      65.827  36.480   0.943  1.00  0.00     0.014 A 
HETATM    9  C12 UNL     1      66.035  36.545   2.314  1.00  0.00     0.026 A 
HETATM   10  C13 UNL     1      67.201  37.106   2.839  1.00  0.00     0.079 A 
HETATM   11  C14 UNL     1      68.156  37.599   1.975  1.00  0.00     0.026 A 
HETATM   12  C15 UNL     1      67.922  37.519   0.605  1.00  0.00     0.014 A 
BRANCH  10  13
HETATM   13  S1  UNL     1      67.453  37.185   4.575  1.00  0.00     0.256 S 
HETATM   14  O2  UNL     1      68.893  36.815   4.870  1.00  0.00    -0.201 OA
HETATM   15  O3  UNL     1      67.216  38.564   5.110  1.00  0.00    -0.201 OA
BRANCH  13  16
HETATM   16  N2  UNL     1      66.448  36.002   5.317  1.00  0.00    -0.324 N 
ATOM     17  H22 UNL     1      66.441  35.009   5.084  1.00  0.00     0.169 HD
ATOM     18  H21 UNL     1      65.874  36.468   6.018  1.00  0.00     0.169 HD
ENDBRANCH  13  16
ENDBRANCH  10  13
ENDBRANCH   4   7
BRANCH   1  19
HETATM   19  C5  UNL     1      66.189  36.808  -5.590  1.00  0.00     0.192 C 
HETATM   20  O1  UNL     1      65.936  35.713  -6.166  1.00  0.00    -0.287 OA
BRANCH  19  21
HETATM   21  C4  UNL     1      66.370  37.961  -6.471  1.00  0.00     0.015 A 
HETATM   22  C3  UNL     1      65.703  39.153  -6.218  1.00  0.00     0.017 A 
HETATM   23  C2  UNL     1      65.856  40.261  -7.024  1.00  0.00     0.027 A 
HETATM   24  C1  UNL     1      66.681  40.241  -8.127  1.00  0.00     0.046 A 
HETATM   25  N1  UNL     1      66.850  41.376  -8.970  1.00  0.00    -0.102 NA
HETATM   26  C19 UNL     1      67.343  39.057  -8.379  1.00  0.00     0.027 A 
HETATM   27  C18 UNL     1      67.197  37.938  -7.574  1.00  0.00     0.017 A 
ENDBRANCH  19  21
ENDBRANCH   1  19
TORSDOF 5
ENDMDL
