MODEL 9
REMARK VINA RESULT: -8.540124111      3.906      9.498
REMARK  5 active torsions:
REMARK  status: ('A' for Active; 'I' for Inactive)
REMARK    1  A    between atoms: C4_5  and  C5_6 
REMARK    2  A    between atoms: C5_6  and  C6_8 
REMARK    3  A    between atoms: C9_11  and  C10_12 
REMARK    4  A    between atoms: C13_15  and  S1_16 
REMARK    5  A    between atoms: S1_16  and  N2_17 
ROOT
HETATM    1  C6  UNL     1      66.329  36.675  -4.045  1.00  0.00     0.015 A 
HETATM    2  C7  UNL     1      65.268  36.575  -3.146  1.00  0.00     0.016 A 
HETATM    3  C8  UNL     1      65.442  36.643  -1.781  1.00  0.00     0.013 A 
HETATM    4  C9  UNL     1      66.710  36.817  -1.250  1.00  0.00    -0.026 A 
HETATM    5  C16 UNL     1      67.771  36.918  -2.118  1.00  0.00     0.013 A 
HETATM    6  C17 UNL     1      67.577  36.847  -3.487  1.00  0.00     0.016 A 
ENDROOT
BRANCH   4   7
HETATM    7  C10 UNL     1      66.890  36.891   0.192  1.00  0.00    -0.026 A 
HETATM    8  C11 UNL     1      65.950  36.381   1.051  1.00  0.00     0.014 A 
HETATM    9  C12 UNL     1      66.156  36.468   2.421  1.00  0.00     0.026 A 
HETATM   10  C13 UNL     1      67.306  37.069   2.938  1.00  0.00     0.079 A 
HETATM   11  C14 UNL     1      68.246  37.579   2.069  1.00  0.00     0.026 A 
HETATM   12  C15 UNL     1      68.014  37.477   0.700  1.00  0.00     0.014 A 
BRANCH  10  13
HETATM   13  S1  UNL     1      67.556  37.176   4.673  1.00  0.00     0.256 S 
HETATM   14  O2  UNL     1      68.986  36.779   4.980  1.00  0.00    -0.201 OA
HETATM   15  O3  UNL     1      67.349  38.570   5.181  1.00  0.00    -0.201 OA
BRANCH  13  16
HETATM   16  N2  UNL     1      66.522  36.030   5.435  1.00  0.00    -0.324 N 
ATOM     17  H22 UNL     1      65.602  36.237   5.823  1.00  0.00     0.169 HD
ATOM     18  H21 UNL     1      66.991  35.125   5.425  1.00  0.00     0.169 HD
ENDBRANCH  13  16
ENDBRANCH  10  13
ENDBRANCH   4   7
BRANCH   1  19
HETATM   19  C5  UNL     1      66.053  36.586  -5.452  1.00  0.00     0.192 C 
HETATM   20  O1  UNL     1      65.671  35.479  -5.924  1.00  0.00    -0.287 OA
BRANCH  19  21
HETATM   21  C4  UNL     1      66.172  37.679  -6.416  1.00  0.00     0.015 A 
HETATM   22  C3  UNL     1      66.787  37.471  -7.645  1.00  0.00     0.017 A 
HETATM   23  C2  UNL     1      66.911  38.477  -8.579  1.00  0.00     0.027 A 
HETATM   24  C1  UNL     1      66.430  39.746  -8.340  1.00  0.00     0.046 A 
HETATM   25  N1  UNL     1      66.549  40.797  -9.293  1.00  0.00    -0.102 NA
HETATM   26  C19 UNL     1      65.820  39.952  -7.119  1.00  0.00     0.027 A 
HETATM   27  C18 UNL     1      65.690  38.948  -6.174  1.00  0.00     0.017 A 
ENDBRANCH  19  21
ENDBRANCH   1  19
TORSDOF 5
ENDMDL
