MODEL 3
REMARK VINA RESULT: -8.850768921      1.072      1.628
REMARK  5 active torsions:
REMARK  status: ('A' for Active; 'I' for Inactive)
REMARK    1  A    between atoms: C4_5  and  C5_6 
REMARK    2  A    between atoms: C5_6  and  C6_8 
REMARK    3  A    between atoms: C9_11  and  C10_12 
REMARK    4  A    between atoms: C13_15  and  S1_16 
REMARK    5  A    between atoms: S1_16  and  N2_17 
ROOT
HETATM    1  C6  UNL     1      66.365  36.491  -0.756  1.00  0.00     0.015 A 
HETATM    2  C7  UNL     1      65.382  36.326  -1.731  1.00  0.00     0.016 A 
HETATM    3  C8  UNL     1      65.439  36.951  -2.958  1.00  0.00     0.013 A 
HETATM    4  C9  UNL     1      66.504  37.782  -3.265  1.00  0.00    -0.026 A 
HETATM    5  C16 UNL     1      67.486  37.960  -2.318  1.00  0.00     0.013 A 
HETATM    6  C17 UNL     1      67.411  37.324  -1.091  1.00  0.00     0.016 A 
ENDROOT
BRANCH   4   7
HETATM    7  C10 UNL     1      66.564  38.438  -4.562  1.00  0.00    -0.026 A 
HETATM    8  C11 UNL     1      66.080  37.825  -5.689  1.00  0.00     0.014 A 
HETATM    9  C12 UNL     1      66.153  38.481  -6.910  1.00  0.00     0.026 A 
HETATM   10  C13 UNL     1      66.712  39.757  -7.009  1.00  0.00     0.079 A 
HETATM   11  C14 UNL     1      67.196  40.367  -5.871  1.00  0.00     0.026 A 
HETATM   12  C15 UNL     1      67.109  39.686  -4.660  1.00  0.00     0.014 A 
BRANCH  10  13
HETATM   13  S1  UNL     1      66.801  40.578  -8.558  1.00  0.00     0.256 S 
HETATM   14  O2  UNL     1      68.041  40.099  -9.287  1.00  0.00    -0.201 OA
HETATM   15  O3  UNL     1      65.616  40.272  -9.420  1.00  0.00    -0.201 OA
BRANCH  13  16
HETATM   16  N2  UNL     1      66.990  42.263  -8.261  1.00  0.00    -0.324 N 
ATOM     17  H22 UNL     1      66.578  43.007  -8.823  1.00  0.00     0.169 HD
ATOM     18  H21 UNL     1      67.578  42.375  -7.436  1.00  0.00     0.169 HD
ENDBRANCH  13  16
ENDBRANCH  10  13
ENDBRANCH   4   7
BRANCH   1  19
HETATM   19  C5  UNL     1      66.218  35.805   0.497  1.00  0.00     0.192 C 
HETATM   20  O1  UNL     1      65.609  34.698   0.512  1.00  0.00    -0.287 OA
BRANCH  19  21
HETATM   21  C4  UNL     1      66.715  36.272   1.790  1.00  0.00     0.015 A 
HETATM   22  C3  UNL     1      65.831  36.583   2.815  1.00  0.00     0.017 A 
HETATM   23  C2  UNL     1      66.266  37.020   4.048  1.00  0.00     0.027 A 
HETATM   24  C1  UNL     1      67.606  37.173   4.327  1.00  0.00     0.046 A 
HETATM   25  N1  UNL     1      68.074  37.623   5.594  1.00  0.00    -0.102 NA
HETATM   26  C19 UNL     1      68.485  36.864   3.308  1.00  0.00     0.027 A 
HETATM   27  C18 UNL     1      68.058  36.423   2.066  1.00  0.00     0.017 A 
ENDBRANCH  19  21
ENDBRANCH   1  19
TORSDOF 5
ENDMDL
