MODEL 12
REMARK VINA RESULT: -6.837669777      1.150      1.561
REMARK  12 active torsions:
REMARK  status: ('A' for Active; 'I' for Inactive)
REMARK    1  A    between atoms: C1_2  and  C2_4 
REMARK    2  A    between atoms: C2_4  and  C3_5 
REMARK    3  A    between atoms: C3_5  and  C4_6 
REMARK    4  A    between atoms: C4_6  and  O3_7 
REMARK    5  A    between atoms: C4_6  and  C5_9 
REMARK    6  A    between atoms: C5_9  and  O4_10 
REMARK    7  A    between atoms: C5_9  and  C6_12 
REMARK    8  A    between atoms: C6_12  and  O5_13 
REMARK    9  A    between atoms: C6_12  and  C7_15 
REMARK   10  A    between atoms: C7_15  and  O6_16 
REMARK   11  A    between atoms: O6_16  and  P1_17 
REMARK   12  A    between atoms: N1_21  and  O10_23 
ROOT
HETATM    1  C4  UNL     1      42.829-405.005  15.432  1.00  0.00     0.155 C 
ENDROOT
BRANCH   1   2
HETATM    2  C3  UNL     1      41.510-405.647  15.795  1.00  0.00     0.100 C 
BRANCH   2   3
HETATM    3  C2  UNL     1      41.323-406.970  15.161  1.00  0.00     0.110 C 
HETATM    4  N1  UNL     1      41.364-408.017  15.902  1.00  0.00    -0.267 N 
ATOM      5  H1  UNL     1      41.235-408.928  15.460  1.00  0.00     0.194 HD
BRANCH   3   6
HETATM    6  C1  UNL     1      41.095-407.139  13.739  1.00  0.00     0.224 C 
HETATM    7  O1  UNL     1      41.125-406.166  12.945  1.00  0.00    -0.643 OA
HETATM    8  O2  UNL     1      40.830-408.386  13.167  1.00  0.00    -0.643 OA
ENDBRANCH   3   6
BRANCH   4   9
HETATM    9  O10 UNL     1      41.574-407.977  17.255  1.00  0.00    -0.290 OA
ATOM     10  H10 UNL     1      41.396-408.709  17.835  1.00  0.00     0.244 HD
ENDBRANCH   4   9
ENDBRANCH   2   3
ENDBRANCH   1   2
BRANCH   1  11
HETATM   11  O3  UNL     1      42.579-404.102  14.401  1.00  0.00    -0.393 OA
ATOM     12  H3  UNL     1      41.712-403.740  14.546  1.00  0.00     0.210 HD
ENDBRANCH   1  11
BRANCH   1  13
HETATM   13  C5  UNL     1      43.399-404.312  16.652  1.00  0.00     0.178 C 
BRANCH  13  14
HETATM   14  O4  UNL     1      42.661-403.193  17.022  1.00  0.00    -0.390 OA
ATOM     15  H4  UNL     1      42.649-403.062  17.963  1.00  0.00     0.210 HD
ENDBRANCH  13  14
BRANCH  13  16
HETATM   16  C6  UNL     1      44.861-404.042  16.532  1.00  0.00     0.173 C 
BRANCH  16  17
HETATM   17  O5  UNL     1      45.537-405.168  17.039  1.00  0.00    -0.391 OA
ATOM     18  H5  UNL     1      46.032-405.546  16.321  1.00  0.00     0.210 HD
ENDBRANCH  16  17
BRANCH  16  19
HETATM   19  C7  UNL     1      45.340-402.856  17.289  1.00  0.00     0.217 C 
BRANCH  19  20
HETATM   20  O6  UNL     1      45.194-401.667  16.651  1.00  0.00    -0.280 OA
BRANCH  20  21
HETATM   21  P1  UNL     1      45.120-400.351  17.655  1.00  0.00     0.422 P 
HETATM   22  O7  UNL     1      45.261-400.546  19.279  1.00  0.00    -0.617 OA
HETATM   23  O8  UNL     1      43.597-400.404  17.625  1.00  0.00    -0.617 OA
HETATM   24  O9  UNL     1      45.158-398.810  17.068  1.00  0.00    -0.617 OA
ENDBRANCH  20  21
ENDBRANCH  19  20
ENDBRANCH  16  19
ENDBRANCH  13  16
ENDBRANCH   1  13
TORSDOF 12
ENDMDL
