MODEL 8
REMARK VINA RESULT: -6.936988292      3.171      6.785
REMARK  12 active torsions:
REMARK  status: ('A' for Active; 'I' for Inactive)
REMARK    1  A    between atoms: C1_2  and  C2_4 
REMARK    2  A    between atoms: C2_4  and  C3_5 
REMARK    3  A    between atoms: C3_5  and  C4_6 
REMARK    4  A    between atoms: C4_6  and  O3_7 
REMARK    5  A    between atoms: C4_6  and  C5_9 
REMARK    6  A    between atoms: C5_9  and  O4_10 
REMARK    7  A    between atoms: C5_9  and  C6_12 
REMARK    8  A    between atoms: C6_12  and  O5_13 
REMARK    9  A    between atoms: C6_12  and  C7_15 
REMARK   10  A    between atoms: C7_15  and  O6_16 
REMARK   11  A    between atoms: O6_16  and  P1_17 
REMARK   12  A    between atoms: N1_21  and  O10_23 
ROOT
HETATM    1  C4  UNL     1      43.299-402.243  15.946  1.00  0.00     0.155 C 
ENDROOT
BRANCH   1   2
HETATM    2  C3  UNL     1      42.989-401.152  16.945  1.00  0.00     0.100 C 
BRANCH   2   3
HETATM    3  C2  UNL     1      44.202-400.450  17.420  1.00  0.00     0.110 C 
HETATM    4  N1  UNL     1      44.701-399.522  16.686  1.00  0.00    -0.267 N 
ATOM      5  H1  UNL     1      45.537-399.041  17.018  1.00  0.00     0.194 HD
BRANCH   3   6
HETATM    6  C1  UNL     1      44.853-400.762  18.678  1.00  0.00     0.224 C 
HETATM    7  O1  UNL     1      45.100-401.945  19.017  1.00  0.00    -0.643 OA
HETATM    8  O2  UNL     1      45.245-399.771  19.582  1.00  0.00    -0.643 OA
ENDBRANCH   3   6
BRANCH   4   9
HETATM    9  O10 UNL     1      44.170-399.145  15.481  1.00  0.00    -0.290 OA
ATOM     10  H10 UNL     1      43.932-398.250  15.271  1.00  0.00     0.244 HD
ENDBRANCH   4   9
ENDBRANCH   2   3
ENDBRANCH   1   2
BRANCH   1  11
HETATM   11  O3  UNL     1      44.684-402.294  15.805  1.00  0.00    -0.393 OA
ATOM     12  H3  UNL     1      44.947-403.199  15.924  1.00  0.00     0.210 HD
ENDBRANCH   1  11
BRANCH   1  13
HETATM   13  C5  UNL     1      42.743-403.557  16.453  1.00  0.00     0.178 C 
BRANCH  13  14
HETATM   14  O4  UNL     1      43.249-403.903  17.701  1.00  0.00    -0.390 OA
ATOM     15  H4  UNL     1      43.736-403.193  18.104  1.00  0.00     0.210 HD
ENDBRANCH  13  14
BRANCH  13  16
HETATM   16  C6  UNL     1      42.847-404.655  15.448  1.00  0.00     0.173 C 
BRANCH  16  17
HETATM   17  O5  UNL     1      42.532-404.102  14.192  1.00  0.00    -0.391 OA
ATOM     18  H5  UNL     1      42.917-403.234  14.162  1.00  0.00     0.210 HD
ENDBRANCH  16  17
BRANCH  16  19
HETATM   19  C7  UNL     1      41.924-405.798  15.677  1.00  0.00     0.217 C 
BRANCH  19  20
HETATM   20  O6  UNL     1      42.363-406.723  16.569  1.00  0.00    -0.280 OA
BRANCH  20  21
HETATM   21  P1  UNL     1      43.932-407.204  16.344  1.00  0.00     0.422 P 
HETATM   22  O7  UNL     1      44.277-408.428  15.305  1.00  0.00    -0.617 OA
HETATM   23  O8  UNL     1      43.851-408.078  17.590  1.00  0.00    -0.617 OA
HETATM   24  O9  UNL     1      45.200-406.333  16.940  1.00  0.00    -0.617 OA
ENDBRANCH  20  21
ENDBRANCH  19  20
ENDBRANCH  16  19
ENDBRANCH  13  16
ENDBRANCH   1  13
TORSDOF 12
ENDMDL
