MODEL 6
REMARK VINA RESULT: -6.986547471      3.293      7.361
REMARK  12 active torsions:
REMARK  status: ('A' for Active; 'I' for Inactive)
REMARK    1  A    between atoms: C1_2  and  C2_4 
REMARK    2  A    between atoms: C2_4  and  C3_5 
REMARK    3  A    between atoms: C3_5  and  C4_6 
REMARK    4  A    between atoms: C4_6  and  O3_7 
REMARK    5  A    between atoms: C4_6  and  C5_9 
REMARK    6  A    between atoms: C5_9  and  O4_10 
REMARK    7  A    between atoms: C5_9  and  C6_12 
REMARK    8  A    between atoms: C6_12  and  O5_13 
REMARK    9  A    between atoms: C6_12  and  C7_15 
REMARK   10  A    between atoms: C7_15  and  O6_16 
REMARK   11  A    between atoms: O6_16  and  P1_17 
REMARK   12  A    between atoms: N1_21  and  O10_23 
ROOT
HETATM    1  C4  UNL     1      43.460-402.125  16.005  1.00  0.00     0.155 C 
ENDROOT
BRANCH   1   2
HETATM    2  C3  UNL     1      43.113-401.067  17.026  1.00  0.00     0.100 C 
BRANCH   2   3
HETATM    3  C2  UNL     1      44.303-400.346  17.531  1.00  0.00     0.110 C 
HETATM    4  N1  UNL     1      44.801-399.405  16.813  1.00  0.00    -0.267 N 
ATOM      5  H1  UNL     1      45.621-398.911  17.165  1.00  0.00     0.194 HD
BRANCH   3   6
HETATM    6  C1  UNL     1      44.934-400.655  18.800  1.00  0.00     0.224 C 
HETATM    7  O1  UNL     1      45.260-399.753  19.611  1.00  0.00    -0.643 OA
HETATM    8  O2  UNL     1      45.215-401.965  19.196  1.00  0.00    -0.643 OA
ENDBRANCH   3   6
BRANCH   4   9
HETATM    9  O10 UNL     1      44.288-399.029  15.599  1.00  0.00    -0.290 OA
ATOM     10  H10 UNL     1      44.421-399.524  14.799  1.00  0.00     0.244 HD
ENDBRANCH   4   9
ENDBRANCH   2   3
ENDBRANCH   1   2
BRANCH   1  11
HETATM   11  O3  UNL     1      44.847-402.128  15.867  1.00  0.00    -0.393 OA
ATOM     12  H3  UNL     1      45.161-401.280  16.157  1.00  0.00     0.210 HD
ENDBRANCH   1  11
BRANCH   1  13
HETATM   13  C5  UNL     1      42.945-403.467  16.483  1.00  0.00     0.178 C 
BRANCH  13  14
HETATM   14  O4  UNL     1      43.364-403.769  17.773  1.00  0.00    -0.390 OA
ATOM     15  H4  UNL     1      42.997-404.585  18.093  1.00  0.00     0.210 HD
ENDBRANCH  13  14
BRANCH  13  16
HETATM   16  C6  UNL     1      43.202-404.565  15.506  1.00  0.00     0.173 C 
BRANCH  16  17
HETATM   17  O5  UNL     1      42.775-404.110  14.244  1.00  0.00    -0.391 OA
ATOM     18  H5  UNL     1      41.849-403.911  14.315  1.00  0.00     0.210 HD
ENDBRANCH  16  17
BRANCH  16  19
HETATM   19  C7  UNL     1      42.480-405.833  15.790  1.00  0.00     0.217 C 
BRANCH  19  20
HETATM   20  O6  UNL     1      42.482-406.737  14.778  1.00  0.00    -0.280 OA
BRANCH  20  21
HETATM   21  P1  UNL     1      40.990-407.040  14.124  1.00  0.00     0.422 P 
HETATM   22  O7  UNL     1      40.761-408.356  13.170  1.00  0.00    -0.617 OA
HETATM   23  O8  UNL     1      41.284-406.073  12.984  1.00  0.00    -0.617 OA
HETATM   24  O9  UNL     1      39.650-406.201  14.597  1.00  0.00    -0.617 OA
ENDBRANCH  20  21
ENDBRANCH  19  20
ENDBRANCH  16  19
ENDBRANCH  13  16
ENDBRANCH   1  13
TORSDOF 12
ENDMDL
