MODEL 17
REMARK VINA RESULT: -6.632418165      1.149      2.055
REMARK  12 active torsions:
REMARK  status: ('A' for Active; 'I' for Inactive)
REMARK    1  A    between atoms: C1_2  and  C2_4 
REMARK    2  A    between atoms: C2_4  and  C3_5 
REMARK    3  A    between atoms: C3_5  and  C4_6 
REMARK    4  A    between atoms: C4_6  and  O3_7 
REMARK    5  A    between atoms: C4_6  and  C5_9 
REMARK    6  A    between atoms: C5_9  and  O4_10 
REMARK    7  A    between atoms: C5_9  and  C6_12 
REMARK    8  A    between atoms: C6_12  and  O5_13 
REMARK    9  A    between atoms: C6_12  and  C7_15 
REMARK   10  A    between atoms: C7_15  and  O6_16 
REMARK   11  A    between atoms: O6_16  and  P1_17 
REMARK   12  A    between atoms: N1_21  and  O10_23 
ROOT
HETATM    1  C4  UNL     1      42.944-404.451  15.355  1.00  0.00     0.155 C 
ENDROOT
BRANCH   1   2
HETATM    2  C3  UNL     1      41.738-405.170  15.912  1.00  0.00     0.100 C 
BRANCH   2   3
HETATM    3  C2  UNL     1      41.716-406.608  15.563  1.00  0.00     0.110 C 
HETATM    4  N1  UNL     1      42.224-407.448  16.391  1.00  0.00    -0.267 N 
ATOM      5  H1  UNL     1      42.207-408.438  16.146  1.00  0.00     0.194 HD
BRANCH   3   6
HETATM    6  C1  UNL     1      41.150-407.113  14.327  1.00  0.00     0.224 C 
HETATM    7  O1  UNL     1      40.945-408.339  14.148  1.00  0.00    -0.643 OA
HETATM    8  O2  UNL     1      40.797-406.272  13.268  1.00  0.00    -0.643 OA
ENDBRANCH   3   6
BRANCH   4   9
HETATM    9  O10 UNL     1      42.787-407.085  17.586  1.00  0.00    -0.290 OA
ATOM     10  H10 UNL     1      42.308-407.066  18.406  1.00  0.00     0.244 HD
ENDBRANCH   4   9
ENDBRANCH   2   3
ENDBRANCH   1   2
BRANCH   1  11
HETATM   11  O3  UNL     1      42.554-403.855  14.157  1.00  0.00    -0.393 OA
ATOM     12  H3  UNL     1      42.594-404.524  13.484  1.00  0.00     0.210 HD
ENDBRANCH   1  11
BRANCH   1  13
HETATM   13  C5  UNL     1      43.419-403.421  16.360  1.00  0.00     0.178 C 
BRANCH  13  14
HETATM   14  O4  UNL     1      43.438-403.915  17.659  1.00  0.00    -0.390 OA
ATOM     15  H4  UNL     1      43.531-404.861  17.686  1.00  0.00     0.210 HD
ENDBRANCH  13  14
BRANCH  13  16
HETATM   16  C6  UNL     1      42.703-402.118  16.233  1.00  0.00     0.173 C 
BRANCH  16  17
HETATM   17  O5  UNL     1      43.266-401.437  15.138  1.00  0.00    -0.391 OA
ATOM     18  H5  UNL     1      43.074-401.947  14.359  1.00  0.00     0.210 HD
ENDBRANCH  16  17
BRANCH  16  19
HETATM   19  C7  UNL     1      42.816-401.228  17.419  1.00  0.00     0.217 C 
BRANCH  19  20
HETATM   20  O6  UNL     1      43.817-400.312  17.358  1.00  0.00    -0.280 OA
BRANCH  20  21
HETATM   21  P1  UNL     1      45.152-400.691  18.262  1.00  0.00     0.422 P 
HETATM   22  O7  UNL     1      45.095-401.934  19.334  1.00  0.00    -0.617 OA
HETATM   23  O8  UNL     1      44.789-399.604  19.267  1.00  0.00    -0.617 OA
HETATM   24  O9  UNL     1      46.628-400.023  17.951  1.00  0.00    -0.617 OA
ENDBRANCH  20  21
ENDBRANCH  19  20
ENDBRANCH  16  19
ENDBRANCH  13  16
ENDBRANCH   1  13
TORSDOF 12
ENDMDL
