MODEL 4
REMARK VINA RESULT: -7.024688637      3.303      7.113
REMARK  12 active torsions:
REMARK  status: ('A' for Active; 'I' for Inactive)
REMARK    1  A    between atoms: C1_2  and  C2_4 
REMARK    2  A    between atoms: C2_4  and  C3_5 
REMARK    3  A    between atoms: C3_5  and  C4_6 
REMARK    4  A    between atoms: C4_6  and  O3_7 
REMARK    5  A    between atoms: C4_6  and  C5_9 
REMARK    6  A    between atoms: C5_9  and  O4_10 
REMARK    7  A    between atoms: C5_9  and  C6_12 
REMARK    8  A    between atoms: C6_12  and  O5_13 
REMARK    9  A    between atoms: C6_12  and  C7_15 
REMARK   10  A    between atoms: C7_15  and  O6_16 
REMARK   11  A    between atoms: O6_16  and  P1_17 
REMARK   12  A    between atoms: N1_21  and  O10_23 
ROOT
HETATM    1  C4  UNL     1      43.558-402.102  15.981  1.00  0.00     0.155 C 
ENDROOT
BRANCH   1   2
HETATM    2  C3  UNL     1      43.183-401.027  16.973  1.00  0.00     0.100 C 
BRANCH   2   3
HETATM    3  C2  UNL     1      44.359-400.314  17.518  1.00  0.00     0.110 C 
HETATM    4  N1  UNL     1      44.887-399.376  16.817  1.00  0.00    -0.267 N 
ATOM      5  H1  UNL     1      45.698-398.888  17.196  1.00  0.00     0.194 HD
BRANCH   3   6
HETATM    6  C1  UNL     1      44.946-400.627  18.806  1.00  0.00     0.224 C 
HETATM    7  O1  UNL     1      45.248-399.728  19.629  1.00  0.00    -0.643 OA
HETATM    8  O2  UNL     1      45.209-401.939  19.209  1.00  0.00    -0.643 OA
ENDBRANCH   3   6
BRANCH   4   9
HETATM    9  O10 UNL     1      44.417-398.997  15.587  1.00  0.00    -0.290 OA
ATOM     10  H10 UNL     1      44.690-399.405  14.774  1.00  0.00     0.244 HD
ENDBRANCH   4   9
ENDBRANCH   2   3
ENDBRANCH   1   2
BRANCH   1  11
HETATM   11  O3  UNL     1      44.949-402.125  15.901  1.00  0.00    -0.393 OA
ATOM     12  H3  UNL     1      45.278-402.306  16.773  1.00  0.00     0.210 HD
ENDBRANCH   1  11
BRANCH   1  13
HETATM   13  C5  UNL     1      43.006-403.432  16.453  1.00  0.00     0.178 C 
BRANCH  13  14
HETATM   14  O4  UNL     1      43.355-403.715  17.768  1.00  0.00    -0.390 OA
ATOM     15  H4  UNL     1      43.050-404.570  18.049  1.00  0.00     0.210 HD
ENDBRANCH  13  14
BRANCH  13  16
HETATM   16  C6  UNL     1      43.302-404.548  15.509  1.00  0.00     0.173 C 
BRANCH  16  17
HETATM   17  O5  UNL     1      42.497-404.357  14.370  1.00  0.00    -0.391 OA
ATOM     18  H5  UNL     1      41.613-404.613  14.604  1.00  0.00     0.210 HD
ENDBRANCH  16  17
BRANCH  16  19
HETATM   19  C7  UNL     1      43.010-405.906  16.039  1.00  0.00     0.217 C 
BRANCH  19  20
HETATM   20  O6  UNL     1      44.064-406.540  16.614  1.00  0.00    -0.280 OA
BRANCH  20  21
HETATM   21  P1  UNL     1      44.107-408.176  16.356  1.00  0.00     0.422 P 
HETATM   22  O7  UNL     1      45.382-408.854  15.576  1.00  0.00    -0.617 OA
HETATM   23  O8  UNL     1      43.237-408.010  15.115  1.00  0.00    -0.617 OA
HETATM   24  O9  UNL     1      43.026-409.194  17.075  1.00  0.00    -0.617 OA
ENDBRANCH  20  21
ENDBRANCH  19  20
ENDBRANCH  16  19
ENDBRANCH  13  16
ENDBRANCH   1  13
TORSDOF 12
ENDMDL
