MODEL 1
REMARK VINA RESULT: -7.145842395      0.000      0.000
REMARK  12 active torsions:
REMARK  status: ('A' for Active; 'I' for Inactive)
REMARK    1  A    between atoms: C1_2  and  C2_4 
REMARK    2  A    between atoms: C2_4  and  C3_5 
REMARK    3  A    between atoms: C3_5  and  C4_6 
REMARK    4  A    between atoms: C4_6  and  O3_7 
REMARK    5  A    between atoms: C4_6  and  C5_9 
REMARK    6  A    between atoms: C5_9  and  O4_10 
REMARK    7  A    between atoms: C5_9  and  C6_12 
REMARK    8  A    between atoms: C6_12  and  O5_13 
REMARK    9  A    between atoms: C6_12  and  C7_15 
REMARK   10  A    between atoms: C7_15  and  O6_16 
REMARK   11  A    between atoms: O6_16  and  P1_17 
REMARK   12  A    between atoms: N1_21  and  O10_23 
ROOT
HETATM    1  C4  UNL     1      42.670-405.430  16.252  1.00  0.00     0.155 C 
ENDROOT
BRANCH   1   2
HETATM    2  C3  UNL     1      41.275-405.896  15.907  1.00  0.00     0.100 C 
BRANCH   2   3
HETATM    3  C2  UNL     1      41.269-407.133  15.095  1.00  0.00     0.110 C 
HETATM    4  N1  UNL     1      41.425-408.259  15.692  1.00  0.00    -0.267 N 
ATOM      5  H1  UNL     1      41.420-409.109  15.128  1.00  0.00     0.194 HD
BRANCH   3   6
HETATM    6  C1  UNL     1      41.096-407.132  13.655  1.00  0.00     0.224 C 
HETATM    7  O1  UNL     1      41.136-406.069  12.987  1.00  0.00    -0.643 OA
HETATM    8  O2  UNL     1      40.877-408.305  12.928  1.00  0.00    -0.643 OA
ENDBRANCH   3   6
BRANCH   4   9
HETATM    9  O10 UNL     1      41.597-408.380  17.045  1.00  0.00    -0.290 OA
ATOM     10  H10 UNL     1      41.981-407.700  17.587  1.00  0.00     0.244 HD
ENDBRANCH   4   9
ENDBRANCH   2   3
ENDBRANCH   1   2
BRANCH   1  11
HETATM   11  O3  UNL     1      43.562-406.340  15.689  1.00  0.00    -0.393 OA
ATOM     12  H3  UNL     1      43.051-406.959  15.182  1.00  0.00     0.210 HD
ENDBRANCH   1  11
BRANCH   1  13
HETATM   13  C5  UNL     1      42.880-404.033  15.703  1.00  0.00     0.178 C 
BRANCH  13  14
HETATM   14  O4  UNL     1      42.691-403.969  14.328  1.00  0.00    -0.390 OA
ATOM     15  H4  UNL     1      42.323-403.138  14.050  1.00  0.00     0.210 HD
ENDBRANCH  13  14
BRANCH  13  16
HETATM   16  C6  UNL     1      44.165-403.423  16.152  1.00  0.00     0.173 C 
BRANCH  16  17
HETATM   17  O5  UNL     1      44.471-403.973  17.412  1.00  0.00    -0.391 OA
ATOM     18  H5  UNL     1      44.986-403.328  17.883  1.00  0.00     0.210 HD
ENDBRANCH  16  17
BRANCH  16  19
HETATM   19  C7  UNL     1      44.132-401.945  16.306  1.00  0.00     0.217 C 
BRANCH  19  20
HETATM   20  O6  UNL     1      43.871-401.503  17.563  1.00  0.00    -0.280 OA
BRANCH  20  21
HETATM   21  P1  UNL     1      45.131-400.708  18.288  1.00  0.00     0.422 P 
HETATM   22  O7  UNL     1      46.663-400.916  17.735  1.00  0.00    -0.617 OA
HETATM   23  O8  UNL     1      45.206-401.788  19.360  1.00  0.00    -0.617 OA
HETATM   24  O9  UNL     1      44.879-399.512  19.396  1.00  0.00    -0.617 OA
ENDBRANCH  20  21
ENDBRANCH  19  20
ENDBRANCH  16  19
ENDBRANCH  13  16
ENDBRANCH   1  13
TORSDOF 12
ENDMDL
