MODEL 3
REMARK VINA RESULT: -9.107508390      0.899      1.065
REMARK  4 active torsions:
REMARK  status: ('A' for Active; 'I' for Inactive)
REMARK    1  A    between atoms: C2_2  and  N1_3 
REMARK    2  A    between atoms: C9_11  and  S1_12 
REMARK    3  A    between atoms: S1_12  and  N2_15 
REMARK    4  A    between atoms: N2_15  and  C10_17 
ROOT
HETATM    1  N1  UNL     1     -12.812   7.849  -4.722  1.00  0.00    -0.313 N 
HETATM    2  C3  UNL     1     -11.542   7.782  -5.359  1.00  0.00     0.259 A 
HETATM    3  O1  UNL     1     -11.227   7.978  -6.560  1.00  0.00    -0.267 OA
HETATM    4  C4  UNL     1     -10.590   7.423  -4.323  1.00  0.00     0.045 A 
HETATM    5  C5  UNL     1      -9.228   7.189  -4.216  1.00  0.00     0.018 A 
HETATM    6  C6  UNL     1      -8.657   6.853  -3.004  1.00  0.00     0.002 A 
HETATM    7  C7  UNL     1      -9.389   6.733  -1.856  1.00  0.00     0.014 A 
HETATM    8  C8  UNL     1     -10.762   6.970  -1.973  1.00  0.00     0.001 A 
HETATM    9  C9  UNL     1     -11.558   6.865  -0.852  1.00  0.00     0.091 A 
HETATM   10  C16 UNL     1     -12.918   7.111  -1.022  1.00  0.00     0.028 A 
HETATM   11  C17 UNL     1     -13.469   7.447  -2.248  1.00  0.00     0.032 A 
HETATM   12  C18 UNL     1     -12.645   7.545  -3.360  1.00  0.00     0.049 A 
HETATM   13  C19 UNL     1     -11.324   7.303  -3.180  1.00  0.00     0.018 A 
ENDROOT
BRANCH   9  14
HETATM   14  S1  UNL     1     -10.866   6.445   0.674  1.00  0.00     0.264 S 
HETATM   15  O2  UNL     1      -9.510   7.052   0.887  1.00  0.00    -0.200 OA
HETATM   16  O3  UNL     1     -11.757   7.053   1.751  1.00  0.00    -0.200 OA
BRANCH  14  17
HETATM   17  N2  UNL     1     -10.847   4.748   0.981  1.00  0.00    -0.281 N 
ATOM     18  H2  UNL     1     -10.034   4.198   0.702  1.00  0.00     0.179 HD
BRANCH  17  19
HETATM   19  C10 UNL     1     -11.942   4.099   1.614  1.00  0.00     0.042 A 
HETATM   20  C11 UNL     1     -11.862   3.518   2.861  1.00  0.00     0.033 A 
HETATM   21  C12 UNL     1     -12.967   2.890   3.445  1.00  0.00     0.044 A 
HETATM   22  C13 UNL     1     -14.177   2.835   2.787  1.00  0.00     0.116 A 
HETATM   23  F1  UNL     1     -15.265   2.234   3.328  1.00  0.00    -0.206 F 
HETATM   24  C14 UNL     1     -14.251   3.421   1.537  1.00  0.00     0.044 A 
HETATM   25  C15 UNL     1     -13.162   4.038   0.963  1.00  0.00     0.033 A 
ENDBRANCH  17  19
ENDBRANCH  14  17
ENDBRANCH   9  14
BRANCH   1  26
HETATM   26  C2  UNL     1     -14.042   8.175  -5.380  1.00  0.00     0.128 C 
HETATM   27  C1  UNL     1     -14.498   7.108  -6.340  1.00  0.00     0.027 C 
ENDBRANCH   1  26
TORSDOF 4
ENDMDL
