MODEL 4
REMARK VINA RESULT: -9.039119404      3.450      7.061
REMARK  4 active torsions:
REMARK  status: ('A' for Active; 'I' for Inactive)
REMARK    1  A    between atoms: C2_2  and  N1_3 
REMARK    2  A    between atoms: C9_11  and  S1_12 
REMARK    3  A    between atoms: S1_12  and  N2_15 
REMARK    4  A    between atoms: N2_15  and  C10_17 
ROOT
HETATM    1  N1  UNL     1     -12.596   5.465   0.741  1.00  0.00    -0.313 N 
HETATM    2  C3  UNL     1     -13.815   5.669   0.037  1.00  0.00     0.259 A 
HETATM    3  O1  UNL     1     -14.933   5.111   0.175  1.00  0.00    -0.267 OA
HETATM    4  C4  UNL     1     -13.546   6.706  -0.943  1.00  0.00     0.045 A 
HETATM    5  C5  UNL     1     -14.236   7.386  -1.935  1.00  0.00     0.018 A 
HETATM    6  C6  UNL     1     -13.613   8.353  -2.700  1.00  0.00     0.002 A 
HETATM    7  C7  UNL     1     -12.300   8.691  -2.528  1.00  0.00     0.014 A 
HETATM    8  C8  UNL     1     -11.611   8.000  -1.527  1.00  0.00     0.001 A 
HETATM    9  C9  UNL     1     -10.283   8.293  -1.301  1.00  0.00     0.091 A 
HETATM   10  C16 UNL     1      -9.644   7.576  -0.293  1.00  0.00     0.028 A 
HETATM   11  C17 UNL     1     -10.289   6.611   0.462  1.00  0.00     0.032 A 
HETATM   12  C18 UNL     1     -11.626   6.335   0.215  1.00  0.00     0.049 A 
HETATM   13  C19 UNL     1     -12.236   7.040  -0.769  1.00  0.00     0.018 A 
ENDROOT
BRANCH   9  14
HETATM   14  S1  UNL     1      -9.483   9.497  -2.247  1.00  0.00     0.264 S 
HETATM   15  O2  UNL     1     -10.054  10.871  -2.048  1.00  0.00    -0.200 OA
HETATM   16  O3  UNL     1      -8.046   9.577  -1.743  1.00  0.00    -0.200 OA
BRANCH  14  17
HETATM   17  N2  UNL     1      -9.374   9.100  -3.922  1.00  0.00    -0.281 N 
ATOM     18  H2  UNL     1      -9.431   9.844  -4.617  1.00  0.00     0.179 HD
BRANCH  17  19
HETATM   19  C10 UNL     1      -9.205   7.757  -4.354  1.00  0.00     0.042 A 
HETATM   20  C11 UNL     1      -8.288   6.890  -3.798  1.00  0.00     0.033 A 
HETATM   21  C12 UNL     1      -8.157   5.575  -4.257  1.00  0.00     0.044 A 
HETATM   22  C13 UNL     1      -8.946   5.103  -5.282  1.00  0.00     0.116 A 
HETATM   23  F1  UNL     1      -8.842   3.833  -5.747  1.00  0.00    -0.206 F 
HETATM   24  C14 UNL     1      -9.865   5.976  -5.835  1.00  0.00     0.044 A 
HETATM   25  C15 UNL     1      -9.992   7.271  -5.383  1.00  0.00     0.033 A 
ENDBRANCH  17  19
ENDBRANCH  14  17
ENDBRANCH   9  14
BRANCH   1  26
HETATM   26  C2  UNL     1     -12.412   4.523   1.804  1.00  0.00     0.128 C 
HETATM   27  C1  UNL     1     -11.483   3.396   1.440  1.00  0.00     0.027 C 
ENDBRANCH   1  26
TORSDOF 4
ENDMDL
