MODEL 2
REMARK VINA RESULT: -9.113467939      1.690      2.310
REMARK  4 active torsions:
REMARK  status: ('A' for Active; 'I' for Inactive)
REMARK    1  A    between atoms: C2_2  and  N1_3 
REMARK    2  A    between atoms: C9_11  and  S1_12 
REMARK    3  A    between atoms: S1_12  and  N2_15 
REMARK    4  A    between atoms: N2_15  and  C10_17 
ROOT
HETATM    1  N1  UNL     1     -10.058   8.410  -3.652  1.00  0.00    -0.313 N 
HETATM    2  C3  UNL     1      -8.924   8.367  -2.794  1.00  0.00     0.259 A 
HETATM    3  O1  UNL     1      -7.743   8.749  -2.993  1.00  0.00    -0.267 OA
HETATM    4  C4  UNL     1      -9.381   7.766  -1.553  1.00  0.00     0.045 A 
HETATM    5  C5  UNL     1      -8.846   7.422  -0.321  1.00  0.00     0.018 A 
HETATM    6  C6  UNL     1      -9.630   6.839   0.656  1.00  0.00     0.002 A 
HETATM    7  C7  UNL     1     -10.957   6.571   0.469  1.00  0.00     0.014 A 
HETATM    8  C8  UNL     1     -11.487   6.920  -0.776  1.00  0.00     0.001 A 
HETATM    9  C9  UNL     1     -12.821   6.676  -1.029  1.00  0.00     0.091 A 
HETATM   10  C16 UNL     1     -13.299   7.044  -2.284  1.00  0.00     0.028 A 
HETATM   11  C17 UNL     1     -12.494   7.627  -3.249  1.00  0.00     0.032 A 
HETATM   12  C18 UNL     1     -11.156   7.861  -2.969  1.00  0.00     0.049 A 
HETATM   13  C19 UNL     1     -10.704   7.499  -1.743  1.00  0.00     0.018 A 
ENDROOT
BRANCH   9  14
HETATM   14  S1  UNL     1     -13.818   5.948   0.178  1.00  0.00     0.264 S 
HETATM   15  O2  UNL     1     -13.719   6.632   1.510  1.00  0.00    -0.200 OA
HETATM   16  O3  UNL     1     -15.265   6.133  -0.268  1.00  0.00    -0.200 OA
BRANCH  14  17
HETATM   17  N2  UNL     1     -13.587   4.245   0.329  1.00  0.00    -0.281 N 
ATOM     18  H2  UNL     1     -13.699   3.650  -0.492  1.00  0.00     0.179 HD
BRANCH  17  19
HETATM   19  C10 UNL     1     -13.246   3.654   1.575  1.00  0.00     0.042 A 
HETATM   20  C11 UNL     1     -14.150   2.988   2.373  1.00  0.00     0.033 A 
HETATM   21  C12 UNL     1     -13.768   2.421   3.594  1.00  0.00     0.044 A 
HETATM   22  C13 UNL     1     -12.466   2.512   4.037  1.00  0.00     0.116 A 
HETATM   23  F1  UNL     1     -12.066   1.972   5.215  1.00  0.00    -0.206 F 
HETATM   24  C14 UNL     1     -11.563   3.180   3.232  1.00  0.00     0.044 A 
HETATM   25  C15 UNL     1     -11.941   3.738   2.031  1.00  0.00     0.033 A 
ENDBRANCH  17  19
ENDBRANCH  14  17
ENDBRANCH   9  14
BRANCH   1  26
HETATM   26  C2  UNL     1     -10.055   8.932  -4.986  1.00  0.00     0.128 C 
HETATM   27  C1  UNL     1      -9.988   7.858  -6.039  1.00  0.00     0.027 C 
ENDBRANCH   1  26
TORSDOF 4
ENDMDL
