MODEL 1
REMARK VINA RESULT: -9.120120093      0.000      0.000
REMARK  4 active torsions:
REMARK  status: ('A' for Active; 'I' for Inactive)
REMARK    1  A    between atoms: C2_2  and  N1_3 
REMARK    2  A    between atoms: C9_11  and  S1_12 
REMARK    3  A    between atoms: S1_12  and  N2_15 
REMARK    4  A    between atoms: N2_15  and  C10_17 
ROOT
HETATM    1  N1  UNL     1     -12.241   7.981  -4.978  1.00  0.00    -0.313 N 
HETATM    2  C3  UNL     1     -10.828   7.942  -5.134  1.00  0.00     0.259 A 
HETATM    3  O1  UNL     1     -10.117   8.186  -6.142  1.00  0.00    -0.267 OA
HETATM    4  C4  UNL     1     -10.291   7.544  -3.844  1.00  0.00     0.045 A 
HETATM    5  C5  UNL     1      -9.047   7.310  -3.278  1.00  0.00     0.018 A 
HETATM    6  C6  UNL     1      -8.929   6.928  -1.955  1.00  0.00     0.002 A 
HETATM    7  C7  UNL     1     -10.013   6.761  -1.140  1.00  0.00     0.014 A 
HETATM    8  C8  UNL     1     -11.262   6.998  -1.720  1.00  0.00     0.001 A 
HETATM    9  C9  UNL     1     -12.398   6.848  -0.951  1.00  0.00     0.091 A 
HETATM   10  C16 UNL     1     -13.617   7.097  -1.577  1.00  0.00     0.028 A 
HETATM   11  C17 UNL     1     -13.712   7.479  -2.905  1.00  0.00     0.032 A 
HETATM   12  C18 UNL     1     -12.553   7.624  -3.655  1.00  0.00     0.049 A 
HETATM   13  C19 UNL     1     -11.374   7.378  -3.034  1.00  0.00     0.018 A 
ENDROOT
BRANCH   9  14
HETATM   14  S1  UNL     1     -12.273   6.370   0.703  1.00  0.00     0.264 S 
HETATM   15  O2  UNL     1     -11.379   7.269   1.506  1.00  0.00    -0.200 OA
HETATM   16  O3  UNL     1     -13.661   6.522   1.317  1.00  0.00    -0.200 OA
BRANCH  14  17
HETATM   17  N2  UNL     1     -11.846   4.711   0.914  1.00  0.00    -0.281 N 
ATOM     18  H2  UNL     1     -11.127   4.301   0.317  1.00  0.00     0.179 HD
BRANCH  17  19
HETATM   19  C10 UNL     1     -12.474   3.906   1.901  1.00  0.00     0.042 A 
HETATM   20  C11 UNL     1     -11.901   3.613   3.120  1.00  0.00     0.033 A 
HETATM   21  C12 UNL     1     -12.559   2.814   4.062  1.00  0.00     0.044 A 
HETATM   22  C13 UNL     1     -13.807   2.294   3.798  1.00  0.00     0.116 A 
HETATM   23  F1  UNL     1     -14.468   1.517   4.691  1.00  0.00    -0.206 F 
HETATM   24  C14 UNL     1     -14.376   2.592   2.574  1.00  0.00     0.044 A 
HETATM   25  C15 UNL     1     -13.728   3.377   1.647  1.00  0.00     0.033 A 
ENDBRANCH  17  19
ENDBRANCH  14  17
ENDBRANCH   9  14
BRANCH   1  26
HETATM   26  C2  UNL     1     -13.169   8.329  -6.012  1.00  0.00     0.128 C 
HETATM   27  C1  UNL     1     -13.808   7.129  -6.660  1.00  0.00     0.027 C 
ENDBRANCH   1  26
TORSDOF 4
ENDMDL
