MODEL 7
REMARK VINA RESULT: -8.346756078      3.565      7.407
REMARK  4 active torsions:
REMARK  status: ('A' for Active; 'I' for Inactive)
REMARK    1  A    between atoms: C2_2  and  N1_3 
REMARK    2  A    between atoms: C9_11  and  S1_12 
REMARK    3  A    between atoms: S1_12  and  N2_15 
REMARK    4  A    between atoms: N2_15  and  C10_17 
ROOT
HETATM    1  N1  UNL     1     -13.306   5.153   1.275  1.00  0.00    -0.313 N 
HETATM    2  C3  UNL     1     -14.338   5.518   0.367  1.00  0.00     0.259 A 
HETATM    3  O1  UNL     1     -15.548   5.179   0.338  1.00  0.00    -0.267 OA
HETATM    4  C4  UNL     1     -13.727   6.415  -0.598  1.00  0.00     0.045 A 
HETATM    5  C5  UNL     1     -14.112   7.132  -1.721  1.00  0.00     0.018 A 
HETATM    6  C6  UNL     1     -13.205   7.913  -2.411  1.00  0.00     0.002 A 
HETATM    7  C7  UNL     1     -11.896   8.024  -2.034  1.00  0.00     0.014 A 
HETATM    8  C8  UNL     1     -11.517   7.298  -0.901  1.00  0.00     0.001 A 
HETATM    9  C9  UNL     1     -10.210   7.367  -0.467  1.00  0.00     0.091 A 
HETATM   10  C16 UNL     1      -9.885   6.625   0.665  1.00  0.00     0.028 A 
HETATM   11  C17 UNL     1     -10.811   5.848   1.342  1.00  0.00     0.032 A 
HETATM   12  C18 UNL     1     -12.120   5.797   0.883  1.00  0.00     0.049 A 
HETATM   13  C19 UNL     1     -12.422   6.524  -0.220  1.00  0.00     0.018 A 
ENDROOT
BRANCH   9  14
HETATM   14  S1  UNL     1      -9.060   8.337  -1.315  1.00  0.00     0.264 S 
HETATM   15  O2  UNL     1      -9.557   9.725  -1.594  1.00  0.00    -0.200 OA
HETATM   16  O3  UNL     1      -7.859   8.513  -0.392  1.00  0.00    -0.200 OA
BRANCH  14  17
HETATM   17  N2  UNL     1      -8.448   7.591  -2.746  1.00  0.00    -0.281 N 
ATOM     18  H2  UNL     1      -7.546   7.116  -2.716  1.00  0.00     0.179 HD
BRANCH  17  19
HETATM   19  C10 UNL     1      -9.176   7.626  -3.966  1.00  0.00     0.042 A 
HETATM   20  C11 UNL     1      -9.397   8.780  -4.686  1.00  0.00     0.033 A 
HETATM   21  C12 UNL     1     -10.121   8.765  -5.883  1.00  0.00     0.044 A 
HETATM   22  C13 UNL     1     -10.636   7.589  -6.382  1.00  0.00     0.116 A 
HETATM   23  F1  UNL     1     -11.340   7.544  -7.540  1.00  0.00    -0.206 F 
HETATM   24  C14 UNL     1     -10.410   6.434  -5.656  1.00  0.00     0.044 A 
HETATM   25  C15 UNL     1      -9.698   6.450  -4.477  1.00  0.00     0.033 A 
ENDBRANCH  17  19
ENDBRANCH  14  17
ENDBRANCH   9  14
BRANCH   1  26
HETATM   26  C2  UNL     1     -13.473   4.275   2.394  1.00  0.00     0.128 C 
HETATM   27  C1  UNL     1     -13.567   2.825   1.997  1.00  0.00     0.027 C 
ENDBRANCH   1  26
TORSDOF 4
ENDMDL
