MODEL 7
REMARK VINA RESULT: -4.865700121      1.005      1.196
REMARK  3 active torsions:
REMARK  status: ('A' for Active; 'I' for Inactive)
REMARK    1  A    between atoms: C1_2  and  C2_4 
REMARK    2  A    between atoms: C2_4  and  C3_5 
REMARK    3  A    between atoms: C3_5  and  C4_6 
ROOT
HETATM    1  C4  UNL     1      -3.447  28.548 -11.282  1.00  0.00     0.053 A 
HETATM    2  C5  UNL     1      -2.672  28.034 -10.268  1.00  0.00     0.034 A 
HETATM    3  C6  UNL     1      -2.345  26.730 -10.599  1.00  0.00     0.027 A 
HETATM    4  C7  UNL     1      -2.954  26.515 -11.822  1.00  0.00     0.142 A 
HETATM    5  O3  UNL     1      -3.587  27.610 -12.181  1.00  0.00    -0.327 OA
ENDROOT
BRANCH   1   6
HETATM    6  C3  UNL     1      -3.983  29.931 -11.264  1.00  0.00     0.075 C 
BRANCH   6   7
HETATM    7  C2  UNL     1      -4.508  30.346 -12.621  1.00  0.00     0.119 C 
BRANCH   7   8
HETATM    8  C1  UNL     1      -5.993  30.376 -12.530  1.00  0.00     0.172 C 
HETATM    9  O1  UNL     1      -6.653  31.461 -12.558  1.00  0.00    -0.648 OA
HETATM   10  O2  UNL     1      -6.757  29.215 -12.407  1.00  0.00    -0.648 OA
ENDBRANCH   7   8
ENDBRANCH   6   7
ENDBRANCH   1   6
TORSDOF 3
ENDMDL
