MODEL 5
REMARK VINA RESULT: -4.939222591      0.856      1.542
REMARK  3 active torsions:
REMARK  status: ('A' for Active; 'I' for Inactive)
REMARK    1  A    between atoms: C1_2  and  C2_4 
REMARK    2  A    between atoms: C2_4  and  C3_5 
REMARK    3  A    between atoms: C3_5  and  C4_6 
ROOT
HETATM    1  C4  UNL     1      -3.156  28.446 -10.980  1.00  0.00     0.053 A 
HETATM    2  C5  UNL     1      -3.288  27.399 -11.863  1.00  0.00     0.034 A 
HETATM    3  C6  UNL     1      -2.565  26.328 -11.366  1.00  0.00     0.027 A 
HETATM    4  C7  UNL     1      -2.018  26.791 -10.183  1.00  0.00     0.142 A 
HETATM    5  O3  UNL     1      -2.394  28.038 -10.000  1.00  0.00    -0.327 OA
ENDROOT
BRANCH   1   6
HETATM    6  C3  UNL     1      -3.802  29.765 -11.193  1.00  0.00     0.075 C 
BRANCH   6   7
HETATM    7  C2  UNL     1      -5.212  29.619 -11.724  1.00  0.00     0.119 C 
BRANCH   7   8
HETATM    8  C1  UNL     1      -5.424  30.706 -12.717  1.00  0.00     0.172 C 
HETATM    9  O1  UNL     1      -4.554  31.006 -13.592  1.00  0.00    -0.648 OA
HETATM   10  O2  UNL     1      -6.593  31.467 -12.752  1.00  0.00    -0.648 OA
ENDBRANCH   7   8
ENDBRANCH   6   7
ENDBRANCH   1   6
TORSDOF 3
ENDMDL
