MODEL 4
REMARK VINA RESULT: -5.004663562      2.193      5.219
REMARK  3 active torsions:
REMARK  status: ('A' for Active; 'I' for Inactive)
REMARK    1  A    between atoms: C1_2  and  C2_4 
REMARK    2  A    between atoms: C2_4  and  C3_5 
REMARK    3  A    between atoms: C3_5  and  C4_6 
ROOT
HETATM    1  C4  UNL     1      -3.670  28.398 -10.798  1.00  0.00     0.053 A 
HETATM    2  C5  UNL     1      -3.863  29.691 -11.226  1.00  0.00     0.034 A 
HETATM    3  C6  UNL     1      -5.130  29.774 -11.776  1.00  0.00     0.027 A 
HETATM    4  C7  UNL     1      -5.652  28.499 -11.653  1.00  0.00     0.142 A 
HETATM    5  O3  UNL     1      -4.758  27.728 -11.073  1.00  0.00    -0.327 OA
ENDROOT
BRANCH   1   6
HETATM    6  C3  UNL     1      -2.414  27.942 -10.152  1.00  0.00     0.075 C 
BRANCH   6   7
HETATM    7  C2  UNL     1      -2.152  26.474 -10.411  1.00  0.00     0.119 C 
BRANCH   7   8
HETATM    8  C1  UNL     1      -1.141  26.025  -9.416  1.00  0.00     0.172 C 
HETATM    9  O1  UNL     1      -0.016  26.598  -9.285  1.00  0.00    -0.648 OA
HETATM   10  O2  UNL     1      -1.364  24.944  -8.562  1.00  0.00    -0.648 OA
ENDBRANCH   7   8
ENDBRANCH   6   7
ENDBRANCH   1   6
TORSDOF 3
ENDMDL
