MODEL 8
REMARK VINA RESULT: -4.853004062      1.816      4.816
REMARK  3 active torsions:
REMARK  status: ('A' for Active; 'I' for Inactive)
REMARK    1  A    between atoms: C1_2  and  C2_4 
REMARK    2  A    between atoms: C2_4  and  C3_5 
REMARK    3  A    between atoms: C3_5  and  C4_6 
ROOT
HETATM    1  C4  UNL     1      -4.823  28.743 -11.284  1.00  0.00     0.053 A 
HETATM    2  C5  UNL     1      -4.265  29.954 -11.624  1.00  0.00     0.034 A 
HETATM    3  C6  UNL     1      -5.139  30.602 -12.480  1.00  0.00     0.027 A 
HETATM    4  C7  UNL     1      -6.205  29.731 -12.620  1.00  0.00     0.142 A 
HETATM    5  O3  UNL     1      -5.973  28.656 -11.899  1.00  0.00    -0.327 OA
ENDROOT
BRANCH   1   6
HETATM    6  C3  UNL     1      -4.159  27.777 -10.375  1.00  0.00     0.075 C 
BRANCH   6   7
HETATM    7  C2  UNL     1      -2.659  27.974 -10.347  1.00  0.00     0.119 C 
BRANCH   7   8
HETATM    8  C1  UNL     1      -2.042  26.638 -10.127  1.00  0.00     0.172 C 
HETATM    9  O1  UNL     1      -1.831  26.171  -8.965  1.00  0.00    -0.648 OA
HETATM   10  O2  UNL     1      -1.655  25.811 -11.182  1.00  0.00    -0.648 OA
ENDBRANCH   7   8
ENDBRANCH   6   7
ENDBRANCH   1   6
TORSDOF 3
ENDMDL
