MODEL 2
REMARK VINA RESULT: -5.052728659      0.111      1.013
REMARK  3 active torsions:
REMARK  status: ('A' for Active; 'I' for Inactive)
REMARK    1  A    between atoms: C1_2  and  C2_4 
REMARK    2  A    between atoms: C2_4  and  C3_5 
REMARK    3  A    between atoms: C3_5  and  C4_6 
ROOT
HETATM    1  C4  UNL     1      -3.195  28.212 -11.182  1.00  0.00     0.053 A 
HETATM    2  C5  UNL     1      -2.468  27.732 -10.117  1.00  0.00     0.034 A 
HETATM    3  C6  UNL     1      -2.059  26.446 -10.424  1.00  0.00     0.027 A 
HETATM    4  C7  UNL     1      -2.572  26.205 -11.686  1.00  0.00     0.142 A 
HETATM    5  O3  UNL     1      -3.229  27.271 -12.088  1.00  0.00    -0.327 OA
ENDROOT
BRANCH   1   6
HETATM    6  C3  UNL     1      -3.794  29.569 -11.202  1.00  0.00     0.075 C 
BRANCH   6   7
HETATM    7  C2  UNL     1      -5.222  29.544 -11.704  1.00  0.00     0.119 C 
BRANCH   7   8
HETATM    8  C1  UNL     1      -5.373  30.674 -12.659  1.00  0.00     0.172 C 
HETATM    9  O1  UNL     1      -4.451  31.011 -13.465  1.00  0.00    -0.648 OA
HETATM   10  O2  UNL     1      -6.539  31.437 -12.734  1.00  0.00    -0.648 OA
ENDBRANCH   7   8
ENDBRANCH   6   7
ENDBRANCH   1   6
TORSDOF 3
ENDMDL
