MODEL 1
REMARK VINA RESULT: -5.084933195      0.000      0.000
REMARK  3 active torsions:
REMARK  status: ('A' for Active; 'I' for Inactive)
REMARK    1  A    between atoms: C1_2  and  C2_4 
REMARK    2  A    between atoms: C2_4  and  C3_5 
REMARK    3  A    between atoms: C3_5  and  C4_6 
ROOT
HETATM    1  C4  UNL     1      -3.228  28.277 -11.181  1.00  0.00     0.053 A 
HETATM    2  C5  UNL     1      -2.501  27.799 -10.116  1.00  0.00     0.034 A 
HETATM    3  C6  UNL     1      -2.096  26.510 -10.419  1.00  0.00     0.027 A 
HETATM    4  C7  UNL     1      -2.611  26.267 -11.680  1.00  0.00     0.142 A 
HETATM    5  O3  UNL     1      -3.267  27.334 -12.085  1.00  0.00    -0.327 OA
ENDROOT
BRANCH   1   6
HETATM    6  C3  UNL     1      -3.824  29.636 -11.205  1.00  0.00     0.075 C 
BRANCH   6   7
HETATM    7  C2  UNL     1      -5.240  29.618 -11.736  1.00  0.00     0.119 C 
BRANCH   7   8
HETATM    8  C1  UNL     1      -5.353  30.718 -12.732  1.00  0.00     0.172 C 
HETATM    9  O1  UNL     1      -6.414  31.400 -12.873  1.00  0.00    -0.648 OA
HETATM   10  O2  UNL     1      -4.299  31.072 -13.575  1.00  0.00    -0.648 OA
ENDBRANCH   7   8
ENDBRANCH   6   7
ENDBRANCH   1   6
TORSDOF 3
ENDMDL
