MODEL 3
REMARK VINA RESULT: -5.015106232      2.165      5.114
REMARK  3 active torsions:
REMARK  status: ('A' for Active; 'I' for Inactive)
REMARK    1  A    between atoms: C1_2  and  C2_4 
REMARK    2  A    between atoms: C2_4  and  C3_5 
REMARK    3  A    between atoms: C3_5  and  C4_6 
ROOT
HETATM    1  C4  UNL     1      -3.722  28.440 -10.857  1.00  0.00     0.053 A 
HETATM    2  C5  UNL     1      -3.924  29.730 -11.292  1.00  0.00     0.034 A 
HETATM    3  C6  UNL     1      -5.183  29.796 -11.863  1.00  0.00     0.027 A 
HETATM    4  C7  UNL     1      -5.691  28.515 -11.745  1.00  0.00     0.142 A 
HETATM    5  O3  UNL     1      -4.798  27.756 -11.148  1.00  0.00    -0.327 OA
ENDROOT
BRANCH   1   6
HETATM    6  C3  UNL     1      -2.472  28.002 -10.190  1.00  0.00     0.075 C 
BRANCH   6   7
HETATM    7  C2  UNL     1      -2.180  26.540 -10.451  1.00  0.00     0.119 C 
BRANCH   7   8
HETATM    8  C1  UNL     1      -1.250  26.078  -9.387  1.00  0.00     0.172 C 
HETATM    9  O1  UNL     1      -1.624  25.318  -8.441  1.00  0.00    -0.648 OA
HETATM   10  O2  UNL     1       0.095  26.449  -9.359  1.00  0.00    -0.648 OA
ENDBRANCH   7   8
ENDBRANCH   6   7
ENDBRANCH   1   6
TORSDOF 3
ENDMDL
