MODEL 6
REMARK VINA RESULT: -4.867173173      0.916      1.102
REMARK  3 active torsions:
REMARK  status: ('A' for Active; 'I' for Inactive)
REMARK    1  A    between atoms: C1_2  and  C2_4 
REMARK    2  A    between atoms: C2_4  and  C3_5 
REMARK    3  A    between atoms: C3_5  and  C4_6 
ROOT
HETATM    1  C4  UNL     1      -2.976  27.332 -11.321  1.00  0.00     0.053 A 
HETATM    2  C5  UNL     1      -2.484  27.638 -10.073  1.00  0.00     0.034 A 
HETATM    3  C6  UNL     1      -1.619  26.625  -9.695  1.00  0.00     0.027 A 
HETATM    4  C7  UNL     1      -1.632  25.737 -10.756  1.00  0.00     0.142 A 
HETATM    5  O3  UNL     1      -2.442  26.195 -11.685  1.00  0.00    -0.327 OA
ENDROOT
BRANCH   1   6
HETATM    6  C3  UNL     1      -3.938  28.200 -12.043  1.00  0.00     0.075 C 
BRANCH   6   7
HETATM    7  C2  UNL     1      -3.998  29.588 -11.444  1.00  0.00     0.119 C 
BRANCH   7   8
HETATM    8  C1  UNL     1      -4.801  30.434 -12.367  1.00  0.00     0.172 C 
HETATM    9  O1  UNL     1      -6.054  30.590 -12.230  1.00  0.00    -0.648 OA
HETATM   10  O2  UNL     1      -4.230  31.112 -13.445  1.00  0.00    -0.648 OA
ENDBRANCH   7   8
ENDBRANCH   6   7
ENDBRANCH   1   6
TORSDOF 3
ENDMDL
