MODEL 5
REMARK VINA RESULT: -9.670855207      1.525      6.677
REMARK  3 active torsions:
REMARK  status: ('A' for Active; 'I' for Inactive)
REMARK    1  A    between atoms: C4_5  and  N1_6 
REMARK    2  A    between atoms: N1_6  and  C5_8 
REMARK    3  A    between atoms: C10_17  and  C11_18 
ROOT
HETATM    1 CL1  UNL     1      -4.195 -13.575  21.934  1.00  0.00    -0.083 Cl
HETATM    2  C1  UNL     1      -3.916 -14.542  23.362  1.00  0.00     0.056 A 
HETATM    3  C2  UNL     1      -4.083 -13.925  24.595  1.00  0.00     0.042 A 
HETATM    4  C3  UNL     1      -3.867 -14.672  25.730  1.00  0.00     0.023 A 
HETATM    5  C4  UNL     1      -4.050 -14.054  26.952  1.00  0.00     0.127 A 
HETATM    6  N2  UNL     1      -3.841 -14.830  28.061  1.00  0.00    -0.285 N 
ATOM      7  H2  UNL     1      -3.964 -14.421  28.987  1.00  0.00     0.188 HD
HETATM    8  N3  UNL     1      -3.491 -16.073  27.958  1.00  0.00    -0.298 N 
ATOM      9  H3  UNL     1      -3.352 -16.596  28.822  1.00  0.00     0.187 HD
HETATM   10  C10 UNL     1      -3.298 -16.721  26.804  1.00  0.00     0.069 A 
HETATM   11  C16 UNL     1      -3.487 -16.022  25.640  1.00  0.00     0.009 A 
HETATM   12  C17 UNL     1      -3.331 -16.604  24.413  1.00  0.00     0.040 A 
HETATM   13  C18 UNL     1      -3.545 -15.865  23.263  1.00  0.00     0.056 A 
HETATM   14 CL2  UNL     1      -3.353 -16.581  21.687  1.00  0.00    -0.083 Cl
ENDROOT
BRANCH   5  15
HETATM   15  N1  UNL     1      -4.432 -12.698  27.119  1.00  0.00    -0.370 N 
ATOM     16  H1  UNL     1      -4.401 -12.074  26.312  1.00  0.00     0.161 HD
BRANCH  15  17
HETATM   17  C5  UNL     1      -4.863 -12.169  28.395  1.00  0.00     0.083 C 
HETATM   18  C6  UNL     1      -3.716 -11.679  29.243  1.00  0.00     0.025 C 
HETATM   19  C7  UNL     1      -4.505 -10.986  30.364  1.00  0.00     0.002 C 
HETATM   20  C8  UNL     1      -5.639 -10.308  29.628  1.00  0.00     0.002 C 
HETATM   21  C9  UNL     1      -5.678 -10.906  28.241  1.00  0.00     0.025 C 
ENDBRANCH  15  17
ENDBRANCH   5  15
BRANCH  10  22
HETATM   22  C11 UNL     1      -2.912 -18.129  26.784  1.00  0.00    -0.005 A 
HETATM   23  C12 UNL     1      -3.875 -19.087  27.131  1.00  0.00     0.030 A 
HETATM   24  C13 UNL     1      -3.533 -20.416  27.161  1.00  0.00     0.088 A 
HETATM   25  N4  UNL     1      -2.277 -20.759  26.854  1.00  0.00    -0.375 N 
HETATM   26  C14 UNL     1      -1.335 -19.878  26.521  1.00  0.00     0.088 A 
ATOM     27  H4  UNL     1      -2.027 -21.748  26.876  1.00  0.00     0.164 HD
HETATM   28  C15 UNL     1      -1.636 -18.536  26.480  1.00  0.00     0.030 A 
ENDBRANCH  10  22
TORSDOF 3
ENDMDL
