MODEL 1
REMARK VINA RESULT: -10.259233812      0.000      0.000
REMARK  3 active torsions:
REMARK  status: ('A' for Active; 'I' for Inactive)
REMARK    1  A    between atoms: C4_5  and  N1_6 
REMARK    2  A    between atoms: N1_6  and  C5_8 
REMARK    3  A    between atoms: C10_17  and  C11_18 
ROOT
HETATM    1 CL1  UNL     1      -3.549 -16.037  21.426  1.00  0.00    -0.083 Cl
HETATM    2  C1  UNL     1      -3.557 -15.870  23.166  1.00  0.00     0.056 A 
HETATM    3  C2  UNL     1      -3.204 -16.984  23.917  1.00  0.00     0.042 A 
HETATM    4  C3  UNL     1      -3.205 -16.870  25.288  1.00  0.00     0.023 A 
HETATM    5  C4  UNL     1      -2.838 -17.979  26.027  1.00  0.00     0.127 A 
HETATM    6  N2  UNL     1      -2.836 -17.827  27.387  1.00  0.00    -0.285 N 
ATOM      7  H2  UNL     1      -2.572 -18.616  27.977  1.00  0.00     0.188 HD
HETATM    8  N3  UNL     1      -3.162 -16.702  27.941  1.00  0.00    -0.298 N 
ATOM      9  H3  UNL     1      -3.139 -16.654  28.959  1.00  0.00     0.187 HD
HETATM   10  C10 UNL     1      -3.527 -15.599  27.277  1.00  0.00     0.069 A 
HETATM   11  C16 UNL     1      -3.555 -15.658  25.908  1.00  0.00     0.009 A 
HETATM   12  C17 UNL     1      -3.898 -14.578  25.143  1.00  0.00     0.040 A 
HETATM   13  C18 UNL     1      -3.901 -14.678  23.763  1.00  0.00     0.056 A 
HETATM   14 CL2  UNL     1      -4.333 -13.317  22.766  1.00  0.00    -0.083 Cl
ENDROOT
BRANCH   5  15
HETATM   15  N1  UNL     1      -2.473 -19.232  25.470  1.00  0.00    -0.370 N 
ATOM     16  H1  UNL     1      -3.204 -19.919  25.282  1.00  0.00     0.161 HD
BRANCH  15  17
HETATM   17  C5  UNL     1      -1.101 -19.568  25.161  1.00  0.00     0.083 C 
HETATM   18  C6  UNL     1      -0.410 -20.298  26.286  1.00  0.00     0.025 C 
HETATM   19  C7  UNL     1       0.884 -20.707  25.567  1.00  0.00     0.002 C 
HETATM   20  C8  UNL     1       0.410 -21.103  24.187  1.00  0.00     0.002 C 
HETATM   21  C9  UNL     1      -1.001 -20.584  24.045  1.00  0.00     0.025 C 
ENDBRANCH  15  17
ENDBRANCH   5  15
BRANCH  10  22
HETATM   22  C11 UNL     1      -3.870 -14.370  27.986  1.00  0.00    -0.005 A 
HETATM   23  C12 UNL     1      -2.859 -13.712  28.701  1.00  0.00     0.030 A 
HETATM   24  C13 UNL     1      -3.158 -12.576  29.411  1.00  0.00     0.088 A 
HETATM   25  N4  UNL     1      -4.418 -12.127  29.398  1.00  0.00    -0.375 N 
HETATM   26  C14 UNL     1      -5.405 -12.725  28.731  1.00  0.00     0.088 A 
ATOM     27  H4  UNL     1      -4.636 -11.281  29.926  1.00  0.00     0.164 HD
HETATM   28  C15 UNL     1      -5.148 -13.867  28.007  1.00  0.00     0.030 A 
ENDBRANCH  10  22
TORSDOF 3
ENDMDL
