MODEL 2
REMARK VINA RESULT: -10.245672066      2.410      3.255
REMARK  3 active torsions:
REMARK  status: ('A' for Active; 'I' for Inactive)
REMARK    1  A    between atoms: C4_5  and  N1_6 
REMARK    2  A    between atoms: N1_6  and  C5_8 
REMARK    3  A    between atoms: C10_17  and  C11_18 
ROOT
HETATM    1 CL1  UNL     1      -3.228 -16.579  23.145  1.00  0.00    -0.083 Cl
HETATM    2  C1  UNL     1      -3.570 -15.788  24.666  1.00  0.00     0.056 A 
HETATM    3  C2  UNL     1      -3.367 -16.521  25.827  1.00  0.00     0.042 A 
HETATM    4  C3  UNL     1      -3.632 -15.915  27.033  1.00  0.00     0.023 A 
HETATM    5  C4  UNL     1      -3.413 -16.647  28.185  1.00  0.00     0.127 A 
HETATM    6  N2  UNL     1      -3.672 -16.009  29.367  1.00  0.00    -0.285 N 
ATOM      7  H2  UNL     1      -3.526 -16.506  30.246  1.00  0.00     0.188 HD
HETATM    8  N3  UNL     1      -4.100 -14.787  29.394  1.00  0.00    -0.298 N 
ATOM      9  H3  UNL     1      -4.273 -14.368  30.308  1.00  0.00     0.187 HD
HETATM   10  C10 UNL     1      -4.331 -14.032  28.314  1.00  0.00     0.069 A 
HETATM   11  C16 UNL     1      -4.096 -14.589  27.084  1.00  0.00     0.009 A 
HETATM   12  C17 UNL     1      -4.286 -13.891  25.924  1.00  0.00     0.040 A 
HETATM   13  C18 UNL     1      -4.023 -14.489  24.704  1.00  0.00     0.056 A 
HETATM   14 CL2  UNL     1      -4.257 -13.622  23.212  1.00  0.00    -0.083 Cl
ENDROOT
BRANCH   5  15
HETATM   15  N1  UNL     1      -2.947 -17.987  28.210  1.00  0.00    -0.370 N 
ATOM     16  H1  UNL     1      -1.948 -18.164  28.095  1.00  0.00     0.161 HD
BRANCH  15  17
HETATM   17  C5  UNL     1      -3.839 -19.111  28.392  1.00  0.00     0.083 C 
HETATM   18  C6  UNL     1      -5.257 -18.689  28.687  1.00  0.00     0.025 C 
HETATM   19  C7  UNL     1      -5.956 -20.053  28.579  1.00  0.00     0.002 C 
HETATM   20  C8  UNL     1      -5.274 -20.705  27.399  1.00  0.00     0.002 C 
HETATM   21  C9  UNL     1      -4.026 -19.902  27.117  1.00  0.00     0.025 C 
ENDBRANCH  15  17
ENDBRANCH   5  15
BRANCH  10  22
HETATM   22  C11 UNL     1      -4.805 -12.657  28.440  1.00  0.00    -0.005 A 
HETATM   23  C12 UNL     1      -4.469 -11.943  29.599  1.00  0.00     0.030 A 
HETATM   24  C13 UNL     1      -4.932 -10.662  29.767  1.00  0.00     0.088 A 
HETATM   25  N4  UNL     1      -5.699 -10.129  28.809  1.00  0.00    -0.375 N 
HETATM   26  C14 UNL     1      -6.040 -10.776  27.696  1.00  0.00     0.088 A 
ATOM     27  H4  UNL     1      -6.041  -9.176  28.937  1.00  0.00     0.164 HD
HETATM   28  C15 UNL     1      -5.597 -12.063  27.488  1.00  0.00     0.030 A 
ENDBRANCH  10  22
TORSDOF 3
ENDMDL
