MODEL 13
REMARK VINA RESULT: -8.999556617      1.318      6.695
REMARK  3 active torsions:
REMARK  status: ('A' for Active; 'I' for Inactive)
REMARK    1  A    between atoms: C4_5  and  N1_6 
REMARK    2  A    between atoms: N1_6  and  C5_8 
REMARK    3  A    between atoms: C10_17  and  C11_18 
ROOT
HETATM    1 CL1  UNL     1      -4.407 -13.510  24.389  1.00  0.00    -0.083 Cl
HETATM    2  C1  UNL     1      -3.832 -15.037  25.015  1.00  0.00     0.056 A 
HETATM    3  C2  UNL     1      -3.785 -15.185  26.394  1.00  0.00     0.042 A 
HETATM    4  C3  UNL     1      -3.334 -16.381  26.905  1.00  0.00     0.023 A 
HETATM    5  C4  UNL     1      -3.305 -16.525  28.279  1.00  0.00     0.127 A 
HETATM    6  N2  UNL     1      -2.865 -17.731  28.753  1.00  0.00    -0.285 N 
ATOM      7  H2  UNL     1      -2.825 -17.888  29.760  1.00  0.00     0.188 HD
HETATM    8  N3  UNL     1      -2.498 -18.678  27.949  1.00  0.00    -0.298 N 
ATOM      9  H3  UNL     1      -2.181 -19.554  28.365  1.00  0.00     0.187 HD
HETATM   10  C10 UNL     1      -2.504 -18.595  26.613  1.00  0.00     0.069 A 
HETATM   11  C16 UNL     1      -2.932 -17.421  26.049  1.00  0.00     0.009 A 
HETATM   12  C17 UNL     1      -2.990 -17.247  24.695  1.00  0.00     0.040 A 
HETATM   13  C18 UNL     1      -3.441 -16.050  24.168  1.00  0.00     0.056 A 
HETATM   14 CL2  UNL     1      -3.525 -15.803  22.446  1.00  0.00    -0.083 Cl
ENDROOT
BRANCH   5  15
HETATM   15  N1  UNL     1      -3.694 -15.520  29.202  1.00  0.00    -0.370 N 
ATOM     16  H1  UNL     1      -3.858 -15.780  30.175  1.00  0.00     0.161 HD
BRANCH  15  17
HETATM   17  C5  UNL     1      -3.867 -14.138  28.810  1.00  0.00     0.083 C 
HETATM   18  C6  UNL     1      -5.252 -13.616  29.104  1.00  0.00     0.025 C 
HETATM   19  C7  UNL     1      -5.028 -12.124  28.813  1.00  0.00     0.002 C 
HETATM   20  C8  UNL     1      -3.656 -11.856  29.387  1.00  0.00     0.002 C 
HETATM   21  C9  UNL     1      -3.016 -13.201  29.637  1.00  0.00     0.025 C 
ENDBRANCH  15  17
ENDBRANCH   5  15
BRANCH  10  22
HETATM   22  C11 UNL     1      -2.080 -19.719  25.784  1.00  0.00    -0.005 A 
HETATM   23  C12 UNL     1      -2.960 -20.800  25.632  1.00  0.00     0.030 A 
HETATM   24  C13 UNL     1      -2.577 -21.890  24.891  1.00  0.00     0.088 A 
HETATM   25  N4  UNL     1      -1.361 -21.887  24.332  1.00  0.00    -0.375 N 
HETATM   26  C14 UNL     1      -0.498 -20.880  24.455  1.00  0.00     0.088 A 
ATOM     27  H4  UNL     1      -1.080 -22.699  23.781  1.00  0.00     0.164 HD
HETATM   28  C15 UNL     1      -0.843 -19.768  25.190  1.00  0.00     0.030 A 
ENDBRANCH  10  22
TORSDOF 3
ENDMDL
