MODEL 3
REMARK VINA RESULT: -9.897842709      1.398      1.688
REMARK  3 active torsions:
REMARK  status: ('A' for Active; 'I' for Inactive)
REMARK    1  A    between atoms: C4_5  and  N1_6 
REMARK    2  A    between atoms: N1_6  and  C5_8 
REMARK    3  A    between atoms: C10_17  and  C11_18 
ROOT
HETATM    1 CL1  UNL     1      -3.568 -16.030  21.405  1.00  0.00    -0.083 Cl
HETATM    2  C1  UNL     1      -3.574 -15.845  23.143  1.00  0.00     0.056 A 
HETATM    3  C2  UNL     1      -3.193 -16.942  23.904  1.00  0.00     0.042 A 
HETATM    4  C3  UNL     1      -3.192 -16.814  25.273  1.00  0.00     0.023 A 
HETATM    5  C4  UNL     1      -2.797 -17.907  26.022  1.00  0.00     0.127 A 
HETATM    6  N2  UNL     1      -2.794 -17.741  27.381  1.00  0.00    -0.285 N 
ATOM      7  H2  UNL     1      -2.510 -18.517  27.979  1.00  0.00     0.188 HD
HETATM    8  N3  UNL     1      -3.144 -16.618  27.924  1.00  0.00    -0.298 N 
ATOM      9  H3  UNL     1      -3.119 -16.559  28.942  1.00  0.00     0.187 HD
HETATM   10  C10 UNL     1      -3.536 -15.530  27.250  1.00  0.00     0.069 A 
HETATM   11  C16 UNL     1      -3.568 -15.605  25.882  1.00  0.00     0.009 A 
HETATM   12  C17 UNL     1      -3.937 -14.541  25.108  1.00  0.00     0.040 A 
HETATM   13  C18 UNL     1      -3.942 -14.655  23.729  1.00  0.00     0.056 A 
HETATM   14 CL2  UNL     1      -4.409 -13.315  22.719  1.00  0.00    -0.083 Cl
ENDROOT
BRANCH   5  15
HETATM   15  N1  UNL     1      -2.406 -19.157  25.477  1.00  0.00    -0.370 N 
ATOM     16  H1  UNL     1      -1.944 -19.175  24.568  1.00  0.00     0.161 HD
BRANCH  15  17
HETATM   17  C5  UNL     1      -2.640 -20.407  26.168  1.00  0.00     0.083 C 
HETATM   18  C6  UNL     1      -4.095 -20.627  26.501  1.00  0.00     0.025 C 
HETATM   19  C7  UNL     1      -4.029 -22.085  26.978  1.00  0.00     0.002 C 
HETATM   20  C8  UNL     1      -3.059 -22.727  26.013  1.00  0.00     0.002 C 
HETATM   21  C9  UNL     1      -2.353 -21.604  25.291  1.00  0.00     0.025 C 
ENDBRANCH  15  17
ENDBRANCH   5  15
BRANCH  10  22
HETATM   22  C11 UNL     1      -3.905 -14.302  27.948  1.00  0.00    -0.005 A 
HETATM   23  C12 UNL     1      -2.921 -13.646  28.702  1.00  0.00     0.030 A 
HETATM   24  C13 UNL     1      -3.246 -12.510  29.402  1.00  0.00     0.088 A 
HETATM   25  N4  UNL     1      -4.505 -12.061  29.342  1.00  0.00    -0.375 N 
HETATM   26  C14 UNL     1      -5.465 -12.658  28.637  1.00  0.00     0.088 A 
ATOM     27  H4  UNL     1      -4.741 -11.216  29.862  1.00  0.00     0.164 HD
HETATM   28  C15 UNL     1      -5.182 -13.799  27.922  1.00  0.00     0.030 A 
ENDBRANCH  10  22
TORSDOF 3
ENDMDL
