MODEL 3
REMARK VINA RESULT: -7.982505689      1.011      2.615
REMARK  4 active torsions:
REMARK  status: ('A' for Active; 'I' for Inactive)
REMARK    1  A    between atoms: C2_2  and  N1_3 
REMARK    2  A    between atoms: C9_11  and  S1_12 
REMARK    3  A    between atoms: S1_12  and  N2_15 
REMARK    4  A    between atoms: N2_15  and  C10_17 
ROOT
HETATM    1  N1  UNL     1       5.359  10.184   0.280  1.00  0.00    -0.313 N 
HETATM    2  C3  UNL     1       4.021  10.333  -0.220  1.00  0.00     0.259 A 
HETATM    3  O1  UNL     1       3.631  10.752  -1.328  1.00  0.00    -0.267 OA
HETATM    4  C4  UNL     1       3.151   9.886   0.851  1.00  0.00     0.045 A 
HETATM    5  C5  UNL     1       1.783   9.763   1.047  1.00  0.00     0.018 A 
HETATM    6  C6  UNL     1       1.297   9.279   2.243  1.00  0.00     0.002 A 
HETATM    7  C7  UNL     1       2.159   8.907   3.277  1.00  0.00     0.014 A 
HETATM    8  C8  UNL     1       3.516   9.029   3.082  1.00  0.00     0.001 A 
HETATM    9  C9  UNL     1       4.399   8.665   4.095  1.00  0.00     0.090 A 
HETATM   10  C16 UNL     1       5.740   8.822   3.810  1.00  0.00     0.028 A 
HETATM   11  C17 UNL     1       6.190   9.314   2.586  1.00  0.00     0.032 A 
HETATM   12  C18 UNL     1       5.290   9.673   1.587  1.00  0.00     0.049 A 
HETATM   13  C19 UNL     1       3.960   9.515   1.873  1.00  0.00     0.018 A 
ENDROOT
BRANCH   9  14
HETATM   14  S1  UNL     1       3.765   8.065   5.581  1.00  0.00     0.260 S 
HETATM   15  O2  UNL     1       2.269   8.168   5.669  1.00  0.00    -0.200 OA
HETATM   16  O3  UNL     1       4.318   8.934   6.698  1.00  0.00    -0.200 OA
BRANCH  14  17
HETATM   17  N2  UNL     1       4.205   6.443   5.914  1.00  0.00    -0.311 N 
ATOM     18  H2  UNL     1       3.834   5.641   5.404  1.00  0.00     0.172 HD
BRANCH  17  19
HETATM   19  C10 UNL     1       5.159   6.331   6.998  1.00  0.00     0.093 C 
HETATM   20  C11 UNL     1       6.517   6.127   6.310  1.00  0.00     0.026 C 
HETATM   21  C12 UNL     1       7.602   5.830   7.305  1.00  0.00     0.002 C 
HETATM   22  C13 UNL     1       7.245   4.724   8.262  1.00  0.00     0.000 C 
HETATM   23  C14 UNL     1       5.915   5.043   8.921  1.00  0.00     0.002 C 
HETATM   24  C15 UNL     1       4.891   5.101   7.795  1.00  0.00     0.026 C 
ENDBRANCH  17  19
ENDBRANCH  14  17
ENDBRANCH   9  14
BRANCH   1  25
HETATM   25  C2  UNL     1       6.576  10.502  -0.427  1.00  0.00     0.128 C 
HETATM   26  C1  UNL     1       6.904  11.995  -0.330  1.00  0.00     0.027 C 
ENDBRANCH   1  25
TORSDOF 4
ENDMDL
