MODEL 6
REMARK VINA RESULT: -7.729912095      2.249      7.257
REMARK  4 active torsions:
REMARK  status: ('A' for Active; 'I' for Inactive)
REMARK    1  A    between atoms: C2_2  and  N1_3 
REMARK    2  A    between atoms: C9_11  and  S1_12 
REMARK    3  A    between atoms: S1_12  and  N2_15 
REMARK    4  A    between atoms: N2_15  and  C10_17 
ROOT
HETATM    1  N1  UNL     1       5.010   7.971   4.796  1.00  0.00    -0.313 N 
HETATM    2  C3  UNL     1       3.582   8.081   4.905  1.00  0.00     0.259 A 
HETATM    3  O1  UNL     1       2.806   7.549   5.724  1.00  0.00    -0.267 OA
HETATM    4  C4  UNL     1       3.175   8.972   3.835  1.00  0.00     0.045 A 
HETATM    5  C5  UNL     1       1.980   9.499   3.369  1.00  0.00     0.018 A 
HETATM    6  C6  UNL     1       1.975  10.348   2.282  1.00  0.00     0.002 A 
HETATM    7  C7  UNL     1       3.161  10.693   1.630  1.00  0.00     0.014 A 
HETATM    8  C8  UNL     1       4.347  10.170   2.093  1.00  0.00     0.001 A 
HETATM    9  C9  UNL     1       5.543  10.498   1.463  1.00  0.00     0.090 A 
HETATM   10  C16 UNL     1       6.681   9.926   1.995  1.00  0.00     0.028 A 
HETATM   11  C17 UNL     1       6.641   9.073   3.096  1.00  0.00     0.032 A 
HETATM   12  C18 UNL     1       5.434   8.758   3.712  1.00  0.00     0.049 A 
HETATM   13  C19 UNL     1       4.307   9.327   3.181  1.00  0.00     0.018 A 
ENDROOT
BRANCH   9  14
HETATM   14  S1  UNL     1       5.511  11.560   0.105  1.00  0.00     0.260 S 
HETATM   15  O2  UNL     1       6.881  11.964  -0.360  1.00  0.00    -0.200 OA
HETATM   16  O3  UNL     1       4.816  12.839   0.541  1.00  0.00    -0.200 OA
BRANCH  14  17
HETATM   17  N2  UNL     1       4.657  10.933  -1.241  1.00  0.00    -0.311 N 
ATOM     18  H2  UNL     1       4.067  11.500  -1.850  1.00  0.00     0.172 HD
BRANCH  17  19
HETATM   19  C10 UNL     1       4.863   9.511  -1.423  1.00  0.00     0.093 C 
HETATM   20  C11 UNL     1       5.452   9.374  -2.834  1.00  0.00     0.026 C 
HETATM   21  C12 UNL     1       5.575   7.934  -3.245  1.00  0.00     0.002 C 
HETATM   22  C13 UNL     1       4.305   7.149  -3.050  1.00  0.00     0.000 C 
HETATM   23  C14 UNL     1       3.833   7.313  -1.616  1.00  0.00     0.002 C 
HETATM   24  C15 UNL     1       3.554   8.799  -1.432  1.00  0.00     0.026 C 
ENDBRANCH  17  19
ENDBRANCH  14  17
ENDBRANCH   9  14
BRANCH   1  25
HETATM   25  C2  UNL     1       5.874   7.190   5.646  1.00  0.00     0.128 C 
HETATM   26  C1  UNL     1       6.193   5.829   5.018  1.00  0.00     0.027 C 
ENDBRANCH   1  25
TORSDOF 4
ENDMDL
