MODEL 16
REMARK VINA RESULT: -7.011618493      1.873      7.488
REMARK  4 active torsions:
REMARK  status: ('A' for Active; 'I' for Inactive)
REMARK    1  A    between atoms: C2_2  and  N1_3 
REMARK    2  A    between atoms: C9_11  and  S1_12 
REMARK    3  A    between atoms: S1_12  and  N2_15 
REMARK    4  A    between atoms: N2_15  and  C10_17 
ROOT
HETATM    1  N1  UNL     1       4.782   7.671   5.657  1.00  0.00    -0.313 N 
HETATM    2  C3  UNL     1       3.366   7.911   5.650  1.00  0.00     0.259 A 
HETATM    3  O1  UNL     1       2.498   7.554   6.471  1.00  0.00    -0.267 OA
HETATM    4  C4  UNL     1       3.107   8.687   4.452  1.00  0.00     0.045 A 
HETATM    5  C5  UNL     1       1.995   9.246   3.840  1.00  0.00     0.018 A 
HETATM    6  C6  UNL     1       2.133   9.945   2.660  1.00  0.00     0.002 A 
HETATM    7  C7  UNL     1       3.382  10.105   2.057  1.00  0.00     0.014 A 
HETATM    8  C8  UNL     1       4.486   9.550   2.664  1.00  0.00     0.001 A 
HETATM    9  C9  UNL     1       5.743   9.695   2.085  1.00  0.00     0.090 A 
HETATM   10  C16 UNL     1       6.790   9.105   2.764  1.00  0.00     0.028 A 
HETATM   11  C17 UNL     1       6.606   8.407   3.956  1.00  0.00     0.032 A 
HETATM   12  C18 UNL     1       5.340   8.275   4.518  1.00  0.00     0.049 A 
HETATM   13  C19 UNL     1       4.304   8.861   3.842  1.00  0.00     0.018 A 
ENDROOT
BRANCH   9  14
HETATM   14  S1  UNL     1       5.889  10.572   0.609  1.00  0.00     0.260 S 
HETATM   15  O2  UNL     1       7.258  11.158   0.404  1.00  0.00    -0.200 OA
HETATM   16  O3  UNL     1       4.929  11.748   0.678  1.00  0.00    -0.200 OA
BRANCH  14  17
HETATM   17  N2  UNL     1       5.492   9.654  -0.782  1.00  0.00    -0.311 N 
ATOM     18  H2  UNL     1       6.180   9.152  -1.343  1.00  0.00     0.172 HD
BRANCH  17  19
HETATM   19  C10 UNL     1       4.074   9.666  -1.076  1.00  0.00     0.093 C 
HETATM   20  C11 UNL     1       3.642   8.194  -1.001  1.00  0.00     0.026 C 
HETATM   21  C12 UNL     1       2.218   8.013  -1.444  1.00  0.00     0.002 C 
HETATM   22  C13 UNL     1       1.921   8.655  -2.773  1.00  0.00     0.000 C 
HETATM   23  C14 UNL     1       2.341  10.114  -2.727  1.00  0.00     0.002 C 
HETATM   24  C15 UNL     1       3.844  10.111  -2.480  1.00  0.00     0.026 C 
ENDBRANCH  17  19
ENDBRANCH  14  17
ENDBRANCH   9  14
BRANCH   1  25
HETATM   25  C2  UNL     1       5.519   6.937   6.657  1.00  0.00     0.128 C 
HETATM   26  C1  UNL     1       5.186   5.442   6.610  1.00  0.00     0.027 C 
ENDBRANCH   1  25
TORSDOF 4
ENDMDL
