MODEL 2
REMARK VINA RESULT: -8.471037120      1.587      2.792
REMARK  4 active torsions:
REMARK  status: ('A' for Active; 'I' for Inactive)
REMARK    1  A    between atoms: C2_2  and  N1_3 
REMARK    2  A    between atoms: C9_11  and  S1_12 
REMARK    3  A    between atoms: S1_12  and  N2_15 
REMARK    4  A    between atoms: N2_15  and  C10_17 
ROOT
HETATM    1  N1  UNL     1       4.458   9.858  -0.791  1.00  0.00    -0.313 N 
HETATM    2  C3  UNL     1       3.047   9.775  -0.535  1.00  0.00     0.259 A 
HETATM    3  O1  UNL     1       2.089   9.946  -1.315  1.00  0.00    -0.267 OA
HETATM    4  C4  UNL     1       2.924   9.437   0.871  1.00  0.00     0.045 A 
HETATM    5  C5  UNL     1       1.884   9.208   1.759  1.00  0.00     0.018 A 
HETATM    6  C6  UNL     1       2.154   8.897   3.075  1.00  0.00     0.002 A 
HETATM    7  C7  UNL     1       3.467   8.807   3.541  1.00  0.00     0.014 A 
HETATM    8  C8  UNL     1       4.499   9.034   2.659  1.00  0.00     0.001 A 
HETATM    9  C9  UNL     1       5.818   8.950   3.096  1.00  0.00     0.090 A 
HETATM   10  C16 UNL     1       6.785   9.194   2.143  1.00  0.00     0.028 A 
HETATM   11  C17 UNL     1       6.468   9.505   0.822  1.00  0.00     0.032 A 
HETATM   12  C18 UNL     1       5.143   9.583   0.405  1.00  0.00     0.049 A 
HETATM   13  C19 UNL     1       4.186   9.341   1.354  1.00  0.00     0.018 A 
ENDROOT
BRANCH   9  14
HETATM   14  S1  UNL     1       6.129   8.562   4.746  1.00  0.00     0.260 S 
HETATM   15  O2  UNL     1       5.120   9.151   5.692  1.00  0.00    -0.200 OA
HETATM   16  O3  UNL     1       7.468   9.177   5.116  1.00  0.00    -0.200 OA
BRANCH  14  17
HETATM   17  N2  UNL     1       6.224   6.879   5.053  1.00  0.00    -0.311 N 
ATOM     18  H2  UNL     1       6.386   6.181   4.328  1.00  0.00     0.172 HD
BRANCH  17  19
HETATM   19  C10 UNL     1       6.050   6.553   6.454  1.00  0.00     0.093 C 
HETATM   20  C11 UNL     1       7.418   6.029   6.911  1.00  0.00     0.026 C 
HETATM   21  C12 UNL     1       7.364   5.491   8.312  1.00  0.00     0.002 C 
HETATM   22  C13 UNL     1       6.245   4.508   8.530  1.00  0.00     0.000 C 
HETATM   23  C14 UNL     1       4.935   5.138   8.092  1.00  0.00     0.002 C 
HETATM   24  C15 UNL     1       5.085   5.428   6.604  1.00  0.00     0.026 C 
ENDBRANCH  17  19
ENDBRANCH  14  17
ENDBRANCH   9  14
BRANCH   1  25
HETATM   25  C2  UNL     1       5.080  10.170  -2.054  1.00  0.00     0.128 C 
HETATM   26  C1  UNL     1       5.462   8.898  -2.818  1.00  0.00     0.027 C 
ENDBRANCH   1  25
TORSDOF 4
ENDMDL
