MODEL 15
REMARK VINA RESULT: -7.025923156      2.250      7.404
REMARK  4 active torsions:
REMARK  status: ('A' for Active; 'I' for Inactive)
REMARK    1  A    between atoms: C2_2  and  N1_3 
REMARK    2  A    between atoms: C9_11  and  S1_12 
REMARK    3  A    between atoms: S1_12  and  N2_15 
REMARK    4  A    between atoms: N2_15  and  C10_17 
ROOT
HETATM    1  N1  UNL     1       5.113   8.080   4.808  1.00  0.00    -0.313 N 
HETATM    2  C3  UNL     1       3.677   8.115   4.786  1.00  0.00     0.259 A 
HETATM    3  O1  UNL     1       2.860   7.608   5.580  1.00  0.00    -0.267 OA
HETATM    4  C4  UNL     1       3.323   8.890   3.612  1.00  0.00     0.045 A 
HETATM    5  C5  UNL     1       2.148   9.307   3.002  1.00  0.00     0.018 A 
HETATM    6  C6  UNL     1       2.197  10.062   1.850  1.00  0.00     0.002 A 
HETATM    7  C7  UNL     1       3.418  10.421   1.272  1.00  0.00     0.014 A 
HETATM    8  C8  UNL     1       4.583  10.007   1.878  1.00  0.00     0.001 A 
HETATM    9  C9  UNL     1       5.812  10.351   1.324  1.00  0.00     0.090 A 
HETATM   10  C16 UNL     1       6.925   9.892   1.999  1.00  0.00     0.028 A 
HETATM   11  C17 UNL     1       6.831   9.131   3.163  1.00  0.00     0.032 A 
HETATM   12  C18 UNL     1       5.591   8.798   3.699  1.00  0.00     0.049 A 
HETATM   13  C19 UNL     1       4.489   9.255   3.028  1.00  0.00     0.018 A 
ENDROOT
BRANCH   9  14
HETATM   14  S1  UNL     1       5.847  11.294  -0.118  1.00  0.00     0.260 S 
HETATM   15  O2  UNL     1       6.960  12.304  -0.136  1.00  0.00    -0.200 OA
HETATM   16  O3  UNL     1       4.553  12.088  -0.177  1.00  0.00    -0.200 OA
BRANCH  14  17
HETATM   17  N2  UNL     1       5.955  10.361  -1.550  1.00  0.00    -0.311 N 
ATOM     18  H2  UNL     1       6.762  10.374  -2.174  1.00  0.00     0.172 HD
BRANCH  17  19
HETATM   19  C10 UNL     1       4.777   9.550  -1.782  1.00  0.00     0.093 C 
HETATM   20  C11 UNL     1       5.161   8.147  -1.292  1.00  0.00     0.026 C 
HETATM   21  C12 UNL     1       4.094   7.139  -1.613  1.00  0.00     0.002 C 
HETATM   22  C13 UNL     1       3.660   7.169  -3.054  1.00  0.00     0.000 C 
HETATM   23  C14 UNL     1       3.259   8.587  -3.424  1.00  0.00     0.002 C 
HETATM   24  C15 UNL     1       4.509   9.438  -3.244  1.00  0.00     0.026 C 
ENDBRANCH  17  19
ENDBRANCH  14  17
ENDBRANCH   9  14
BRANCH   1  25
HETATM   25  C2  UNL     1       5.936   7.422   5.793  1.00  0.00     0.128 C 
HETATM   26  C1  UNL     1       6.071   5.924   5.497  1.00  0.00     0.027 C 
ENDBRANCH   1  25
TORSDOF 4
ENDMDL
