MODEL 1
REMARK VINA RESULT: -8.876567612      0.000      0.000
REMARK  4 active torsions:
REMARK  status: ('A' for Active; 'I' for Inactive)
REMARK    1  A    between atoms: C2_2  and  N1_3 
REMARK    2  A    between atoms: C9_11  and  S1_12 
REMARK    3  A    between atoms: S1_12  and  N2_15 
REMARK    4  A    between atoms: N2_15  and  C10_17 
ROOT
HETATM    1  N1  UNL     1       3.792  10.050   0.113  1.00  0.00    -0.313 N 
HETATM    2  C3  UNL     1       5.224  10.139   0.046  1.00  0.00     0.259 A 
HETATM    3  O1  UNL     1       5.952  10.512  -0.895  1.00  0.00    -0.267 OA
HETATM    4  C4  UNL     1       5.704   9.695   1.341  1.00  0.00     0.045 A 
HETATM    5  C5  UNL     1       6.939   9.532   1.951  1.00  0.00     0.018 A 
HETATM    6  C6  UNL     1       7.015   9.070   3.247  1.00  0.00     0.002 A 
HETATM    7  C7  UNL     1       5.863   8.756   3.971  1.00  0.00     0.014 A 
HETATM    8  C8  UNL     1       4.637   8.917   3.366  1.00  0.00     0.001 A 
HETATM    9  C9  UNL     1       3.473   8.613   4.064  1.00  0.00     0.090 A 
HETATM   10  C16 UNL     1       2.291   8.805   3.378  1.00  0.00     0.028 A 
HETATM   11  C17 UNL     1       2.259   9.276   2.066  1.00  0.00     0.032 A 
HETATM   12  C18 UNL     1       3.436   9.575   1.386  1.00  0.00     0.049 A 
HETATM   13  C19 UNL     1       4.606   9.383   2.070  1.00  0.00     0.018 A 
ENDROOT
BRANCH   9  14
HETATM   14  S1  UNL     1       3.594   8.035   5.683  1.00  0.00     0.260 S 
HETATM   15  O2  UNL     1       2.273   8.003   6.399  1.00  0.00    -0.200 OA
HETATM   16  O3  UNL     1       4.470   9.008   6.453  1.00  0.00    -0.200 OA
BRANCH  14  17
HETATM   17  N2  UNL     1       4.303   6.480   5.810  1.00  0.00    -0.311 N 
ATOM     18  H2  UNL     1       4.113   5.719   5.158  1.00  0.00     0.172 HD
BRANCH  17  19
HETATM   19  C10 UNL     1       5.199   6.362   6.941  1.00  0.00     0.093 C 
HETATM   20  C11 UNL     1       6.595   6.196   6.324  1.00  0.00     0.026 C 
HETATM   21  C12 UNL     1       7.630   5.897   7.370  1.00  0.00     0.002 C 
HETATM   22  C13 UNL     1       7.243   4.765   8.284  1.00  0.00     0.000 C 
HETATM   23  C14 UNL     1       5.873   5.048   8.876  1.00  0.00     0.002 C 
HETATM   24  C15 UNL     1       4.911   5.111   7.698  1.00  0.00     0.026 C 
ENDBRANCH  17  19
ENDBRANCH  14  17
ENDBRANCH   9  14
BRANCH   1  25
HETATM   25  C2  UNL     1       2.866  10.387  -0.940  1.00  0.00     0.128 C 
HETATM   26  C1  UNL     1       2.400   9.137  -1.695  1.00  0.00     0.027 C 
ENDBRANCH   1  25
TORSDOF 4
ENDMDL
