MODEL 5
REMARK VINA RESULT: -7.691970791      1.206      2.741
REMARK  8 active torsions:
REMARK  status: ('A' for Active; 'I' for Inactive)
REMARK    1  A    between atoms: N1_1  and  C1_5 
REMARK    2  A    between atoms: C1_5  and  C2_6 
REMARK    3  A    between atoms: C2_6  and  C3_7 
REMARK    4  A    between atoms: C3_7  and  C4_8 
REMARK    5  A    between atoms: C4_8  and  N2_9 
REMARK    6  A    between atoms: C6_11  and  C7_12 
REMARK    7  A    between atoms: C7_12  and  C8_13 
REMARK    8  A    between atoms: C8_13  and  N3_14 
ROOT
HETATM    1  C8  UNL     1       4.412  -6.243 -10.464  1.00  0.00     0.175 C 
ENDROOT
BRANCH   1   2
HETATM    2  C7  UNL     1       5.192  -7.543 -10.385  1.00  0.00     0.083 C 
BRANCH   2   3
HETATM    3  C6  UNL     1       4.836  -8.214  -9.131  1.00  0.00     0.042 A 
HETATM    4  C5  UNL     1       3.579  -8.202  -8.565  1.00  0.00     0.134 A 
HETATM    5  N2  UNL     1       3.597  -8.904  -7.436  1.00  0.00    -0.285 N 
HETATM    6  N7  UNL     1       4.836  -9.355  -7.283  1.00  0.00    -0.021 NA
HETATM    7  N6  UNL     1       5.590  -8.949  -8.291  1.00  0.00    -0.287 N 
ATOM      8  H6  UNL     1       6.581  -9.159  -8.413  1.00  0.00     0.184 HD
BRANCH   5   9
HETATM    9  C4  UNL     1       2.459  -9.116  -6.562  1.00  0.00     0.146 C 
BRANCH   9  10
HETATM   10  C3  UNL     1       2.208 -10.606  -6.513  1.00  0.00     0.023 C 
BRANCH  10  11
HETATM   11  C2  UNL     1       1.108 -11.038  -7.425  1.00  0.00     0.029 C 
BRANCH  11  12
HETATM   12  C1  UNL     1       1.603 -11.422  -8.801  1.00  0.00     0.229 C 
BRANCH  12  13
HETATM   13  N1  UNL     1       1.084 -10.531  -9.813  1.00  0.00    -0.079 N 
ATOM     14  H13 UNL     1       0.195 -10.119  -9.529  1.00  0.00     0.274 HD
ATOM     15  H12 UNL     1       1.639  -9.678  -9.881  1.00  0.00     0.274 HD
ATOM     16  H11 UNL     1       1.008 -11.000 -10.716  1.00  0.00     0.274 HD
ENDBRANCH  12  13
ENDBRANCH  11  12
ENDBRANCH  10  11
ENDBRANCH   9  10
ENDBRANCH   5   9
ENDBRANCH   2   3
ENDBRANCH   1   2
BRANCH   1  17
HETATM   17  N3  UNL     1       4.657  -5.693 -11.806  1.00  0.00    -0.233 N 
HETATM   18  N4  UNL     1       4.914  -6.390 -12.894  1.00  0.00    -0.281 N 
HETATM   19  C9  UNL     1       5.091  -5.592 -13.962  1.00  0.00     0.098 A 
ATOM     20  H4  UNL     1       4.971  -7.407 -12.922  1.00  0.00     0.189 HD
HETATM   21  C10 UNL     1       5.372  -5.774 -15.298  1.00  0.00     0.060 A 
HETATM   22  C14 UNL     1       4.926  -4.315 -13.474  1.00  0.00     0.098 A 
HETATM   23 BR1  UNL     1       5.592  -7.553 -15.929  1.00  0.00    -0.047 Br
HETATM   24  C11 UNL     1       5.498  -4.716 -16.187  1.00  0.00     0.049 A 
HETATM   25 BR2  UNL     1       5.890  -5.011 -18.034  1.00  0.00    -0.048 Br
HETATM   26  C12 UNL     1       5.332  -3.439 -15.689  1.00  0.00     0.049 A 
HETATM   27 BR3  UNL     1       5.508  -1.985 -16.920  1.00  0.00    -0.048 Br
HETATM   28  C13 UNL     1       5.051  -3.251 -14.355  1.00  0.00     0.060 A 
HETATM   29 BR4  UNL     1       4.824  -1.482 -13.685  1.00  0.00    -0.047 Br
HETATM   30  N5  UNL     1       4.664  -4.422 -12.160  1.00  0.00    -0.281 N 
ATOM     31  H5  UNL     1       4.496  -3.638 -11.530  1.00  0.00     0.189 HD
ENDBRANCH   1  17
TORSDOF 8
ENDMDL
