MODEL 1
REMARK VINA RESULT: -7.890603747      0.000      0.000
REMARK  8 active torsions:
REMARK  status: ('A' for Active; 'I' for Inactive)
REMARK    1  A    between atoms: N1_1  and  C1_5 
REMARK    2  A    between atoms: C1_5  and  C2_6 
REMARK    3  A    between atoms: C2_6  and  C3_7 
REMARK    4  A    between atoms: C3_7  and  C4_8 
REMARK    5  A    between atoms: C4_8  and  N2_9 
REMARK    6  A    between atoms: C6_11  and  C7_12 
REMARK    7  A    between atoms: C7_12  and  C8_13 
REMARK    8  A    between atoms: C8_13  and  N3_14 
ROOT
HETATM    1  C8  UNL     1       4.293  -5.713 -10.745  1.00  0.00     0.175 C 
ENDROOT
BRANCH   1   2
HETATM    2  C7  UNL     1       5.062  -6.990 -10.452  1.00  0.00     0.083 C 
BRANCH   2   3
HETATM    3  C6  UNL     1       4.207  -7.861  -9.639  1.00  0.00     0.042 A 
HETATM    4  C5  UNL     1       4.482  -9.181  -9.351  1.00  0.00     0.134 A 
HETATM    5  N2  UNL     1       3.508  -9.679  -8.595  1.00  0.00    -0.285 N 
HETATM    6  N7  UNL     1       2.630  -8.701  -8.404  1.00  0.00    -0.021 NA
HETATM    7  N6  UNL     1       3.037  -7.605  -9.024  1.00  0.00    -0.287 N 
ATOM      8  H6  UNL     1       2.544  -6.712  -9.035  1.00  0.00     0.184 HD
BRANCH   5   9
HETATM    9  C4  UNL     1       3.447 -11.039  -8.093  1.00  0.00     0.146 C 
BRANCH   9  10
HETATM   10  C3  UNL     1       2.007 -11.486  -8.195  1.00  0.00     0.023 C 
BRANCH  10  11
HETATM   11  C2  UNL     1       1.826 -12.653  -9.107  1.00  0.00     0.029 C 
BRANCH  11  12
HETATM   12  C1  UNL     1       1.586 -12.245 -10.543  1.00  0.00     0.229 C 
BRANCH  12  13
HETATM   13  N1  UNL     1       0.250 -12.591 -10.971  1.00  0.00    -0.079 N 
ATOM     14  H13 UNL     1       0.070 -13.590 -10.864  1.00  0.00     0.274 HD
ATOM     15  H12 UNL     1      -0.455 -12.235 -10.325  1.00  0.00     0.274 HD
ATOM     16  H11 UNL     1       0.074 -12.279 -11.926  1.00  0.00     0.274 HD
ENDBRANCH  12  13
ENDBRANCH  11  12
ENDBRANCH  10  11
ENDBRANCH   9  10
ENDBRANCH   5   9
ENDBRANCH   2   3
ENDBRANCH   1   2
BRANCH   1  17
HETATM   17  N3  UNL     1       4.574  -5.374 -12.149  1.00  0.00    -0.233 N 
HETATM   18  N4  UNL     1       4.609  -4.161 -12.661  1.00  0.00    -0.281 N 
HETATM   19  C9  UNL     1       4.893  -4.187 -13.975  1.00  0.00     0.098 A 
ATOM     20  H4  UNL     1       4.443  -3.309 -12.127  1.00  0.00     0.189 HD
HETATM   21  C10 UNL     1       5.050  -3.251 -14.973  1.00  0.00     0.060 A 
HETATM   22  C14 UNL     1       5.039  -5.523 -14.274  1.00  0.00     0.098 A 
HETATM   23 BR1  UNL     1       4.839  -1.417 -14.518  1.00  0.00    -0.047 Br
HETATM   24  C11 UNL     1       5.353  -3.596 -16.283  1.00  0.00     0.049 A 
HETATM   25 BR2  UNL     1       5.562  -2.266 -17.639  1.00  0.00    -0.048 Br
HETATM   26  C12 UNL     1       5.497  -4.938 -16.573  1.00  0.00     0.049 A 
HETATM   27 BR3  UNL     1       5.915  -5.407 -18.380  1.00  0.00    -0.048 Br
HETATM   28  C13 UNL     1       5.341  -5.879 -15.580  1.00  0.00     0.060 A 
HETATM   29 BR4  UNL     1       5.545  -7.726 -15.997  1.00  0.00    -0.047 Br
HETATM   30  N5  UNL     1       4.837  -6.209 -13.135  1.00  0.00    -0.281 N 
ATOM     31  H5  UNL     1       4.880  -7.225 -13.048  1.00  0.00     0.189 HD
ENDBRANCH   1  17
TORSDOF 8
ENDMDL
