MODEL 2
REMARK VINA RESULT: -7.882873963      0.055      2.344
REMARK  8 active torsions:
REMARK  status: ('A' for Active; 'I' for Inactive)
REMARK    1  A    between atoms: N1_1  and  C1_5 
REMARK    2  A    between atoms: C1_5  and  C2_6 
REMARK    3  A    between atoms: C2_6  and  C3_7 
REMARK    4  A    between atoms: C3_7  and  C4_8 
REMARK    5  A    between atoms: C4_8  and  N2_9 
REMARK    6  A    between atoms: C6_11  and  C7_12 
REMARK    7  A    between atoms: C7_12  and  C8_13 
REMARK    8  A    between atoms: C8_13  and  N3_14 
ROOT
HETATM    1  C8  UNL     1       4.252  -5.686 -10.732  1.00  0.00     0.175 C 
ENDROOT
BRANCH   1   2
HETATM    2  C7  UNL     1       5.006  -6.978 -10.472  1.00  0.00     0.083 C 
BRANCH   2   3
HETATM    3  C6  UNL     1       4.159  -7.841  -9.641  1.00  0.00     0.042 A 
HETATM    4  C5  UNL     1       4.437  -9.157  -9.341  1.00  0.00     0.134 A 
HETATM    5  N2  UNL     1       3.471  -9.647  -8.570  1.00  0.00    -0.285 N 
HETATM    6  N7  UNL     1       2.594  -8.668  -8.381  1.00  0.00    -0.021 NA
HETATM    7  N6  UNL     1       2.994  -7.579  -9.018  1.00  0.00    -0.287 N 
ATOM      8  H6  UNL     1       2.501  -6.687  -9.034  1.00  0.00     0.184 HD
BRANCH   5   9
HETATM    9  C4  UNL     1       3.416 -11.001  -8.051  1.00  0.00     0.146 C 
BRANCH   9  10
HETATM   10  C3  UNL     1       1.978 -11.456  -8.149  1.00  0.00     0.023 C 
BRANCH  10  11
HETATM   11  C2  UNL     1       1.800 -12.628  -9.055  1.00  0.00     0.029 C 
BRANCH  11  12
HETATM   12  C1  UNL     1       1.570 -12.227 -10.495  1.00  0.00     0.229 C 
BRANCH  12  13
HETATM   13  N1  UNL     1       0.259 -12.631 -10.949  1.00  0.00    -0.079 N 
ATOM     14  H13 UNL     1      -0.065 -13.468 -10.462  1.00  0.00     0.274 HD
ATOM     15  H12 UNL     1      -0.462 -11.980 -10.638  1.00  0.00     0.274 HD
ATOM     16  H11 UNL     1       0.239 -12.756 -11.961  1.00  0.00     0.274 HD
ENDBRANCH  12  13
ENDBRANCH  11  12
ENDBRANCH  10  11
ENDBRANCH   9  10
ENDBRANCH   5   9
ENDBRANCH   2   3
ENDBRANCH   1   2
BRANCH   1  17
HETATM   17  N3  UNL     1       4.533  -5.317 -12.128  1.00  0.00    -0.233 N 
HETATM   18  N4  UNL     1       4.810  -6.150 -13.110  1.00  0.00    -0.281 N 
HETATM   19  C9  UNL     1       5.020  -5.499 -14.267  1.00  0.00     0.098 A 
ATOM     20  H4  UNL     1       4.860  -7.163 -13.004  1.00  0.00     0.189 HD
HETATM   21  C10 UNL     1       5.331  -5.854 -15.561  1.00  0.00     0.060 A 
HETATM   22  C14 UNL     1       4.854  -4.168 -13.953  1.00  0.00     0.098 A 
HETATM   23 BR1  UNL     1       5.551  -7.701 -15.951  1.00  0.00    -0.047 Br
HETATM   24  C11 UNL     1       5.488  -4.920 -16.576  1.00  0.00     0.049 A 
HETATM   25 BR2  UNL     1       5.921  -5.455 -18.359  1.00  0.00    -0.048 Br
HETATM   26  C12 UNL     1       5.321  -3.589 -16.253  1.00  0.00     0.049 A 
HETATM   27 BR3  UNL     1       5.538  -2.308 -17.657  1.00  0.00    -0.048 Br
HETATM   28  C13 UNL     1       5.009  -3.228 -14.961  1.00  0.00     0.060 A 
HETATM   29 BR4  UNL     1       4.781  -1.386 -14.532  1.00  0.00    -0.047 Br
HETATM   30  N5  UNL     1       4.560  -4.102 -12.643  1.00  0.00    -0.281 N 
ATOM     31  H5  UNL     1       4.384  -3.242 -12.125  1.00  0.00     0.189 HD
ENDBRANCH   1  17
TORSDOF 8
ENDMDL
