MODEL 15
REMARK VINA RESULT: -4.787699582      5.179      5.814
REMARK  7 active torsions:
REMARK  status: ('A' for Active; 'I' for Inactive)
REMARK    1  A    between atoms: O1_1  and  C1_3 
REMARK    2  A    between atoms: C1_3  and  C2_4 
REMARK    3  A    between atoms: C2_4  and  N1_5 
REMARK    4  A    between atoms: N2_8  and  C5_9 
REMARK    5  A    between atoms: C5_9  and  C6_10 
REMARK    6  A    between atoms: C6_10  and  C7_11 
REMARK    7  A    between atoms: C7_11  and  S1_12 
ROOT
HETATM    1  N1  UNL     1       0.302  25.733  -9.047  1.00  0.00     0.093 N 
HETATM    2  C3  UNL     1      -1.039  25.773  -9.539  1.00  0.00     0.302 C 
HETATM    3  C4  UNL     1      -1.087  25.839 -11.079  1.00  0.00     0.302 C 
HETATM    4  N2  UNL     1      -0.229  24.820 -11.558  1.00  0.00     0.091 N 
HETATM    5  C8  UNL     1       1.145  25.298 -11.328  1.00  0.00     0.302 C 
HETATM    6  C9  UNL     1       1.330  25.941 -10.013  1.00  0.00     0.302 C 
ENDROOT
BRANCH   4   7
HETATM    7  C5  UNL     1      -0.438  24.256 -12.818  1.00  0.00     0.273 C 
BRANCH   7   8
HETATM    8  C6  UNL     1      -0.877  22.870 -12.987  1.00  0.00     0.048 C 
BRANCH   8   9
HETATM    9  C7  UNL     1      -1.733  22.293 -11.891  1.00  0.00     0.167 C 
BRANCH   9  10
HETATM   10  S1  UNL     1      -0.833  21.098 -10.954  1.00  0.00     0.101 S 
HETATM   11  O2  UNL     1      -0.120  21.501  -9.846  1.00  0.00    -0.595 OA
HETATM   12  O3  UNL     1      -2.251  20.079 -10.436  1.00  0.00    -0.595 OA
HETATM   13  O4  UNL     1      -0.189  20.023 -12.064  1.00  0.00    -0.595 OA
ENDBRANCH   9  10
ENDBRANCH   8   9
ENDBRANCH   7   8
ENDBRANCH   4   7
BRANCH   1  14
HETATM   14  C2  UNL     1       0.525  24.477  -8.358  1.00  0.00     0.298 C 
BRANCH  14  15
HETATM   15  C1  UNL     1      -0.723  24.006  -7.640  1.00  0.00     0.194 C 
BRANCH  15  16
HETATM   16  O1  UNL     1      -0.402  23.264  -6.509  1.00  0.00    -0.399 OA
ATOM     17  H1  UNL     1      -1.160  22.794  -6.180  1.00  0.00     0.209 HD
ENDBRANCH  15  16
ENDBRANCH  14  15
ENDBRANCH   1  14
TORSDOF 7
ENDMDL
