MODEL 6
REMARK VINA RESULT: -5.198454512      1.319      2.096
REMARK  7 active torsions:
REMARK  status: ('A' for Active; 'I' for Inactive)
REMARK    1  A    between atoms: O1_1  and  C1_3 
REMARK    2  A    between atoms: C1_3  and  C2_4 
REMARK    3  A    between atoms: C2_4  and  N1_5 
REMARK    4  A    between atoms: N2_8  and  C5_9 
REMARK    5  A    between atoms: C5_9  and  C6_10 
REMARK    6  A    between atoms: C6_10  and  C7_11 
REMARK    7  A    between atoms: C7_11  and  S1_12 
ROOT
HETATM    1  N1  UNL     1      -0.740  24.472 -10.308  1.00  0.00     0.093 N 
HETATM    2  C3  UNL     1      -0.687  25.128 -11.577  1.00  0.00     0.302 C 
HETATM    3  C4  UNL     1      -1.851  26.121 -11.763  1.00  0.00     0.302 C 
HETATM    4  N2  UNL     1      -1.892  26.924 -10.597  1.00  0.00     0.091 N 
HETATM    5  C8  UNL     1      -2.455  26.074  -9.533  1.00  0.00     0.302 C 
HETATM    6  C9  UNL     1      -1.917  24.700  -9.535  1.00  0.00     0.302 C 
ENDROOT
BRANCH   4   7
HETATM    7  C5  UNL     1      -2.427  28.212 -10.647  1.00  0.00     0.273 C 
BRANCH   7   8
HETATM    8  C6  UNL     1      -3.725  28.492 -11.263  1.00  0.00     0.048 C 
BRANCH   8   9
HETATM    9  C7  UNL     1      -4.087  29.942 -11.447  1.00  0.00     0.167 C 
BRANCH   9  10
HETATM   10  S1  UNL     1      -5.437  30.115 -12.572  1.00  0.00     0.101 S 
HETATM   11  O2  UNL     1      -6.455  30.998 -12.280  1.00  0.00    -0.595 OA
HETATM   12  O3  UNL     1      -4.485  30.724 -14.001  1.00  0.00    -0.595 OA
HETATM   13  O4  UNL     1      -5.753  28.581 -13.161  1.00  0.00    -0.595 OA
ENDBRANCH   9  10
ENDBRANCH   8   9
ENDBRANCH   7   8
ENDBRANCH   4   7
BRANCH   1  14
HETATM   14  C2  UNL     1       0.432  24.828  -9.533  1.00  0.00     0.298 C 
BRANCH  14  15
HETATM   15  C1  UNL     1       0.401  24.199  -8.156  1.00  0.00     0.194 C 
BRANCH  15  16
HETATM   16  O1  UNL     1       1.140  24.946  -7.245  1.00  0.00    -0.399 OA
ATOM     17  H1  UNL     1       2.013  24.588  -7.135  1.00  0.00     0.209 HD
ENDBRANCH  15  16
ENDBRANCH  14  15
ENDBRANCH   1  14
TORSDOF 7
ENDMDL
