MODEL 8
REMARK VINA RESULT: -5.053402197      1.823      2.241
REMARK  7 active torsions:
REMARK  status: ('A' for Active; 'I' for Inactive)
REMARK    1  A    between atoms: O1_1  and  C1_3 
REMARK    2  A    between atoms: C1_3  and  C2_4 
REMARK    3  A    between atoms: C2_4  and  N1_5 
REMARK    4  A    between atoms: N2_8  and  C5_9 
REMARK    5  A    between atoms: C5_9  and  C6_10 
REMARK    6  A    between atoms: C6_10  and  C7_11 
REMARK    7  A    between atoms: C7_11  and  S1_12 
ROOT
HETATM    1  N1  UNL     1      -0.700  24.492 -10.156  1.00  0.00     0.093 N 
HETATM    2  C3  UNL     1      -0.608  25.123 -11.435  1.00  0.00     0.302 C 
HETATM    3  C4  UNL     1      -1.768  26.109 -11.677  1.00  0.00     0.302 C 
HETATM    4  N2  UNL     1      -1.849  26.934 -10.529  1.00  0.00     0.091 N 
HETATM    5  C8  UNL     1      -2.442  26.104  -9.467  1.00  0.00     0.302 C 
HETATM    6  C9  UNL     1      -1.901  24.731  -9.425  1.00  0.00     0.302 C 
ENDROOT
BRANCH   4   7
HETATM    7  C5  UNL     1      -2.386  28.219 -10.620  1.00  0.00     0.273 C 
BRANCH   7   8
HETATM    8  C6  UNL     1      -3.789  28.453 -10.966  1.00  0.00     0.048 C 
BRANCH   8   9
HETATM    9  C7  UNL     1      -4.153  29.845 -11.413  1.00  0.00     0.167 C 
BRANCH   9  10
HETATM   10  S1  UNL     1      -5.195  29.796 -12.836  1.00  0.00     0.101 S 
HETATM   11  O2  UNL     1      -5.842  28.624 -13.164  1.00  0.00    -0.595 OA
HETATM   12  O3  UNL     1      -6.412  31.036 -12.287  1.00  0.00    -0.595 OA
HETATM   13  O4  UNL     1      -4.441  30.734 -13.999  1.00  0.00    -0.595 OA
ENDBRANCH   9  10
ENDBRANCH   8   9
ENDBRANCH   7   8
ENDBRANCH   4   7
BRANCH   1  14
HETATM   14  C2  UNL     1       0.446  24.868  -9.351  1.00  0.00     0.298 C 
BRANCH  14  15
HETATM   15  C1  UNL     1       1.460  25.652 -10.157  1.00  0.00     0.194 C 
BRANCH  15  16
HETATM   16  O1  UNL     1       1.699  26.899  -9.589  1.00  0.00    -0.399 OA
ATOM     17  H1  UNL     1       2.381  27.365 -10.058  1.00  0.00     0.209 HD
ENDBRANCH  15  16
ENDBRANCH  14  15
ENDBRANCH   1  14
TORSDOF 7
ENDMDL
