MODEL 12
REMARK VINA RESULT: -4.873059580      2.922      6.902
REMARK  7 active torsions:
REMARK  status: ('A' for Active; 'I' for Inactive)
REMARK    1  A    between atoms: O1_1  and  C1_3 
REMARK    2  A    between atoms: C1_3  and  C2_4 
REMARK    3  A    between atoms: C2_4  and  N1_5 
REMARK    4  A    between atoms: N2_8  and  C5_9 
REMARK    5  A    between atoms: C5_9  and  C6_10 
REMARK    6  A    between atoms: C6_10  and  C7_11 
REMARK    7  A    between atoms: C7_11  and  S1_12 
ROOT
HETATM    1  N1  UNL     1      -4.835  27.800 -12.428  1.00  0.00     0.093 N 
HETATM    2  C3  UNL     1      -4.938  28.038 -11.023  1.00  0.00     0.302 C 
HETATM    3  C4  UNL     1      -3.936  27.186 -10.218  1.00  0.00     0.302 C 
HETATM    4  N2  UNL     1      -2.672  27.353 -10.833  1.00  0.00     0.091 N 
HETATM    5  C8  UNL     1      -2.717  26.574 -12.083  1.00  0.00     0.302 C 
HETATM    6  C9  UNL     1      -3.987  26.722 -12.820  1.00  0.00     0.302 C 
ENDROOT
BRANCH   4   7
HETATM    7  C5  UNL     1      -1.500  27.184 -10.094  1.00  0.00     0.273 C 
BRANCH   7   8
HETATM    8  C6  UNL     1      -0.830  25.887  -9.984  1.00  0.00     0.048 C 
BRANCH   8   9
HETATM    9  C7  UNL     1      -1.470  24.869  -9.078  1.00  0.00     0.167 C 
BRANCH   9  10
HETATM   10  S1  UNL     1      -0.246  23.875  -8.285  1.00  0.00     0.101 S 
HETATM   11  O2  UNL     1      -0.466  23.421  -7.002  1.00  0.00    -0.595 OA
HETATM   12  O3  UNL     1      -0.282  22.473  -9.448  1.00  0.00    -0.595 OA
HETATM   13  O4  UNL     1       1.236  24.501  -8.748  1.00  0.00    -0.595 OA
ENDBRANCH   9  10
ENDBRANCH   8   9
ENDBRANCH   7   8
ENDBRANCH   4   7
BRANCH   1  14
HETATM   14  C2  UNL     1      -4.416  29.019 -13.093  1.00  0.00     0.298 C 
BRANCH  14  15
HETATM   15  C1  UNL     1      -4.691  30.241 -12.242  1.00  0.00     0.194 C 
BRANCH  15  16
HETATM   16  O1  UNL     1      -5.803  30.936 -12.705  1.00  0.00    -0.399 OA
ATOM     17  H1  UNL     1      -6.024  31.655 -12.125  1.00  0.00     0.209 HD
ENDBRANCH  15  16
ENDBRANCH  14  15
ENDBRANCH   1  14
TORSDOF 7
ENDMDL
