MODEL 14
REMARK VINA RESULT: -4.806491594      4.390      7.813
REMARK  7 active torsions:
REMARK  status: ('A' for Active; 'I' for Inactive)
REMARK    1  A    between atoms: O1_1  and  C1_3 
REMARK    2  A    between atoms: C1_3  and  C2_4 
REMARK    3  A    between atoms: C2_4  and  N1_5 
REMARK    4  A    between atoms: N2_8  and  C5_9 
REMARK    5  A    between atoms: C5_9  and  C6_10 
REMARK    6  A    between atoms: C6_10  and  C7_11 
REMARK    7  A    between atoms: C7_11  and  S1_12 
ROOT
HETATM    1  N1  UNL     1      -7.955  29.477 -13.990  1.00  0.00     0.093 N 
HETATM    2  C3  UNL     1      -7.713  28.656 -12.846  1.00  0.00     0.302 C 
HETATM    3  C4  UNL     1      -6.221  28.297 -12.699  1.00  0.00     0.302 C 
HETATM    4  N2  UNL     1      -5.497  29.507 -12.818  1.00  0.00     0.091 N 
HETATM    5  C8  UNL     1      -5.529  29.866 -14.247  1.00  0.00     0.302 C 
HETATM    6  C9  UNL     1      -6.850  29.664 -14.872  1.00  0.00     0.302 C 
ENDROOT
BRANCH   4   7
HETATM    7  C5  UNL     1      -4.242  29.640 -12.221  1.00  0.00     0.273 C 
BRANCH   7   8
HETATM    8  C6  UNL     1      -3.926  29.028 -10.929  1.00  0.00     0.048 C 
BRANCH   8   9
HETATM    9  C7  UNL     1      -2.838  27.986 -10.922  1.00  0.00     0.167 C 
BRANCH   9  10
HETATM   10  S1  UNL     1      -3.421  26.473 -10.226  1.00  0.00     0.101 S 
HETATM   11  O2  UNL     1      -2.737  25.900  -9.176  1.00  0.00    -0.595 OA
HETATM   12  O3  UNL     1      -5.039  27.080  -9.648  1.00  0.00    -0.595 OA
HETATM   13  O4  UNL     1      -3.981  25.554 -11.509  1.00  0.00    -0.595 OA
ENDBRANCH   9  10
ENDBRANCH   8   9
ENDBRANCH   7   8
ENDBRANCH   4   7
BRANCH   1  14
HETATM   14  C2  UNL     1      -8.461  30.766 -13.559  1.00  0.00     0.298 C 
BRANCH  14  15
HETATM   15  C1  UNL     1      -9.380  30.631 -12.363  1.00  0.00     0.194 C 
BRANCH  15  16
HETATM   16  O1  UNL     1      -9.455  31.824 -11.650  1.00  0.00    -0.399 OA
ATOM     17  H1  UNL     1      -9.869  32.506 -12.166  1.00  0.00     0.209 HD
ENDBRANCH  15  16
ENDBRANCH  14  15
ENDBRANCH   1  14
TORSDOF 7
ENDMDL
