MODEL 5
REMARK VINA RESULT: -5.205812779      1.221      1.968
REMARK  7 active torsions:
REMARK  status: ('A' for Active; 'I' for Inactive)
REMARK    1  A    between atoms: O1_1  and  C1_3 
REMARK    2  A    between atoms: C1_3  and  C2_4 
REMARK    3  A    between atoms: C2_4  and  N1_5 
REMARK    4  A    between atoms: N2_8  and  C5_9 
REMARK    5  A    between atoms: C5_9  and  C6_10 
REMARK    6  A    between atoms: C6_10  and  C7_11 
REMARK    7  A    between atoms: C7_11  and  S1_12 
ROOT
HETATM    1  N1  UNL     1      -1.158  24.683  -9.629  1.00  0.00     0.093 N 
HETATM    2  C3  UNL     1      -1.057  24.637 -11.054  1.00  0.00     0.302 C 
HETATM    3  C4  UNL     1      -2.243  25.341 -11.741  1.00  0.00     0.302 C 
HETATM    4  N2  UNL     1      -2.380  26.607 -11.122  1.00  0.00     0.091 N 
HETATM    5  C8  UNL     1      -2.971  26.355  -9.797  1.00  0.00     0.302 C 
HETATM    6  C9  UNL     1      -2.384  25.190  -9.106  1.00  0.00     0.302 C 
ENDROOT
BRANCH   4   7
HETATM    7  C5  UNL     1      -2.958  27.672 -11.815  1.00  0.00     0.273 C 
BRANCH   7   8
HETATM    8  C6  UNL     1      -3.367  28.907 -11.143  1.00  0.00     0.048 C 
BRANCH   8   9
HETATM    9  C7  UNL     1      -4.833  29.249 -11.190  1.00  0.00     0.167 C 
BRANCH   9  10
HETATM   10  S1  UNL     1      -5.201  30.246 -12.598  1.00  0.00     0.101 S 
HETATM   11  O2  UNL     1      -4.191  30.951 -13.215  1.00  0.00    -0.595 OA
HETATM   12  O3  UNL     1      -5.778  28.911 -13.696  1.00  0.00    -0.595 OA
HETATM   13  O4  UNL     1      -6.695  30.941 -12.300  1.00  0.00    -0.595 OA
ENDBRANCH   9  10
ENDBRANCH   8   9
ENDBRANCH   7   8
ENDBRANCH   4   7
BRANCH   1  14
HETATM   14  C2  UNL     1      -0.046  25.443  -9.092  1.00  0.00     0.298 C 
BRANCH  14  15
HETATM   15  C1  UNL     1       0.809  24.601  -8.168  1.00  0.00     0.194 C 
BRANCH  15  16
HETATM   16  O1  UNL     1       0.022  23.859  -7.293  1.00  0.00    -0.399 OA
ATOM     17  H1  UNL     1      -0.562  23.277  -7.765  1.00  0.00     0.209 HD
ENDBRANCH  15  16
ENDBRANCH  14  15
ENDBRANCH   1  14
TORSDOF 7
ENDMDL
