MODEL 7
REMARK VINA RESULT: -5.176518187      1.234      1.797
REMARK  7 active torsions:
REMARK  status: ('A' for Active; 'I' for Inactive)
REMARK    1  A    between atoms: O1_1  and  C1_3 
REMARK    2  A    between atoms: C1_3  and  C2_4 
REMARK    3  A    between atoms: C2_4  and  N1_5 
REMARK    4  A    between atoms: N2_8  and  C5_9 
REMARK    5  A    between atoms: C5_9  and  C6_10 
REMARK    6  A    between atoms: C6_10  and  C7_11 
REMARK    7  A    between atoms: C7_11  and  S1_12 
ROOT
HETATM    1  N1  UNL     1      -0.927  24.862  -9.892  1.00  0.00     0.093 N 
HETATM    2  C3  UNL     1      -0.686  25.378 -11.203  1.00  0.00     0.302 C 
HETATM    3  C4  UNL     1      -1.863  26.234 -11.712  1.00  0.00     0.302 C 
HETATM    4  N2  UNL     1      -2.176  27.151 -10.680  1.00  0.00     0.091 N 
HETATM    5  C8  UNL     1      -2.865  26.374  -9.635  1.00  0.00     0.302 C 
HETATM    6  C9  UNL     1      -2.240  25.063  -9.372  1.00  0.00     0.302 C 
ENDROOT
BRANCH   4   7
HETATM    7  C5  UNL     1      -2.784  28.371 -10.982  1.00  0.00     0.273 C 
BRANCH   7   8
HETATM    8  C6  UNL     1      -4.239  28.535 -10.993  1.00  0.00     0.048 C 
BRANCH   8   9
HETATM    9  C7  UNL     1      -4.765  29.880 -11.416  1.00  0.00     0.167 C 
BRANCH   9  10
HETATM   10  S1  UNL     1      -5.708  29.748 -12.902  1.00  0.00     0.101 S 
HETATM   11  O2  UNL     1      -6.292  28.543 -13.231  1.00  0.00    -0.595 OA
HETATM   12  O3  UNL     1      -6.998  30.962 -12.480  1.00  0.00    -0.595 OA
HETATM   13  O4  UNL     1      -4.908  30.672 -14.047  1.00  0.00    -0.595 OA
ENDBRANCH   9  10
ENDBRANCH   8   9
ENDBRANCH   7   8
ENDBRANCH   4   7
BRANCH   1  14
HETATM   14  C2  UNL     1       0.053  25.408  -8.972  1.00  0.00     0.298 C 
BRANCH  14  15
HETATM   15  C1  UNL     1       0.757  24.315  -8.196  1.00  0.00     0.194 C 
BRANCH  15  16
HETATM   16  O1  UNL     1      -0.040  23.842  -7.159  1.00  0.00    -0.399 OA
ATOM     17  H1  UNL     1       0.226  24.212  -6.325  1.00  0.00     0.209 HD
ENDBRANCH  15  16
ENDBRANCH  14  15
ENDBRANCH   1  14
TORSDOF 7
ENDMDL
