MODEL 9
REMARK VINA RESULT: -4.948396477      1.534      2.141
REMARK  7 active torsions:
REMARK  status: ('A' for Active; 'I' for Inactive)
REMARK    1  A    between atoms: O1_1  and  C1_3 
REMARK    2  A    between atoms: C1_3  and  C2_4 
REMARK    3  A    between atoms: C2_4  and  N1_5 
REMARK    4  A    between atoms: N2_8  and  C5_9 
REMARK    5  A    between atoms: C5_9  and  C6_10 
REMARK    6  A    between atoms: C6_10  and  C7_11 
REMARK    7  A    between atoms: C7_11  and  S1_12 
ROOT
HETATM    1  N1  UNL     1      -0.572  24.434  -9.883  1.00  0.00     0.093 N 
HETATM    2  C3  UNL     1      -1.997  24.541  -9.876  1.00  0.00     0.302 C 
HETATM    3  C4  UNL     1      -2.468  25.952  -9.472  1.00  0.00     0.302 C 
HETATM    4  N2  UNL     1      -1.733  26.869 -10.261  1.00  0.00     0.091 N 
HETATM    5  C8  UNL     1      -0.369  26.890  -9.703  1.00  0.00     0.302 C 
HETATM    6  C9  UNL     1       0.142  25.550  -9.356  1.00  0.00     0.302 C 
ENDROOT
BRANCH   4   7
HETATM    7  C5  UNL     1      -2.255  28.132 -10.546  1.00  0.00     0.273 C 
BRANCH   7   8
HETATM    8  C6  UNL     1      -3.617  28.315 -11.050  1.00  0.00     0.048 C 
BRANCH   8   9
HETATM    9  C7  UNL     1      -4.035  29.725 -11.375  1.00  0.00     0.167 C 
BRANCH   9  10
HETATM   10  S1  UNL     1      -5.058  29.762 -12.813  1.00  0.00     0.101 S 
HETATM   11  O2  UNL     1      -5.696  28.611 -13.223  1.00  0.00    -0.595 OA
HETATM   12  O3  UNL     1      -6.286  30.963 -12.206  1.00  0.00    -0.595 OA
HETATM   13  O4  UNL     1      -4.291  30.772 -13.906  1.00  0.00    -0.595 OA
ENDBRANCH   9  10
ENDBRANCH   8   9
ENDBRANCH   7   8
ENDBRANCH   4   7
BRANCH   1  14
HETATM   14  C2  UNL     1      -0.117  24.155 -11.232  1.00  0.00     0.298 C 
BRANCH  14  15
HETATM   15  C1  UNL     1       0.781  22.936 -11.275  1.00  0.00     0.194 C 
BRANCH  15  16
HETATM   16  O1  UNL     1       0.595  22.135 -10.153  1.00  0.00    -0.399 OA
ATOM     17  H1  UNL     1       0.949  21.264 -10.291  1.00  0.00     0.209 HD
ENDBRANCH  15  16
ENDBRANCH  14  15
ENDBRANCH   1  14
TORSDOF 7
ENDMDL
