MODEL 6
REMARK VINA RESULT: -4.083903623      3.582      5.721
REMARK  5 active torsions:
REMARK  status: ('A' for Active; 'I' for Inactive)
REMARK    1  A    between atoms: C2_2  and  C3_3 
REMARK    2  A    between atoms: C3_3  and  O1_4 
REMARK    3  A    between atoms: O1_4  and  C4_5 
REMARK    4  A    between atoms: C7_8  and  C8_9 
REMARK    5  A    between atoms: C8_9  and  N1_10 
ROOT
HETATM    1  C4  UNL     1      32.242 150.613 334.597  1.00  0.00     0.090 A 
HETATM    2  C5  UNL     1      30.943 150.438 335.001  1.00  0.00     0.039 A 
HETATM    3  C6  UNL     1      29.882 150.441 334.089  1.00  0.00     0.012 A 
HETATM    4  C7  UNL     1      30.095 150.619 332.742  1.00  0.00    -0.031 A 
HETATM    5  C9  UNL     1      31.401 150.794 332.354  1.00  0.00     0.035 A 
HETATM    6  C10 UNL     1      32.456 150.796 333.220  1.00  0.00     0.068 A 
HETATM    7 CL1  UNL     1      34.101 151.032 332.603  1.00  0.00    -0.081 Cl
ENDROOT
BRANCH   4   8
HETATM    8  C8  UNL     1      28.978 150.618 331.792  1.00  0.00     0.268 C 
BRANCH   8   9
HETATM    9  N1  UNL     1      28.410 151.906 331.556  1.00  0.00    -0.075 N 
ATOM     10  H13 UNL     1      29.140 152.583 331.334  1.00  0.00     0.274 HD
ATOM     11  H12 UNL     1      27.895 151.914 330.677  1.00  0.00     0.274 HD
ATOM     12  H11 UNL     1      27.824 152.250 332.317  1.00  0.00     0.274 HD
ENDBRANCH   8   9
ENDBRANCH   4   8
BRANCH   1  13
HETATM   13  O1  UNL     1      33.360 150.637 335.368  1.00  0.00    -0.349 OA
BRANCH  13  14
HETATM   14  C3  UNL     1      33.621 151.480 336.410  1.00  0.00     0.175 C 
BRANCH  14  15
HETATM   15  C2  UNL     1      33.533 152.922 335.999  1.00  0.00     0.022 C 
HETATM   16  C1  UNL     1      32.416 153.588 336.806  1.00  0.00     0.007 C 
ENDBRANCH  14  15
ENDBRANCH  13  14
ENDBRANCH   1  13
TORSDOF 5
ENDMDL
