MODEL 7
REMARK VINA RESULT: -4.030467149      2.987      5.176
REMARK  5 active torsions:
REMARK  status: ('A' for Active; 'I' for Inactive)
REMARK    1  A    between atoms: C2_2  and  C3_3 
REMARK    2  A    between atoms: C3_3  and  O1_4 
REMARK    3  A    between atoms: O1_4  and  C4_5 
REMARK    4  A    between atoms: C7_8  and  C8_9 
REMARK    5  A    between atoms: C8_9  and  N1_10 
ROOT
HETATM    1  C4  UNL     1      32.584 152.787 335.678  1.00  0.00     0.090 A 
HETATM    2  C5  UNL     1      32.660 151.420 335.767  1.00  0.00     0.039 A 
HETATM    3  C6  UNL     1      31.820 150.587 335.020  1.00  0.00     0.012 A 
HETATM    4  C7  UNL     1      30.878 151.103 334.161  1.00  0.00    -0.031 A 
HETATM    5  C9  UNL     1      30.815 152.473 334.084  1.00  0.00     0.035 A 
HETATM    6  C10 UNL     1      31.619 153.311 334.799  1.00  0.00     0.068 A 
HETATM    7 CL1  UNL     1      31.446 155.065 334.619  1.00  0.00    -0.081 Cl
ENDROOT
BRANCH   4   8
HETATM    8  C8  UNL     1      30.002 150.223 333.380  1.00  0.00     0.268 C 
BRANCH   8   9
HETATM    9  N1  UNL     1      29.013 150.911 332.616  1.00  0.00    -0.075 N 
ATOM     10  H13 UNL     1      29.442 151.395 331.828  1.00  0.00     0.274 HD
ATOM     11  H12 UNL     1      28.425 150.248 332.112  1.00  0.00     0.274 HD
ATOM     12  H11 UNL     1      28.438 151.555 333.160  1.00  0.00     0.274 HD
ENDBRANCH   8   9
ENDBRANCH   4   8
BRANCH   1  13
HETATM   13  O1  UNL     1      33.328 153.709 336.342  1.00  0.00    -0.349 OA
BRANCH  13  14
HETATM   14  C3  UNL     1      33.313 153.965 337.683  1.00  0.00     0.175 C 
BRANCH  14  15
HETATM   15  C2  UNL     1      31.937 154.318 338.170  1.00  0.00     0.022 C 
HETATM   16  C1  UNL     1      31.771 155.838 338.094  1.00  0.00     0.007 C 
ENDBRANCH  14  15
ENDBRANCH  13  14
ENDBRANCH   1  13
TORSDOF 5
ENDMDL
