MODEL 2
REMARK VINA RESULT: -4.247569852      1.599      2.097
REMARK  5 active torsions:
REMARK  status: ('A' for Active; 'I' for Inactive)
REMARK    1  A    between atoms: C2_2  and  C3_3 
REMARK    2  A    between atoms: C3_3  and  O1_4 
REMARK    3  A    between atoms: O1_4  and  C4_5 
REMARK    4  A    between atoms: C7_8  and  C8_9 
REMARK    5  A    between atoms: C8_9  and  N1_10 
ROOT
HETATM    1  C4  UNL     1      32.045 154.042 335.097  1.00  0.00     0.090 A 
HETATM    2  C5  UNL     1      31.455 155.206 334.675  1.00  0.00     0.039 A 
HETATM    3  C6  UNL     1      31.430 156.351 335.478  1.00  0.00     0.012 A 
HETATM    4  C7  UNL     1      31.996 156.361 336.731  1.00  0.00    -0.031 A 
HETATM    5  C9  UNL     1      32.582 155.187 337.139  1.00  0.00     0.035 A 
HETATM    6  C10 UNL     1      32.622 154.055 336.379  1.00  0.00     0.068 A 
HETATM    7 CL1  UNL     1      33.406 152.597 337.012  1.00  0.00    -0.081 Cl
ENDROOT
BRANCH   4   8
HETATM    8  C8  UNL     1      31.967 157.566 337.567  1.00  0.00     0.268 C 
BRANCH   8   9
HETATM    9  N1  UNL     1      31.532 157.338 338.907  1.00  0.00    -0.075 N 
ATOM     10  H13 UNL     1      30.531 157.142 338.929  1.00  0.00     0.274 HD
ATOM     11  H12 UNL     1      31.890 156.447 339.251  1.00  0.00     0.274 HD
ATOM     12  H11 UNL     1      31.764 158.090 339.555  1.00  0.00     0.274 HD
ENDBRANCH   8   9
ENDBRANCH   4   8
BRANCH   1  13
HETATM   13  O1  UNL     1      32.138 152.863 334.428  1.00  0.00    -0.349 OA
BRANCH  13  14
HETATM   14  C3  UNL     1      31.114 152.149 333.876  1.00  0.00     0.175 C 
BRANCH  14  15
HETATM   15  C2  UNL     1      30.432 151.274 334.889  1.00  0.00     0.022 C 
HETATM   16  C1  UNL     1      31.323 150.058 335.157  1.00  0.00     0.007 C 
ENDBRANCH  14  15
ENDBRANCH  13  14
ENDBRANCH   1  13
TORSDOF 5
ENDMDL
