MODEL 1
REMARK VINA RESULT: -7.099766385      0.000      0.000
REMARK  6 active torsions:
REMARK  status: ('A' for Active; 'I' for Inactive)
REMARK    1  A    between atoms: N1_1  and  C1_4 
REMARK    2  A    between atoms: N2_7  and  C4_8 
REMARK    3  A    between atoms: C5_10  and  C6_11 
REMARK    4  A    between atoms: C6_11  and  O2_12 
REMARK    5  A    between atoms: C7_14  and  O3_15 
REMARK    6  A    between atoms: C8_17  and  O4_18 
ROOT
HETATM    1  C4  UNL     1      22.531   7.166  -3.626  1.00  0.00     0.263 C 
HETATM    2  O1  UNL     1      21.209   7.610  -3.653  1.00  0.00    -0.353 OA
HETATM    3  C5  UNL     1      20.729   7.482  -4.930  1.00  0.00     0.179 C 
HETATM    4  C7  UNL     1      21.890   7.912  -5.784  1.00  0.00     0.182 C 
HETATM    5  C8  UNL     1      23.090   7.484  -4.946  1.00  0.00     0.198 C 
ENDROOT
BRANCH   1   6
HETATM    6  N2  UNL     1      22.541   5.820  -3.200  1.00  0.00    -0.280 N 
HETATM    7  C3  UNL     1      22.918   4.750  -3.916  1.00  0.00     0.102 A 
HETATM    8  C2  UNL     1      22.898   3.481  -3.425  1.00  0.00     0.065 A 
HETATM    9  C1  UNL     1      22.467   3.279  -2.127  1.00  0.00     0.103 A 
HETATM   10  N3  UNL     1      22.095   4.343  -1.423  1.00  0.00    -0.295 N 
HETATM   11  C9  UNL     1      22.128   5.563  -1.933  1.00  0.00     0.330 A 
ATOM     12  H3  UNL     1      21.773   4.215  -0.464  1.00  0.00     0.172 HD
HETATM   13  O5  UNL     1      21.754   6.516  -1.187  1.00  0.00    -0.246 OA
BRANCH   9  14
HETATM   14  N1  UNL     1      22.425   2.080  -1.598  1.00  0.00    -0.385 N 
ATOM     15  H12 UNL     1      22.931   1.305  -2.027  1.00  0.00     0.157 HD
ATOM     16  H11 UNL     1      21.887   1.890  -0.752  1.00  0.00     0.157 HD
ENDBRANCH   9  14
ENDBRANCH   1   6
BRANCH   5  17
HETATM   17  O4  UNL     1      23.901   8.620  -4.837  1.00  0.00    -0.388 OA
ATOM     18  H4  UNL     1      23.357   9.397  -4.900  1.00  0.00     0.210 HD
ENDBRANCH   5  17
BRANCH   3  19
HETATM   19  C6  UNL     1      20.298   6.090  -5.298  1.00  0.00     0.198 C 
BRANCH  19  20
HETATM   20  O2  UNL     1      19.290   5.722  -4.376  1.00  0.00    -0.398 OA
ATOM     21  H2  UNL     1      19.258   4.772  -4.374  1.00  0.00     0.209 HD
ENDBRANCH  19  20
ENDBRANCH   3  19
BRANCH   4  22
HETATM   22  O3  UNL     1      21.820   9.287  -5.932  1.00  0.00    -0.390 OA
ATOM     23  H3  UNL     1      22.669   9.647  -5.707  1.00  0.00     0.210 HD
ENDBRANCH   4  22
TORSDOF 6
ENDMDL
