MODEL 14
REMARK VINA RESULT: -5.994251165      2.768      5.287
REMARK  6 active torsions:
REMARK  status: ('A' for Active; 'I' for Inactive)
REMARK    1  A    between atoms: N1_1  and  C1_4 
REMARK    2  A    between atoms: N2_7  and  C4_8 
REMARK    3  A    between atoms: C5_10  and  C6_11 
REMARK    4  A    between atoms: C6_11  and  O2_12 
REMARK    5  A    between atoms: C7_14  and  O3_15 
REMARK    6  A    between atoms: C8_17  and  O4_18 
ROOT
HETATM    1  C4  UNL     1      21.828   5.750  -5.095  1.00  0.00     0.263 C 
HETATM    2  O1  UNL     1      20.835   6.199  -4.225  1.00  0.00    -0.353 OA
HETATM    3  C5  UNL     1      21.394   6.408  -2.991  1.00  0.00     0.179 C 
HETATM    4  C7  UNL     1      22.336   5.246  -2.833  1.00  0.00     0.182 C 
HETATM    5  C8  UNL     1      22.765   4.973  -4.271  1.00  0.00     0.198 C 
ENDROOT
BRANCH   1   6
HETATM    6  N2  UNL     1      22.327   6.859  -5.813  1.00  0.00    -0.280 N 
HETATM    7  C3  UNL     1      21.856   8.115  -5.787  1.00  0.00     0.102 A 
HETATM    8  C2  UNL     1      22.400   9.128  -6.514  1.00  0.00     0.065 A 
HETATM    9  C1  UNL     1      23.489   8.855  -7.321  1.00  0.00     0.103 A 
HETATM   10  N3  UNL     1      23.950   7.610  -7.342  1.00  0.00    -0.295 N 
HETATM   11  C9  UNL     1      23.396   6.648  -6.621  1.00  0.00     0.330 A 
ATOM     12  H3  UNL     1      24.753   7.388  -7.931  1.00  0.00     0.172 HD
HETATM   13  O5  UNL     1      23.905   5.491  -6.706  1.00  0.00    -0.246 OA
BRANCH   9  14
HETATM   14  N1  UNL     1      24.056   9.790  -8.045  1.00  0.00    -0.385 N 
ATOM     15  H12 UNL     1      24.977   9.642  -8.458  1.00  0.00     0.157 HD
ATOM     16  H11 UNL     1      23.596  10.685  -8.212  1.00  0.00     0.157 HD
ENDBRANCH   9  14
ENDBRANCH   1   6
BRANCH   5  17
HETATM   17  O4  UNL     1      22.536   3.609  -4.483  1.00  0.00    -0.388 OA
ATOM     18  H4  UNL     1      23.371   3.162  -4.559  1.00  0.00     0.210 HD
ENDBRANCH   5  17
BRANCH   3  19
HETATM   19  C6  UNL     1      22.138   7.706  -2.855  1.00  0.00     0.198 C 
BRANCH  19  20
HETATM   20  O2  UNL     1      22.502   7.822  -1.493  1.00  0.00    -0.398 OA
ATOM     21  H2  UNL     1      22.131   7.070  -1.047  1.00  0.00     0.209 HD
ENDBRANCH  19  20
ENDBRANCH   3  19
BRANCH   4  22
HETATM   22  O3  UNL     1      21.619   4.191  -2.293  1.00  0.00    -0.390 OA
ATOM     23  H3  UNL     1      21.482   3.551  -2.982  1.00  0.00     0.210 HD
ENDBRANCH   4  22
TORSDOF 6
ENDMDL
