MODEL 4
REMARK VINA RESULT: -6.412258429      3.277      5.536
REMARK  6 active torsions:
REMARK  status: ('A' for Active; 'I' for Inactive)
REMARK    1  A    between atoms: N1_1  and  C1_4 
REMARK    2  A    between atoms: N2_7  and  C4_8 
REMARK    3  A    between atoms: C5_10  and  C6_11 
REMARK    4  A    between atoms: C6_11  and  O2_12 
REMARK    5  A    between atoms: C7_14  and  O3_15 
REMARK    6  A    between atoms: C8_17  and  O4_18 
ROOT
HETATM    1  C4  UNL     1      21.983   5.650  -5.855  1.00  0.00     0.263 C 
HETATM    2  O1  UNL     1      20.725   5.962  -5.339  1.00  0.00    -0.353 OA
HETATM    3  C5  UNL     1      20.888   6.585  -4.130  1.00  0.00     0.179 C 
HETATM    4  C7  UNL     1      22.009   5.814  -3.489  1.00  0.00     0.182 C 
HETATM    5  C8  UNL     1      22.839   5.379  -4.692  1.00  0.00     0.198 C 
ENDROOT
BRANCH   1   6
HETATM    6  N2  UNL     1      22.367   6.676  -6.746  1.00  0.00    -0.280 N 
HETATM    7  C3  UNL     1      23.251   7.658  -6.512  1.00  0.00     0.102 A 
HETATM    8  C2  UNL     1      23.565   8.610  -7.432  1.00  0.00     0.065 A 
HETATM    9  C1  UNL     1      22.946   8.569  -8.668  1.00  0.00     0.103 A 
HETATM   10  N3  UNL     1      22.072   7.593  -8.892  1.00  0.00    -0.295 N 
HETATM   11  C9  UNL     1      21.791   6.683  -7.974  1.00  0.00     0.330 A 
ATOM     12  H3  UNL     1      21.605   7.545  -9.798  1.00  0.00     0.172 HD
HETATM   13  O5  UNL     1      20.945   5.791  -8.279  1.00  0.00    -0.246 OA
BRANCH   9  14
HETATM   14  N1  UNL     1      23.207   9.458  -9.594  1.00  0.00    -0.385 N 
ATOM     15  H12 UNL     1      23.579  10.375  -9.345  1.00  0.00     0.157 HD
ATOM     16  H11 UNL     1      23.046   9.261 -10.582  1.00  0.00     0.157 HD
ENDBRANCH   9  14
ENDBRANCH   1   6
BRANCH   5  17
HETATM   17  O4  UNL     1      23.003   3.995  -4.559  1.00  0.00    -0.388 OA
ATOM     18  H4  UNL     1      23.772   3.823  -4.028  1.00  0.00     0.210 HD
ENDBRANCH   5  17
BRANCH   3  19
HETATM   19  C6  UNL     1      21.242   8.042  -4.221  1.00  0.00     0.198 C 
BRANCH  19  20
HETATM   20  O2  UNL     1      22.038   8.336  -3.089  1.00  0.00    -0.398 OA
ATOM     21  H2  UNL     1      22.943   8.238  -3.360  1.00  0.00     0.209 HD
ENDBRANCH  19  20
ENDBRANCH   3  19
BRANCH   4  22
HETATM   22  O3  UNL     1      21.453   4.736  -2.820  1.00  0.00    -0.390 OA
ATOM     23  H3  UNL     1      21.799   3.942  -3.212  1.00  0.00     0.210 HD
ENDBRANCH   4  22
TORSDOF 6
ENDMDL
