MODEL 9
REMARK VINA RESULT: -6.199221581      2.125      2.332
REMARK  6 active torsions:
REMARK  status: ('A' for Active; 'I' for Inactive)
REMARK    1  A    between atoms: N1_1  and  C1_4 
REMARK    2  A    between atoms: N2_7  and  C4_8 
REMARK    3  A    between atoms: C5_10  and  C6_11 
REMARK    4  A    between atoms: C6_11  and  O2_12 
REMARK    5  A    between atoms: C7_14  and  O3_15 
REMARK    6  A    between atoms: C8_17  and  O4_18 
ROOT
HETATM    1  C4  UNL     1      22.613   6.971  -5.314  1.00  0.00     0.263 C 
HETATM    2  O1  UNL     1      21.397   7.082  -5.988  1.00  0.00    -0.353 OA
HETATM    3  C5  UNL     1      21.645   7.131  -7.334  1.00  0.00     0.179 C 
HETATM    4  C7  UNL     1      22.865   8.005  -7.433  1.00  0.00     0.182 C 
HETATM    5  C8  UNL     1      23.594   7.699  -6.129  1.00  0.00     0.198 C 
ENDROOT
BRANCH   1   6
HETATM    6  N2  UNL     1      22.849   5.605  -5.041  1.00  0.00    -0.280 N 
HETATM    7  C3  UNL     1      23.417   4.706  -5.859  1.00  0.00     0.102 A 
HETATM    8  C2  UNL     1      23.609   3.403  -5.514  1.00  0.00     0.065 A 
HETATM    9  C1  UNL     1      23.199   2.982  -4.262  1.00  0.00     0.103 A 
HETATM   10  N3  UNL     1      22.638   3.878  -3.458  1.00  0.00    -0.295 N 
HETATM   11  C9  UNL     1      22.468   5.137  -3.826  1.00  0.00     0.330 A 
ATOM     12  H3  UNL     1      22.328   3.587  -2.530  1.00  0.00     0.172 HD
HETATM   13  O5  UNL     1      21.923   5.919  -2.992  1.00  0.00    -0.246 OA
BRANCH   9  14
HETATM   14  N1  UNL     1      23.356   1.740  -3.873  1.00  0.00    -0.385 N 
ATOM     15  H12 UNL     1      24.270   1.290  -3.927  1.00  0.00     0.157 HD
ATOM     16  H11 UNL     1      22.575   1.192  -3.511  1.00  0.00     0.157 HD
ENDBRANCH   9  14
ENDBRANCH   1   6
BRANCH   5  17
HETATM   17  O4  UNL     1      23.848   8.942  -5.536  1.00  0.00    -0.388 OA
ATOM     18  H4  UNL     1      24.787   9.071  -5.477  1.00  0.00     0.210 HD
ENDBRANCH   5  17
BRANCH   3  19
HETATM   19  C6  UNL     1      21.906   5.796  -7.970  1.00  0.00     0.198 C 
BRANCH  19  20
HETATM   20  O2  UNL     1      20.832   5.553  -8.858  1.00  0.00    -0.398 OA
ATOM     21  H2  UNL     1      21.102   4.838  -9.423  1.00  0.00     0.209 HD
ENDBRANCH  19  20
ENDBRANCH   3  19
BRANCH   4  22
HETATM   22  O3  UNL     1      22.439   9.321  -7.498  1.00  0.00    -0.390 OA
ATOM     23  H3  UNL     1      22.866   9.799  -6.796  1.00  0.00     0.210 HD
ENDBRANCH   4  22
TORSDOF 6
ENDMDL
