MODEL 8
REMARK VINA RESULT: -6.270718383      1.303      1.956
REMARK  6 active torsions:
REMARK  status: ('A' for Active; 'I' for Inactive)
REMARK    1  A    between atoms: N1_1  and  C1_4 
REMARK    2  A    between atoms: N2_7  and  C4_8 
REMARK    3  A    between atoms: C5_10  and  C6_11 
REMARK    4  A    between atoms: C6_11  and  O2_12 
REMARK    5  A    between atoms: C7_14  and  O3_15 
REMARK    6  A    between atoms: C8_17  and  O4_18 
ROOT
HETATM    1  C4  UNL     1      21.326   6.640  -4.105  1.00  0.00     0.263 C 
HETATM    2  O1  UNL     1      21.035   6.378  -5.443  1.00  0.00    -0.353 OA
HETATM    3  C5  UNL     1      22.099   6.775  -6.210  1.00  0.00     0.179 C 
HETATM    4  C7  UNL     1      22.527   8.067  -5.570  1.00  0.00     0.182 C 
HETATM    5  C8  UNL     1      22.172   7.841  -4.104  1.00  0.00     0.198 C 
ENDROOT
BRANCH   1   6
HETATM    6  N2  UNL     1      21.835   5.460  -3.520  1.00  0.00    -0.280 N 
HETATM    7  C3  UNL     1      22.461   4.452  -4.148  1.00  0.00     0.102 A 
HETATM    8  C2  UNL     1      22.923   3.347  -3.503  1.00  0.00     0.065 A 
HETATM    9  C1  UNL     1      22.741   3.252  -2.136  1.00  0.00     0.103 A 
HETATM   10  N3  UNL     1      22.122   4.253  -1.521  1.00  0.00    -0.295 N 
HETATM   11  C9  UNL     1      21.686   5.314  -2.179  1.00  0.00     0.330 A 
ATOM     12  H3  UNL     1      21.978   4.201  -0.512  1.00  0.00     0.172 HD
HETATM   13  O5  UNL     1      21.106   6.218  -1.507  1.00  0.00    -0.246 OA
BRANCH   9  14
HETATM   14  N1  UNL     1      23.165   2.211  -1.461  1.00  0.00    -0.385 N 
ATOM     15  H12 UNL     1      23.140   1.278  -1.873  1.00  0.00     0.157 HD
ATOM     16  H11 UNL     1      23.526   2.304  -0.511  1.00  0.00     0.157 HD
ENDBRANCH   9  14
ENDBRANCH   1   6
BRANCH   5  17
HETATM   17  O4  UNL     1      21.398   8.944  -3.726  1.00  0.00    -0.388 OA
ATOM     18  H4  UNL     1      21.470   9.617  -4.393  1.00  0.00     0.210 HD
ENDBRANCH   5  17
BRANCH   3  19
HETATM   19  C6  UNL     1      23.244   5.804  -6.241  1.00  0.00     0.198 C 
BRANCH  19  20
HETATM   20  O2  UNL     1      24.205   6.339  -7.130  1.00  0.00    -0.398 OA
ATOM     21  H2  UNL     1      24.726   6.956  -6.629  1.00  0.00     0.209 HD
ENDBRANCH  19  20
ENDBRANCH   3  19
BRANCH   4  22
HETATM   22  O3  UNL     1      21.780   9.088  -6.136  1.00  0.00    -0.390 OA
ATOM     23  H3  UNL     1      22.318   9.508  -6.797  1.00  0.00     0.210 HD
ENDBRANCH   4  22
TORSDOF 6
ENDMDL
