MODEL 11
REMARK VINA RESULT: -6.081473509      3.836      5.513
REMARK  6 active torsions:
REMARK  status: ('A' for Active; 'I' for Inactive)
REMARK    1  A    between atoms: N1_1  and  C1_4 
REMARK    2  A    between atoms: N2_7  and  C4_8 
REMARK    3  A    between atoms: C5_10  and  C6_11 
REMARK    4  A    between atoms: C6_11  and  O2_12 
REMARK    5  A    between atoms: C7_14  and  O3_15 
REMARK    6  A    between atoms: C8_17  and  O4_18 
ROOT
HETATM    1  C4  UNL     1      23.527   7.223  -6.666  1.00  0.00     0.263 C 
HETATM    2  O1  UNL     1      23.263   6.161  -5.801  1.00  0.00    -0.353 OA
HETATM    3  C5  UNL     1      22.080   6.406  -5.154  1.00  0.00     0.179 C 
HETATM    4  C7  UNL     1      22.145   7.878  -4.853  1.00  0.00     0.182 C 
HETATM    5  C8  UNL     1      22.962   8.417  -6.023  1.00  0.00     0.198 C 
ENDROOT
BRANCH   1   6
HETATM    6  N2  UNL     1      23.068   6.874  -7.955  1.00  0.00    -0.280 N 
HETATM    7  C3  UNL     1      22.020   7.399  -8.607  1.00  0.00     0.102 A 
HETATM    8  C2  UNL     1      21.645   7.003  -9.854  1.00  0.00     0.065 A 
HETATM    9  C1  UNL     1      22.376   6.011 -10.482  1.00  0.00     0.103 A 
HETATM   10  N3  UNL     1      23.412   5.495  -9.830  1.00  0.00    -0.295 N 
HETATM   11  C9  UNL     1      23.748   5.906  -8.618  1.00  0.00     0.330 A 
ATOM     12  H3  UNL     1      23.964   4.762 -10.276  1.00  0.00     0.172 HD
HETATM   13  O5  UNL     1      24.751   5.355  -8.075  1.00  0.00    -0.246 OA
BRANCH   9  14
HETATM   14  N1  UNL     1      22.063   5.588 -11.683  1.00  0.00    -0.385 N 
ATOM     15  H12 UNL     1      21.731   6.240 -12.394  1.00  0.00     0.157 HD
ATOM     16  H11 UNL     1      22.141   4.603 -11.937  1.00  0.00     0.157 HD
ENDBRANCH   9  14
ENDBRANCH   1   6
BRANCH   5  17
HETATM   17  O4  UNL     1      23.999   9.162  -5.450  1.00  0.00    -0.388 OA
ATOM     18  H4  UNL     1      23.664  10.012  -5.192  1.00  0.00     0.210 HD
ENDBRANCH   5  17
BRANCH   3  19
HETATM   19  C6  UNL     1      20.851   6.091  -5.959  1.00  0.00     0.198 C 
BRANCH  19  20
HETATM   20  O2  UNL     1      19.855   5.692  -5.038  1.00  0.00    -0.398 OA
ATOM     21  H2  UNL     1      19.068   6.176  -5.261  1.00  0.00     0.209 HD
ENDBRANCH  19  20
ENDBRANCH   3  19
BRANCH   4  22
HETATM   22  O3  UNL     1      22.800   8.034  -3.643  1.00  0.00    -0.390 OA
ATOM     23  H3  UNL     1      22.419   7.420  -3.025  1.00  0.00     0.210 HD
ENDBRANCH   4  22
TORSDOF 6
ENDMDL
