MODEL 10
REMARK VINA RESULT: -6.348351283      2.775      3.892
REMARK  2 active torsions:
REMARK  status: ('A' for Active; 'I' for Inactive)
REMARK    1  A    between atoms: C5_5  and  O1_6 
REMARK    2  A    between atoms: C6_8  and  C7_9 
ROOT
HETATM    1  C1  UNL     1      92.669  12.980 134.227  1.00  0.00     0.048 C 
HETATM    2  C2  UNL     1      92.743  13.600 132.867  1.00  0.00    -0.061 A 
HETATM    3  C3  UNL     1      92.719  12.825 131.732  1.00  0.00     0.009 A 
HETATM    4  C4  UNL     1      92.786  13.395 130.485  1.00  0.00     0.038 A 
HETATM    5  C5  UNL     1      92.882  14.787 130.353  1.00  0.00     0.082 A 
HETATM    6  C6  UNL     1      92.908  15.588 131.473  1.00  0.00     0.074 A 
HETATM    7  C8  UNL     1      92.837  14.974 132.721  1.00  0.00     0.028 A 
ENDROOT
BRANCH   6   8
HETATM    8  C7  UNL     1      93.007  17.032 131.345  1.00  0.00     0.212 C 
HETATM    9  O2  UNL     1      92.252  17.704 130.596  1.00  0.00    -0.644 OA
HETATM   10  O3  UNL     1      93.954  17.707 132.064  1.00  0.00    -0.644 OA
ENDBRANCH   6   8
BRANCH   5  11
HETATM   11  O1  UNL     1      92.951  15.370 129.111  1.00  0.00    -0.360 OA
ATOM     12  H1  UNL     1      93.728  15.274 128.573  1.00  0.00     0.217 HD
ENDBRANCH   5  11
TORSDOF 2
ENDMDL
