MODEL 3
REMARK VINA RESULT: -6.940620720      1.031      2.575
REMARK  2 active torsions:
REMARK  status: ('A' for Active; 'I' for Inactive)
REMARK    1  A    between atoms: C5_5  and  O1_6 
REMARK    2  A    between atoms: C6_8  and  C7_9 
ROOT
HETATM    1  C1  UNL     1      93.609  15.411 128.523  1.00  0.00     0.048 C 
HETATM    2  C2  UNL     1      93.271  14.997 129.922  1.00  0.00    -0.061 A 
HETATM    3  C3  UNL     1      93.255  15.912 130.947  1.00  0.00     0.009 A 
HETATM    4  C4  UNL     1      92.944  15.531 132.230  1.00  0.00     0.038 A 
HETATM    5  C5  UNL     1      92.636  14.194 132.510  1.00  0.00     0.082 A 
HETATM    6  C6  UNL     1      92.644  13.255 131.501  1.00  0.00     0.074 A 
HETATM    7  C8  UNL     1      92.964  13.680 130.214  1.00  0.00     0.028 A 
ENDROOT
BRANCH   6   8
HETATM    8  C7  UNL     1      92.326  11.866 131.783  1.00  0.00     0.212 C 
HETATM    9  O2  UNL     1      92.542  11.330 132.900  1.00  0.00    -0.644 OA
HETATM   10  O3  UNL     1      91.767  11.093 130.803  1.00  0.00    -0.644 OA
ENDBRANCH   6   8
BRANCH   5  11
HETATM   11  O1  UNL     1      92.324  13.799 133.788  1.00  0.00    -0.360 OA
ATOM     12  H1  UNL     1      91.422  13.636 134.038  1.00  0.00     0.217 HD
ENDBRANCH   5  11
TORSDOF 2
ENDMDL
