MODEL 18
REMARK VINA RESULT: -6.092185344      3.920      5.543
REMARK  2 active torsions:
REMARK  status: ('A' for Active; 'I' for Inactive)
REMARK    1  A    between atoms: C5_5  and  O1_6 
REMARK    2  A    between atoms: C6_8  and  C7_9 
ROOT
HETATM    1  C1  UNL     1      93.064  14.536 129.660  1.00  0.00     0.048 C 
HETATM    2  C2  UNL     1      93.029  15.523 130.785  1.00  0.00    -0.061 A 
HETATM    3  C3  UNL     1      92.969  15.105 132.092  1.00  0.00     0.009 A 
HETATM    4  C4  UNL     1      92.937  16.010 133.124  1.00  0.00     0.038 A 
HETATM    5  C5  UNL     1      92.965  17.385 132.853  1.00  0.00     0.082 A 
HETATM    6  C6  UNL     1      93.026  17.832 131.551  1.00  0.00     0.074 A 
HETATM    7  C8  UNL     1      93.057  16.884 130.533  1.00  0.00     0.028 A 
ENDROOT
BRANCH   6   8
HETATM    8  C7  UNL     1      93.056  19.256 131.261  1.00  0.00     0.212 C 
HETATM    9  O2  UNL     1      92.478  20.111 131.981  1.00  0.00    -0.644 OA
HETATM   10  O3  UNL     1      93.736  19.703 130.163  1.00  0.00    -0.644 OA
ENDBRANCH   6   8
BRANCH   5  11
HETATM   11  O1  UNL     1      92.933  18.302 133.875  1.00  0.00    -0.360 OA
ATOM     12  H1  UNL     1      92.405  19.088 133.805  1.00  0.00     0.217 HD
ENDBRANCH   5  11
TORSDOF 2
ENDMDL
