MODEL 8
REMARK VINA RESULT: -6.409619016      0.931      2.563
REMARK  2 active torsions:
REMARK  status: ('A' for Active; 'I' for Inactive)
REMARK    1  A    between atoms: C5_5  and  O1_6 
REMARK    2  A    between atoms: C6_8  and  C7_9 
ROOT
HETATM    1  C1  UNL     1      93.220  16.230 130.301  1.00  0.00     0.048 C 
HETATM    2  C2  UNL     1      92.994  15.254 131.413  1.00  0.00    -0.061 A 
HETATM    3  C3  UNL     1      93.011  15.659 132.726  1.00  0.00     0.009 A 
HETATM    4  C4  UNL     1      92.804  14.763 133.746  1.00  0.00     0.038 A 
HETATM    5  C5  UNL     1      92.570  13.412 133.456  1.00  0.00     0.082 A 
HETATM    6  C6  UNL     1      92.546  12.978 132.149  1.00  0.00     0.074 A 
HETATM    7  C8  UNL     1      92.761  13.916 131.143  1.00  0.00     0.028 A 
ENDROOT
BRANCH   6   8
HETATM    8  C7  UNL     1      92.304  11.579 131.840  1.00  0.00     0.212 C 
HETATM    9  O2  UNL     1      92.576  10.647 132.639  1.00  0.00    -0.644 OA
HETATM   10  O3  UNL     1      91.758  11.243 130.632  1.00  0.00    -0.644 OA
ENDBRANCH   6   8
BRANCH   5  11
HETATM   11  O1  UNL     1      92.361  12.504 134.467  1.00  0.00    -0.360 OA
ATOM     12  H1  UNL     1      92.829  12.579 135.289  1.00  0.00     0.217 HD
ENDBRANCH   5  11
TORSDOF 2
ENDMDL
