MODEL 4
REMARK VINA RESULT: -6.812210931      1.014      2.494
REMARK  2 active torsions:
REMARK  status: ('A' for Active; 'I' for Inactive)
REMARK    1  A    between atoms: C5_5  and  O1_6 
REMARK    2  A    between atoms: C6_8  and  C7_9 
ROOT
HETATM    1  C1  UNL     1      93.532  15.292 128.859  1.00  0.00     0.048 C 
HETATM    2  C2  UNL     1      93.173  14.684 130.179  1.00  0.00    -0.061 A 
HETATM    3  C3  UNL     1      93.152  15.441 131.326  1.00  0.00     0.009 A 
HETATM    4  C4  UNL     1      92.822  14.883 132.536  1.00  0.00     0.038 A 
HETATM    5  C5  UNL     1      92.501  13.521 132.617  1.00  0.00     0.082 A 
HETATM    6  C6  UNL     1      92.514  12.738 131.483  1.00  0.00     0.074 A 
HETATM    7  C8  UNL     1      92.853  13.341 130.275  1.00  0.00     0.028 A 
ENDROOT
BRANCH   6   8
HETATM    8  C7  UNL     1      92.182  11.326 131.558  1.00  0.00     0.212 C 
HETATM    9  O2  UNL     1      91.526  10.731 130.664  1.00  0.00    -0.644 OA
HETATM   10  O3  UNL     1      92.591  10.596 132.640  1.00  0.00    -0.644 OA
ENDBRANCH   6   8
BRANCH   5  11
HETATM   11  O1  UNL     1      92.170  12.949 133.822  1.00  0.00    -0.360 OA
ATOM     12  H1  UNL     1      92.435  13.354 134.639  1.00  0.00     0.217 HD
ENDBRANCH   5  11
TORSDOF 2
ENDMDL
