MODEL 19
REMARK VINA RESULT: -5.232844763      4.715      6.632
REMARK  5 active torsions:
REMARK  status: ('A' for Active; 'I' for Inactive)
REMARK    1  A    between atoms: S1_2  and  C1_5 
REMARK    2  A    between atoms: C1_5  and  C2_6 
REMARK    3  A    between atoms: C2_6  and  C3_7 
REMARK    4  A    between atoms: C3_7  and  N1_8 
REMARK    5  A    between atoms: N1_8  and  C4_11 
ROOT
HETATM    1  N1  UNL     1      16.325  16.220  31.790  1.00  0.00    -0.071 N 
ATOM      2  H11 UNL     1      16.221  16.121  30.781  1.00  0.00     0.277 HD
ATOM      3  H12 UNL     1      16.004  15.295  32.073  1.00  0.00     0.277 HD
ENDROOT
BRANCH   1   4
HETATM    4  C3  UNL     1      15.466  17.265  32.314  1.00  0.00     0.233 C 
BRANCH   4   5
HETATM    5  C2  UNL     1      14.220  17.311  31.470  1.00  0.00     0.045 C 
BRANCH   5   6
HETATM    6  C1  UNL     1      13.292  16.164  31.720  1.00  0.00     0.167 C 
BRANCH   6   7
HETATM    7  S1  UNL     1      13.064  15.053  30.548  1.00  0.00     0.101 S 
HETATM    8  O1  UNL     1      12.813  13.685  30.591  1.00  0.00    -0.595 OA
HETATM    9  O2  UNL     1      11.773  15.802  29.467  1.00  0.00    -0.595 OA
HETATM   10  O3  UNL     1      14.371  15.450  29.328  1.00  0.00    -0.595 OA
ENDBRANCH   6   7
ENDBRANCH   5   6
ENDBRANCH   4   5
ENDBRANCH   1   4
BRANCH   1  11
HETATM   11  C4  UNL     1      17.726  16.444  32.167  1.00  0.00     0.185 C 
HETATM   12  C5  UNL     1      18.392  15.182  32.511  1.00  0.00     0.033 C 
HETATM   13  C6  UNL     1      19.266  15.136  33.696  1.00  0.00     0.002 C 
HETATM   14  C7  UNL     1      19.124  16.246  34.674  1.00  0.00     0.000 C 
HETATM   15  C8  UNL     1      18.968  17.600  34.020  1.00  0.00     0.002 C 
HETATM   16  C9  UNL     1      17.738  17.529  33.187  1.00  0.00     0.033 C 
ENDBRANCH   1  11
TORSDOF 5
ENDMDL
