MODEL 6
REMARK VINA RESULT: -5.472429415      0.667      1.387
REMARK  5 active torsions:
REMARK  status: ('A' for Active; 'I' for Inactive)
REMARK    1  A    between atoms: S1_2  and  C1_5 
REMARK    2  A    between atoms: C1_5  and  C2_6 
REMARK    3  A    between atoms: C2_6  and  C3_7 
REMARK    4  A    between atoms: C3_7  and  N1_8 
REMARK    5  A    between atoms: N1_8  and  C4_11 
ROOT
HETATM    1  N1  UNL     1      15.677  16.519  31.362  1.00  0.00    -0.071 N 
ATOM      2  H11 UNL     1      16.287  15.703  31.402  1.00  0.00     0.277 HD
ATOM      3  H12 UNL     1      15.973  16.892  30.460  1.00  0.00     0.277 HD
ENDROOT
BRANCH   1   4
HETATM    4  C3  UNL     1      15.958  17.448  32.440  1.00  0.00     0.233 C 
BRANCH   4   5
HETATM    5  C2  UNL     1      17.062  16.866  33.282  1.00  0.00     0.045 C 
BRANCH   5   6
HETATM    6  C1  UNL     1      18.321  17.674  33.249  1.00  0.00     0.167 C 
BRANCH   6   7
HETATM    7  S1  UNL     1      19.423  17.484  34.436  1.00  0.00     0.101 S 
HETATM    8  O1  UNL     1      20.704  17.999  34.615  1.00  0.00    -0.595 OA
HETATM    9  O2  UNL     1      18.482  17.834  35.980  1.00  0.00    -0.595 OA
HETATM   10  O3  UNL     1      19.379  15.684  34.770  1.00  0.00    -0.595 OA
ENDBRANCH   6   7
ENDBRANCH   5   6
ENDBRANCH   4   5
ENDBRANCH   1   4
BRANCH   1  11
HETATM   11  C4  UNL     1      14.261  16.133  31.347  1.00  0.00     0.185 C 
HETATM   12  C5  UNL     1      14.005  15.087  30.351  1.00  0.00     0.033 C 
HETATM   13  C6  UNL     1      12.812  15.194  29.493  1.00  0.00     0.002 C 
HETATM   14  C7  UNL     1      12.154  16.526  29.428  1.00  0.00     0.000 C 
HETATM   15  C8  UNL     1      12.068  17.214  30.771  1.00  0.00     0.002 C 
HETATM   16  C9  UNL     1      13.465  17.388  31.248  1.00  0.00     0.033 C 
ENDBRANCH   1  11
TORSDOF 5
ENDMDL
