MODEL 13
REMARK VINA RESULT: -5.292893030      5.008      6.854
REMARK  5 active torsions:
REMARK  status: ('A' for Active; 'I' for Inactive)
REMARK    1  A    between atoms: S1_2  and  C1_5 
REMARK    2  A    between atoms: C1_5  and  C2_6 
REMARK    3  A    between atoms: C2_6  and  C3_7 
REMARK    4  A    between atoms: C3_7  and  N1_8 
REMARK    5  A    between atoms: N1_8  and  C4_11 
ROOT
HETATM    1  N1  UNL     1      16.607  16.285  31.889  1.00  0.00    -0.071 N 
ATOM      2  H11 UNL     1      16.659  16.116  30.885  1.00  0.00     0.277 HD
ATOM      3  H12 UNL     1      16.257  15.374  32.183  1.00  0.00     0.277 HD
ENDROOT
BRANCH   1   4
HETATM    4  C3  UNL     1      15.667  17.344  32.203  1.00  0.00     0.233 C 
BRANCH   4   5
HETATM    5  C2  UNL     1      14.386  17.066  31.461  1.00  0.00     0.045 C 
BRANCH   5   6
HETATM    6  C1  UNL     1      14.453  15.845  30.600  1.00  0.00     0.167 C 
BRANCH   6   7
HETATM    7  S1  UNL     1      13.189  15.478  29.637  1.00  0.00     0.101 S 
HETATM    8  O1  UNL     1      13.112  15.059  28.312  1.00  0.00    -0.595 OA
HETATM    9  O2  UNL     1      12.196  14.289  30.635  1.00  0.00    -0.595 OA
HETATM   10  O3  UNL     1      11.993  16.823  29.977  1.00  0.00    -0.595 OA
ENDBRANCH   6   7
ENDBRANCH   5   6
ENDBRANCH   4   5
ENDBRANCH   1   4
BRANCH   1  11
HETATM   11  C4  UNL     1      17.932  16.563  32.458  1.00  0.00     0.185 C 
HETATM   12  C5  UNL     1      18.572  15.334  32.938  1.00  0.00     0.033 C 
HETATM   13  C6  UNL     1      19.264  15.351  34.239  1.00  0.00     0.002 C 
HETATM   14  C7  UNL     1      18.952  16.487  35.146  1.00  0.00     0.000 C 
HETATM   15  C8  UNL     1      18.858  17.814  34.429  1.00  0.00     0.002 C 
HETATM   16  C9  UNL     1      17.766  17.679  33.430  1.00  0.00     0.033 C 
ENDBRANCH   1  11
TORSDOF 5
ENDMDL
