MODEL 18
REMARK VINA RESULT: -5.236325993      1.317      1.999
REMARK  5 active torsions:
REMARK  status: ('A' for Active; 'I' for Inactive)
REMARK    1  A    between atoms: S1_2  and  C1_5 
REMARK    2  A    between atoms: C1_5  and  C2_6 
REMARK    3  A    between atoms: C2_6  and  C3_7 
REMARK    4  A    between atoms: C3_7  and  N1_8 
REMARK    5  A    between atoms: N1_8  and  C4_11 
ROOT
HETATM    1  N1  UNL     1      15.091  16.175  32.841  1.00  0.00    -0.071 N 
ATOM      2  H11 UNL     1      14.735  16.302  33.788  1.00  0.00     0.277 HD
ATOM      3  H12 UNL     1      15.603  15.304  32.981  1.00  0.00     0.277 HD
ENDROOT
BRANCH   1   4
HETATM    4  C3  UNL     1      15.975  17.257  32.454  1.00  0.00     0.233 C 
BRANCH   4   5
HETATM    5  C2  UNL     1      17.380  16.869  32.833  1.00  0.00     0.045 C 
BRANCH   5   6
HETATM    6  C1  UNL     1      18.089  17.916  33.634  1.00  0.00     0.167 C 
BRANCH   6   7
HETATM    7  S1  UNL     1      19.405  17.501  34.503  1.00  0.00     0.101 S 
HETATM    8  O1  UNL     1      20.711  17.983  34.512  1.00  0.00    -0.595 OA
HETATM    9  O2  UNL     1      18.813  17.518  36.247  1.00  0.00    -0.595 OA
HETATM   10  O3  UNL     1      19.374  15.670  34.469  1.00  0.00    -0.595 OA
ENDBRANCH   6   7
ENDBRANCH   5   6
ENDBRANCH   4   5
ENDBRANCH   1   4
BRANCH   1  11
HETATM   11  C4  UNL     1      13.999  16.008  31.873  1.00  0.00     0.185 C 
HETATM   12  C5  UNL     1      13.712  17.265  31.173  1.00  0.00     0.033 C 
HETATM   13  C6  UNL     1      12.308  17.664  30.970  1.00  0.00     0.002 C 
HETATM   14  C7  UNL     1      11.291  16.974  31.805  1.00  0.00     0.000 C 
HETATM   15  C8  UNL     1      11.542  15.491  31.947  1.00  0.00     0.002 C 
HETATM   16  C9  UNL     1      12.874  15.347  32.591  1.00  0.00     0.033 C 
ENDBRANCH   1  11
TORSDOF 5
ENDMDL
