MODEL 1
REMARK VINA RESULT: -5.537859431      0.000      0.000
REMARK  5 active torsions:
REMARK  status: ('A' for Active; 'I' for Inactive)
REMARK    1  A    between atoms: S1_2  and  C1_5 
REMARK    2  A    between atoms: C1_5  and  C2_6 
REMARK    3  A    between atoms: C2_6  and  C3_7 
REMARK    4  A    between atoms: C3_7  and  N1_8 
REMARK    5  A    between atoms: N1_8  and  C4_11 
ROOT
HETATM    1  N1  UNL     1      15.031  17.384  31.805  1.00  0.00    -0.071 N 
ATOM      2  H11 UNL     1      15.190  18.038  31.040  1.00  0.00     0.277 HD
ATOM      3  H12 UNL     1      14.718  18.046  32.516  1.00  0.00     0.277 HD
ENDROOT
BRANCH   1   4
HETATM    4  C3  UNL     1      16.257  16.718  32.201  1.00  0.00     0.233 C 
BRANCH   4   5
HETATM    5  C2  UNL     1      17.066  17.681  33.027  1.00  0.00     0.045 C 
BRANCH   5   6
HETATM    6  C1  UNL     1      18.459  17.207  33.298  1.00  0.00     0.167 C 
BRANCH   6   7
HETATM    7  S1  UNL     1      19.078  17.362  34.799  1.00  0.00     0.101 S 
HETATM    8  O1  UNL     1      18.539  17.843  35.989  1.00  0.00    -0.595 OA
HETATM    9  O2  UNL     1      19.787  15.701  35.164  1.00  0.00    -0.595 OA
HETATM   10  O3  UNL     1      20.747  18.053  34.500  1.00  0.00    -0.595 OA
ENDBRANCH   6   7
ENDBRANCH   5   6
ENDBRANCH   4   5
ENDBRANCH   1   4
BRANCH   1  11
HETATM   11  C4  UNL     1      13.981  16.413  31.474  1.00  0.00     0.185 C 
HETATM   12  C5  UNL     1      14.404  15.520  30.390  1.00  0.00     0.033 C 
HETATM   13  C6  UNL     1      13.452  15.208  29.309  1.00  0.00     0.002 C 
HETATM   14  C7  UNL     1      12.270  16.100  29.183  1.00  0.00     0.000 C 
HETATM   15  C8  UNL     1      11.660  16.474  30.514  1.00  0.00     0.002 C 
HETATM   16  C9  UNL     1      12.719  17.181  31.281  1.00  0.00     0.033 C 
ENDBRANCH   1  11
TORSDOF 5
ENDMDL
