MODEL 14
REMARK VINA RESULT: -10.282509880      1.592      2.043
REMARK  11 active torsions:
REMARK  status: ('A' for Active; 'I' for Inactive)
REMARK    1  A    between atoms: C1_2  and  C2_3 
REMARK       I    between atoms: C1_2  and  N2_22 
REMARK    2  A    between atoms: C2_3  and  C3_4 
REMARK    3  A    between atoms: C3_4  and  N1_5 
REMARK    4  A    between atoms: N1_5  and  C4_8 
REMARK    5  A    between atoms: C4_8  and  C5_9 
REMARK    6  A    between atoms: C8_12  and  C9_13 
REMARK    7  A    between atoms: N2_22  and  C17_24 
REMARK    8  A    between atoms: C17_24  and  C18_25 
REMARK    9  A    between atoms: C18_25  and  C19_26 
REMARK       I    between atoms: C19_26  and  N3_28 
REMARK   10  A    between atoms: N3_28  and  C20_30 
REMARK   11  A    between atoms: C24_34  and  C25_35 
ROOT
HETATM    1  O1  UNL     1    -144.401-172.834 361.706  1.00  0.00    -0.274 OA
HETATM    2  C1  UNL     1    -144.337-172.134 360.664  1.00  0.00     0.219 C 
HETATM    3  N2  UNL     1    -145.516-171.642 360.057  1.00  0.00    -0.361 N 
ATOM      4  H2  UNL     1    -145.427-171.078 359.212  1.00  0.00     0.162 HD
ENDROOT
BRANCH   2   5
HETATM    5  C2  UNL     1    -143.009-171.826 360.072  1.00  0.00     0.130 C 
BRANCH   5   6
HETATM    6  C3  UNL     1    -142.155-171.032 361.056  1.00  0.00     0.241 C 
BRANCH   6   7
HETATM    7  N1  UNL     1    -140.783-171.419 361.006  1.00  0.00    -0.071 N 
ATOM      8  H12 UNL     1    -140.570-172.069 361.763  1.00  0.00     0.277 HD
ATOM      9  H11 UNL     1    -140.615-172.025 360.203  1.00  0.00     0.277 HD
BRANCH   7  10
HETATM   10  C4  UNL     1    -139.853-170.329 361.009  1.00  0.00     0.270 C 
BRANCH  10  11
HETATM   11  C5  UNL     1    -138.577-170.696 361.667  1.00  0.00    -0.031 A 
HETATM   12  C6  UNL     1    -137.389-170.085 361.364  1.00  0.00     0.010 A 
HETATM   13  C7  UNL     1    -136.216-170.460 362.003  1.00  0.00     0.014 A 
HETATM   14  C8  UNL     1    -136.212-171.461 362.964  1.00  0.00    -0.004 A 
HETATM   15  C15 UNL     1    -137.421-172.058 363.248  1.00  0.00     0.045 A 
HETATM   16 CL1  UNL     1    -137.537-173.335 364.440  1.00  0.00    -0.083 Cl
HETATM   17  C16 UNL     1    -138.597-171.690 362.616  1.00  0.00     0.033 A 
BRANCH  14  18
HETATM   18  C9  UNL     1    -134.982-171.857 363.640  1.00  0.00    -0.024 A 
HETATM   19  C10 UNL     1    -134.684-171.335 364.886  1.00  0.00     0.012 A 
HETATM   20  C11 UNL     1    -133.528-171.698 365.542  1.00  0.00     0.001 A 
HETATM   21  C12 UNL     1    -132.653-172.597 364.950  1.00  0.00     0.000 A 
HETATM   22  C13 UNL     1    -132.943-173.120 363.712  1.00  0.00     0.001 A 
HETATM   23  C14 UNL     1    -134.115-172.750 363.050  1.00  0.00     0.012 A 
ENDBRANCH  14  18
ENDBRANCH  10  11
ENDBRANCH   7  10
ENDBRANCH   6   7
ENDBRANCH   5   6
ENDBRANCH   2   5
BRANCH   3  24
HETATM   24  C17 UNL     1    -146.848-171.902 360.580  1.00  0.00     0.132 C 
BRANCH  24  25
HETATM   25  C18 UNL     1    -147.490-173.012 359.816  1.00  0.00     0.123 C 
BRANCH  25  26
HETATM   26  C19 UNL     1    -148.009-174.021 360.809  1.00  0.00     0.223 C 
HETATM   27  O2  UNL     1    -147.598-174.019 361.989  1.00  0.00    -0.273 OA
HETATM   28  N3  UNL     1    -148.969-174.985 360.420  1.00  0.00    -0.327 N 
ATOM     29  H3  UNL     1    -149.276-174.954 359.448  1.00  0.00     0.169 HD
BRANCH  28  30
HETATM   30  C20 UNL     1    -149.546-175.981 361.227  1.00  0.00     0.035 A 
HETATM   31  C21 UNL     1    -150.144-175.780 362.446  1.00  0.00     0.029 A 
HETATM   32  C22 UNL     1    -150.658-176.889 363.130  1.00  0.00     0.003 A 
HETATM   33  C23 UNL     1    -150.582-178.161 362.621  1.00  0.00     0.018 A 
HETATM   34  C24 UNL     1    -149.988-178.373 361.407  1.00  0.00     0.043 A 
HETATM   35  C26 UNL     1    -149.479-177.292 360.725  1.00  0.00     0.048 A 
BRANCH  34  36
HETATM   36  C25 UNL     1    -149.885-179.728 360.824  1.00  0.00     0.209 C 
HETATM   37  O3  UNL     1    -149.836-180.709 361.581  1.00  0.00    -0.644 OA
HETATM   38  O4  UNL     1    -149.846-179.870 359.466  1.00  0.00    -0.644 OA
ENDBRANCH  34  36
ENDBRANCH  28  30
ENDBRANCH  25  26
ENDBRANCH  24  25
ENDBRANCH   3  24
TORSDOF 11
ENDMDL
