MODEL 7
REMARK VINA RESULT: -10.538299031      4.148     12.956
REMARK  11 active torsions:
REMARK  status: ('A' for Active; 'I' for Inactive)
REMARK    1  A    between atoms: C1_2  and  C2_3 
REMARK       I    between atoms: C1_2  and  N2_22 
REMARK    2  A    between atoms: C2_3  and  C3_4 
REMARK    3  A    between atoms: C3_4  and  N1_5 
REMARK    4  A    between atoms: N1_5  and  C4_8 
REMARK    5  A    between atoms: C4_8  and  C5_9 
REMARK    6  A    between atoms: C8_12  and  C9_13 
REMARK    7  A    between atoms: N2_22  and  C17_24 
REMARK    8  A    between atoms: C17_24  and  C18_25 
REMARK    9  A    between atoms: C18_25  and  C19_26 
REMARK       I    between atoms: C19_26  and  N3_28 
REMARK   10  A    between atoms: N3_28  and  C20_30 
REMARK   11  A    between atoms: C24_34  and  C25_35 
ROOT
HETATM    1  O1  UNL     1    -145.986-172.921 359.783  1.00  0.00    -0.274 OA
HETATM    2  C1  UNL     1    -146.149-171.871 360.455  1.00  0.00     0.219 C 
HETATM    3  N2  UNL     1    -145.081-171.323 361.201  1.00  0.00    -0.361 N 
ATOM      4  H2  UNL     1    -145.248-170.471 361.735  1.00  0.00     0.162 HD
ENDROOT
BRANCH   2   5
HETATM    5  C2  UNL     1    -147.480-171.207 360.460  1.00  0.00     0.130 C 
BRANCH   5   6
HETATM    6  C3  UNL     1    -148.074-171.188 359.055  1.00  0.00     0.241 C 
BRANCH   6   7
HETATM    7  N1  UNL     1    -149.427-171.641 359.041  1.00  0.00    -0.071 N 
ATOM      8  H12 UNL     1    -149.850-171.523 359.962  1.00  0.00     0.277 HD
ATOM      9  H11 UNL     1    -150.009-171.003 358.498  1.00  0.00     0.277 HD
BRANCH   7  10
HETATM   10  C4  UNL     1    -149.603-172.988 358.583  1.00  0.00     0.270 C 
BRANCH  10  11
HETATM   11  C5  UNL     1    -149.793-173.932 359.708  1.00  0.00    -0.031 A 
HETATM   12  C6  UNL     1    -150.279-173.538 360.926  1.00  0.00     0.010 A 
HETATM   13  C7  UNL     1    -150.441-174.456 361.954  1.00  0.00     0.014 A 
HETATM   14  C8  UNL     1    -150.117-175.794 361.779  1.00  0.00    -0.004 A 
HETATM   15  C15 UNL     1    -149.631-176.161 360.544  1.00  0.00     0.045 A 
HETATM   16 CL1  UNL     1    -149.186-177.820 360.208  1.00  0.00    -0.083 Cl
HETATM   17  C16 UNL     1    -149.466-175.252 359.511  1.00  0.00     0.033 A 
BRANCH  14  18
HETATM   18  C9  UNL     1    -150.289-176.761 362.856  1.00  0.00    -0.024 A 
HETATM   19  C10 UNL     1    -150.942-177.956 362.610  1.00  0.00     0.012 A 
HETATM   20  C11 UNL     1    -151.111-178.885 363.614  1.00  0.00     0.001 A 
HETATM   21  C12 UNL     1    -150.623-178.622 364.885  1.00  0.00     0.000 A 
HETATM   22  C13 UNL     1    -149.973-177.437 365.138  1.00  0.00     0.001 A 
HETATM   23  C14 UNL     1    -149.802-176.498 364.119  1.00  0.00     0.012 A 
ENDBRANCH  14  18
ENDBRANCH  10  11
ENDBRANCH   7  10
ENDBRANCH   6   7
ENDBRANCH   5   6
ENDBRANCH   2   5
BRANCH   3  24
HETATM   24  C17 UNL     1    -143.753-171.917 361.243  1.00  0.00     0.132 C 
BRANCH  24  25
HETATM   25  C18 UNL     1    -142.815-171.019 361.978  1.00  0.00     0.123 C 
BRANCH  25  26
HETATM   26  C19 UNL     1    -141.507-170.997 361.227  1.00  0.00     0.223 C 
HETATM   27  O2  UNL     1    -141.415-171.528 360.100  1.00  0.00    -0.273 OA
HETATM   28  N3  UNL     1    -140.366-170.377 361.787  1.00  0.00    -0.327 N 
ATOM     29  H3  UNL     1    -140.483-169.959 362.710  1.00  0.00     0.169 HD
BRANCH  28  30
HETATM   30  C20 UNL     1    -139.088-170.273 361.211  1.00  0.00     0.035 A 
HETATM   31  C21 UNL     1    -138.798-169.698 359.999  1.00  0.00     0.029 A 
HETATM   32  C22 UNL     1    -137.467-169.691 359.564  1.00  0.00     0.003 A 
HETATM   33  C23 UNL     1    -136.452-170.238 360.307  1.00  0.00     0.018 A 
HETATM   34  C24 UNL     1    -136.729-170.814 361.517  1.00  0.00     0.043 A 
HETATM   35  C26 UNL     1    -138.033-170.827 361.956  1.00  0.00     0.048 A 
BRANCH  34  36
HETATM   36  C25 UNL     1    -135.664-171.415 362.348  1.00  0.00     0.209 C 
HETATM   37  O3  UNL     1    -135.460-170.966 363.485  1.00  0.00    -0.644 OA
HETATM   38  O4  UNL     1    -134.930-172.452 361.845  1.00  0.00    -0.644 OA
ENDBRANCH  34  36
ENDBRANCH  28  30
ENDBRANCH  25  26
ENDBRANCH  24  25
ENDBRANCH   3  24
TORSDOF 11
ENDMDL
