MODEL 9
REMARK VINA RESULT: -10.482479482      3.923     12.651
REMARK  11 active torsions:
REMARK  status: ('A' for Active; 'I' for Inactive)
REMARK    1  A    between atoms: C1_2  and  C2_3 
REMARK       I    between atoms: C1_2  and  N2_22 
REMARK    2  A    between atoms: C2_3  and  C3_4 
REMARK    3  A    between atoms: C3_4  and  N1_5 
REMARK    4  A    between atoms: N1_5  and  C4_8 
REMARK    5  A    between atoms: C4_8  and  C5_9 
REMARK    6  A    between atoms: C8_12  and  C9_13 
REMARK    7  A    between atoms: N2_22  and  C17_24 
REMARK    8  A    between atoms: C17_24  and  C18_25 
REMARK    9  A    between atoms: C18_25  and  C19_26 
REMARK       I    between atoms: C19_26  and  N3_28 
REMARK   10  A    between atoms: N3_28  and  C20_30 
REMARK   11  A    between atoms: C24_34  and  C25_35 
ROOT
HETATM    1  O1  UNL     1    -146.957-173.180 361.378  1.00  0.00    -0.274 OA
HETATM    2  C1  UNL     1    -146.558-172.504 360.397  1.00  0.00     0.219 C 
HETATM    3  N2  UNL     1    -145.216-172.064 360.326  1.00  0.00    -0.361 N 
ATOM      4  H2  UNL     1    -144.926-171.518 359.516  1.00  0.00     0.162 HD
ENDROOT
BRANCH   2   5
HETATM    5  C2  UNL     1    -147.510-172.170 359.305  1.00  0.00     0.130 C 
BRANCH   5   6
HETATM    6  C3  UNL     1    -148.548-171.162 359.790  1.00  0.00     0.241 C 
BRANCH   6   7
HETATM    7  N1  UNL     1    -149.494-171.755 360.679  1.00  0.00    -0.071 N 
ATOM      8  H12 UNL     1    -149.020-172.135 361.498  1.00  0.00     0.277 HD
ATOM      9  H11 UNL     1    -150.062-171.035 361.123  1.00  0.00     0.277 HD
BRANCH   7  10
HETATM   10  C4  UNL     1    -150.332-172.753 360.082  1.00  0.00     0.270 C 
BRANCH  10  11
HETATM   11  C5  UNL     1    -150.292-174.027 360.835  1.00  0.00    -0.031 A 
HETATM   12  C6  UNL     1    -150.643-174.114 362.156  1.00  0.00     0.010 A 
HETATM   13  C7  UNL     1    -150.590-175.329 362.825  1.00  0.00     0.014 A 
HETATM   14  C8  UNL     1    -150.183-176.487 362.178  1.00  0.00    -0.004 A 
HETATM   15  C15 UNL     1    -149.837-176.370 360.850  1.00  0.00     0.045 A 
HETATM   16 CL1  UNL     1    -149.305-177.762 359.932  1.00  0.00    -0.083 Cl
HETATM   17  C16 UNL     1    -149.886-175.162 360.174  1.00  0.00     0.033 A 
BRANCH  14  18
HETATM   18  C9  UNL     1    -150.129-177.765 362.877  1.00  0.00    -0.024 A 
HETATM   19  C10 UNL     1    -150.239-177.801 364.255  1.00  0.00     0.012 A 
HETATM   20  C11 UNL     1    -150.193-179.000 364.933  1.00  0.00     0.001 A 
HETATM   21  C12 UNL     1    -150.036-180.184 364.229  1.00  0.00     0.000 A 
HETATM   22  C13 UNL     1    -149.926-180.157 362.858  1.00  0.00     0.001 A 
HETATM   23  C14 UNL     1    -149.974-178.941 362.175  1.00  0.00     0.012 A 
ENDBRANCH  14  18
ENDBRANCH  10  11
ENDBRANCH   7  10
ENDBRANCH   6   7
ENDBRANCH   5   6
ENDBRANCH   2   5
BRANCH   3  24
HETATM   24  C17 UNL     1    -144.229-172.353 361.355  1.00  0.00     0.132 C 
BRANCH  24  25
HETATM   25  C18 UNL     1    -143.507-171.105 361.736  1.00  0.00     0.123 C 
BRANCH  25  26
HETATM   26  C19 UNL     1    -142.026-171.378 361.648  1.00  0.00     0.223 C 
HETATM   27  O2  UNL     1    -141.470-171.503 360.537  1.00  0.00    -0.273 OA
HETATM   28  N3  UNL     1    -141.246-171.498 362.823  1.00  0.00    -0.327 N 
ATOM     29  H3  UNL     1    -141.739-171.392 363.709  1.00  0.00     0.169 HD
BRANCH  28  30
HETATM   30  C20 UNL     1    -139.865-171.747 362.901  1.00  0.00     0.035 A 
HETATM   31  C21 UNL     1    -139.270-172.749 363.628  1.00  0.00     0.029 A 
HETATM   32  C22 UNL     1    -137.873-172.849 363.608  1.00  0.00     0.003 A 
HETATM   33  C23 UNL     1    -137.087-171.982 362.892  1.00  0.00     0.018 A 
HETATM   34  C24 UNL     1    -137.670-170.980 362.165  1.00  0.00     0.043 A 
HETATM   35  C26 UNL     1    -139.041-170.871 362.174  1.00  0.00     0.048 A 
BRANCH  34  36
HETATM   36  C25 UNL     1    -136.859-170.025 361.380  1.00  0.00     0.209 C 
HETATM   37  O3  UNL     1    -137.358-168.939 361.048  1.00  0.00    -0.644 OA
HETATM   38  O4  UNL     1    -135.579-170.358 361.038  1.00  0.00    -0.644 OA
ENDBRANCH  34  36
ENDBRANCH  28  30
ENDBRANCH  25  26
ENDBRANCH  24  25
ENDBRANCH   3  24
TORSDOF 11
ENDMDL
