MODEL 8
REMARK VINA RESULT: -10.490699980      4.852     12.604
REMARK  11 active torsions:
REMARK  status: ('A' for Active; 'I' for Inactive)
REMARK    1  A    between atoms: C1_2  and  C2_3 
REMARK       I    between atoms: C1_2  and  N2_22 
REMARK    2  A    between atoms: C2_3  and  C3_4 
REMARK    3  A    between atoms: C3_4  and  N1_5 
REMARK    4  A    between atoms: N1_5  and  C4_8 
REMARK    5  A    between atoms: C4_8  and  C5_9 
REMARK    6  A    between atoms: C8_12  and  C9_13 
REMARK    7  A    between atoms: N2_22  and  C17_24 
REMARK    8  A    between atoms: C17_24  and  C18_25 
REMARK    9  A    between atoms: C18_25  and  C19_26 
REMARK       I    between atoms: C19_26  and  N3_28 
REMARK   10  A    between atoms: N3_28  and  C20_30 
REMARK   11  A    between atoms: C24_34  and  C25_35 
ROOT
HETATM    1  O1  UNL     1    -147.151-168.689 360.611  1.00  0.00    -0.274 OA
HETATM    2  C1  UNL     1    -147.334-169.932 360.645  1.00  0.00     0.219 C 
HETATM    3  N2  UNL     1    -146.250-170.811 360.869  1.00  0.00    -0.361 N 
ATOM      4  H2  UNL     1    -146.435-171.814 360.890  1.00  0.00     0.162 HD
ENDROOT
BRANCH   2   5
HETATM    5  C2  UNL     1    -148.705-170.473 360.447  1.00  0.00     0.130 C 
BRANCH   5   6
HETATM    6  C3  UNL     1    -148.752-171.375 359.216  1.00  0.00     0.241 C 
BRANCH   6   7
HETATM    7  N1  UNL     1    -149.905-172.215 359.214  1.00  0.00    -0.071 N 
ATOM      8  H12 UNL     1    -150.263-172.328 360.163  1.00  0.00     0.277 HD
ATOM      9  H11 UNL     1    -150.694-171.733 358.785  1.00  0.00     0.277 HD
BRANCH   7  10
HETATM   10  C4  UNL     1    -149.710-173.496 358.600  1.00  0.00     0.270 C 
BRANCH  10  11
HETATM   11  C5  UNL     1    -149.784-174.597 359.588  1.00  0.00    -0.031 A 
HETATM   12  C6  UNL     1    -149.401-175.878 359.294  1.00  0.00     0.010 A 
HETATM   13  C7  UNL     1    -149.487-176.881 360.250  1.00  0.00     0.014 A 
HETATM   14  C8  UNL     1    -149.963-176.616 361.526  1.00  0.00    -0.004 A 
HETATM   15  C15 UNL     1    -150.341-175.318 361.793  1.00  0.00     0.045 A 
HETATM   16 CL1  UNL     1    -150.959-174.866 363.367  1.00  0.00    -0.083 Cl
HETATM   17  C16 UNL     1    -150.258-174.311 360.846  1.00  0.00     0.033 A 
BRANCH  14  18
HETATM   18  C9  UNL     1    -150.053-177.665 362.534  1.00  0.00    -0.024 A 
HETATM   19  C10 UNL     1    -150.123-177.328 363.874  1.00  0.00     0.012 A 
HETATM   20  C11 UNL     1    -150.212-178.305 364.841  1.00  0.00     0.001 A 
HETATM   21  C12 UNL     1    -150.231-179.642 364.470  1.00  0.00     0.000 A 
HETATM   22  C13 UNL     1    -150.161-179.985 363.140  1.00  0.00     0.001 A 
HETATM   23  C14 UNL     1    -150.072-178.992 362.163  1.00  0.00     0.012 A 
ENDBRANCH  14  18
ENDBRANCH  10  11
ENDBRANCH   7  10
ENDBRANCH   6   7
ENDBRANCH   5   6
ENDBRANCH   2   5
BRANCH   3  24
HETATM   24  C17 UNL     1    -144.884-170.355 361.072  1.00  0.00     0.132 C 
BRANCH  24  25
HETATM   25  C18 UNL     1    -143.957-171.523 361.124  1.00  0.00     0.123 C 
BRANCH  25  26
HETATM   26  C19 UNL     1    -142.698-171.086 361.831  1.00  0.00     0.223 C 
HETATM   27  O2  UNL     1    -142.678-170.028 362.495  1.00  0.00    -0.273 OA
HETATM   28  N3  UNL     1    -141.521-171.867 361.753  1.00  0.00    -0.327 N 
ATOM     29  H3  UNL     1    -141.579-172.721 361.199  1.00  0.00     0.169 HD
BRANCH  28  30
HETATM   30  C20 UNL     1    -140.280-171.595 362.355  1.00  0.00     0.035 A 
HETATM   31  C21 UNL     1    -139.875-172.033 363.591  1.00  0.00     0.029 A 
HETATM   32  C22 UNL     1    -138.606-171.657 364.051  1.00  0.00     0.003 A 
HETATM   33  C23 UNL     1    -137.763-170.870 363.307  1.00  0.00     0.018 A 
HETATM   34  C24 UNL     1    -138.158-170.428 362.074  1.00  0.00     0.043 A 
HETATM   35  C26 UNL     1    -139.401-170.790 361.611  1.00  0.00     0.048 A 
BRANCH  34  36
HETATM   36  C25 UNL     1    -137.279-169.577 361.242  1.00  0.00     0.209 C 
HETATM   37  O3  UNL     1    -136.192-169.200 361.702  1.00  0.00    -0.644 OA
HETATM   38  O4  UNL     1    -137.685-169.226 359.986  1.00  0.00    -0.644 OA
ENDBRANCH  34  36
ENDBRANCH  28  30
ENDBRANCH  25  26
ENDBRANCH  24  25
ENDBRANCH   3  24
TORSDOF 11
ENDMDL
