MODEL 5
REMARK VINA RESULT: -10.579416820      1.324      2.016
REMARK  11 active torsions:
REMARK  status: ('A' for Active; 'I' for Inactive)
REMARK    1  A    between atoms: C1_2  and  C2_3 
REMARK       I    between atoms: C1_2  and  N2_22 
REMARK    2  A    between atoms: C2_3  and  C3_4 
REMARK    3  A    between atoms: C3_4  and  N1_5 
REMARK    4  A    between atoms: N1_5  and  C4_8 
REMARK    5  A    between atoms: C4_8  and  C5_9 
REMARK    6  A    between atoms: C8_12  and  C9_13 
REMARK    7  A    between atoms: N2_22  and  C17_24 
REMARK    8  A    between atoms: C17_24  and  C18_25 
REMARK    9  A    between atoms: C18_25  and  C19_26 
REMARK       I    between atoms: C19_26  and  N3_28 
REMARK   10  A    between atoms: N3_28  and  C20_30 
REMARK   11  A    between atoms: C24_34  and  C25_35 
ROOT
HETATM    1  O1  UNL     1    -145.843-171.146 360.872  1.00  0.00    -0.274 OA
HETATM    2  C1  UNL     1    -145.494-172.349 360.765  1.00  0.00     0.219 C 
HETATM    3  N2  UNL     1    -146.359-173.297 360.173  1.00  0.00    -0.361 N 
ATOM      4  H2  UNL     1    -146.044-174.264 360.102  1.00  0.00     0.162 HD
ENDROOT
BRANCH   2   5
HETATM    5  C2  UNL     1    -144.159-172.769 361.266  1.00  0.00     0.130 C 
BRANCH   5   6
HETATM    6  C3  UNL     1    -143.348-171.556 361.713  1.00  0.00     0.241 C 
BRANCH   6   7
HETATM    7  N1  UNL     1    -141.996-171.899 362.014  1.00  0.00    -0.071 N 
ATOM      8  H12 UNL     1    -141.920-172.228 362.977  1.00  0.00     0.277 HD
ATOM      9  H11 UNL     1    -141.727-172.748 361.518  1.00  0.00     0.277 HD
BRANCH   7  10
HETATM   10  C4  UNL     1    -141.045-170.855 361.768  1.00  0.00     0.270 C 
BRANCH  10  11
HETATM   11  C5  UNL     1    -139.708-171.191 362.309  1.00  0.00    -0.031 A 
HETATM   12  C6  UNL     1    -139.468-172.333 363.026  1.00  0.00     0.010 A 
HETATM   13  C7  UNL     1    -138.199-172.608 363.516  1.00  0.00     0.014 A 
HETATM   14  C8  UNL     1    -137.140-171.739 363.294  1.00  0.00    -0.004 A 
HETATM   15  C15 UNL     1    -137.411-170.599 362.570  1.00  0.00     0.045 A 
HETATM   16 CL1  UNL     1    -136.155-169.428 362.231  1.00  0.00    -0.083 Cl
HETATM   17  C16 UNL     1    -138.674-170.315 362.077  1.00  0.00     0.033 A 
BRANCH  14  18
HETATM   18  C9  UNL     1    -135.805-172.026 363.805  1.00  0.00    -0.024 A 
HETATM   19  C10 UNL     1    -134.819-172.468 362.941  1.00  0.00     0.012 A 
HETATM   20  C11 UNL     1    -133.551-172.742 363.404  1.00  0.00     0.001 A 
HETATM   21  C12 UNL     1    -133.256-172.574 364.749  1.00  0.00     0.000 A 
HETATM   22  C13 UNL     1    -134.231-172.135 365.614  1.00  0.00     0.001 A 
HETATM   23  C14 UNL     1    -135.515-171.858 365.142  1.00  0.00     0.012 A 
ENDBRANCH  14  18
ENDBRANCH  10  11
ENDBRANCH   7  10
ENDBRANCH   6   7
ENDBRANCH   5   6
ENDBRANCH   2   5
BRANCH   3  24
HETATM   24  C17 UNL     1    -147.678-172.959 359.660  1.00  0.00     0.132 C 
BRANCH  24  25
HETATM   25  C18 UNL     1    -148.734-173.541 360.539  1.00  0.00     0.123 C 
BRANCH  25  26
HETATM   26  C19 UNL     1    -148.688-175.041 360.391  1.00  0.00     0.223 C 
HETATM   27  O2  UNL     1    -147.839-175.579 359.648  1.00  0.00    -0.273 OA
HETATM   28  N3  UNL     1    -149.605-175.861 361.089  1.00  0.00    -0.327 N 
ATOM     29  H3  UNL     1    -150.283-175.382 361.681  1.00  0.00     0.169 HD
BRANCH  28  30
HETATM   30  C20 UNL     1    -149.685-177.264 361.055  1.00  0.00     0.035 A 
HETATM   31  C21 UNL     1    -149.685-178.041 359.923  1.00  0.00     0.029 A 
HETATM   32  C22 UNL     1    -149.786-179.431 360.066  1.00  0.00     0.003 A 
HETATM   33  C23 UNL     1    -149.883-180.034 361.295  1.00  0.00     0.018 A 
HETATM   34  C24 UNL     1    -149.883-179.269 362.429  1.00  0.00     0.043 A 
HETATM   35  C26 UNL     1    -149.785-177.903 362.303  1.00  0.00     0.048 A 
BRANCH  34  36
HETATM   36  C25 UNL     1    -149.987-179.880 363.772  1.00  0.00     0.209 C 
HETATM   37  O3  UNL     1    -149.512-181.010 363.960  1.00  0.00    -0.644 OA
HETATM   38  O4  UNL     1    -150.604-179.187 364.775  1.00  0.00    -0.644 OA
ENDBRANCH  34  36
ENDBRANCH  28  30
ENDBRANCH  25  26
ENDBRANCH  24  25
ENDBRANCH   3  24
TORSDOF 11
ENDMDL
