MODEL 4
REMARK VINA RESULT: -10.869964020      1.129      1.399
REMARK  11 active torsions:
REMARK  status: ('A' for Active; 'I' for Inactive)
REMARK    1  A    between atoms: C1_2  and  C2_3 
REMARK       I    between atoms: C1_2  and  N2_22 
REMARK    2  A    between atoms: C2_3  and  C3_4 
REMARK    3  A    between atoms: C3_4  and  N1_5 
REMARK    4  A    between atoms: N1_5  and  C4_8 
REMARK    5  A    between atoms: C4_8  and  C5_9 
REMARK    6  A    between atoms: C8_12  and  C9_13 
REMARK    7  A    between atoms: N2_22  and  C17_24 
REMARK    8  A    between atoms: C17_24  and  C18_25 
REMARK    9  A    between atoms: C18_25  and  C19_26 
REMARK       I    between atoms: C19_26  and  N3_28 
REMARK   10  A    between atoms: N3_28  and  C20_30 
REMARK   11  A    between atoms: C24_34  and  C25_35 
ROOT
HETATM    1  O1  UNL     1    -145.272-173.402 359.819  1.00  0.00    -0.274 OA
HETATM    2  C1  UNL     1    -145.640-172.545 360.660  1.00  0.00     0.219 C 
HETATM    3  N2  UNL     1    -147.002-172.439 361.028  1.00  0.00    -0.361 N 
ATOM      4  H2  UNL     1    -147.266-171.732 361.713  1.00  0.00     0.162 HD
ENDROOT
BRANCH   2   5
HETATM    5  C2  UNL     1    -144.632-171.638 361.270  1.00  0.00     0.130 C 
BRANCH   5   6
HETATM    6  C3  UNL     1    -143.253-171.889 360.665  1.00  0.00     0.241 C 
BRANCH   6   7
HETATM    7  N1  UNL     1    -142.215-171.772 361.638  1.00  0.00    -0.071 N 
ATOM      8  H12 UNL     1    -142.603-171.835 362.579  1.00  0.00     0.277 HD
ATOM      9  H11 UNL     1    -141.630-172.608 361.633  1.00  0.00     0.277 HD
BRANCH   7  10
HETATM   10  C4  UNL     1    -141.404-170.597 361.510  1.00  0.00     0.270 C 
BRANCH  10  11
HETATM   11  C5  UNL     1    -140.005-170.846 361.927  1.00  0.00    -0.031 A 
HETATM   12  C6  UNL     1    -138.958-170.079 361.488  1.00  0.00     0.010 A 
HETATM   13  C7  UNL     1    -137.661-170.348 361.903  1.00  0.00     0.014 A 
HETATM   14  C8  UNL     1    -137.388-171.396 362.770  1.00  0.00    -0.004 A 
HETATM   15  C15 UNL     1    -138.461-172.149 363.195  1.00  0.00     0.045 A 
HETATM   16 CL1  UNL     1    -138.237-173.499 364.287  1.00  0.00    -0.083 Cl
HETATM   17  C16 UNL     1    -139.758-171.889 362.787  1.00  0.00     0.033 A 
BRANCH  14  18
HETATM   18  C9  UNL     1    -136.027-171.680 363.210  1.00  0.00    -0.024 A 
HETATM   19  C10 UNL     1    -135.630-171.326 364.487  1.00  0.00     0.012 A 
HETATM   20  C11 UNL     1    -134.349-171.589 364.922  1.00  0.00     0.001 A 
HETATM   21  C12 UNL     1    -133.447-172.213 364.074  1.00  0.00     0.000 A 
HETATM   22  C13 UNL     1    -133.835-172.567 362.802  1.00  0.00     0.001 A 
HETATM   23  C14 UNL     1    -135.133-172.301 362.365  1.00  0.00     0.012 A 
ENDBRANCH  14  18
ENDBRANCH  10  11
ENDBRANCH   7  10
ENDBRANCH   6   7
ENDBRANCH   5   6
ENDBRANCH   2   5
BRANCH   3  24
HETATM   24  C17 UNL     1    -148.043-173.291 360.475  1.00  0.00     0.132 C 
BRANCH  24  25
HETATM   25  C18 UNL     1    -149.243-173.273 361.362  1.00  0.00     0.123 C 
BRANCH  25  26
HETATM   26  C19 UNL     1    -149.177-174.483 362.259  1.00  0.00     0.223 C 
HETATM   27  O2  UNL     1    -148.282-174.581 363.125  1.00  0.00    -0.273 OA
HETATM   28  N3  UNL     1    -150.126-175.525 362.134  1.00  0.00    -0.327 N 
ATOM     29  H3  UNL     1    -150.838-175.406 361.413  1.00  0.00     0.169 HD
BRANCH  28  30
HETATM   30  C20 UNL     1    -150.196-176.704 362.894  1.00  0.00     0.035 A 
HETATM   31  C21 UNL     1    -150.350-176.773 364.257  1.00  0.00     0.029 A 
HETATM   32  C22 UNL     1    -150.386-178.036 364.862  1.00  0.00     0.003 A 
HETATM   33  C23 UNL     1    -150.273-179.197 364.139  1.00  0.00     0.018 A 
HETATM   34  C24 UNL     1    -150.119-179.139 362.781  1.00  0.00     0.043 A 
HETATM   35  C26 UNL     1    -150.083-177.906 362.174  1.00  0.00     0.048 A 
BRANCH  34  36
HETATM   36  C25 UNL     1    -149.993-180.367 361.966  1.00  0.00     0.209 C 
HETATM   37  O3  UNL     1    -149.983-181.469 362.533  1.00  0.00    -0.644 OA
HETATM   38  O4  UNL     1    -149.890-180.259 360.608  1.00  0.00    -0.644 OA
ENDBRANCH  34  36
ENDBRANCH  28  30
ENDBRANCH  25  26
ENDBRANCH  24  25
ENDBRANCH   3  24
TORSDOF 11
ENDMDL
