MODEL 6
REMARK VINA RESULT: -10.564836841      1.498      2.022
REMARK  11 active torsions:
REMARK  status: ('A' for Active; 'I' for Inactive)
REMARK    1  A    between atoms: C1_2  and  C2_3 
REMARK       I    between atoms: C1_2  and  N2_22 
REMARK    2  A    between atoms: C2_3  and  C3_4 
REMARK    3  A    between atoms: C3_4  and  N1_5 
REMARK    4  A    between atoms: N1_5  and  C4_8 
REMARK    5  A    between atoms: C4_8  and  C5_9 
REMARK    6  A    between atoms: C8_12  and  C9_13 
REMARK    7  A    between atoms: N2_22  and  C17_24 
REMARK    8  A    between atoms: C17_24  and  C18_25 
REMARK    9  A    between atoms: C18_25  and  C19_26 
REMARK       I    between atoms: C19_26  and  N3_28 
REMARK   10  A    between atoms: N3_28  and  C20_30 
REMARK   11  A    between atoms: C24_34  and  C25_35 
ROOT
HETATM    1  O1  UNL     1    -145.055-173.507 361.535  1.00  0.00    -0.274 OA
HETATM    2  C1  UNL     1    -145.439-172.455 360.964  1.00  0.00     0.219 C 
HETATM    3  N2  UNL     1    -146.802-172.275 360.633  1.00  0.00    -0.361 N 
ATOM      4  H2  UNL     1    -147.079-171.410 360.171  1.00  0.00     0.162 HD
ENDROOT
BRANCH   2   5
HETATM    5  C2  UNL     1    -144.447-171.397 360.639  1.00  0.00     0.130 C 
BRANCH   5   6
HETATM    6  C3  UNL     1    -143.064-172.007 360.425  1.00  0.00     0.241 C 
BRANCH   6   7
HETATM    7  N1  UNL     1    -142.264-171.939 361.604  1.00  0.00    -0.071 N 
ATOM      8  H12 UNL     1    -142.846-172.044 362.435  1.00  0.00     0.277 HD
ATOM      9  H11 UNL     1    -141.686-172.775 361.689  1.00  0.00     0.277 HD
BRANCH   7  10
HETATM   10  C4  UNL     1    -141.453-170.761 361.710  1.00  0.00     0.270 C 
BRANCH  10  11
HETATM   11  C5  UNL     1    -140.087-171.075 362.186  1.00  0.00    -0.031 A 
HETATM   12  C6  UNL     1    -139.826-172.100 363.057  1.00  0.00     0.010 A 
HETATM   13  C7  UNL     1    -138.530-172.359 363.479  1.00  0.00     0.014 A 
HETATM   14  C8  UNL     1    -137.463-171.591 363.033  1.00  0.00    -0.004 A 
HETATM   15  C15 UNL     1    -137.755-170.567 362.158  1.00  0.00     0.045 A 
HETATM   16 CL1  UNL     1    -136.492-169.530 361.532  1.00  0.00    -0.083 Cl
HETATM   17  C16 UNL     1    -139.046-170.301 361.731  1.00  0.00     0.033 A 
BRANCH  14  18
HETATM   18  C9  UNL     1    -136.100-171.861 363.472  1.00  0.00    -0.024 A 
HETATM   19  C10 UNL     1    -135.750-171.657 364.794  1.00  0.00     0.012 A 
HETATM   20  C11 UNL     1    -134.467-171.910 365.229  1.00  0.00     0.001 A 
HETATM   21  C12 UNL     1    -133.515-172.374 364.334  1.00  0.00     0.000 A 
HETATM   22  C13 UNL     1    -133.855-172.579 363.017  1.00  0.00     0.001 A 
HETATM   23  C14 UNL     1    -135.155-172.323 362.580  1.00  0.00     0.012 A 
ENDBRANCH  14  18
ENDBRANCH  10  11
ENDBRANCH   7  10
ENDBRANCH   6   7
ENDBRANCH   5   6
ENDBRANCH   2   5
BRANCH   3  24
HETATM   24  C17 UNL     1    -147.829-173.265 360.921  1.00  0.00     0.132 C 
BRANCH  24  25
HETATM   25  C18 UNL     1    -148.324-173.873 359.652  1.00  0.00     0.123 C 
BRANCH  25  26
HETATM   26  C19 UNL     1    -148.362-175.369 359.836  1.00  0.00     0.223 C 
HETATM   27  O2  UNL     1    -147.432-176.084 359.408  1.00  0.00    -0.273 OA
HETATM   28  N3  UNL     1    -149.452-175.985 360.495  1.00  0.00    -0.327 N 
ATOM     29  H3  UNL     1    -150.191-175.366 360.826  1.00  0.00     0.169 HD
BRANCH  28  30
HETATM   30  C20 UNL     1    -149.627-177.357 360.744  1.00  0.00     0.035 A 
HETATM   31  C21 UNL     1    -149.611-178.353 359.798  1.00  0.00     0.029 A 
HETATM   32  C22 UNL     1    -149.817-179.674 360.215  1.00  0.00     0.003 A 
HETATM   33  C23 UNL     1    -150.033-180.000 361.530  1.00  0.00     0.018 A 
HETATM   34  C24 UNL     1    -150.051-179.016 362.481  1.00  0.00     0.043 A 
HETATM   35  C26 UNL     1    -149.850-177.714 362.084  1.00  0.00     0.048 A 
BRANCH  34  36
HETATM   36  C25 UNL     1    -150.282-179.325 363.908  1.00  0.00     0.209 C 
HETATM   37  O3  UNL     1    -150.852-178.489 364.623  1.00  0.00    -0.644 OA
HETATM   38  O4  UNL     1    -149.863-180.527 364.407  1.00  0.00    -0.644 OA
ENDBRANCH  34  36
ENDBRANCH  28  30
ENDBRANCH  25  26
ENDBRANCH  24  25
ENDBRANCH   3  24
TORSDOF 11
ENDMDL
