MODEL 2
REMARK VINA RESULT: -9.593886584      1.262      2.165
REMARK  2 active torsions:
REMARK  status: ('A' for Active; 'I' for Inactive)
REMARK    1  A    between atoms: C7_8  and  N2_9 
REMARK       I    between atoms: N2_9  and  C8_11 
REMARK       I    between atoms: C8_11  and  N3_13 
REMARK    2  A    between atoms: N3_13  and  C9_15 
ROOT
HETATM    1  N2  UNL     1       2.910  -3.141   7.137  1.00  0.00    -0.309 N 
ATOM      2  H2  UNL     1       2.457  -2.253   7.355  1.00  0.00     0.170 HD
HETATM    3  C8  UNL     1       2.543  -4.262   7.953  1.00  0.00     0.325 C 
HETATM    4  O1  UNL     1       3.077  -5.338   7.713  1.00  0.00    -0.247 OA
HETATM    5  N3  UNL     1       1.604  -4.132   8.991  1.00  0.00    -0.309 N 
ATOM      6  H3  UNL     1       1.190  -3.213   9.140  1.00  0.00     0.170 HD
ENDROOT
BRANCH   1   7
HETATM    7  C7  UNL     1       3.823  -3.131   6.074  1.00  0.00     0.037 A 
HETATM    8  C6  UNL     1       4.824  -2.226   5.868  1.00  0.00     0.045 A 
HETATM    9  C5  UNL     1       5.669  -2.292   4.774  1.00  0.00     0.017 A 
HETATM   10  C4  UNL     1       6.654  -1.323   4.660  1.00  0.00     0.060 A 
HETATM   11  C21 UNL     1       5.501  -3.304   3.856  1.00  0.00     0.044 A 
HETATM   12  C3  UNL     1       7.482  -1.413   3.560  1.00  0.00     0.052 A 
HETATM   13  N1  UNL     1       6.796  -0.287   5.637  1.00  0.00    -0.101 NA
HETATM   14  C2  UNL     1       7.288  -2.437   2.659  1.00  0.00     0.007 A 
HETATM   15  C1  UNL     1       8.180  -2.551   1.454  1.00  0.00     0.068 C 
HETATM   16  N6  UNL     1       6.326  -3.357   2.801  1.00  0.00    -0.359 N 
ATOM     17  H6  UNL     1       6.222  -4.098   2.108  1.00  0.00     0.166 HD
HETATM   18  C20 UNL     1       4.498  -4.253   4.015  1.00  0.00     0.033 A 
HETATM   19  C19 UNL     1       3.688  -4.141   5.117  1.00  0.00     0.032 A 
ENDBRANCH   1   7
BRANCH   5  20
HETATM   20  C9  UNL     1       1.197  -5.173   9.836  1.00  0.00     0.037 A 
HETATM   21  C10 UNL     1       1.647  -6.464   9.800  1.00  0.00     0.032 A 
HETATM   22  C11 UNL     1       1.174  -7.454  10.672  1.00  0.00     0.033 A 
HETATM   23  C12 UNL     1       0.224  -7.146  11.607  1.00  0.00     0.044 A 
HETATM   24  N4  UNL     1      -0.257  -8.087  12.471  1.00  0.00    -0.359 N 
HETATM   25  C17 UNL     1      -0.265  -5.857  11.687  1.00  0.00     0.017 A 
HETATM   26  C13 UNL     1      -1.176  -7.816  13.386  1.00  0.00     0.007 A 
ATOM     27  H4  UNL     1       0.106  -9.039  12.409  1.00  0.00     0.166 HD
HETATM   28  C14 UNL     1      -1.709  -8.844  14.338  1.00  0.00     0.068 C 
HETATM   29  C15 UNL     1      -1.686  -6.519  13.486  1.00  0.00     0.052 A 
HETATM   30  C16 UNL     1      -1.228  -5.547  12.638  1.00  0.00     0.060 A 
HETATM   31  N5  UNL     1      -1.725  -4.230  12.716  1.00  0.00    -0.101 NA
HETATM   32  C18 UNL     1       0.219  -4.924  10.822  1.00  0.00     0.045 A 
ENDBRANCH   5  20
TORSDOF 2
ENDMDL
