MODEL 3
REMARK VINA RESULT: -9.555641115      0.236     10.331
REMARK  2 active torsions:
REMARK  status: ('A' for Active; 'I' for Inactive)
REMARK    1  A    between atoms: C7_8  and  N2_9 
REMARK       I    between atoms: N2_9  and  C8_11 
REMARK       I    between atoms: C8_11  and  N3_13 
REMARK    2  A    between atoms: N3_13  and  C9_15 
ROOT
HETATM    1  N2  UNL     1       1.784  -3.466   7.936  1.00  0.00    -0.309 N 
ATOM      2  H2  UNL     1       1.142  -2.728   7.646  1.00  0.00     0.170 HD
HETATM    3  C8  UNL     1       3.048  -3.513   7.262  1.00  0.00     0.325 C 
HETATM    4  O1  UNL     1       3.835  -4.393   7.591  1.00  0.00    -0.247 OA
HETATM    5  N3  UNL     1       3.375  -2.584   6.259  1.00  0.00    -0.309 N 
ATOM      6  H3  UNL     1       2.682  -1.872   6.032  1.00  0.00     0.170 HD
ENDROOT
BRANCH   1   7
HETATM    7  C7  UNL     1       1.332  -4.321   8.951  1.00  0.00     0.037 A 
HETATM    8  C6  UNL     1       0.342  -4.062   9.855  1.00  0.00     0.045 A 
HETATM    9  C5  UNL     1      -0.023  -4.970  10.834  1.00  0.00     0.017 A 
HETATM   10  C4  UNL     1      -1.042  -4.608  11.701  1.00  0.00     0.060 A 
HETATM   11  C21 UNL     1       0.630  -6.180  10.903  1.00  0.00     0.044 A 
HETATM   12  C3  UNL     1      -1.385  -5.532  12.666  1.00  0.00     0.052 A 
HETATM   13  N1  UNL     1      -1.695  -3.339  11.594  1.00  0.00    -0.101 NA
HETATM   14  C2  UNL     1      -0.713  -6.734  12.711  1.00  0.00     0.007 A 
HETATM   15  C1  UNL     1      -1.074  -7.753  13.756  1.00  0.00     0.068 C 
HETATM   16  N6  UNL     1       0.266  -7.051  11.855  1.00  0.00    -0.359 N 
ATOM     17  H6  UNL     1       0.734  -7.954  11.927  1.00  0.00     0.166 HD
HETATM   18  C20 UNL     1       1.645  -6.497  10.008  1.00  0.00     0.033 A 
HETATM   19  C19 UNL     1       1.969  -5.562   9.059  1.00  0.00     0.032 A 
ENDBRANCH   1   7
BRANCH   5  20
HETATM   20  C9  UNL     1       4.583  -2.566   5.548  1.00  0.00     0.037 A 
HETATM   21  C10 UNL     1       5.659  -1.761   5.808  1.00  0.00     0.032 A 
HETATM   22  C11 UNL     1       6.828  -1.790   5.036  1.00  0.00     0.033 A 
HETATM   23  C12 UNL     1       6.926  -2.648   3.975  1.00  0.00     0.044 A 
HETATM   24  N4  UNL     1       8.051  -2.700   3.203  1.00  0.00    -0.359 N 
HETATM   25  C17 UNL     1       5.869  -3.482   3.668  1.00  0.00     0.017 A 
HETATM   26  C13 UNL     1       8.173  -3.520   2.169  1.00  0.00     0.007 A 
ATOM     27  H4  UNL     1       8.830  -2.082   3.431  1.00  0.00     0.166 HD
HETATM   28  C14 UNL     1       9.405  -3.584   1.318  1.00  0.00     0.068 C 
HETATM   29  C15 UNL     1       7.117  -4.374   1.840  1.00  0.00     0.052 A 
HETATM   30  C16 UNL     1       5.972  -4.350   2.590  1.00  0.00     0.060 A 
HETATM   31  N5  UNL     1       4.891  -5.200   2.281  1.00  0.00    -0.101 NA
HETATM   32  C18 UNL     1       4.750  -3.423   4.441  1.00  0.00     0.045 A 
ENDBRANCH   5  20
TORSDOF 2
ENDMDL
