MODEL 1
REMARK VINA RESULT: -9.823688472      0.000      0.000
REMARK  2 active torsions:
REMARK  status: ('A' for Active; 'I' for Inactive)
REMARK    1  A    between atoms: C7_8  and  N2_9 
REMARK       I    between atoms: N2_9  and  C8_11 
REMARK       I    between atoms: C8_11  and  N3_13 
REMARK    2  A    between atoms: N3_13  and  C9_15 
ROOT
HETATM    1  N2  UNL     1       3.555  -2.647   6.366  1.00  0.00    -0.309 N 
ATOM      2  H2  UNL     1       2.979  -1.805   6.350  1.00  0.00     0.170 HD
HETATM    3  C8  UNL     1       3.173  -3.663   7.302  1.00  0.00     0.325 C 
HETATM    4  O1  UNL     1       3.853  -4.682   7.343  1.00  0.00    -0.247 OA
HETATM    5  N3  UNL     1       2.059  -3.500   8.143  1.00  0.00    -0.309 N 
ATOM      6  H3  UNL     1       1.529  -2.633   8.060  1.00  0.00     0.170 HD
ENDROOT
BRANCH   1   7
HETATM    7  C7  UNL     1       4.634  -2.681   5.472  1.00  0.00     0.037 A 
HETATM    8  C6  UNL     1       4.801  -3.546   4.429  1.00  0.00     0.045 A 
HETATM    9  C5  UNL     1       5.913  -3.510   3.606  1.00  0.00     0.017 A 
HETATM   10  C4  UNL     1       5.984  -4.433   2.575  1.00  0.00     0.060 A 
HETATM   11  C21 UNL     1       6.890  -2.569   3.841  1.00  0.00     0.044 A 
HETATM   12  C3  UNL     1       7.104  -4.374   1.771  1.00  0.00     0.052 A 
HETATM   13  N1  UNL     1       4.945  -5.395   2.365  1.00  0.00    -0.101 NA
HETATM   14  C2  UNL     1       8.064  -3.421   2.032  1.00  0.00     0.007 A 
HETATM   15  C1  UNL     1       9.292  -3.342   1.167  1.00  0.00     0.068 C 
HETATM   16  N6  UNL     1       7.963  -2.543   3.037  1.00  0.00    -0.359 N 
ATOM     17  H6  UNL     1       8.700  -1.856   3.191  1.00  0.00     0.166 HD
HETATM   18  C20 UNL     1       6.773  -1.662   4.889  1.00  0.00     0.033 A 
HETATM   19  C19 UNL     1       5.651  -1.743   5.674  1.00  0.00     0.032 A 
ENDBRANCH   1   7
BRANCH   5  20
HETATM   20  C9  UNL     1       1.624  -4.439   9.088  1.00  0.00     0.037 A 
HETATM   21  C10 UNL     1       2.169  -5.675   9.306  1.00  0.00     0.032 A 
HETATM   22  C11 UNL     1       1.662  -6.567  10.260  1.00  0.00     0.033 A 
HETATM   23  C12 UNL     1       0.580  -6.214  11.019  1.00  0.00     0.044 A 
HETATM   24  N4  UNL     1       0.062  -7.061  11.957  1.00  0.00    -0.359 N 
HETATM   25  C17 UNL     1      -0.009  -4.978  10.840  1.00  0.00     0.017 A 
HETATM   26  C13 UNL     1      -0.985  -6.745  12.707  1.00  0.00     0.007 A 
ATOM     27  H4  UNL     1       0.499  -7.973  12.087  1.00  0.00     0.166 HD
HETATM   28  C14 UNL     1      -1.559  -7.668  13.739  1.00  0.00     0.068 C 
HETATM   29  C15 UNL     1      -1.597  -5.500  12.543  1.00  0.00     0.052 A 
HETATM   30  C16 UNL     1      -1.107  -4.624  11.612  1.00  0.00     0.060 A 
HETATM   31  N5  UNL     1      -1.705  -3.361  11.426  1.00  0.00    -0.101 NA
HETATM   32  C18 UNL     1       0.512  -4.141   9.903  1.00  0.00     0.045 A 
ENDBRANCH   5  20
TORSDOF 2
ENDMDL
