MODEL 13
REMARK VINA RESULT: -6.681138371      6.390      8.773
REMARK  5 active torsions:
REMARK  status: ('A' for Active; 'I' for Inactive)
REMARK    1  A    between atoms: C3_3  and  O1_4 
REMARK    2  A    between atoms: C3_3  and  C11_16 
REMARK    3  A    between atoms: O1_4  and  C4_5 
REMARK    4  A    between atoms: C8_9  and  C9_10 
REMARK    5  A    between atoms: C10_13  and  O4_14 
ROOT
HETATM    1  C4  UNL     1      50.830 -44.182  -7.991  1.00  0.00     0.110 A 
HETATM    2  C5  UNL     1      51.888 -45.018  -7.819  1.00  0.00     0.040 A 
HETATM    3  C6  UNL     1      52.949 -45.004  -8.680  1.00  0.00     0.004 A 
HETATM    4  C7  UNL     1      52.919 -44.121  -9.727  1.00  0.00     0.021 A 
HETATM    5  C8  UNL     1      51.841 -43.245  -9.932  1.00  0.00     0.076 A 
HETATM    6  C10 UNL     1      50.782 -43.267  -9.063  1.00  0.00     0.116 A 
ENDROOT
BRANCH   1   7
HETATM    7  O1  UNL     1      49.742 -44.180  -7.128  1.00  0.00    -0.301 OA
BRANCH   7   8
HETATM    8  C3  UNL     1      48.984 -45.336  -7.043  1.00  0.00     0.148 C 
HETATM    9  C2  UNL     1      49.022 -46.040  -5.935  1.00  0.00     0.013 C 
HETATM   10  C1  UNL     1      49.827 -45.690  -4.745  1.00  0.00     0.039 C 
BRANCH   8  11
HETATM   11  C11 UNL     1      48.157 -45.766  -8.159  1.00  0.00     0.234 C 
HETATM   12  O5  UNL     1      47.842 -46.963  -8.301  1.00  0.00    -0.642 OA
HETATM   13  O6  UNL     1      47.723 -44.816  -9.071  1.00  0.00    -0.642 OA
ENDBRANCH   8  11
ENDBRANCH   7   8
ENDBRANCH   1   7
BRANCH   6  14
HETATM   14  O4  UNL     1      49.697 -42.451  -9.189  1.00  0.00    -0.357 OA
ATOM     15  H4  UNL     1      49.827 -41.545  -9.443  1.00  0.00     0.217 HD
ENDBRANCH   6  14
BRANCH   5  16
HETATM   16  C9  UNL     1      51.890 -42.336 -11.073  1.00  0.00     0.212 C 
HETATM   17  O2  UNL     1      52.492 -42.614 -12.115  1.00  0.00    -0.644 OA
HETATM   18  O3  UNL     1      51.236 -41.088 -11.009  1.00  0.00    -0.644 OA
ENDBRANCH   5  16
TORSDOF 5
ENDMDL
