MODEL 11
REMARK VINA RESULT: -6.722139636      8.617     10.059
REMARK  5 active torsions:
REMARK  status: ('A' for Active; 'I' for Inactive)
REMARK    1  A    between atoms: C3_3  and  O1_4 
REMARK    2  A    between atoms: C3_3  and  C11_16 
REMARK    3  A    between atoms: O1_4  and  C4_5 
REMARK    4  A    between atoms: C8_9  and  C9_10 
REMARK    5  A    between atoms: C10_13  and  O4_14 
ROOT
HETATM    1  C4  UNL     1      50.172 -42.247  -9.860  1.00  0.00     0.110 A 
HETATM    2  C5  UNL     1      50.612 -41.747 -11.046  1.00  0.00     0.040 A 
HETATM    3  C6  UNL     1      51.797 -42.155 -11.589  1.00  0.00     0.004 A 
HETATM    4  C7  UNL     1      52.536 -43.085 -10.906  1.00  0.00     0.021 A 
HETATM    5  C8  UNL     1      52.109 -43.619  -9.679  1.00  0.00     0.076 A 
HETATM    6  C10 UNL     1      50.918 -43.204  -9.142  1.00  0.00     0.116 A 
ENDROOT
BRANCH   1   7
HETATM    7  O1  UNL     1      48.971 -41.846  -9.290  1.00  0.00    -0.301 OA
BRANCH   7   8
HETATM    8  C3  UNL     1      47.815 -42.013 -10.035  1.00  0.00     0.148 C 
HETATM    9  C2  UNL     1      47.081 -40.960 -10.311  1.00  0.00     0.013 C 
HETATM   10  C1  UNL     1      47.396 -39.580  -9.882  1.00  0.00     0.039 C 
BRANCH   8  11
HETATM   11  C11 UNL     1      47.419 -43.330 -10.506  1.00  0.00     0.234 C 
HETATM   12  O5  UNL     1      46.864 -44.144  -9.743  1.00  0.00    -0.642 OA
HETATM   13  O6  UNL     1      47.671 -43.669 -11.826  1.00  0.00    -0.642 OA
ENDBRANCH   8  11
ENDBRANCH   7   8
ENDBRANCH   1   7
BRANCH   6  14
HETATM   14  O4  UNL     1      50.431 -43.672  -7.958  1.00  0.00    -0.357 OA
ATOM     15  H4  UNL     1      50.188 -44.587  -7.888  1.00  0.00     0.217 HD
ENDBRANCH   6  14
BRANCH   5  16
HETATM   16  C9  UNL     1      52.957 -44.606  -9.017  1.00  0.00     0.212 C 
HETATM   17  O2  UNL     1      52.496 -45.609  -8.463  1.00  0.00    -0.644 OA
HETATM   18  O3  UNL     1      54.356 -44.431  -8.993  1.00  0.00    -0.644 OA
ENDBRANCH   5  16
TORSDOF 5
ENDMDL
