MODEL 8
REMARK VINA RESULT: -6.813243557      2.294      3.851
REMARK  5 active torsions:
REMARK  status: ('A' for Active; 'I' for Inactive)
REMARK    1  A    between atoms: C3_3  and  O1_4 
REMARK    2  A    between atoms: C3_3  and  C11_16 
REMARK    3  A    between atoms: O1_4  and  C4_5 
REMARK    4  A    between atoms: C8_9  and  C9_10 
REMARK    5  A    between atoms: C10_13  and  O4_14 
ROOT
HETATM    1  C4  UNL     1      47.834 -46.428   0.172  1.00  0.00     0.110 A 
HETATM    2  C5  UNL     1      48.120 -46.539  -1.153  1.00  0.00     0.040 A 
HETATM    3  C6  UNL     1      49.171 -45.864  -1.708  1.00  0.00     0.004 A 
HETATM    4  C7  UNL     1      49.931 -45.068  -0.893  1.00  0.00     0.021 A 
HETATM    5  C8  UNL     1      49.661 -44.933   0.479  1.00  0.00     0.076 A 
HETATM    6  C10 UNL     1      48.605 -45.614   1.026  1.00  0.00     0.116 A 
ENDROOT
BRANCH   1   7
HETATM    7  O1  UNL     1      46.772 -47.105   0.756  1.00  0.00    -0.301 OA
BRANCH   7   8
HETATM    8  C3  UNL     1      45.530 -47.003   0.151  1.00  0.00     0.148 C 
HETATM    9  C2  UNL     1      44.631 -46.204   0.677  1.00  0.00     0.013 C 
HETATM   10  C1  UNL     1      44.843 -45.385   1.891  1.00  0.00     0.039 C 
BRANCH   8  11
HETATM   11  C11 UNL     1      45.222 -47.767  -1.047  1.00  0.00     0.234 C 
HETATM   12  O5  UNL     1      44.798 -47.206  -2.075  1.00  0.00    -0.642 OA
HETATM   13  O6  UNL     1      45.409 -49.141  -1.028  1.00  0.00    -0.642 OA
ENDBRANCH   8  11
ENDBRANCH   7   8
ENDBRANCH   1   7
BRANCH   6  14
HETATM   14  O4  UNL     1      48.274 -45.539   2.347  1.00  0.00    -0.357 OA
ATOM     15  H4  UNL     1      48.631 -46.180   2.949  1.00  0.00     0.217 HD
ENDBRANCH   6  14
BRANCH   5  16
HETATM   16  C9  UNL     1      50.522 -44.065   1.276  1.00  0.00     0.212 C 
HETATM   17  O2  UNL     1      51.170 -43.139   0.778  1.00  0.00    -0.644 OA
HETATM   18  O3  UNL     1      50.636 -44.270   2.666  1.00  0.00    -0.644 OA
ENDBRANCH   5  16
TORSDOF 5
ENDMDL
