MODEL 4
REMARK VINA RESULT: -10.161078585      1.331      1.861
REMARK  17 active torsions:
REMARK  status: ('A' for Active; 'I' for Inactive)
REMARK    1  A    between atoms: C1_2  and  C2_4 
REMARK    2  A    between atoms: C2_4  and  C3_5 
REMARK    3  A    between atoms: C2_4  and  N2_10 
REMARK    4  A    between atoms: C3_5  and  C4_6 
REMARK    5  A    between atoms: C4_6  and  C5_7 
REMARK       I    between atoms: N2_10  and  C6_12 
REMARK    6  A    between atoms: C6_12  and  C7_14 
REMARK    7  A    between atoms: C7_14  and  C8_15 
REMARK    8  A    between atoms: C7_14  and  N3_20 
REMARK    9  A    between atoms: C8_15  and  C9_16 
REMARK   10  A    between atoms: C9_16  and  C10_17 
REMARK       I    between atoms: N3_20  and  C11_22 
REMARK   11  A    between atoms: C11_22  and  C12_24 
REMARK   12  A    between atoms: C12_24  and  C13_25 
REMARK   13  A    between atoms: C12_24  and  C15_29 
REMARK   14  A    between atoms: C13_25  and  C14_26 
REMARK   15  A    between atoms: C15_29  and  C16_30 
REMARK   16  A    between atoms: C18_32  and  C19_33 
REMARK   17  A    between atoms: C22_36  and  C23_37 
ROOT
HETATM    1  C12 UNL     1       7.988  25.418   3.781  1.00  0.00     0.094 C 
ENDROOT
BRANCH   1   2
HETATM    2  C11 UNL     1       8.500  26.744   4.165  1.00  0.00     0.223 C 
HETATM    3  N3  UNL     1       7.671  27.881   4.379  1.00  0.00    -0.347 N 
ATOM      4  H3  UNL     1       6.662  27.788   4.263  1.00  0.00     0.163 HD
HETATM    5  O7  UNL     1       9.746  26.962   4.336  1.00  0.00    -0.273 OA
BRANCH   3   6
HETATM    6  C7  UNL     1       8.221  29.167   4.756  1.00  0.00     0.177 C 
BRANCH   6   7
HETATM    7  C6  UNL     1       7.878  29.434   6.158  1.00  0.00     0.241 C 
HETATM    8  N2  UNL     1       8.693  30.148   7.054  1.00  0.00    -0.346 N 
ATOM      9  H2  UNL     1       9.590  30.519   6.739  1.00  0.00     0.163 HD
HETATM   10  O4  UNL     1       6.771  28.998   6.623  1.00  0.00    -0.271 OA
BRANCH   8  11
HETATM   11  C2  UNL     1       8.257  30.364   8.451  1.00  0.00     0.174 C 
BRANCH  11  12
HETATM   12  C1  UNL     1       8.525  31.767   8.766  1.00  0.00     0.254 C 
HETATM   13  N1  UNL     1       9.861  32.177   9.018  1.00  0.00    -0.060 NA
HETATM   14  O1  UNL     1       7.619  32.630   8.830  1.00  0.00    -0.275 OA
ENDBRANCH  11  12
BRANCH  11  15
HETATM   15  C3  UNL     1       8.923  29.340   9.315  1.00  0.00     0.045 C 
BRANCH  15  16
HETATM   16  C4  UNL     1       8.113  28.559  10.246  1.00  0.00     0.116 C 
BRANCH  16  17
HETATM   17  C5  UNL     1       8.693  27.802  11.329  1.00  0.00     0.172 C 
HETATM   18  O2  UNL     1       8.663  26.597  11.526  1.00  0.00    -0.648 OA
HETATM   19  O3  UNL     1       9.403  28.554  12.311  1.00  0.00    -0.648 OA
ENDBRANCH  16  17
ENDBRANCH  15  16
ENDBRANCH  11  15
ENDBRANCH   8  11
ENDBRANCH   6   7
BRANCH   6  20
HETATM   20  C8  UNL     1       7.827  30.184   3.758  1.00  0.00     0.045 C 
BRANCH  20  21
HETATM   21  C9  UNL     1       8.655  30.341   2.543  1.00  0.00     0.116 C 
BRANCH  21  22
HETATM   22  C10 UNL     1      10.094  30.176   2.668  1.00  0.00     0.172 C 
HETATM   23  O5  UNL     1      10.822  30.970   3.293  1.00  0.00    -0.648 OA
HETATM   24  O6  UNL     1      10.705  29.073   2.062  1.00  0.00    -0.648 OA
ENDBRANCH  21  22
ENDBRANCH  20  21
ENDBRANCH   6  20
ENDBRANCH   3   6
ENDBRANCH   1   2
BRANCH   1  25
HETATM   25  C13 UNL     1       8.591  24.866   2.509  1.00  0.00     0.127 C 
BRANCH  25  26
HETATM   26  C14 UNL     1       8.266  25.641   1.301  1.00  0.00     0.173 C 
HETATM   27  O8  UNL     1       9.189  26.337   0.788  1.00  0.00    -0.648 OA
HETATM   28  O9  UNL     1       7.034  25.653   0.704  1.00  0.00    -0.648 OA
ENDBRANCH  25  26
ENDBRANCH   1  25
BRANCH   1  29
HETATM   29  C15 UNL     1       8.255  24.425   4.859  1.00  0.00     0.081 C 
BRANCH  29  30
HETATM   30  C16 UNL     1       7.076  23.594   5.207  1.00  0.00     0.079 A 
HETATM   31  C17 UNL     1       5.773  24.082   5.437  1.00  0.00     0.067 A 
HETATM   32  C18 UNL     1       4.950  23.023   5.734  1.00  0.00     0.067 A 
HETATM   33  N4  UNL     1       5.749  21.947   5.679  1.00  0.00    -0.260 N 
HETATM   34  O10 UNL     1       6.957  22.300   5.375  1.00  0.00    -0.242 OA
ATOM     35  H4  UNL     1       5.448  20.988   5.851  1.00  0.00     0.195 HD
BRANCH  32  36
HETATM   36  C19 UNL     1       3.531  23.076   6.036  1.00  0.00    -0.007 A 
HETATM   37  C20 UNL     1       2.609  23.807   5.328  1.00  0.00     0.014 A 
HETATM   38  C21 UNL     1       1.257  23.822   5.661  1.00  0.00     0.013 A 
HETATM   39  C22 UNL     1       0.799  23.096   6.721  1.00  0.00    -0.026 A 
HETATM   40  C29 UNL     1       1.706  22.345   7.460  1.00  0.00     0.013 A 
HETATM   41  C30 UNL     1       3.042  22.338   7.121  1.00  0.00     0.014 A 
BRANCH  39  42
HETATM   42  C23 UNL     1      -0.595  23.067   7.120  1.00  0.00    -0.024 A 
HETATM   43  C24 UNL     1      -1.268  24.248   7.395  1.00  0.00     0.012 A 
HETATM   44  C25 UNL     1      -2.595  24.234   7.777  1.00  0.00     0.003 A 
HETATM   45  C26 UNL     1      -3.307  23.046   7.901  1.00  0.00     0.024 A 
HETATM   46  C27 UNL     1      -2.642  21.882   7.629  1.00  0.00     0.034 A 
HETATM   47 CL1  UNL     1      -3.494  20.363   7.771  1.00  0.00    -0.084 Cl
HETATM   48  C28 UNL     1      -1.315  21.900   7.247  1.00  0.00     0.036 A 
ENDBRANCH  39  42
ENDBRANCH  32  36
ENDBRANCH  29  30
ENDBRANCH   1  29
TORSDOF 17
ENDMDL
