MODEL 3
REMARK VINA RESULT: -10.233498114      3.947      8.159
REMARK  17 active torsions:
REMARK  status: ('A' for Active; 'I' for Inactive)
REMARK    1  A    between atoms: C1_2  and  C2_4 
REMARK    2  A    between atoms: C2_4  and  C3_5 
REMARK    3  A    between atoms: C2_4  and  N2_10 
REMARK    4  A    between atoms: C3_5  and  C4_6 
REMARK    5  A    between atoms: C4_6  and  C5_7 
REMARK       I    between atoms: N2_10  and  C6_12 
REMARK    6  A    between atoms: C6_12  and  C7_14 
REMARK    7  A    between atoms: C7_14  and  C8_15 
REMARK    8  A    between atoms: C7_14  and  N3_20 
REMARK    9  A    between atoms: C8_15  and  C9_16 
REMARK   10  A    between atoms: C9_16  and  C10_17 
REMARK       I    between atoms: N3_20  and  C11_22 
REMARK   11  A    between atoms: C11_22  and  C12_24 
REMARK   12  A    between atoms: C12_24  and  C13_25 
REMARK   13  A    between atoms: C12_24  and  C15_29 
REMARK   14  A    between atoms: C13_25  and  C14_26 
REMARK   15  A    between atoms: C15_29  and  C16_30 
REMARK   16  A    between atoms: C18_32  and  C19_33 
REMARK   17  A    between atoms: C22_36  and  C23_37 
ROOT
HETATM    1  C12 UNL     1       9.747  26.854   2.549  1.00  0.00     0.094 C 
ENDROOT
BRANCH   1   2
HETATM    2  C11 UNL     1      10.534  27.387   1.425  1.00  0.00     0.223 C 
HETATM    3  N3  UNL     1      11.155  26.573   0.436  1.00  0.00    -0.347 N 
ATOM      4  H3  UNL     1      11.057  25.559   0.495  1.00  0.00     0.163 HD
HETATM    5  O7  UNL     1      10.714  28.640   1.263  1.00  0.00    -0.273 OA
BRANCH   3   6
HETATM    6  C7  UNL     1      11.921  27.144  -0.652  1.00  0.00     0.177 C 
BRANCH   6   7
HETATM    7  C6  UNL     1      11.358  26.673  -1.924  1.00  0.00     0.241 C 
HETATM    8  N2  UNL     1      10.981  25.344  -2.183  1.00  0.00    -0.346 N 
ATOM      9  H2  UNL     1      11.094  24.633  -1.459  1.00  0.00     0.163 HD
HETATM   10  O4  UNL     1      11.189  27.506  -2.877  1.00  0.00    -0.271 OA
BRANCH   8  11
HETATM   11  C2  UNL     1      10.421  24.969  -3.501  1.00  0.00     0.174 C 
BRANCH  11  12
HETATM   12  C1  UNL     1       8.970  24.882  -3.335  1.00  0.00     0.254 C 
HETATM   13  N1  UNL     1       8.143  24.847  -4.489  1.00  0.00    -0.060 NA
HETATM   14  O1  UNL     1       8.420  24.844  -2.211  1.00  0.00    -0.275 OA
ENDBRANCH  11  12
BRANCH  11  15
HETATM   15  C3  UNL     1      11.121  23.735  -3.974  1.00  0.00     0.045 C 
BRANCH  15  16
HETATM   16  C4  UNL     1      12.294  23.868  -4.834  1.00  0.00     0.116 C 
BRANCH  16  17
HETATM   17  C5  UNL     1      13.187  24.999  -4.755  1.00  0.00     0.172 C 
HETATM   18  O2  UNL     1      13.141  26.058  -5.361  1.00  0.00    -0.648 OA
HETATM   19  O3  UNL     1      14.279  24.873  -3.847  1.00  0.00    -0.648 OA
ENDBRANCH  16  17
ENDBRANCH  15  16
ENDBRANCH  11  15
ENDBRANCH   8  11
ENDBRANCH   6   7
BRANCH   6  20
HETATM   20  C8  UNL     1      13.361  26.905  -0.421  1.00  0.00     0.045 C 
BRANCH  20  21
HETATM   21  C9  UNL     1      14.329  27.381  -1.433  1.00  0.00     0.116 C 
BRANCH  21  22
HETATM   22  C10 UNL     1      15.733  27.442  -1.060  1.00  0.00     0.172 C 
HETATM   23  O5  UNL     1      16.542  28.243  -1.567  1.00  0.00    -0.648 OA
HETATM   24  O6  UNL     1      16.215  26.563  -0.083  1.00  0.00    -0.648 OA
ENDBRANCH  21  22
ENDBRANCH  20  21
ENDBRANCH   6  20
ENDBRANCH   3   6
ENDBRANCH   1   2
BRANCH   1  25
HETATM   25  C13 UNL     1       8.674  27.791   3.055  1.00  0.00     0.127 C 
BRANCH  25  26
HETATM   26  C14 UNL     1       8.950  28.365   4.381  1.00  0.00     0.173 C 
HETATM   27  O8  UNL     1       9.794  27.770   5.111  1.00  0.00    -0.648 OA
HETATM   28  O9  UNL     1       8.353  29.497   4.867  1.00  0.00    -0.648 OA
ENDBRANCH  25  26
ENDBRANCH   1  25
BRANCH   1  29
HETATM   29  C15 UNL     1       9.072  25.585   2.155  1.00  0.00     0.081 C 
BRANCH  29  30
HETATM   30  C16 UNL     1       8.459  24.859   3.295  1.00  0.00     0.079 A 
HETATM   31  C17 UNL     1       7.075  24.682   3.500  1.00  0.00     0.067 A 
HETATM   32  C18 UNL     1       6.888  23.963   4.655  1.00  0.00     0.067 A 
HETATM   33  N4  UNL     1       8.127  23.726   5.112  1.00  0.00    -0.260 N 
HETATM   34  O10 UNL     1       9.006  24.247   4.316  1.00  0.00    -0.242 OA
ATOM     35  H4  UNL     1       8.346  23.209   5.963  1.00  0.00     0.195 HD
BRANCH  32  36
HETATM   36  C19 UNL     1       5.621  23.557   5.238  1.00  0.00    -0.007 A 
HETATM   37  C20 UNL     1       5.484  22.623   6.235  1.00  0.00     0.014 A 
HETATM   38  C21 UNL     1       4.243  22.270   6.759  1.00  0.00     0.013 A 
HETATM   39  C22 UNL     1       3.104  22.855   6.288  1.00  0.00    -0.026 A 
HETATM   40  C29 UNL     1       3.207  23.805   5.279  1.00  0.00     0.013 A 
HETATM   41  C30 UNL     1       4.441  24.145   4.767  1.00  0.00     0.014 A 
BRANCH  39  42
HETATM   42  C23 UNL     1       1.782  22.535   6.791  1.00  0.00    -0.024 A 
HETATM   43  C24 UNL     1       1.588  21.413   7.583  1.00  0.00     0.012 A 
HETATM   44  C25 UNL     1       0.335  21.096   8.067  1.00  0.00     0.003 A 
HETATM   45  C26 UNL     1      -0.777  21.881   7.785  1.00  0.00     0.024 A 
HETATM   46  C27 UNL     1      -0.584  22.988   7.004  1.00  0.00     0.034 A 
HETATM   47 CL1  UNL     1      -1.952  24.006   6.621  1.00  0.00    -0.084 Cl
HETATM   48  C28 UNL     1       0.671  23.302   6.522  1.00  0.00     0.036 A 
ENDBRANCH  39  42
ENDBRANCH  32  36
ENDBRANCH  29  30
ENDBRANCH   1  29
TORSDOF 17
ENDMDL
