MODEL 8
REMARK VINA RESULT: -9.977146522      1.028      1.297
REMARK  17 active torsions:
REMARK  status: ('A' for Active; 'I' for Inactive)
REMARK    1  A    between atoms: C1_2  and  C2_4 
REMARK    2  A    between atoms: C2_4  and  C3_5 
REMARK    3  A    between atoms: C2_4  and  N2_10 
REMARK    4  A    between atoms: C3_5  and  C4_6 
REMARK    5  A    between atoms: C4_6  and  C5_7 
REMARK       I    between atoms: N2_10  and  C6_12 
REMARK    6  A    between atoms: C6_12  and  C7_14 
REMARK    7  A    between atoms: C7_14  and  C8_15 
REMARK    8  A    between atoms: C7_14  and  N3_20 
REMARK    9  A    between atoms: C8_15  and  C9_16 
REMARK   10  A    between atoms: C9_16  and  C10_17 
REMARK       I    between atoms: N3_20  and  C11_22 
REMARK   11  A    between atoms: C11_22  and  C12_24 
REMARK   12  A    between atoms: C12_24  and  C13_25 
REMARK   13  A    between atoms: C12_24  and  C15_29 
REMARK   14  A    between atoms: C13_25  and  C14_26 
REMARK   15  A    between atoms: C15_29  and  C16_30 
REMARK   16  A    between atoms: C18_32  and  C19_33 
REMARK   17  A    between atoms: C22_36  and  C23_37 
ROOT
HETATM    1  C12 UNL     1       8.723  25.743   2.658  1.00  0.00     0.094 C 
ENDROOT
BRANCH   1   2
HETATM    2  C11 UNL     1       9.041  27.008   3.341  1.00  0.00     0.223 C 
HETATM    3  N3  UNL     1       8.085  28.031   3.597  1.00  0.00    -0.347 N 
ATOM      4  H3  UNL     1       7.120  27.895   3.296  1.00  0.00     0.163 HD
HETATM    5  O7  UNL     1      10.218  27.273   3.756  1.00  0.00    -0.273 OA
BRANCH   3   6
HETATM    6  C7  UNL     1       8.445  29.261   4.272  1.00  0.00     0.177 C 
BRANCH   6   7
HETATM    7  C6  UNL     1       7.907  29.225   5.638  1.00  0.00     0.241 C 
HETATM    8  N2  UNL     1       8.256  30.131   6.654  1.00  0.00    -0.346 N 
ATOM      9  H2  UNL     1       8.926  30.877   6.462  1.00  0.00     0.163 HD
HETATM   10  O4  UNL     1       7.065  28.318   5.951  1.00  0.00    -0.271 OA
BRANCH   8  11
HETATM   11  C2  UNL     1       7.656  30.010   8.001  1.00  0.00     0.174 C 
BRANCH  11  12
HETATM   12  C1  UNL     1       7.095  31.319   8.334  1.00  0.00     0.254 C 
HETATM   13  N1  UNL     1       6.180  31.425   9.415  1.00  0.00    -0.060 NA
HETATM   14  O1  UNL     1       7.384  32.359   7.699  1.00  0.00    -0.275 OA
ENDBRANCH  11  12
BRANCH  11  15
HETATM   15  C3  UNL     1       8.695  29.465   8.930  1.00  0.00     0.045 C 
BRANCH  15  16
HETATM   16  C4  UNL     1       9.843  30.297   9.280  1.00  0.00     0.116 C 
BRANCH  16  17
HETATM   17  C5  UNL     1      10.199  30.588  10.648  1.00  0.00     0.172 C 
HETATM   18  O2  UNL     1      10.134  29.864  11.630  1.00  0.00    -0.648 OA
HETATM   19  O3  UNL     1      10.699  31.899  10.901  1.00  0.00    -0.648 OA
ENDBRANCH  16  17
ENDBRANCH  15  16
ENDBRANCH  11  15
ENDBRANCH   8  11
ENDBRANCH   6   7
BRANCH   6  20
HETATM   20  C8  UNL     1       8.071  30.416   3.429  1.00  0.00     0.045 C 
BRANCH  20  21
HETATM   21  C9  UNL     1       9.148  31.241   2.840  1.00  0.00     0.116 C 
BRANCH  21  22
HETATM   22  C10 UNL     1      10.174  31.762   3.730  1.00  0.00     0.172 C 
HETATM   23  O5  UNL     1      11.389  31.746   3.458  1.00  0.00    -0.648 OA
HETATM   24  O6  UNL     1       9.790  32.313   4.958  1.00  0.00    -0.648 OA
ENDBRANCH  21  22
ENDBRANCH  20  21
ENDBRANCH   6  20
ENDBRANCH   3   6
ENDBRANCH   1   2
BRANCH   1  25
HETATM   25  C13 UNL     1       9.279  25.639   1.256  1.00  0.00     0.127 C 
BRANCH  25  26
HETATM   26  C14 UNL     1       8.255  25.480   0.211  1.00  0.00     0.173 C 
HETATM   27  O8  UNL     1       7.063  25.776   0.512  1.00  0.00    -0.648 OA
HETATM   28  O9  UNL     1       8.514  25.035  -1.058  1.00  0.00    -0.648 OA
ENDBRANCH  25  26
ENDBRANCH   1  25
BRANCH   1  29
HETATM   29  C15 UNL     1       9.260  24.587   3.429  1.00  0.00     0.081 C 
BRANCH  29  30
HETATM   30  C16 UNL     1       8.342  24.103   4.491  1.00  0.00     0.079 A 
HETATM   31  C17 UNL     1       6.941  24.003   4.375  1.00  0.00     0.067 A 
HETATM   32  C18 UNL     1       6.432  23.519   5.556  1.00  0.00     0.067 A 
HETATM   33  N4  UNL     1       7.506  23.343   6.340  1.00  0.00    -0.260 N 
HETATM   34  O10 UNL     1       8.584  23.683   5.709  1.00  0.00    -0.242 OA
ATOM     35  H4  UNL     1       7.478  22.991   7.297  1.00  0.00     0.195 HD
BRANCH  32  36
HETATM   36  C19 UNL     1       5.037  23.261   5.867  1.00  0.00    -0.007 A 
HETATM   37  C20 UNL     1       3.973  23.847   5.226  1.00  0.00     0.014 A 
HETATM   38  C21 UNL     1       2.653  23.563   5.564  1.00  0.00     0.013 A 
HETATM   39  C22 UNL     1       2.371  22.676   6.562  1.00  0.00    -0.026 A 
HETATM   40  C29 UNL     1       3.425  22.066   7.231  1.00  0.00     0.013 A 
HETATM   41  C30 UNL     1       4.728  22.355   6.888  1.00  0.00     0.014 A 
BRANCH  39  42
HETATM   42  C23 UNL     1       1.020  22.335   6.962  1.00  0.00    -0.024 A 
HETATM   43  C24 UNL     1       0.768  21.143   7.625  1.00  0.00     0.012 A 
HETATM   44  C25 UNL     1      -0.514  20.805   8.010  1.00  0.00     0.003 A 
HETATM   45  C26 UNL     1      -1.598  21.638   7.754  1.00  0.00     0.024 A 
HETATM   46  C27 UNL     1      -1.347  22.814   7.101  1.00  0.00     0.034 A 
HETATM   47 CL1  UNL     1      -2.676  23.893   6.756  1.00  0.00    -0.084 Cl
HETATM   48  C28 UNL     1      -0.063  23.148   6.717  1.00  0.00     0.036 A 
ENDBRANCH  39  42
ENDBRANCH  32  36
ENDBRANCH  29  30
ENDBRANCH   1  29
TORSDOF 17
ENDMDL
