MODEL 9
REMARK VINA RESULT: -9.925967540      4.327      8.062
REMARK  17 active torsions:
REMARK  status: ('A' for Active; 'I' for Inactive)
REMARK    1  A    between atoms: C1_2  and  C2_4 
REMARK    2  A    between atoms: C2_4  and  C3_5 
REMARK    3  A    between atoms: C2_4  and  N2_10 
REMARK    4  A    between atoms: C3_5  and  C4_6 
REMARK    5  A    between atoms: C4_6  and  C5_7 
REMARK       I    between atoms: N2_10  and  C6_12 
REMARK    6  A    between atoms: C6_12  and  C7_14 
REMARK    7  A    between atoms: C7_14  and  C8_15 
REMARK    8  A    between atoms: C7_14  and  N3_20 
REMARK    9  A    between atoms: C8_15  and  C9_16 
REMARK   10  A    between atoms: C9_16  and  C10_17 
REMARK       I    between atoms: N3_20  and  C11_22 
REMARK   11  A    between atoms: C11_22  and  C12_24 
REMARK   12  A    between atoms: C12_24  and  C13_25 
REMARK   13  A    between atoms: C12_24  and  C15_29 
REMARK   14  A    between atoms: C13_25  and  C14_26 
REMARK   15  A    between atoms: C15_29  and  C16_30 
REMARK   16  A    between atoms: C18_32  and  C19_33 
REMARK   17  A    between atoms: C22_36  and  C23_37 
ROOT
HETATM    1  C12 UNL     1       8.962  25.999   1.534  1.00  0.00     0.094 C 
ENDROOT
BRANCH   1   2
HETATM    2  C11 UNL     1       9.868  26.895   0.796  1.00  0.00     0.223 C 
HETATM    3  N3  UNL     1      10.846  26.440  -0.134  1.00  0.00    -0.347 N 
ATOM      4  H3  UNL     1      10.936  25.440  -0.310  1.00  0.00     0.163 HD
HETATM    5  O7  UNL     1       9.833  28.162   0.945  1.00  0.00    -0.273 OA
BRANCH   3   6
HETATM    6  C7  UNL     1      11.717  27.360  -0.837  1.00  0.00     0.177 C 
BRANCH   6   7
HETATM    7  C6  UNL     1      11.351  27.363  -2.258  1.00  0.00     0.241 C 
HETATM    8  N2  UNL     1      10.878  26.240  -2.960  1.00  0.00    -0.346 N 
ATOM      9  H2  UNL     1      10.770  25.348  -2.477  1.00  0.00     0.163 HD
HETATM   10  O4  UNL     1      11.463  28.445  -2.928  1.00  0.00    -0.271 OA
BRANCH   8  11
HETATM   11  C2  UNL     1      10.536  26.346  -4.396  1.00  0.00     0.174 C 
BRANCH  11  12
HETATM   12  C1  UNL     1       9.077  26.401  -4.481  1.00  0.00     0.254 C 
HETATM   13  N1  UNL     1       8.420  27.648  -4.308  1.00  0.00    -0.060 NA
HETATM   14  O1  UNL     1       8.374  25.387  -4.694  1.00  0.00    -0.275 OA
ENDBRANCH  11  12
BRANCH  11  15
HETATM   15  C3  UNL     1      11.213  25.228  -5.123  1.00  0.00     0.045 C 
BRANCH  15  16
HETATM   16  C4  UNL     1      12.077  24.315  -4.379  1.00  0.00     0.116 C 
BRANCH  16  17
HETATM   17  C5  UNL     1      13.515  24.431  -4.390  1.00  0.00     0.172 C 
HETATM   18  O2  UNL     1      14.344  23.678  -4.878  1.00  0.00    -0.648 OA
HETATM   19  O3  UNL     1      14.057  25.581  -3.742  1.00  0.00    -0.648 OA
ENDBRANCH  16  17
ENDBRANCH  15  16
ENDBRANCH  11  15
ENDBRANCH   8  11
ENDBRANCH   6   7
BRANCH   6  20
HETATM   20  C8  UNL     1      13.125  27.061  -0.501  1.00  0.00     0.045 C 
BRANCH  20  21
HETATM   21  C9  UNL     1      14.193  27.813  -1.195  1.00  0.00     0.116 C 
BRANCH  21  22
HETATM   22  C10 UNL     1      15.567  27.369  -1.018  1.00  0.00     0.172 C 
HETATM   23  O5  UNL     1      15.875  26.305  -0.449  1.00  0.00    -0.648 OA
HETATM   24  O6  UNL     1      16.606  28.169  -1.507  1.00  0.00    -0.648 OA
ENDBRANCH  21  22
ENDBRANCH  20  21
ENDBRANCH   6  20
ENDBRANCH   3   6
ENDBRANCH   1   2
BRANCH   1  25
HETATM   25  C13 UNL     1       8.959  24.572   1.035  1.00  0.00     0.127 C 
BRANCH  25  26
HETATM   26  C14 UNL     1       9.208  24.436  -0.409  1.00  0.00     0.173 C 
HETATM   27  O8  UNL     1      10.198  23.735  -0.767  1.00  0.00    -0.648 OA
HETATM   28  O9  UNL     1       8.437  25.018  -1.379  1.00  0.00    -0.648 OA
ENDBRANCH  25  26
ENDBRANCH   1  25
BRANCH   1  29
HETATM   29  C15 UNL     1       9.332  25.959   2.976  1.00  0.00     0.081 C 
BRANCH  29  30
HETATM   30  C16 UNL     1       8.549  24.976   3.764  1.00  0.00     0.079 A 
HETATM   31  C17 UNL     1       7.157  25.031   3.986  1.00  0.00     0.067 A 
HETATM   32  C18 UNL     1       6.790  23.956   4.759  1.00  0.00     0.067 A 
HETATM   33  N4  UNL     1       7.934  23.292   4.982  1.00  0.00    -0.260 N 
HETATM   34  O10 UNL     1       8.923  23.895   4.403  1.00  0.00    -0.242 OA
ATOM     35  H4  UNL     1       8.013  22.435   5.530  1.00  0.00     0.195 HD
BRANCH  32  36
HETATM   36  C19 UNL     1       5.453  23.627   5.220  1.00  0.00    -0.007 A 
HETATM   37  C20 UNL     1       4.299  24.193   4.736  1.00  0.00     0.014 A 
HETATM   38  C21 UNL     1       3.040  23.840   5.214  1.00  0.00     0.013 A 
HETATM   39  C22 UNL     1       2.912  22.902   6.197  1.00  0.00    -0.026 A 
HETATM   40  C29 UNL     1       4.061  22.309   6.709  1.00  0.00     0.013 A 
HETATM   41  C30 UNL     1       5.302  22.667   6.228  1.00  0.00     0.014 A 
BRANCH  39  42
HETATM   42  C23 UNL     1       1.632  22.488   6.738  1.00  0.00    -0.024 A 
HETATM   43  C24 UNL     1       1.549  21.374   7.561  1.00  0.00     0.012 A 
HETATM   44  C25 UNL     1       0.337  20.968   8.081  1.00  0.00     0.003 A 
HETATM   45  C26 UNL     1      -0.843  21.652   7.807  1.00  0.00     0.024 A 
HETATM   46  C27 UNL     1      -0.758  22.751   6.995  1.00  0.00     0.034 A 
HETATM   47 CL1  UNL     1      -2.213  23.643   6.620  1.00  0.00    -0.084 Cl
HETATM   48  C28 UNL     1       0.457  23.154   6.477  1.00  0.00     0.036 A 
ENDBRANCH  39  42
ENDBRANCH  32  36
ENDBRANCH  29  30
ENDBRANCH   1  29
TORSDOF 17
ENDMDL
