MODEL 2
REMARK VINA RESULT: -8.345044402      1.131      2.959
REMARK  6 active torsions:
REMARK  status: ('A' for Active; 'I' for Inactive)
REMARK    1  A    between atoms: C2_2  and  C3_3 
REMARK    2  A    between atoms: C3_3  and  C4_4 
REMARK    3  A    between atoms: C4_4  and  S1_5 
REMARK    4  A    between atoms: S1_5  and  N1_8 
REMARK    5  A    between atoms: N1_8  and  C5_10 
REMARK    6  A    between atoms: N2_22  and  C16_23 
ROOT
HETATM    1  C5  UNL     1      -7.253  18.650  -0.418  1.00  0.00     0.053 A 
HETATM    2  C6  UNL     1      -7.386  17.957  -1.601  1.00  0.00     0.033 A 
HETATM    3  C7  UNL     1      -7.063  18.530  -2.841  1.00  0.00     0.033 A 
HETATM    4  C8  UNL     1      -6.598  19.823  -2.897  1.00  0.00     0.049 A 
HETATM    5  C9  UNL     1      -6.478  20.484  -1.702  1.00  0.00     0.019 A 
HETATM    6  C10 UNL     1      -6.014  21.750  -1.863  1.00  0.00     0.045 A 
HETATM    7  C11 UNL     1      -5.853  22.516  -0.720  1.00  0.00     0.018 A 
HETATM    8  C12 UNL     1      -6.150  22.017   0.536  1.00  0.00     0.002 A 
HETATM    9  C13 UNL     1      -6.621  20.729   0.682  1.00  0.00     0.014 A 
HETATM   10  C14 UNL     1      -6.788  19.946  -0.466  1.00  0.00     0.005 A 
HETATM   11  C15 UNL     1      -5.818  21.917  -3.298  1.00  0.00     0.259 A 
HETATM   12  O3  UNL     1      -5.399  22.949  -3.845  1.00  0.00    -0.267 OA
HETATM   13  N2  UNL     1      -6.186  20.697  -3.969  1.00  0.00    -0.313 N 
ENDROOT
BRANCH   1  14
HETATM   14  N1  UNL     1      -7.587  18.016   0.802  1.00  0.00    -0.284 N 
ATOM     15  H1  UNL     1      -6.842  17.784   1.458  1.00  0.00     0.178 HD
BRANCH  14  16
HETATM   16  S1  UNL     1      -9.212  17.623   1.217  1.00  0.00     0.231 S 
HETATM   17  O1  UNL     1      -9.443  18.047   2.634  1.00  0.00    -0.206 OA
HETATM   18  O2  UNL     1     -10.131  18.384   0.286  1.00  0.00    -0.206 OA
BRANCH  16  19
HETATM   19  C4  UNL     1      -9.556  15.894   1.042  1.00  0.00     0.163 C 
BRANCH  19  20
HETATM   20  C3  UNL     1      -8.254  15.125   0.867  1.00  0.00     0.016 C 
BRANCH  20  21
HETATM   21  C2  UNL     1      -8.246  14.511  -0.518  1.00  0.00    -0.004 C 
HETATM   22  C1  UNL     1      -9.653  14.560  -1.081  1.00  0.00     0.005 C 
ENDBRANCH  20  21
ENDBRANCH  19  20
ENDBRANCH  16  19
ENDBRANCH  14  16
ENDBRANCH   1  14
BRANCH  13  23
HETATM   23  C16 UNL     1      -6.164  20.380  -5.370  1.00  0.00     0.128 C 
HETATM   24  C17 UNL     1      -4.970  19.525  -5.747  1.00  0.00     0.027 C 
ENDBRANCH  13  23
TORSDOF 6
ENDMDL
