MODEL 3
REMARK VINA RESULT: -8.175456876      1.587      3.327
REMARK  6 active torsions:
REMARK  status: ('A' for Active; 'I' for Inactive)
REMARK    1  A    between atoms: C2_2  and  C3_3 
REMARK    2  A    between atoms: C3_3  and  C4_4 
REMARK    3  A    between atoms: C4_4  and  S1_5 
REMARK    4  A    between atoms: S1_5  and  N1_8 
REMARK    5  A    between atoms: N1_8  and  C5_10 
REMARK    6  A    between atoms: N2_22  and  C16_23 
ROOT
HETATM    1  C5  UNL     1      -7.827  19.548  -0.734  1.00  0.00     0.053 A 
HETATM    2  C6  UNL     1      -7.914  18.501  -1.625  1.00  0.00     0.033 A 
HETATM    3  C7  UNL     1      -7.185  18.480  -2.824  1.00  0.00     0.033 A 
HETATM    4  C8  UNL     1      -6.353  19.529  -3.137  1.00  0.00     0.049 A 
HETATM    5  C9  UNL     1      -6.289  20.555  -2.229  1.00  0.00     0.019 A 
HETATM    6  C10 UNL     1      -5.445  21.539  -2.629  1.00  0.00     0.045 A 
HETATM    7  C11 UNL     1      -5.301  22.631  -1.788  1.00  0.00     0.018 A 
HETATM    8  C12 UNL     1      -5.987  22.720  -0.591  1.00  0.00     0.002 A 
HETATM    9  C13 UNL     1      -6.842  21.711  -0.199  1.00  0.00     0.014 A 
HETATM   10  C14 UNL     1      -6.995  20.602  -1.041  1.00  0.00     0.005 A 
HETATM   11  C15 UNL     1      -4.915  21.104  -3.916  1.00  0.00     0.259 A 
HETATM   12  O3  UNL     1      -4.102  21.741  -4.604  1.00  0.00    -0.267 OA
HETATM   13  N2  UNL     1      -5.485  19.825  -4.252  1.00  0.00    -0.313 N 
ENDROOT
BRANCH   1  14
HETATM   14  N1  UNL     1      -8.581  19.509   0.463  1.00  0.00    -0.284 N 
ATOM     15  H1  UNL     1      -8.986  20.374   0.818  1.00  0.00     0.178 HD
BRANCH  14  16
HETATM   16  S1  UNL     1      -8.837  18.048   1.340  1.00  0.00     0.231 S 
HETATM   17  O1  UNL     1      -7.585  17.232   1.253  1.00  0.00    -0.206 OA
HETATM   18  O2  UNL     1      -9.127  18.411   2.781  1.00  0.00    -0.206 OA
BRANCH  16  19
HETATM   19  C4  UNL     1     -10.208  17.117   0.718  1.00  0.00     0.163 C 
BRANCH  19  20
HETATM   20  C3  UNL     1      -9.848  15.638   0.672  1.00  0.00     0.016 C 
BRANCH  20  21
HETATM   21  C2  UNL     1      -9.704  15.229  -0.781  1.00  0.00    -0.004 C 
HETATM   22  C1  UNL     1      -8.291  14.730  -1.008  1.00  0.00     0.005 C 
ENDBRANCH  20  21
ENDBRANCH  19  20
ENDBRANCH  16  19
ENDBRANCH  14  16
ENDBRANCH   1  14
BRANCH  13  23
HETATM   23  C16 UNL     1      -5.270  19.003  -5.409  1.00  0.00     0.128 C 
HETATM   24  C17 UNL     1      -5.762  19.662  -6.683  1.00  0.00     0.027 C 
ENDBRANCH  13  23
TORSDOF 6
ENDMDL
