MODEL 1
REMARK VINA RESULT: -8.372632172      0.000      0.000
REMARK  6 active torsions:
REMARK  status: ('A' for Active; 'I' for Inactive)
REMARK    1  A    between atoms: C2_2  and  C3_3 
REMARK    2  A    between atoms: C3_3  and  C4_4 
REMARK    3  A    between atoms: C4_4  and  S1_5 
REMARK    4  A    between atoms: S1_5  and  N1_8 
REMARK    5  A    between atoms: N1_8  and  C5_10 
REMARK    6  A    between atoms: N2_22  and  C16_23 
ROOT
HETATM    1  C5  UNL     1      -6.990  19.335   0.255  1.00  0.00     0.053 A 
HETATM    2  C6  UNL     1      -6.787  20.419   1.080  1.00  0.00     0.033 A 
HETATM    3  C7  UNL     1      -6.373  21.664   0.586  1.00  0.00     0.033 A 
HETATM    4  C8  UNL     1      -6.156  21.828  -0.763  1.00  0.00     0.049 A 
HETATM    5  C9  UNL     1      -6.366  20.729  -1.556  1.00  0.00     0.019 A 
HETATM    6  C10 UNL     1      -6.124  20.991  -2.866  1.00  0.00     0.045 A 
HETATM    7  C11 UNL     1      -6.303  19.951  -3.763  1.00  0.00     0.018 A 
HETATM    8  C12 UNL     1      -6.710  18.697  -3.348  1.00  0.00     0.002 A 
HETATM    9  C13 UNL     1      -6.951  18.447  -2.013  1.00  0.00     0.014 A 
HETATM   10  C14 UNL     1      -6.774  19.491  -1.097  1.00  0.00     0.005 A 
HETATM   11  C15 UNL     1      -5.721  22.392  -2.918  1.00  0.00     0.259 A 
HETATM   12  O3  UNL     1      -5.415  23.007  -3.952  1.00  0.00    -0.267 OA
HETATM   13  N2  UNL     1      -5.736  22.937  -1.586  1.00  0.00    -0.313 N 
ENDROOT
BRANCH   1  14
HETATM   14  N1  UNL     1      -7.416  18.105   0.811  1.00  0.00    -0.284 N 
ATOM     15  H1  UNL     1      -6.724  17.378   0.988  1.00  0.00     0.178 HD
BRANCH  14  16
HETATM   16  S1  UNL     1      -9.065  17.795   1.200  1.00  0.00     0.231 S 
HETATM   17  O1  UNL     1      -9.318  18.307   2.584  1.00  0.00    -0.206 OA
HETATM   18  O2  UNL     1      -9.929  18.535   0.202  1.00  0.00    -0.206 OA
BRANCH  16  19
HETATM   19  C4  UNL     1      -9.470  16.073   1.111  1.00  0.00     0.163 C 
BRANCH  19  20
HETATM   20  C3  UNL     1      -8.221  15.267   0.780  1.00  0.00     0.016 C 
BRANCH  20  21
HETATM   21  C2  UNL     1      -8.299  14.843  -0.673  1.00  0.00    -0.004 C 
HETATM   22  C1  UNL     1      -9.746  14.551  -1.018  1.00  0.00     0.005 C 
ENDBRANCH  20  21
ENDBRANCH  19  20
ENDBRANCH  16  19
ENDBRANCH  14  16
ENDBRANCH   1  14
BRANCH  13  23
HETATM   23  C16 UNL     1      -5.419  24.263  -1.135  1.00  0.00     0.128 C 
HETATM   24  C17 UNL     1      -6.492  25.269  -1.505  1.00  0.00     0.027 C 
ENDBRANCH  13  23
TORSDOF 6
ENDMDL
