MODEL 11
REMARK VINA RESULT: -7.564646297      2.829      6.951
REMARK  6 active torsions:
REMARK  status: ('A' for Active; 'I' for Inactive)
REMARK    1  A    between atoms: C2_2  and  C3_3 
REMARK    2  A    between atoms: C3_3  and  C4_4 
REMARK    3  A    between atoms: C4_4  and  S1_5 
REMARK    4  A    between atoms: S1_5  and  N1_8 
REMARK    5  A    between atoms: N1_8  and  C5_10 
REMARK    6  A    between atoms: N2_22  and  C16_23 
ROOT
HETATM    1  C5  UNL     1      -5.828  19.996  -3.424  1.00  0.00     0.053 A 
HETATM    2  C6  UNL     1      -6.471  18.793  -3.612  1.00  0.00     0.033 A 
HETATM    3  C7  UNL     1      -7.328  18.246  -2.645  1.00  0.00     0.033 A 
HETATM    4  C8  UNL     1      -7.544  18.917  -1.465  1.00  0.00     0.049 A 
HETATM    5  C9  UNL     1      -6.889  20.112  -1.308  1.00  0.00     0.019 A 
HETATM    6  C10 UNL     1      -7.166  20.694  -0.114  1.00  0.00     0.045 A 
HETATM    7  C11 UNL     1      -6.557  21.909   0.155  1.00  0.00     0.018 A 
HETATM    8  C12 UNL     1      -5.701  22.508  -0.751  1.00  0.00     0.002 A 
HETATM    9  C13 UNL     1      -5.430  21.903  -1.961  1.00  0.00     0.014 A 
HETATM   10  C14 UNL     1      -6.040  20.675  -2.243  1.00  0.00     0.005 A 
HETATM   11  C15 UNL     1      -8.088  19.787   0.561  1.00  0.00     0.259 A 
HETATM   12  O3  UNL     1      -8.574  19.974   1.687  1.00  0.00    -0.267 OA
HETATM   13  N2  UNL     1      -8.337  18.651  -0.287  1.00  0.00    -0.313 N 
ENDROOT
BRANCH   1  14
HETATM   14  N1  UNL     1      -4.982  20.501  -4.440  1.00  0.00    -0.284 N 
ATOM     15  H1  UNL     1      -3.973  20.490  -4.291  1.00  0.00     0.178 HD
BRANCH  14  16
HETATM   16  S1  UNL     1      -5.598  21.134  -5.919  1.00  0.00     0.231 S 
HETATM   17  O1  UNL     1      -4.502  21.904  -6.585  1.00  0.00    -0.206 OA
HETATM   18  O2  UNL     1      -6.022  19.968  -6.786  1.00  0.00    -0.206 OA
BRANCH  16  19
HETATM   19  C4  UNL     1      -7.006  22.179  -5.672  1.00  0.00     0.163 C 
BRANCH  19  20
HETATM   20  C3  UNL     1      -6.580  23.459  -4.966  1.00  0.00     0.016 C 
BRANCH  20  21
HETATM   21  C2  UNL     1      -7.711  24.462  -5.076  1.00  0.00    -0.004 C 
HETATM   22  C1  UNL     1      -8.737  23.934  -6.059  1.00  0.00     0.005 C 
ENDBRANCH  20  21
ENDBRANCH  19  20
ENDBRANCH  16  19
ENDBRANCH  14  16
ENDBRANCH   1  14
BRANCH  13  23
HETATM   23  C16 UNL     1      -9.170  17.503  -0.060  1.00  0.00     0.128 C 
HETATM   24  C17 UNL     1      -8.451  16.417   0.717  1.00  0.00     0.027 C 
ENDBRANCH  13  23
TORSDOF 6
ENDMDL
