MODEL 17
REMARK VINA RESULT: -6.878603935      3.235      7.259
REMARK  6 active torsions:
REMARK  status: ('A' for Active; 'I' for Inactive)
REMARK    1  A    between atoms: C2_2  and  C3_3 
REMARK    2  A    between atoms: C3_3  and  C4_4 
REMARK    3  A    between atoms: C4_4  and  S1_5 
REMARK    4  A    between atoms: S1_5  and  N1_8 
REMARK    5  A    between atoms: N1_8  and  C5_10 
REMARK    6  A    between atoms: N2_22  and  C16_23 
ROOT
HETATM    1  C5  UNL     1      -5.866  20.300  -3.548  1.00  0.00     0.053 A 
HETATM    2  C6  UNL     1      -6.408  19.039  -3.670  1.00  0.00     0.033 A 
HETATM    3  C7  UNL     1      -7.089  18.416  -2.614  1.00  0.00     0.033 A 
HETATM    4  C8  UNL     1      -7.230  19.067  -1.411  1.00  0.00     0.049 A 
HETATM    5  C9  UNL     1      -6.679  20.320  -1.323  1.00  0.00     0.019 A 
HETATM    6  C10 UNL     1      -6.869  20.877  -0.099  1.00  0.00     0.045 A 
HETATM    7  C11 UNL     1      -6.353  22.146   0.106  1.00  0.00     0.018 A 
HETATM    8  C12 UNL     1      -5.671  22.821  -0.889  1.00  0.00     0.002 A 
HETATM    9  C13 UNL     1      -5.485  22.241  -2.126  1.00  0.00     0.014 A 
HETATM   10  C14 UNL     1      -6.003  20.959  -2.345  1.00  0.00     0.005 A 
HETATM   11  C15 UNL     1      -7.614  19.888   0.671  1.00  0.00     0.259 A 
HETATM   12  O3  UNL     1      -7.982  20.031   1.847  1.00  0.00    -0.267 OA
HETATM   13  N2  UNL     1      -7.851  18.730  -0.151  1.00  0.00    -0.313 N 
ENDROOT
BRANCH   1  14
HETATM   14  N1  UNL     1      -5.196  20.881  -4.651  1.00  0.00    -0.284 N 
ATOM     15  H1  UNL     1      -4.181  20.803  -4.708  1.00  0.00     0.178 HD
BRANCH  14  16
HETATM   16  S1  UNL     1      -6.039  21.714  -5.902  1.00  0.00     0.231 S 
HETATM   17  O1  UNL     1      -6.693  20.693  -6.779  1.00  0.00    -0.206 OA
HETATM   18  O2  UNL     1      -7.084  22.597  -5.255  1.00  0.00    -0.206 OA
BRANCH  16  19
HETATM   19  C4  UNL     1      -4.969  22.743  -6.868  1.00  0.00     0.163 C 
BRANCH  19  20
HETATM   20  C3  UNL     1      -5.721  23.987  -7.321  1.00  0.00     0.016 C 
BRANCH  20  21
HETATM   21  C2  UNL     1      -6.384  23.685  -8.650  1.00  0.00    -0.004 C 
HETATM   22  C1  UNL     1      -7.880  23.888  -8.507  1.00  0.00     0.005 C 
ENDBRANCH  20  21
ENDBRANCH  19  20
ENDBRANCH  16  19
ENDBRANCH  14  16
ENDBRANCH   1  14
BRANCH  13  23
HETATM   23  C16 UNL     1      -8.536  17.508   0.162  1.00  0.00     0.128 C 
HETATM   24  C17 UNL     1     -10.012  17.729   0.431  1.00  0.00     0.027 C 
ENDBRANCH  13  23
TORSDOF 6
ENDMDL
