MODEL 13
REMARK VINA RESULT: -7.572109064      2.444      8.418
REMARK  5 active torsions:
REMARK  status: ('A' for Active; 'I' for Inactive)
REMARK    1  A    between atoms: C2_2  and  N1_3 
REMARK    2  A    between atoms: C9_11  and  S1_12 
REMARK    3  A    between atoms: S1_12  and  N2_15 
REMARK    4  A    between atoms: N2_15  and  C10_17 
REMARK    5  A    between atoms: C10_17  and  C11_18 
REMARK       I    between atoms: N3_21  and  C14_22 
ROOT
HETATM    1  N1  UNL     1       4.465   7.287   6.553  1.00  0.00    -0.313 N 
HETATM    2  C3  UNL     1       3.072   7.573   6.412  1.00  0.00     0.259 A 
HETATM    3  O1  UNL     1       2.129   7.197   7.132  1.00  0.00    -0.267 OA
HETATM    4  C4  UNL     1       2.970   8.417   5.226  1.00  0.00     0.045 A 
HETATM    5  C5  UNL     1       1.939   9.042   4.529  1.00  0.00     0.018 A 
HETATM    6  C6  UNL     1       2.196   9.795   3.404  1.00  0.00     0.002 A 
HETATM    7  C7  UNL     1       3.493   9.972   2.900  1.00  0.00     0.014 A 
HETATM    8  C8  UNL     1       4.517   9.354   3.588  1.00  0.00     0.001 A 
HETATM    9  C9  UNL     1       5.845   9.475   3.159  1.00  0.00     0.090 A 
HETATM   10  C18 UNL     1       6.775   8.813   3.920  1.00  0.00     0.028 A 
HETATM   11  C19 UNL     1       6.459   8.062   5.058  1.00  0.00     0.032 A 
HETATM   12  C20 UNL     1       5.150   7.950   5.473  1.00  0.00     0.049 A 
HETATM   13  C21 UNL     1       4.224   8.612   4.706  1.00  0.00     0.018 A 
ENDROOT
BRANCH   9  14
HETATM   14  S1  UNL     1       6.196  10.392   1.717  1.00  0.00     0.259 S 
HETATM   15  O2  UNL     1       5.271  11.600   1.648  1.00  0.00    -0.201 OA
HETATM   16  O3  UNL     1       7.629  10.929   1.785  1.00  0.00    -0.201 OA
BRANCH  14  17
HETATM   17  N2  UNL     1       6.097   9.483   0.272  1.00  0.00    -0.315 N 
ATOM     18  H2  UNL     1       6.868   8.951  -0.131  1.00  0.00     0.172 HD
BRANCH  17  19
HETATM   19  C10 UNL     1       4.797   9.568  -0.293  1.00  0.00     0.137 C 
BRANCH  19  20
HETATM   20  C11 UNL     1       4.417   8.350  -1.110  1.00  0.00     0.007 C 
HETATM   21  C12 UNL     1       5.680   7.800  -1.717  1.00  0.00     0.026 C 
HETATM   22  C13 UNL     1       5.694   8.024  -3.216  1.00  0.00     0.126 C 
HETATM   23  N3  UNL     1       4.552   7.338  -3.759  1.00  0.00    -0.352 N 
HETATM   24  C14 UNL     1       4.709   6.484  -4.865  1.00  0.00     0.215 C 
HETATM   25  C16 UNL     1       3.264   7.550  -3.145  1.00  0.00     0.126 C 
HETATM   26  C15 UNL     1       6.048   6.291  -5.468  1.00  0.00     0.117 C 
HETATM   27  O4  UNL     1       3.729   5.871  -5.360  1.00  0.00    -0.274 OA
HETATM   28  C17 UNL     1       3.326   8.628  -2.086  1.00  0.00     0.026 C 
ENDBRANCH  19  20
ENDBRANCH  17  19
ENDBRANCH  14  17
ENDBRANCH   9  14
BRANCH   1  29
HETATM   29  C2  UNL     1       5.111   6.491   7.565  1.00  0.00     0.128 C 
HETATM   30  C1  UNL     1       4.947   5.022   7.287  1.00  0.00     0.027 C 
ENDBRANCH   1  29
TORSDOF 5
ENDMDL
