MODEL 4
REMARK VINA RESULT: -8.018869355      1.535      2.781
REMARK  5 active torsions:
REMARK  status: ('A' for Active; 'I' for Inactive)
REMARK    1  A    between atoms: C2_2  and  N1_3 
REMARK    2  A    between atoms: C9_11  and  S1_12 
REMARK    3  A    between atoms: S1_12  and  N2_15 
REMARK    4  A    between atoms: N2_15  and  C10_17 
REMARK    5  A    between atoms: C10_17  and  C11_18 
REMARK       I    between atoms: N3_21  and  C14_22 
ROOT
HETATM    1  N1  UNL     1       4.823   7.856  -2.967  1.00  0.00    -0.313 N 
HETATM    2  C3  UNL     1       3.475   7.667  -3.404  1.00  0.00     0.259 A 
HETATM    3  O1  UNL     1       3.072   7.229  -4.497  1.00  0.00    -0.267 OA
HETATM    4  C4  UNL     1       2.644   8.102  -2.287  1.00  0.00     0.045 A 
HETATM    5  C5  UNL     1       1.277   8.189  -2.033  1.00  0.00     0.018 A 
HETATM    6  C6  UNL     1       0.807   8.664  -0.828  1.00  0.00     0.002 A 
HETATM    7  C7  UNL     1       1.667   9.082   0.200  1.00  0.00     0.014 A 
HETATM    8  C8  UNL     1       3.020   8.997  -0.049  1.00  0.00     0.001 A 
HETATM    9  C9  UNL     1       3.954   9.392   0.919  1.00  0.00     0.090 A 
HETATM   10  C18 UNL     1       5.271   9.266   0.556  1.00  0.00     0.028 A 
HETATM   11  C19 UNL     1       5.695   8.775  -0.685  1.00  0.00     0.032 A 
HETATM   12  C20 UNL     1       4.769   8.388  -1.629  1.00  0.00     0.049 A 
HETATM   13  C21 UNL     1       3.453   8.519  -1.261  1.00  0.00     0.018 A 
ENDROOT
BRANCH   9  14
HETATM   14  S1  UNL     1       3.388  10.030   2.440  1.00  0.00     0.259 S 
HETATM   15  O2  UNL     1       2.889  11.454   2.237  1.00  0.00    -0.201 OA
HETATM   16  O3  UNL     1       2.197   9.204   2.933  1.00  0.00    -0.201 OA
BRANCH  14  17
HETATM   17  N2  UNL     1       4.552   9.980   3.692  1.00  0.00    -0.315 N 
ATOM     18  H2  UNL     1       4.915  10.800   4.178  1.00  0.00     0.172 HD
BRANCH  17  19
HETATM   19  C10 UNL     1       4.947   8.643   3.965  1.00  0.00     0.137 C 
BRANCH  19  20
HETATM   20  C11 UNL     1       4.753   8.245   5.414  1.00  0.00     0.007 C 
HETATM   21  C12 UNL     1       6.038   7.622   5.889  1.00  0.00     0.026 C 
HETATM   22  C13 UNL     1       5.861   6.133   6.110  1.00  0.00     0.126 C 
HETATM   23  N3  UNL     1       4.840   5.970   7.110  1.00  0.00    -0.352 N 
HETATM   24  C14 UNL     1       5.064   5.120   8.207  1.00  0.00     0.215 C 
HETATM   25  C16 UNL     1       3.601   6.693   6.955  1.00  0.00     0.126 C 
HETATM   26  C15 UNL     1       6.350   4.395   8.332  1.00  0.00     0.117 C 
HETATM   27  O4  UNL     1       4.190   4.958   9.097  1.00  0.00    -0.274 OA
HETATM   28  C17 UNL     1       3.539   7.406   5.623  1.00  0.00     0.026 C 
ENDBRANCH  19  20
ENDBRANCH  17  19
ENDBRANCH  14  17
ENDBRANCH   9  14
BRANCH   1  29
HETATM   29  C2  UNL     1       6.039   7.583  -3.690  1.00  0.00     0.128 C 
HETATM   30  C1  UNL     1       6.252   8.584  -4.791  1.00  0.00     0.027 C 
ENDBRANCH   1  29
TORSDOF 5
ENDMDL
