MODEL 3
REMARK VINA RESULT: -8.055245709      2.347      3.903
REMARK  5 active torsions:
REMARK  status: ('A' for Active; 'I' for Inactive)
REMARK    1  A    between atoms: C2_2  and  N1_3 
REMARK    2  A    between atoms: C9_11  and  S1_12 
REMARK    3  A    between atoms: S1_12  and  N2_15 
REMARK    4  A    between atoms: N2_15  and  C10_17 
REMARK    5  A    between atoms: C10_17  and  C11_18 
REMARK       I    between atoms: N3_21  and  C14_22 
ROOT
HETATM    1  N1  UNL     1      -0.020   8.642  -0.678  1.00  0.00    -0.313 N 
HETATM    2  C3  UNL     1      -0.795   9.170   0.400  1.00  0.00     0.259 A 
HETATM    3  O1  UNL     1      -2.033   9.196   0.520  1.00  0.00    -0.267 OA
HETATM    4  C4  UNL     1       0.177   9.685   1.357  1.00  0.00     0.045 A 
HETATM    5  C5  UNL     1       0.121  10.318   2.597  1.00  0.00     0.018 A 
HETATM    6  C6  UNL     1       1.272  10.689   3.259  1.00  0.00     0.002 A 
HETATM    7  C7  UNL     1       2.550  10.455   2.729  1.00  0.00     0.014 A 
HETATM    8  C8  UNL     1       2.609   9.829   1.501  1.00  0.00     0.001 A 
HETATM    9  C9  UNL     1       3.842   9.554   0.894  1.00  0.00     0.090 A 
HETATM   10  C18 UNL     1       3.774   8.933  -0.327  1.00  0.00     0.028 A 
HETATM   11  C19 UNL     1       2.575   8.576  -0.955  1.00  0.00     0.032 A 
HETATM   12  C20 UNL     1       1.368   8.849  -0.349  1.00  0.00     0.049 A 
HETATM   13  C21 UNL     1       1.442   9.473   0.871  1.00  0.00     0.018 A 
ENDROOT
BRANCH   9  14
HETATM   14  S1  UNL     1       5.313  10.044   1.692  1.00  0.00     0.259 S 
HETATM   15  O2  UNL     1       6.498   9.338   1.045  1.00  0.00    -0.201 OA
HETATM   16  O3  UNL     1       5.528  11.548   1.498  1.00  0.00    -0.201 OA
BRANCH  14  17
HETATM   17  N2  UNL     1       5.312   9.776   3.381  1.00  0.00    -0.315 N 
ATOM     18  H2  UNL     1       5.371  10.513   4.084  1.00  0.00     0.172 HD
BRANCH  17  19
HETATM   19  C10 UNL     1       5.218   8.390   3.675  1.00  0.00     0.137 C 
BRANCH  19  20
HETATM   20  C11 UNL     1       4.916   8.107   5.133  1.00  0.00     0.007 C 
HETATM   21  C12 UNL     1       6.164   7.537   5.752  1.00  0.00     0.026 C 
HETATM   22  C13 UNL     1       5.976   6.069   6.078  1.00  0.00     0.126 C 
HETATM   23  N3  UNL     1       4.882   5.976   7.008  1.00  0.00    -0.352 N 
HETATM   24  C14 UNL     1       5.026   5.218   8.184  1.00  0.00     0.215 C 
HETATM   25  C16 UNL     1       3.657   6.671   6.703  1.00  0.00     0.126 C 
HETATM   26  C15 UNL     1       6.302   4.518   8.463  1.00  0.00     0.117 C 
HETATM   27  O4  UNL     1       4.088   5.119   9.016  1.00  0.00    -0.274 OA
HETATM   28  C17 UNL     1       3.693   7.275   5.317  1.00  0.00     0.026 C 
ENDBRANCH  19  20
ENDBRANCH  17  19
ENDBRANCH  14  17
ENDBRANCH   9  14
BRANCH   1  29
HETATM   29  C2  UNL     1      -0.488   8.012  -1.887  1.00  0.00     0.128 C 
HETATM   30  C1  UNL     1      -0.564   9.000  -3.018  1.00  0.00     0.027 C 
ENDBRANCH   1  29
TORSDOF 5
ENDMDL
