MODEL 1
REMARK VINA RESULT: -8.325141588      0.000      0.000
REMARK  5 active torsions:
REMARK  status: ('A' for Active; 'I' for Inactive)
REMARK    1  A    between atoms: C2_2  and  N1_3 
REMARK    2  A    between atoms: C9_11  and  S1_12 
REMARK    3  A    between atoms: S1_12  and  N2_15 
REMARK    4  A    between atoms: N2_15  and  C10_17 
REMARK    5  A    between atoms: C10_17  and  C11_18 
REMARK       I    between atoms: N3_21  and  C14_22 
ROOT
HETATM    1  N1  UNL     1       3.684   8.057  -2.751  1.00  0.00    -0.313 N 
HETATM    2  C3  UNL     1       5.070   8.148  -2.413  1.00  0.00     0.259 A 
HETATM    3  O1  UNL     1       6.057   7.882  -3.123  1.00  0.00    -0.267 OA
HETATM    4  C4  UNL     1       5.100   8.627  -1.036  1.00  0.00     0.045 A 
HETATM    5  C5  UNL     1       6.090   8.930  -0.104  1.00  0.00     0.018 A 
HETATM    6  C6  UNL     1       5.765   9.375   1.159  1.00  0.00     0.002 A 
HETATM    7  C7  UNL     1       4.436   9.546   1.575  1.00  0.00     0.014 A 
HETATM    8  C8  UNL     1       3.453   9.247   0.655  1.00  0.00     0.001 A 
HETATM    9  C9  UNL     1       2.098   9.386   0.982  1.00  0.00     0.090 A 
HETATM   10  C18 UNL     1       1.212   9.054  -0.013  1.00  0.00     0.028 A 
HETATM   11  C19 UNL     1       1.597   8.608  -1.282  1.00  0.00     0.032 A 
HETATM   12  C20 UNL     1       2.933   8.475  -1.594  1.00  0.00     0.049 A 
HETATM   13  C21 UNL     1       3.813   8.806  -0.595  1.00  0.00     0.018 A 
ENDROOT
BRANCH   9  14
HETATM   14  S1  UNL     1       1.656   9.914   2.584  1.00  0.00     0.259 S 
HETATM   15  O2  UNL     1       2.528  11.096   2.985  1.00  0.00    -0.201 OA
HETATM   16  O3  UNL     1       0.206  10.409   2.581  1.00  0.00    -0.201 OA
BRANCH  14  17
HETATM   17  N2  UNL     1       1.737   8.684   3.770  1.00  0.00    -0.315 N 
ATOM     18  H2  UNL     1       1.174   7.834   3.761  1.00  0.00     0.172 HD
BRANCH  17  19
HETATM   19  C10 UNL     1       2.694   9.005   4.768  1.00  0.00     0.137 C 
BRANCH  19  20
HETATM   20  C11 UNL     1       3.834   8.009   4.848  1.00  0.00     0.007 C 
HETATM   21  C12 UNL     1       3.375   6.864   5.710  1.00  0.00     0.026 C 
HETATM   22  C13 UNL     1       4.114   6.863   7.034  1.00  0.00     0.126 C 
HETATM   23  N3  UNL     1       5.515   6.722   6.739  1.00  0.00    -0.352 N 
HETATM   24  C14 UNL     1       6.280   5.760   7.421  1.00  0.00     0.215 C 
HETATM   25  C16 UNL     1       6.099   7.584   5.742  1.00  0.00     0.126 C 
HETATM   26  C15 UNL     1       5.644   4.892   8.439  1.00  0.00     0.117 C 
HETATM   27  O4  UNL     1       7.507   5.614   7.184  1.00  0.00    -0.274 OA
HETATM   28  C17 UNL     1       5.117   8.635   5.273  1.00  0.00     0.026 C 
ENDBRANCH  19  20
ENDBRANCH  17  19
ENDBRANCH  14  17
ENDBRANCH   9  14
BRANCH   1  29
HETATM   29  C2  UNL     1       3.098   7.635  -3.998  1.00  0.00     0.128 C 
HETATM   30  C1  UNL     1       2.729   8.818  -4.850  1.00  0.00     0.027 C 
ENDBRANCH   1  29
TORSDOF 5
ENDMDL
