MODEL 14
REMARK VINA RESULT: -7.497299775      2.391      8.251
REMARK  5 active torsions:
REMARK  status: ('A' for Active; 'I' for Inactive)
REMARK    1  A    between atoms: C2_2  and  N1_3 
REMARK    2  A    between atoms: C9_11  and  S1_12 
REMARK    3  A    between atoms: S1_12  and  N2_15 
REMARK    4  A    between atoms: N2_15  and  C10_17 
REMARK    5  A    between atoms: C10_17  and  C11_18 
REMARK       I    between atoms: N3_21  and  C14_22 
ROOT
HETATM    1  N1  UNL     1       4.515   7.666   5.812  1.00  0.00    -0.313 N 
HETATM    2  C3  UNL     1       3.113   7.883   5.982  1.00  0.00     0.259 A 
HETATM    3  O1  UNL     1       2.360   7.418   6.856  1.00  0.00    -0.267 OA
HETATM    4  C4  UNL     1       2.729   8.783   4.900  1.00  0.00     0.045 A 
HETATM    5  C5  UNL     1       1.549   9.387   4.474  1.00  0.00     0.018 A 
HETATM    6  C6  UNL     1       1.531  10.212   3.370  1.00  0.00     0.002 A 
HETATM    7  C7  UNL     1       2.685  10.487   2.620  1.00  0.00     0.014 A 
HETATM    8  C8  UNL     1       3.855   9.890   3.039  1.00  0.00     0.001 A 
HETATM    9  C9  UNL     1       5.057  10.106   2.353  1.00  0.00     0.090 A 
HETATM   10  C18 UNL     1       6.154   9.455   2.860  1.00  0.00     0.028 A 
HETATM   11  C19 UNL     1       6.116   8.628   3.989  1.00  0.00     0.032 A 
HETATM   12  C20 UNL     1       4.929   8.423   4.658  1.00  0.00     0.049 A 
HETATM   13  C21 UNL     1       3.836   9.074   4.144  1.00  0.00     0.018 A 
ENDROOT
BRANCH   9  14
HETATM   14  S1  UNL     1       5.058  11.117   0.932  1.00  0.00     0.259 S 
HETATM   15  O2  UNL     1       4.813  12.563   1.340  1.00  0.00    -0.201 OA
HETATM   16  O3  UNL     1       6.436  11.067   0.266  1.00  0.00    -0.201 OA
BRANCH  14  17
HETATM   17  N2  UNL     1       3.934  10.638  -0.265  1.00  0.00    -0.315 N 
ATOM     18  H2  UNL     1       3.239  11.254  -0.686  1.00  0.00     0.172 HD
BRANCH  17  19
HETATM   19  C10 UNL     1       4.096   9.266  -0.593  1.00  0.00     0.137 C 
BRANCH  19  20
HETATM   20  C11 UNL     1       4.729   9.046  -1.953  1.00  0.00     0.007 C 
HETATM   21  C12 UNL     1       3.615   8.861  -2.947  1.00  0.00     0.026 C 
HETATM   22  C13 UNL     1       3.568   7.427  -3.435  1.00  0.00     0.126 C 
HETATM   23  N3  UNL     1       4.833   7.148  -4.060  1.00  0.00    -0.352 N 
HETATM   24  C14 UNL     1       4.868   6.556  -5.336  1.00  0.00     0.215 C 
HETATM   25  C16 UNL     1       6.042   7.487  -3.351  1.00  0.00     0.126 C 
HETATM   26  C15 UNL     1       3.604   6.222  -6.032  1.00  0.00     0.117 C 
HETATM   27  O4  UNL     1       5.959   6.301  -5.907  1.00  0.00    -0.274 OA
HETATM   28  C17 UNL     1       5.746   7.956  -1.944  1.00  0.00     0.026 C 
ENDBRANCH  19  20
ENDBRANCH  17  19
ENDBRANCH  14  17
ENDBRANCH   9  14
BRANCH   1  29
HETATM   29  C2  UNL     1       5.393   6.853   6.615  1.00  0.00     0.128 C 
HETATM   30  C1  UNL     1       4.983   5.407   6.572  1.00  0.00     0.027 C 
ENDBRANCH   1  29
TORSDOF 5
ENDMDL
