MODEL 5
REMARK VINA RESULT: -7.744519928      3.756      5.856
REMARK  4 active torsions:
REMARK  status: ('A' for Active; 'I' for Inactive)
REMARK    1  A    between atoms: O1_1  and  C1_3 
REMARK    2  A    between atoms: C6_10  and  S1_11 
REMARK    3  A    between atoms: S1_11  and  C7_12 
REMARK    4  A    between atoms: C12_19  and  O2_20 
ROOT
HETATM    1  S1  UNL     1      18.406  30.857  -0.355  1.00  0.00    -0.085 SA
ENDROOT
BRANCH   1   2
HETATM    2  C6  UNL     1      18.445  29.160   0.219  1.00  0.00     0.042 A 
HETATM    3  C1  UNL     1      17.372  28.339  -0.084  1.00  0.00     0.104 A 
HETATM    4  C2  UNL     1      17.360  27.009   0.343  1.00  0.00     0.070 A 
HETATM    5 CL1  UNL     1      15.995  25.967  -0.042  1.00  0.00    -0.081 Cl
HETATM    6  C3  UNL     1      18.434  26.537   1.069  1.00  0.00     0.050 A 
HETATM    7  C4  UNL     1      19.511  27.350   1.376  1.00  0.00     0.037 A 
HETATM    8 CL2  UNL     1      20.887  26.755   2.302  1.00  0.00    -0.084 Cl
HETATM    9  C5  UNL     1      19.502  28.657   0.945  1.00  0.00     0.045 A 
BRANCH   3  10
HETATM   10  O1  UNL     1      16.292  28.775  -0.799  1.00  0.00    -0.358 OA
ATOM     11  H1  UNL     1      15.505  28.243  -0.765  1.00  0.00     0.217 HD
ENDBRANCH   3  10
ENDBRANCH   1   2
BRANCH   1  12
HETATM   12  C7  UNL     1      19.245  30.971  -1.920  1.00  0.00     0.042 A 
HETATM   13  C8  UNL     1      18.949  30.054  -2.899  1.00  0.00     0.045 A 
HETATM   14  C9  UNL     1      19.556  30.075  -4.141  1.00  0.00     0.037 A 
HETATM   15 CL3  UNL     1      19.203  28.927  -5.406  1.00  0.00    -0.084 Cl
HETATM   16  C10 UNL     1      20.484  31.075  -4.350  1.00  0.00     0.050 A 
HETATM   17  C11 UNL     1      20.788  32.000  -3.373  1.00  0.00     0.070 A 
HETATM   18 CL4  UNL     1      21.984  33.263  -3.684  1.00  0.00    -0.081 Cl
HETATM   19  C12 UNL     1      20.170  31.959  -2.145  1.00  0.00     0.104 A 
BRANCH  19  20
HETATM   20  O2  UNL     1      20.494  32.910  -1.162  1.00  0.00    -0.358 OA
ATOM     21  H2  UNL     1      20.428  32.714  -0.235  1.00  0.00     0.217 HD
ENDBRANCH  19  20
ENDBRANCH   1  12
TORSDOF 4
ENDMDL
