MODEL 4
REMARK VINA RESULT: -7.758944573      3.788      7.947
REMARK  4 active torsions:
REMARK  status: ('A' for Active; 'I' for Inactive)
REMARK    1  A    between atoms: O1_1  and  C1_3 
REMARK    2  A    between atoms: C6_10  and  S1_11 
REMARK    3  A    between atoms: S1_11  and  C7_12 
REMARK    4  A    between atoms: C12_19  and  O2_20 
ROOT
HETATM    1  S1  UNL     1      18.419  30.871  -0.385  1.00  0.00    -0.085 SA
ENDROOT
BRANCH   1   2
HETATM    2  C6  UNL     1      19.262  30.971  -1.962  1.00  0.00     0.042 A 
HETATM    3  C1  UNL     1      20.174  31.994  -2.157  1.00  0.00     0.104 A 
HETATM    4  C2  UNL     1      20.855  32.109  -3.372  1.00  0.00     0.070 A 
HETATM    5 CL1  UNL     1      22.014  33.410  -3.618  1.00  0.00    -0.081 Cl
HETATM    6  C3  UNL     1      20.597  31.186  -4.365  1.00  0.00     0.050 A 
HETATM    7  C4  UNL     1      19.688  30.161  -4.180  1.00  0.00     0.037 A 
HETATM    8 CL2  UNL     1      19.353  28.979  -5.442  1.00  0.00    -0.084 Cl
HETATM    9  C5  UNL     1      19.028  30.066  -2.975  1.00  0.00     0.045 A 
BRANCH   3  10
HETATM   10  O1  UNL     1      20.452  32.924  -1.195  1.00  0.00    -0.358 OA
ATOM     11  H1  UNL     1      20.550  33.825  -1.479  1.00  0.00     0.217 HD
ENDBRANCH   3  10
ENDBRANCH   1   2
BRANCH   1  12
HETATM   12  C7  UNL     1      18.405  29.183   0.174  1.00  0.00     0.042 A 
HETATM   13  C8  UNL     1      19.472  28.717   0.904  1.00  0.00     0.045 A 
HETATM   14  C9  UNL     1      19.537  27.418   1.374  1.00  0.00     0.037 A 
HETATM   15 CL3  UNL     1      20.876  26.796   2.303  1.00  0.00    -0.084 Cl
HETATM   16  C10 UNL     1      18.464  26.605   1.071  1.00  0.00     0.050 A 
HETATM   17  C11 UNL     1      17.389  27.063   0.339  1.00  0.00     0.070 A 
HETATM   18 CL4  UNL     1      16.037  25.985  -0.027  1.00  0.00    -0.081 Cl
HETATM   19  C12 UNL     1      17.347  28.359  -0.119  1.00  0.00     0.104 A 
BRANCH  19  20
HETATM   20  O2  UNL     1      16.242  28.808  -0.863  1.00  0.00    -0.358 OA
ATOM     21  H2  UNL     1      16.092  28.524  -1.757  1.00  0.00     0.217 HD
ENDBRANCH  19  20
ENDBRANCH   1  12
TORSDOF 4
ENDMDL
