MODEL 3
REMARK VINA RESULT: -7.788041611      3.789      5.615
REMARK  4 active torsions:
REMARK  status: ('A' for Active; 'I' for Inactive)
REMARK    1  A    between atoms: O1_1  and  C1_3 
REMARK    2  A    between atoms: C6_10  and  S1_11 
REMARK    3  A    between atoms: S1_11  and  C7_12 
REMARK    4  A    between atoms: C12_19  and  O2_20 
ROOT
HETATM    1  S1  UNL     1      18.305  30.562  -0.128  1.00  0.00    -0.085 SA
ENDROOT
BRANCH   1   2
HETATM    2  C6  UNL     1      18.291  28.832   0.334  1.00  0.00     0.042 A 
HETATM    3  C1  UNL     1      19.377  28.328   1.030  1.00  0.00     0.104 A 
HETATM    4  C2  UNL     1      19.408  26.984   1.411  1.00  0.00     0.070 A 
HETATM    5 CL1  UNL     1      20.789  26.346   2.294  1.00  0.00    -0.081 Cl
HETATM    6  C3  UNL     1      18.339  26.177   1.078  1.00  0.00     0.050 A 
HETATM    7  C4  UNL     1      17.250  26.671   0.384  1.00  0.00     0.037 A 
HETATM    8 CL2  UNL     1      15.882  25.649  -0.044  1.00  0.00    -0.084 Cl
HETATM    9  C5  UNL     1      17.240  27.999   0.019  1.00  0.00     0.045 A 
BRANCH   3  10
HETATM   10  O1  UNL     1      20.452  29.099   1.374  1.00  0.00    -0.358 OA
ATOM     11  H1  UNL     1      21.222  29.042   0.820  1.00  0.00     0.217 HD
ENDBRANCH   3  10
ENDBRANCH   1   2
BRANCH   1  12
HETATM   12  C7  UNL     1      19.070  30.743  -1.724  1.00  0.00     0.042 A 
HETATM   13  C8  UNL     1      18.733  29.863  -2.724  1.00  0.00     0.045 A 
HETATM   14  C9  UNL     1      19.282  29.935  -3.991  1.00  0.00     0.037 A 
HETATM   15 CL3  UNL     1      18.876  28.835  -5.282  1.00  0.00    -0.084 Cl
HETATM   16  C10 UNL     1      20.195  30.948  -4.202  1.00  0.00     0.050 A 
HETATM   17  C11 UNL     1      20.541  31.837  -3.206  1.00  0.00     0.070 A 
HETATM   18 CL4  UNL     1      21.716  33.118  -3.522  1.00  0.00    -0.081 Cl
HETATM   19  C12 UNL     1      19.980  31.744  -1.953  1.00  0.00     0.104 A 
BRANCH  19  20
HETATM   20  O2  UNL     1      20.344  32.658  -0.949  1.00  0.00    -0.358 OA
ATOM     21  H2  UNL     1      20.406  33.591  -1.120  1.00  0.00     0.217 HD
ENDBRANCH  19  20
ENDBRANCH   1  12
TORSDOF 4
ENDMDL
