MODEL 1
REMARK VINA RESULT: -7.972103989      0.000      0.000
REMARK  4 active torsions:
REMARK  status: ('A' for Active; 'I' for Inactive)
REMARK    1  A    between atoms: O1_1  and  C1_3 
REMARK    2  A    between atoms: C6_10  and  S1_11 
REMARK    3  A    between atoms: S1_11  and  C7_12 
REMARK    4  A    between atoms: C12_19  and  O2_20 
ROOT
HETATM    1  S1  UNL     1      16.251  25.805   0.020  1.00  0.00    -0.085 SA
ENDROOT
BRANCH   1   2
HETATM    2  C6  UNL     1      16.132  24.511   1.253  1.00  0.00     0.042 A 
HETATM    3  C1  UNL     1      16.711  23.284   0.978  1.00  0.00     0.104 A 
HETATM    4  C2  UNL     1      16.643  22.247   1.911  1.00  0.00     0.070 A 
HETATM    5 CL1  UNL     1      17.380  20.689   1.559  1.00  0.00    -0.081 Cl
HETATM    6  C3  UNL     1      15.988  22.473   3.105  1.00  0.00     0.050 A 
HETATM    7  C4  UNL     1      15.406  23.695   3.389  1.00  0.00     0.037 A 
HETATM    8 CL2  UNL     1      14.569  23.991   4.910  1.00  0.00    -0.084 Cl
HETATM    9  C5  UNL     1      15.486  24.703   2.455  1.00  0.00     0.045 A 
BRANCH   3  10
HETATM   10  O1  UNL     1      17.366  23.028  -0.194  1.00  0.00    -0.358 OA
ATOM     11  H1  UNL     1      18.313  23.103  -0.187  1.00  0.00     0.217 HD
ENDBRANCH   3  10
ENDBRANCH   1   2
BRANCH   1  12
HETATM   12  C7  UNL     1      17.564  26.922   0.459  1.00  0.00     0.042 A 
HETATM   13  C8  UNL     1      18.544  26.488   1.318  1.00  0.00     0.045 A 
HETATM   14  C9  UNL     1      19.597  27.294   1.708  1.00  0.00     0.037 A 
HETATM   15 CL3  UNL     1      20.858  26.774   2.796  1.00  0.00    -0.084 Cl
HETATM   16  C10 UNL     1      19.615  28.570   1.184  1.00  0.00     0.050 A 
HETATM   17  C11 UNL     1      18.636  29.016   0.321  1.00  0.00     0.070 A 
HETATM   18 CL4  UNL     1      18.698  30.660  -0.325  1.00  0.00    -0.081 Cl
HETATM   19  C12 UNL     1      17.597  28.195  -0.052  1.00  0.00     0.104 A 
BRANCH  19  20
HETATM   20  O2  UNL     1      16.608  28.666  -0.933  1.00  0.00    -0.358 OA
ATOM     21  H2  UNL     1      16.400  29.591  -1.003  1.00  0.00     0.217 HD
ENDBRANCH  19  20
ENDBRANCH   1  12
TORSDOF 4
ENDMDL
