MODEL 2
REMARK VINA RESULT: -7.911638389      0.064      6.318
REMARK  4 active torsions:
REMARK  status: ('A' for Active; 'I' for Inactive)
REMARK    1  A    between atoms: O1_1  and  C1_3 
REMARK    2  A    between atoms: C6_10  and  S1_11 
REMARK    3  A    between atoms: S1_11  and  C7_12 
REMARK    4  A    between atoms: C12_19  and  O2_20 
ROOT
HETATM    1  S1  UNL     1      16.213  25.824   0.096  1.00  0.00    -0.085 SA
ENDROOT
BRANCH   1   2
HETATM    2  C6  UNL     1      17.581  26.899   0.521  1.00  0.00     0.042 A 
HETATM    3  C1  UNL     1      17.620  28.166  -0.037  1.00  0.00     0.104 A 
HETATM    4  C2  UNL     1      18.668  29.038   0.266  1.00  0.00     0.070 A 
HETATM    5 CL1  UNL     1      18.716  30.647  -0.445  1.00  0.00    -0.081 Cl
HETATM    6  C3  UNL     1      19.656  28.610   1.128  1.00  0.00     0.050 A 
HETATM    7  C4  UNL     1      19.626  27.347   1.691  1.00  0.00     0.037 A 
HETATM    8 CL2  UNL     1      20.884  26.793   2.793  1.00  0.00    -0.084 Cl
HETATM    9  C5  UNL     1      18.584  26.504   1.379  1.00  0.00     0.045 A 
BRANCH   3  10
HETATM   10  O1  UNL     1      16.658  28.621  -0.895  1.00  0.00    -0.358 OA
ATOM     11  H1  UNL     1      16.539  28.142  -1.707  1.00  0.00     0.217 HD
ENDBRANCH   3  10
ENDBRANCH   1   2
BRANCH   1  12
HETATM   12  C7  UNL     1      16.125  24.488   1.267  1.00  0.00     0.042 A 
HETATM   13  C8  UNL     1      15.464  24.689   2.455  1.00  0.00     0.045 A 
HETATM   14  C9  UNL     1      15.351  23.702   3.416  1.00  0.00     0.037 A 
HETATM   15 CL3  UNL     1      14.519  23.924   4.933  1.00  0.00    -0.084 Cl
HETATM   16  C10 UNL     1      15.942  22.491   3.120  1.00  0.00     0.050 A 
HETATM   17  C11 UNL     1      16.609  22.278   1.931  1.00  0.00     0.070 A 
HETATM   18 CL4  UNL     1      17.352  20.711   1.594  1.00  0.00    -0.081 Cl
HETATM   19  C12 UNL     1      16.707  23.276   0.990  1.00  0.00     0.104 A 
BRANCH  19  20
HETATM   20  O2  UNL     1      17.390  23.042  -0.216  1.00  0.00    -0.358 OA
ATOM     21  H2  UNL     1      17.025  22.491  -0.900  1.00  0.00     0.217 HD
ENDBRANCH  19  20
ENDBRANCH   1  12
TORSDOF 4
ENDMDL
