MODEL 17
REMARK VINA RESULT: -6.362453301      2.372      3.550
REMARK  12 active torsions:
REMARK  status: ('A' for Active; 'I' for Inactive)
REMARK    1  A    between atoms: C2_2  and  C3_3 
REMARK    2  A    between atoms: C3_3  and  C4_4 
REMARK    3  A    between atoms: C4_4  and  C5_5 
REMARK    4  A    between atoms: C5_5  and  C6_6 
REMARK    5  A    between atoms: C6_6  and  C7_7 
REMARK    6  A    between atoms: C7_7  and  C8_8 
REMARK    7  A    between atoms: C8_8  and  C9_9 
REMARK    8  A    between atoms: C9_9  and  C10_10 
REMARK    9  A    between atoms: C10_10  and  C11_11 
REMARK   10  A    between atoms: C11_11  and  C12_12 
REMARK   11  A    between atoms: C12_12  and  O2_14 
REMARK   12  A    between atoms: O2_14  and  C13_15 
ROOT
HETATM    1  C9  UNL     1     -16.874  -8.601 158.578  1.00  0.00     0.000 C 
ENDROOT
BRANCH   1   2
HETATM    2  C8  UNL     1     -17.021  -7.894 157.262  1.00  0.00     0.000 C 
BRANCH   2   3
HETATM    3  C7  UNL     1     -16.375  -8.770 156.192  1.00  0.00     0.000 C 
BRANCH   3   4
HETATM    4  C6  UNL     1     -15.609  -9.899 156.793  1.00  0.00     0.000 C 
BRANCH   4   5
HETATM    5  C5  UNL     1     -15.421 -11.003 155.797  1.00  0.00     0.000 C 
BRANCH   5   6
HETATM    6  C4  UNL     1     -16.147 -10.714 154.532  1.00  0.00     0.000 C 
BRANCH   6   7
HETATM    7  C3  UNL     1     -16.588 -12.012 153.886  1.00  0.00    -0.000 C 
BRANCH   7   8
HETATM    8  C2  UNL     1     -18.068 -12.174 154.248  1.00  0.00    -0.005 C 
HETATM    9  C1  UNL     1     -18.301 -13.639 154.504  1.00  0.00     0.005 C 
ENDBRANCH   7   8
ENDBRANCH   6   7
ENDBRANCH   5   6
ENDBRANCH   4   5
ENDBRANCH   3   4
ENDBRANCH   2   3
ENDBRANCH   1   2
BRANCH   1  10
HETATM   10  C10 UNL     1     -17.117  -7.716 159.774  1.00  0.00     0.010 C 
BRANCH  10  11
HETATM   11  C11 UNL     1     -18.476  -7.117 159.691  1.00  0.00     0.111 C 
BRANCH  11  12
HETATM   12  C12 UNL     1     -18.764  -6.189 160.825  1.00  0.00     0.259 C 
HETATM   13  O1  UNL     1     -19.665  -5.334 160.633  1.00  0.00    -0.265 OA
BRANCH  12  14
HETATM   14  O2  UNL     1     -18.083  -6.257 162.026  1.00  0.00    -0.317 OA
BRANCH  14  15
HETATM   15  C13 UNL     1     -17.374  -5.108 162.461  1.00  0.00     0.123 C 
HETATM   16  C14 UNL     1     -17.956  -4.618 163.757  1.00  0.00     0.040 C 
HETATM   17  C15 UNL     1     -15.946  -5.574 162.735  1.00  0.00     0.040 C 
ENDBRANCH  14  15
ENDBRANCH  12  14
ENDBRANCH  11  12
ENDBRANCH  10  11
ENDBRANCH   1  10
TORSDOF 12
ENDMDL
