MODEL 5
REMARK VINA RESULT: -6.757538694      2.677      6.647
REMARK  12 active torsions:
REMARK  status: ('A' for Active; 'I' for Inactive)
REMARK    1  A    between atoms: C2_2  and  C3_3 
REMARK    2  A    between atoms: C3_3  and  C4_4 
REMARK    3  A    between atoms: C4_4  and  C5_5 
REMARK    4  A    between atoms: C5_5  and  C6_6 
REMARK    5  A    between atoms: C6_6  and  C7_7 
REMARK    6  A    between atoms: C7_7  and  C8_8 
REMARK    7  A    between atoms: C8_8  and  C9_9 
REMARK    8  A    between atoms: C9_9  and  C10_10 
REMARK    9  A    between atoms: C10_10  and  C11_11 
REMARK   10  A    between atoms: C11_11  and  C12_12 
REMARK   11  A    between atoms: C12_12  and  O2_14 
REMARK   12  A    between atoms: O2_14  and  C13_15 
ROOT
HETATM    1  C9  UNL     1     -15.946  -9.108 155.891  1.00  0.00     0.000 C 
ENDROOT
BRANCH   1   2
HETATM    2  C8  UNL     1     -15.160 -10.103 156.693  1.00  0.00     0.000 C 
BRANCH   2   3
HETATM    3  C7  UNL     1     -15.776 -10.161 158.089  1.00  0.00     0.000 C 
BRANCH   3   4
HETATM    4  C6  UNL     1     -16.530  -8.915 158.410  1.00  0.00     0.000 C 
BRANCH   4   5
HETATM    5  C5  UNL     1     -17.387  -9.111 159.623  1.00  0.00     0.000 C 
BRANCH   5   6
HETATM    6  C4  UNL     1     -18.184  -7.893 159.922  1.00  0.00     0.000 C 
BRANCH   6   7
HETATM    7  C3  UNL     1     -18.450  -7.128 158.642  1.00  0.00    -0.000 C 
BRANCH   7   8
HETATM    8  C2  UNL     1     -19.968  -7.175 158.438  1.00  0.00    -0.005 C 
HETATM    9  C1  UNL     1     -20.472  -5.760 158.545  1.00  0.00     0.005 C 
ENDBRANCH   7   8
ENDBRANCH   6   7
ENDBRANCH   5   6
ENDBRANCH   4   5
ENDBRANCH   3   4
ENDBRANCH   2   3
ENDBRANCH   1   2
BRANCH   1  10
HETATM   10  C10 UNL     1     -17.072  -9.721 155.097  1.00  0.00     0.010 C 
BRANCH  10  11
HETATM   11  C11 UNL     1     -16.539 -10.325 153.847  1.00  0.00     0.111 C 
BRANCH  11  12
HETATM   12  C12 UNL     1     -16.389 -11.808 153.945  1.00  0.00     0.259 C 
HETATM   13  O1  UNL     1     -15.356 -12.301 153.427  1.00  0.00    -0.265 OA
BRANCH  12  14
HETATM   14  O2  UNL     1     -17.331 -12.605 154.569  1.00  0.00    -0.317 OA
BRANCH  14  15
HETATM   15  C13 UNL     1     -18.351 -13.186 153.774  1.00  0.00     0.123 C 
HETATM   16  C14 UNL     1     -18.446 -14.656 154.070  1.00  0.00     0.040 C 
HETATM   17  C15 UNL     1     -19.657 -12.532 154.221  1.00  0.00     0.040 C 
ENDBRANCH  14  15
ENDBRANCH  12  14
ENDBRANCH  11  12
ENDBRANCH  10  11
ENDBRANCH   1  10
TORSDOF 12
ENDMDL
