MODEL 1
REMARK VINA RESULT: -7.141784756      0.000      0.000
REMARK  12 active torsions:
REMARK  status: ('A' for Active; 'I' for Inactive)
REMARK    1  A    between atoms: C2_2  and  C3_3 
REMARK    2  A    between atoms: C3_3  and  C4_4 
REMARK    3  A    between atoms: C4_4  and  C5_5 
REMARK    4  A    between atoms: C5_5  and  C6_6 
REMARK    5  A    between atoms: C6_6  and  C7_7 
REMARK    6  A    between atoms: C7_7  and  C8_8 
REMARK    7  A    between atoms: C8_8  and  C9_9 
REMARK    8  A    between atoms: C9_9  and  C10_10 
REMARK    9  A    between atoms: C10_10  and  C11_11 
REMARK   10  A    between atoms: C11_11  and  C12_12 
REMARK   11  A    between atoms: C12_12  and  O2_14 
REMARK   12  A    between atoms: O2_14  and  C13_15 
ROOT
HETATM    1  C9  UNL     1     -15.226 -10.577 157.548  1.00  0.00     0.000 C 
ENDROOT
BRANCH   1   2
HETATM    2  C8  UNL     1     -15.126 -10.910 156.088  1.00  0.00     0.000 C 
BRANCH   2   3
HETATM    3  C7  UNL     1     -16.003  -9.919 155.327  1.00  0.00     0.000 C 
BRANCH   3   4
HETATM    4  C6  UNL     1     -16.392 -10.444 153.986  1.00  0.00     0.000 C 
BRANCH   4   5
HETATM    5  C5  UNL     1     -16.687 -11.912 154.056  1.00  0.00     0.000 C 
BRANCH   5   6
HETATM    6  C4  UNL     1     -18.117 -12.158 154.381  1.00  0.00     0.000 C 
BRANCH   6   7
HETATM    7  C3  UNL     1     -18.372 -13.648 154.472  1.00  0.00    -0.000 C 
BRANCH   7   8
HETATM    8  C2  UNL     1     -18.789 -14.086 153.064  1.00  0.00    -0.005 C 
HETATM    9  C1  UNL     1     -19.864 -13.135 152.607  1.00  0.00     0.005 C 
ENDBRANCH   7   8
ENDBRANCH   6   7
ENDBRANCH   5   6
ENDBRANCH   4   5
ENDBRANCH   3   4
ENDBRANCH   2   3
ENDBRANCH   1   2
BRANCH   1  10
HETATM   10  C10 UNL     1     -16.225  -9.490 157.857  1.00  0.00     0.010 C 
BRANCH  10  11
HETATM   11  C11 UNL     1     -16.500  -9.457 159.318  1.00  0.00     0.111 C 
BRANCH  11  12
HETATM   12  C12 UNL     1     -17.267  -8.244 159.730  1.00  0.00     0.259 C 
HETATM   13  O1  UNL     1     -16.667  -7.430 160.477  1.00  0.00    -0.265 OA
BRANCH  12  14
HETATM   14  O2  UNL     1     -18.567  -8.017 159.319  1.00  0.00    -0.317 OA
BRANCH  14  15
HETATM   15  C13 UNL     1     -18.874  -6.768 158.722  1.00  0.00     0.123 C 
HETATM   16  C14 UNL     1     -18.173  -6.656 157.397  1.00  0.00     0.040 C 
HETATM   17  C15 UNL     1     -20.377  -6.786 158.457  1.00  0.00     0.040 C 
ENDBRANCH  14  15
ENDBRANCH  12  14
ENDBRANCH  11  12
ENDBRANCH  10  11
ENDBRANCH   1  10
TORSDOF 12
ENDMDL
