MODEL 11
REMARK VINA RESULT: -6.611822374      2.771      6.757
REMARK  12 active torsions:
REMARK  status: ('A' for Active; 'I' for Inactive)
REMARK    1  A    between atoms: C2_2  and  C3_3 
REMARK    2  A    between atoms: C3_3  and  C4_4 
REMARK    3  A    between atoms: C4_4  and  C5_5 
REMARK    4  A    between atoms: C5_5  and  C6_6 
REMARK    5  A    between atoms: C6_6  and  C7_7 
REMARK    6  A    between atoms: C7_7  and  C8_8 
REMARK    7  A    between atoms: C8_8  and  C9_9 
REMARK    8  A    between atoms: C9_9  and  C10_10 
REMARK    9  A    between atoms: C10_10  and  C11_11 
REMARK   10  A    between atoms: C11_11  and  C12_12 
REMARK   11  A    between atoms: C12_12  and  O2_14 
REMARK   12  A    between atoms: O2_14  and  C13_15 
ROOT
HETATM    1  C9  UNL     1     -15.878  -9.115 156.163  1.00  0.00     0.000 C 
ENDROOT
BRANCH   1   2
HETATM    2  C8  UNL     1     -15.510 -10.088 157.245  1.00  0.00     0.000 C 
BRANCH   2   3
HETATM    3  C7  UNL     1     -16.225  -9.651 158.522  1.00  0.00     0.000 C 
BRANCH   3   4
HETATM    4  C6  UNL     1     -16.648  -8.222 158.455  1.00  0.00     0.000 C 
BRANCH   4   5
HETATM    5  C5  UNL     1     -17.126  -7.748 159.794  1.00  0.00     0.000 C 
BRANCH   5   6
HETATM    6  C4  UNL     1     -18.578  -7.432 159.765  1.00  0.00     0.000 C 
BRANCH   6   7
HETATM    7  C3  UNL     1     -18.988  -7.034 158.362  1.00  0.00    -0.000 C 
BRANCH   7   8
HETATM    8  C2  UNL     1     -20.469  -6.651 158.455  1.00  0.00    -0.005 C 
HETATM    9  C1  UNL     1     -20.573  -5.535 159.460  1.00  0.00     0.005 C 
ENDBRANCH   7   8
ENDBRANCH   6   7
ENDBRANCH   5   6
ENDBRANCH   4   5
ENDBRANCH   3   4
ENDBRANCH   2   3
ENDBRANCH   1   2
BRANCH   1  10
HETATM   10  C10 UNL     1     -17.024  -9.574 155.298  1.00  0.00     0.010 C 
BRANCH  10  11
HETATM   11  C11 UNL     1     -16.510 -10.027 153.978  1.00  0.00     0.111 C 
BRANCH  11  12
HETATM   12  C12 UNL     1     -16.527 -11.514 153.835  1.00  0.00     0.259 C 
HETATM   13  O1  UNL     1     -15.453 -12.113 154.094  1.00  0.00    -0.265 OA
BRANCH  12  14
HETATM   14  O2  UNL     1     -17.657 -12.204 153.439  1.00  0.00    -0.317 OA
BRANCH  14  15
HETATM   15  C13 UNL     1     -18.436 -12.843 154.437  1.00  0.00     0.123 C 
HETATM   16  C14 UNL     1     -19.880 -12.460 154.272  1.00  0.00     0.040 C 
HETATM   17  C15 UNL     1     -18.316 -14.342 154.169  1.00  0.00     0.040 C 
ENDBRANCH  14  15
ENDBRANCH  12  14
ENDBRANCH  11  12
ENDBRANCH  10  11
ENDBRANCH   1  10
TORSDOF 12
ENDMDL
