MODEL 2
REMARK VINA RESULT: -5.959391105      0.057      1.105
REMARK  7 active torsions:
REMARK  status: ('A' for Active; 'I' for Inactive)
REMARK    1  A    between atoms: O1_1  and  C1_3 
REMARK    2  A    between atoms: C1_3  and  C2_4 
REMARK    3  A    between atoms: C3_6  and  O3_7 
REMARK    4  A    between atoms: O3_7  and  C4_8 
REMARK    5  A    between atoms: C10_14  and  O4_15 
REMARK    6  A    between atoms: C11_17  and  O5_18 
REMARK    7  A    between atoms: C12_20  and  O6_21 
ROOT
HETATM    1  C2  UNL     1      -1.047 -17.840 -49.013  1.00  0.00     0.179 C 
HETATM    2  O2  UNL     1      -0.953 -16.526 -49.427  1.00  0.00    -0.348 OA
HETATM    3  C3  UNL     1      -0.037 -16.478 -50.473  1.00  0.00     0.298 C 
HETATM    4  C10 UNL     1       1.374 -16.800 -49.959  1.00  0.00     0.205 C 
HETATM    5  C11 UNL     1       1.316 -18.212 -49.422  1.00  0.00     0.183 C 
HETATM    6  C12 UNL     1       0.261 -18.188 -48.310  1.00  0.00     0.180 C 
ENDROOT
BRANCH   3   7
HETATM    7  O3  UNL     1       0.029 -15.260 -51.115  1.00  0.00    -0.318 OA
BRANCH   7   8
HETATM    8  C4  UNL     1      -0.783 -14.710 -52.059  1.00  0.00     0.072 A 
HETATM    9  C5  UNL     1      -1.557 -15.531 -52.841  1.00  0.00     0.037 A 
HETATM   10  C6  UNL     1      -2.387 -15.012 -53.802  1.00  0.00     0.003 A 
HETATM   11  C7  UNL     1      -2.493 -13.655 -54.038  1.00  0.00     0.000 A 
HETATM   12  C8  UNL     1      -1.702 -12.860 -53.235  1.00  0.00     0.003 A 
HETATM   13  C9  UNL     1      -0.861 -13.356 -52.263  1.00  0.00     0.037 A 
ENDBRANCH   7   8
ENDBRANCH   3   7
BRANCH   4  14
HETATM   14  O4  UNL     1       2.240 -16.681 -51.038  1.00  0.00    -0.388 OA
ATOM     15  H4  UNL     1       3.110 -16.543 -50.684  1.00  0.00     0.210 HD
ENDBRANCH   4  14
BRANCH   1  16
HETATM   16  C1  UNL     1      -2.160 -18.081 -48.036  1.00  0.00     0.198 C 
BRANCH  16  17
HETATM   17  O1  UNL     1      -2.385 -16.939 -47.251  1.00  0.00    -0.398 OA
ATOM     18  H1  UNL     1      -1.561 -16.543 -46.994  1.00  0.00     0.209 HD
ENDBRANCH  16  17
ENDBRANCH   1  16
BRANCH   5  19
HETATM   19  O5  UNL     1       2.527 -18.675 -48.964  1.00  0.00    -0.390 OA
ATOM     20  H5  UNL     1       3.069 -19.055 -49.645  1.00  0.00     0.210 HD
ENDBRANCH   5  19
BRANCH   6  21
HETATM   21  O6  UNL     1       0.544 -17.083 -47.479  1.00  0.00    -0.390 OA
ATOM     22  H6  UNL     1       1.491 -17.066 -47.398  1.00  0.00     0.210 HD
ENDBRANCH   6  21
TORSDOF 7
ENDMDL
