MODEL 3
REMARK VINA RESULT: -5.476485972      3.155      5.785
REMARK  7 active torsions:
REMARK  status: ('A' for Active; 'I' for Inactive)
REMARK    1  A    between atoms: O1_1  and  C1_3 
REMARK    2  A    between atoms: C1_3  and  C2_4 
REMARK    3  A    between atoms: C3_6  and  O3_7 
REMARK    4  A    between atoms: O3_7  and  C4_8 
REMARK    5  A    between atoms: C10_14  and  O4_15 
REMARK    6  A    between atoms: C11_17  and  O5_18 
REMARK    7  A    between atoms: C12_20  and  O6_21 
ROOT
HETATM    1  C2  UNL     1       0.645 -17.545 -50.886  1.00  0.00     0.179 C 
HETATM    2  O2  UNL     1       0.503 -18.917 -50.835  1.00  0.00    -0.348 OA
HETATM    3  C3  UNL     1      -0.537 -19.201 -49.955  1.00  0.00     0.298 C 
HETATM    4  C10 UNL     1      -0.138 -18.822 -48.521  1.00  0.00     0.205 C 
HETATM    5  C11 UNL     1       0.104 -17.330 -48.531  1.00  0.00     0.183 C 
HETATM    6  C12 UNL     1       1.226 -17.100 -49.548  1.00  0.00     0.180 C 
ENDROOT
BRANCH   3   7
HETATM    7  O3  UNL     1      -0.921 -20.525 -49.937  1.00  0.00    -0.318 OA
BRANCH   7   8
HETATM    8  C4  UNL     1      -2.081 -21.117 -50.331  1.00  0.00     0.072 A 
HETATM    9  C5  UNL     1      -2.897 -21.690 -49.388  1.00  0.00     0.037 A 
HETATM   10  C6  UNL     1      -4.075 -22.297 -49.749  1.00  0.00     0.003 A 
HETATM   11  C7  UNL     1      -4.503 -22.365 -51.061  1.00  0.00     0.000 A 
HETATM   12  C8  UNL     1      -3.659 -21.779 -51.981  1.00  0.00     0.003 A 
HETATM   13  C9  UNL     1      -2.473 -21.165 -51.644  1.00  0.00     0.037 A 
ENDBRANCH   7   8
ENDBRANCH   3   7
BRANCH   4  14
HETATM   14  O4  UNL     1      -1.194 -19.181 -47.694  1.00  0.00    -0.388 OA
ATOM     15  H4  UNL     1      -1.839 -18.485 -47.747  1.00  0.00     0.210 HD
ENDBRANCH   4  14
BRANCH   1  16
HETATM   16  C1  UNL     1       1.583 -17.080 -51.961  1.00  0.00     0.198 C 
BRANCH  16  17
HETATM   17  O1  UNL     1       2.469 -16.113 -51.458  1.00  0.00    -0.398 OA
ATOM     18  H1  UNL     1       2.747 -15.524 -52.149  1.00  0.00     0.209 HD
ENDBRANCH  16  17
ENDBRANCH   1  16
BRANCH   5  19
HETATM   19  O5  UNL     1       0.425 -16.818 -47.294  1.00  0.00    -0.390 OA
ATOM     20  H5  UNL     1       0.127 -17.359 -46.572  1.00  0.00     0.210 HD
ENDBRANCH   5  19
BRANCH   6  21
HETATM   21  O6  UNL     1       2.255 -18.021 -49.262  1.00  0.00    -0.390 OA
ATOM     22  H6  UNL     1       1.893 -18.608 -48.608  1.00  0.00     0.210 HD
ENDBRANCH   6  21
TORSDOF 7
ENDMDL
