MODEL 4
REMARK VINA RESULT: -5.322090608      3.592      6.274
REMARK  7 active torsions:
REMARK  status: ('A' for Active; 'I' for Inactive)
REMARK    1  A    between atoms: O1_1  and  C1_3 
REMARK    2  A    between atoms: C1_3  and  C2_4 
REMARK    3  A    between atoms: C3_6  and  O3_7 
REMARK    4  A    between atoms: O3_7  and  C4_8 
REMARK    5  A    between atoms: C10_14  and  O4_15 
REMARK    6  A    between atoms: C11_17  and  O5_18 
REMARK    7  A    between atoms: C12_20  and  O6_21 
ROOT
HETATM    1  C2  UNL     1       0.427 -18.281 -49.698  1.00  0.00     0.179 C 
HETATM    2  O2  UNL     1       0.018 -19.512 -49.226  1.00  0.00    -0.348 OA
HETATM    3  C3  UNL     1      -1.371 -19.488 -49.136  1.00  0.00     0.298 C 
HETATM    4  C10 UNL     1      -1.816 -18.510 -48.039  1.00  0.00     0.205 C 
HETATM    5  C11 UNL     1      -1.329 -17.145 -48.468  1.00  0.00     0.183 C 
HETATM    6  C12 UNL     1       0.194 -17.268 -48.583  1.00  0.00     0.180 C 
ENDROOT
BRANCH   3   7
HETATM    7  O3  UNL     1      -1.943 -20.711 -48.852  1.00  0.00    -0.318 OA
BRANCH   7   8
HETATM    8  C4  UNL     1      -2.603 -21.589 -49.656  1.00  0.00     0.072 A 
HETATM    9  C5  UNL     1      -3.770 -22.159 -49.212  1.00  0.00     0.037 A 
HETATM   10  C6  UNL     1      -4.462 -23.049 -49.995  1.00  0.00     0.003 A 
HETATM   11  C7  UNL     1      -4.034 -23.418 -51.256  1.00  0.00     0.000 A 
HETATM   12  C8  UNL     1      -2.859 -22.826 -51.669  1.00  0.00     0.003 A 
HETATM   13  C9  UNL     1      -2.146 -21.931 -50.903  1.00  0.00     0.037 A 
ENDBRANCH   7   8
ENDBRANCH   3   7
BRANCH   4  14
HETATM   14  O4  UNL     1      -3.202 -18.578 -47.969  1.00  0.00    -0.388 OA
ATOM     15  H4  UNL     1      -3.519 -17.692 -47.846  1.00  0.00     0.210 HD
ENDBRANCH   4  14
BRANCH   1  16
HETATM   16  C1  UNL     1       1.884 -18.231 -50.054  1.00  0.00     0.198 C 
BRANCH  16  17
HETATM   17  O1  UNL     1       2.660 -18.822 -49.043  1.00  0.00    -0.398 OA
ATOM     18  H1  UNL     1       3.563 -18.908 -49.323  1.00  0.00     0.209 HD
ENDBRANCH  16  17
ENDBRANCH   1  16
BRANCH   5  19
HETATM   19  O5  UNL     1      -1.695 -16.137 -47.607  1.00  0.00    -0.390 OA
ATOM     20  H5  UNL     1      -0.993 -15.525 -47.421  1.00  0.00     0.210 HD
ENDBRANCH   5  19
BRANCH   6  21
HETATM   21  O6  UNL     1       0.660 -17.892 -47.406  1.00  0.00    -0.390 OA
ATOM     22  H6  UNL     1       1.481 -18.305 -47.649  1.00  0.00     0.210 HD
ENDBRANCH   6  21
TORSDOF 7
ENDMDL
