MODEL 6
REMARK VINA RESULT: -5.176895976      3.619      6.009
REMARK  7 active torsions:
REMARK  status: ('A' for Active; 'I' for Inactive)
REMARK    1  A    between atoms: O1_1  and  C1_3 
REMARK    2  A    between atoms: C1_3  and  C2_4 
REMARK    3  A    between atoms: C3_6  and  O3_7 
REMARK    4  A    between atoms: O3_7  and  C4_8 
REMARK    5  A    between atoms: C10_14  and  O4_15 
REMARK    6  A    between atoms: C11_17  and  O5_18 
REMARK    7  A    between atoms: C12_20  and  O6_21 
ROOT
HETATM    1  C2  UNL     1      -1.399 -18.148 -48.049  1.00  0.00     0.179 C 
HETATM    2  O2  UNL     1      -1.876 -18.837 -49.146  1.00  0.00    -0.348 OA
HETATM    3  C3  UNL     1      -0.930 -19.801 -49.482  1.00  0.00     0.298 C 
HETATM    4  C10 UNL     1       0.351 -19.131 -50.000  1.00  0.00     0.205 C 
HETATM    5  C11 UNL     1       0.884 -18.299 -48.857  1.00  0.00     0.183 C 
HETATM    6  C12 UNL     1      -0.226 -17.296 -48.523  1.00  0.00     0.180 C 
ENDROOT
BRANCH   3   7
HETATM    7  O3  UNL     1      -1.346 -20.693 -50.449  1.00  0.00    -0.318 OA
BRANCH   7   8
HETATM    8  C4  UNL     1      -1.915 -21.923 -50.333  1.00  0.00     0.072 A 
HETATM    9  C5  UNL     1      -3.050 -22.070 -49.576  1.00  0.00     0.037 A 
HETATM   10  C6  UNL     1      -3.651 -23.296 -49.437  1.00  0.00     0.003 A 
HETATM   11  C7  UNL     1      -3.159 -24.438 -50.040  1.00  0.00     0.000 A 
HETATM   12  C8  UNL     1      -2.019 -24.253 -50.794  1.00  0.00     0.003 A 
HETATM   13  C9  UNL     1      -1.396 -23.034 -50.948  1.00  0.00     0.037 A 
ENDBRANCH   7   8
ENDBRANCH   3   7
BRANCH   4  14
HETATM   14  O4  UNL     1       1.225 -20.147 -50.366  1.00  0.00    -0.388 OA
ATOM     15  H4  UNL     1       1.458 -20.001 -51.275  1.00  0.00     0.210 HD
ENDBRANCH   4  14
BRANCH   1  16
HETATM   16  C1  UNL     1      -2.410 -17.221 -47.439  1.00  0.00     0.198 C 
BRANCH  16  17
HETATM   17  O1  UNL     1      -3.705 -17.552 -47.868  1.00  0.00    -0.398 OA
ATOM     18  H1  UNL     1      -3.688 -18.331 -48.411  1.00  0.00     0.209 HD
ENDBRANCH  16  17
ENDBRANCH   1  16
BRANCH   5  19
HETATM   19  O5  UNL     1       2.071 -17.666 -49.146  1.00  0.00    -0.390 OA
ATOM     20  H5  UNL     1       2.787 -18.266 -49.318  1.00  0.00     0.210 HD
ENDBRANCH   5  19
BRANCH   6  21
HETATM   21  O6  UNL     1      -0.653 -16.715 -49.736  1.00  0.00    -0.390 OA
ATOM     22  H6  UNL     1       0.143 -16.441 -50.177  1.00  0.00     0.210 HD
ENDBRANCH   6  21
TORSDOF 7
ENDMDL
