MODEL 16
REMARK VINA RESULT: -4.895290210      1.250      1.643
REMARK  7 active torsions:
REMARK  status: ('A' for Active; 'I' for Inactive)
REMARK    1  A    between atoms: O1_1  and  C1_3 
REMARK    2  A    between atoms: C1_3  and  C2_4 
REMARK    3  A    between atoms: C3_6  and  O3_7 
REMARK    4  A    between atoms: O3_7  and  C4_8 
REMARK    5  A    between atoms: C10_14  and  O4_15 
REMARK    6  A    between atoms: C11_17  and  O5_18 
REMARK    7  A    between atoms: C12_20  and  O6_21 
ROOT
HETATM    1  C2  UNL     1       0.055 -17.721 -49.655  1.00  0.00     0.179 C 
HETATM    2  O2  UNL     1       0.153 -16.391 -50.010  1.00  0.00    -0.348 OA
HETATM    3  C3  UNL     1       0.335 -16.334 -51.389  1.00  0.00     0.298 C 
HETATM    4  C10 UNL     1       1.705 -16.915 -51.769  1.00  0.00     0.205 C 
HETATM    5  C11 UNL     1       1.684 -18.363 -51.336  1.00  0.00     0.183 C 
HETATM    6  C12 UNL     1       1.440 -18.338 -49.823  1.00  0.00     0.180 C 
ENDROOT
BRANCH   3   7
HETATM    7  O3  UNL     1       0.267 -15.063 -51.919  1.00  0.00    -0.318 OA
BRANCH   7   8
HETATM    8  C4  UNL     1      -0.768 -14.401 -52.503  1.00  0.00     0.072 A 
HETATM    9  C5  UNL     1      -0.883 -13.045 -52.328  1.00  0.00     0.037 A 
HETATM   10  C6  UNL     1      -1.914 -12.344 -52.902  1.00  0.00     0.003 A 
HETATM   11  C7  UNL     1      -2.883 -12.950 -53.679  1.00  0.00     0.000 A 
HETATM   12  C8  UNL     1      -2.736 -14.313 -53.834  1.00  0.00     0.003 A 
HETATM   13  C9  UNL     1      -1.711 -15.039 -53.269  1.00  0.00     0.037 A 
ENDBRANCH   7   8
ENDBRANCH   3   7
BRANCH   4  14
HETATM   14  O4  UNL     1       1.839 -16.777 -53.144  1.00  0.00    -0.388 OA
ATOM     15  H4  UNL     1       2.679 -17.152 -53.382  1.00  0.00     0.210 HD
ENDBRANCH   4  14
BRANCH   1  16
HETATM   16  C1  UNL     1      -0.360 -17.931 -48.228  1.00  0.00     0.198 C 
BRANCH  16  17
HETATM   17  O1  UNL     1       0.431 -17.157 -47.365  1.00  0.00    -0.398 OA
ATOM     18  H1  UNL     1      -0.014 -17.021 -46.537  1.00  0.00     0.209 HD
ENDBRANCH  16  17
ENDBRANCH   1  16
BRANCH   5  19
HETATM   19  O5  UNL     1       2.835 -19.047 -51.655  1.00  0.00    -0.390 OA
ATOM     20  H5  UNL     1       3.421 -19.165 -50.917  1.00  0.00     0.210 HD
ENDBRANCH   5  19
BRANCH   6  21
HETATM   21  O6  UNL     1       2.337 -17.403 -49.263  1.00  0.00    -0.390 OA
ATOM     22  H6  UNL     1       3.121 -17.455 -49.797  1.00  0.00     0.210 HD
ENDBRANCH   6  21
TORSDOF 7
ENDMDL
