MODEL 5
REMARK VINA RESULT: -5.234200421      0.923      1.057
REMARK  7 active torsions:
REMARK  status: ('A' for Active; 'I' for Inactive)
REMARK    1  A    between atoms: O1_1  and  C1_3 
REMARK    2  A    between atoms: C1_3  and  C2_4 
REMARK    3  A    between atoms: C3_6  and  O3_7 
REMARK    4  A    between atoms: O3_7  and  C4_8 
REMARK    5  A    between atoms: C10_14  and  O4_15 
REMARK    6  A    between atoms: C11_17  and  O5_18 
REMARK    7  A    between atoms: C12_20  and  O6_21 
ROOT
HETATM    1  C2  UNL     1      -0.873 -18.230 -49.190  1.00  0.00     0.179 C 
HETATM    2  O2  UNL     1      -0.816 -17.248 -50.158  1.00  0.00    -0.348 OA
HETATM    3  C3  UNL     1       0.071 -17.675 -51.142  1.00  0.00     0.298 C 
HETATM    4  C10 UNL     1       1.501 -17.721 -50.585  1.00  0.00     0.205 C 
HETATM    5  C11 UNL     1       1.485 -18.735 -49.464  1.00  0.00     0.183 C 
HETATM    6  C12 UNL     1       0.461 -18.214 -48.450  1.00  0.00     0.180 C 
ENDROOT
BRANCH   3   7
HETATM    7  O3  UNL     1       0.095 -16.881 -52.269  1.00  0.00    -0.318 OA
BRANCH   7   8
HETATM    8  C4  UNL     1      -0.543 -15.711 -52.543  1.00  0.00     0.072 A 
HETATM    9  C5  UNL     1      -0.071 -14.544 -51.997  1.00  0.00     0.037 A 
HETATM   10  C6  UNL     1      -0.690 -13.345 -52.251  1.00  0.00     0.003 A 
HETATM   11  C7  UNL     1      -1.807 -13.242 -53.058  1.00  0.00     0.000 A 
HETATM   12  C8  UNL     1      -2.253 -14.434 -53.590  1.00  0.00     0.003 A 
HETATM   13  C9  UNL     1      -1.650 -15.649 -53.350  1.00  0.00     0.037 A 
ENDBRANCH   7   8
ENDBRANCH   3   7
BRANCH   4  14
HETATM   14  O4  UNL     1       2.335 -18.101 -51.629  1.00  0.00    -0.388 OA
ATOM     15  H4  UNL     1       2.476 -17.332 -52.167  1.00  0.00     0.210 HD
ENDBRANCH   4  14
BRANCH   1  16
HETATM   16  C1  UNL     1      -1.954 -18.007 -48.173  1.00  0.00     0.198 C 
BRANCH  16  17
HETATM   17  O1  UNL     1      -2.081 -16.640 -47.880  1.00  0.00    -0.398 OA
ATOM     18  H1  UNL     1      -2.012 -16.492 -46.944  1.00  0.00     0.209 HD
ENDBRANCH  16  17
ENDBRANCH   1  16
BRANCH   5  19
HETATM   19  O5  UNL     1       2.718 -18.934 -48.886  1.00  0.00    -0.390 OA
ATOM     20  H5  UNL     1       2.679 -19.413 -48.067  1.00  0.00     0.210 HD
ENDBRANCH   5  19
BRANCH   6  21
HETATM   21  O6  UNL     1       0.745 -16.851 -48.221  1.00  0.00    -0.390 OA
ATOM     22  H6  UNL     1       1.411 -16.844 -47.543  1.00  0.00     0.210 HD
ENDBRANCH   6  21
TORSDOF 7
ENDMDL
