MODEL 1
REMARK VINA RESULT: -5.968329107      0.000      0.000
REMARK  7 active torsions:
REMARK  status: ('A' for Active; 'I' for Inactive)
REMARK    1  A    between atoms: O1_1  and  C1_3 
REMARK    2  A    between atoms: C1_3  and  C2_4 
REMARK    3  A    between atoms: C3_6  and  O3_7 
REMARK    4  A    between atoms: O3_7  and  C4_8 
REMARK    5  A    between atoms: C10_14  and  O4_15 
REMARK    6  A    between atoms: C11_17  and  O5_18 
REMARK    7  A    between atoms: C12_20  and  O6_21 
ROOT
HETATM    1  C2  UNL     1      -1.068 -17.845 -49.007  1.00  0.00     0.179 C 
HETATM    2  O2  UNL     1      -0.981 -16.531 -49.422  1.00  0.00    -0.348 OA
HETATM    3  C3  UNL     1      -0.067 -16.479 -50.470  1.00  0.00     0.298 C 
HETATM    4  C10 UNL     1       1.346 -16.795 -49.959  1.00  0.00     0.205 C 
HETATM    5  C11 UNL     1       1.295 -18.207 -49.422  1.00  0.00     0.183 C 
HETATM    6  C12 UNL     1       0.243 -18.187 -48.308  1.00  0.00     0.180 C 
ENDROOT
BRANCH   3   7
HETATM    7  O3  UNL     1      -0.009 -15.261 -51.113  1.00  0.00    -0.318 OA
BRANCH   7   8
HETATM    8  C4  UNL     1      -0.803 -14.731 -52.082  1.00  0.00     0.072 A 
HETATM    9  C5  UNL     1      -0.826 -13.370 -52.263  1.00  0.00     0.037 A 
HETATM   10  C6  UNL     1      -1.615 -12.800 -53.231  1.00  0.00     0.003 A 
HETATM   11  C7  UNL     1      -2.421 -13.549 -54.068  1.00  0.00     0.000 A 
HETATM   12  C8  UNL     1      -2.372 -14.911 -53.859  1.00  0.00     0.003 A 
HETATM   13  C9  UNL     1      -1.589 -15.507 -52.895  1.00  0.00     0.037 A 
ENDBRANCH   7   8
ENDBRANCH   3   7
BRANCH   4  14
HETATM   14  O4  UNL     1       2.209 -16.672 -51.041  1.00  0.00    -0.388 OA
ATOM     15  H4  UNL     1       3.003 -17.143 -50.819  1.00  0.00     0.210 HD
ENDBRANCH   4  14
BRANCH   1  16
HETATM   16  C1  UNL     1      -2.178 -18.091 -48.027  1.00  0.00     0.198 C 
BRANCH  16  17
HETATM   17  O1  UNL     1      -2.401 -16.952 -47.238  1.00  0.00    -0.398 OA
ATOM     18  H1  UNL     1      -2.601 -17.199 -46.343  1.00  0.00     0.209 HD
ENDBRANCH  16  17
ENDBRANCH   1  16
BRANCH   5  19
HETATM   19  O5  UNL     1       2.510 -18.664 -48.967  1.00  0.00    -0.390 OA
ATOM     20  H5  UNL     1       3.111 -18.900 -49.664  1.00  0.00     0.210 HD
ENDBRANCH   5  19
BRANCH   6  21
HETATM   21  O6  UNL     1       0.524 -17.081 -47.478  1.00  0.00    -0.390 OA
ATOM     22  H6  UNL     1       1.197 -16.589 -47.933  1.00  0.00     0.210 HD
ENDBRANCH   6  21
TORSDOF 7
ENDMDL
