MODEL 12
REMARK VINA RESULT: -5.015954697      1.138      1.409
REMARK  7 active torsions:
REMARK  status: ('A' for Active; 'I' for Inactive)
REMARK    1  A    between atoms: O1_1  and  C1_3 
REMARK    2  A    between atoms: C1_3  and  C2_4 
REMARK    3  A    between atoms: C3_6  and  O3_7 
REMARK    4  A    between atoms: O3_7  and  C4_8 
REMARK    5  A    between atoms: C10_14  and  O4_15 
REMARK    6  A    between atoms: C11_17  and  O5_18 
REMARK    7  A    between atoms: C12_20  and  O6_21 
ROOT
HETATM    1  C2  UNL     1      -0.962 -17.755 -49.199  1.00  0.00     0.179 C 
HETATM    2  O2  UNL     1      -0.491 -16.462 -49.315  1.00  0.00    -0.348 OA
HETATM    3  C3  UNL     1       0.336 -16.413 -50.433  1.00  0.00     0.298 C 
HETATM    4  C10 UNL     1       1.605 -17.244 -50.193  1.00  0.00     0.205 C 
HETATM    5  C11 UNL     1       1.144 -18.669 -49.986  1.00  0.00     0.183 C 
HETATM    6  C12 UNL     1       0.212 -18.628 -48.770  1.00  0.00     0.180 C 
ENDROOT
BRANCH   3   7
HETATM    7  O3  UNL     1       0.739 -15.143 -50.787  1.00  0.00    -0.318 OA
BRANCH   7   8
HETATM    8  C4  UNL     1       0.432 -14.386 -51.875  1.00  0.00     0.072 A 
HETATM    9  C5  UNL     1       1.423 -14.054 -52.764  1.00  0.00     0.037 A 
HETATM   10  C6  UNL     1       1.151 -13.292 -53.873  1.00  0.00     0.003 A 
HETATM   11  C7  UNL     1      -0.117 -12.822 -54.157  1.00  0.00     0.000 A 
HETATM   12  C8  UNL     1      -1.088 -13.175 -53.244  1.00  0.00     0.003 A 
HETATM   13  C9  UNL     1      -0.840 -13.938 -52.124  1.00  0.00     0.037 A 
ENDBRANCH   7   8
ENDBRANCH   3   7
BRANCH   4  14
HETATM   14  O4  UNL     1       2.403 -17.106 -51.321  1.00  0.00    -0.388 OA
ATOM     15  H4  UNL     1       2.981 -17.859 -51.348  1.00  0.00     0.210 HD
ENDBRANCH   4  14
BRANCH   1  16
HETATM   16  C1  UNL     1      -2.039 -17.909 -48.165  1.00  0.00     0.198 C 
BRANCH  16  17
HETATM   17  O1  UNL     1      -2.030 -16.822 -47.277  1.00  0.00    -0.398 OA
ATOM     18  H1  UNL     1      -1.342 -16.924 -46.631  1.00  0.00     0.209 HD
ENDBRANCH  16  17
ENDBRANCH   1  16
BRANCH   5  19
HETATM   19  O5  UNL     1       2.177 -19.559 -49.806  1.00  0.00    -0.390 OA
ATOM     20  H5  UNL     1       2.080 -20.358 -50.310  1.00  0.00     0.210 HD
ENDBRANCH   5  19
BRANCH   6  21
HETATM   21  O6  UNL     1       0.869 -17.900 -47.755  1.00  0.00    -0.390 OA
ATOM     22  H6  UNL     1       0.815 -18.446 -46.979  1.00  0.00     0.210 HD
ENDBRANCH   6  21
TORSDOF 7
ENDMDL
