MODEL 2
REMARK VINA RESULT: -7.438907646      1.870      2.894
REMARK  7 active torsions:
REMARK  status: ('A' for Active; 'I' for Inactive)
REMARK    1  A    between atoms: C2_2  and  C3_3 
REMARK    2  A    between atoms: C4_4  and  C5_5 
REMARK       I    between atoms: C5_5  and  N1_7 
REMARK    3  A    between atoms: N1_7  and  C6_9 
REMARK    4  A    between atoms: C10_13  and  O2_14 
REMARK    5  A    between atoms: O2_14  and  C11_15 
REMARK    6  A    between atoms: C11_15  and  C12_16 
REMARK    7  A    between atoms: C16_24  and  C17_25 
ROOT
HETATM    1  C5  UNL     1       9.979   6.134  -0.043  1.00  0.00     0.273 C 
HETATM    2  O1  UNL     1      10.059   5.340   0.929  1.00  0.00    -0.266 OA
HETATM    3  N1  UNL     1      11.078   6.311  -0.901  1.00  0.00    -0.322 N 
ATOM      4  H1  UNL     1      10.957   6.965  -1.673  1.00  0.00     0.169 HD
ENDROOT
BRANCH   1   5
HETATM    5  C4  UNL     1       8.714   6.880  -0.274  1.00  0.00     0.108 A 
HETATM    6  C3  UNL     1       8.022   6.974  -1.455  1.00  0.00    -0.010 A 
HETATM    7  C16 UNL     1       6.911   7.770  -1.188  1.00  0.00     0.040 A 
HETATM    8  C14 UNL     1       6.948   8.139   0.135  1.00  0.00     0.020 A 
HETATM    9  N3  UNL     1       8.054   7.583   0.660  1.00  0.00    -0.354 N 
HETATM   10  C15 UNL     1       5.934   8.995   0.811  1.00  0.00     0.069 C 
ATOM     11  H3  UNL     1       8.351   7.681   1.632  1.00  0.00     0.166 HD
BRANCH   6  12
HETATM   12  C2  UNL     1       8.414   6.339  -2.737  1.00  0.00     0.037 C 
HETATM   13  C1  UNL     1       9.111   7.365  -3.634  1.00  0.00     0.010 C 
ENDBRANCH   6  12
BRANCH   7  14
HETATM   14  C17 UNL     1       5.926   8.102  -2.210  1.00  0.00     0.158 C 
HETATM   15  C18 UNL     1       5.160   6.959  -2.817  1.00  0.00     0.097 C 
HETATM   16  O4  UNL     1       5.694   9.275  -2.598  1.00  0.00    -0.293 OA
ENDBRANCH   7  14
ENDBRANCH   1   5
BRANCH   3  17
HETATM   17  C6  UNL     1      12.338   5.672  -0.800  1.00  0.00     0.037 A 
HETATM   18  C7  UNL     1      13.496   6.215  -0.333  1.00  0.00     0.029 A 
HETATM   19  C8  UNL     1      14.688   5.483  -0.274  1.00  0.00     0.005 A 
HETATM   20  C9  UNL     1      14.731   4.181  -0.688  1.00  0.00     0.037 A 
HETATM   21  C10 UNL     1      13.590   3.603  -1.160  1.00  0.00     0.071 A 
HETATM   22  C13 UNL     1      12.409   4.349  -1.213  1.00  0.00     0.066 A 
BRANCH  21  23
HETATM   23  O2  UNL     1      13.596   2.291  -1.583  1.00  0.00    -0.342 OA
BRANCH  23  24
HETATM   24  C11 UNL     1      14.498   1.873  -2.567  1.00  0.00     0.275 C 
BRANCH  24  25
HETATM   25  C12 UNL     1      14.078   2.155  -3.948  1.00  0.00     0.255 C 
HETATM   26  N2  UNL     1      12.774   2.060  -4.469  1.00  0.00    -0.060 NA
HETATM   27  O3  UNL     1      14.983   2.522  -4.751  1.00  0.00    -0.274 OA
ENDBRANCH  24  25
ENDBRANCH  23  24
ENDBRANCH  21  23
ENDBRANCH   3  17
TORSDOF 7
ENDMDL
