MODEL 3
REMARK VINA RESULT: -7.341922563      1.215      1.314
REMARK  7 active torsions:
REMARK  status: ('A' for Active; 'I' for Inactive)
REMARK    1  A    between atoms: C2_2  and  C3_3 
REMARK    2  A    between atoms: C4_4  and  C5_5 
REMARK       I    between atoms: C5_5  and  N1_7 
REMARK    3  A    between atoms: N1_7  and  C6_9 
REMARK    4  A    between atoms: C10_13  and  O2_14 
REMARK    5  A    between atoms: O2_14  and  C11_15 
REMARK    6  A    between atoms: C11_15  and  C12_16 
REMARK    7  A    between atoms: C16_24  and  C17_25 
ROOT
HETATM    1  C5  UNL     1       8.154   6.842  -2.055  1.00  0.00     0.273 C 
HETATM    2  O1  UNL     1       9.102   7.164  -2.816  1.00  0.00    -0.266 OA
HETATM    3  N1  UNL     1       8.420   6.372  -0.757  1.00  0.00    -0.322 N 
ATOM      4  H1  UNL     1       7.614   6.128  -0.184  1.00  0.00     0.169 HD
ENDROOT
BRANCH   1   5
HETATM    5  C4  UNL     1       6.754   6.962  -2.542  1.00  0.00     0.108 A 
HETATM    6  C3  UNL     1       5.907   8.023  -2.344  1.00  0.00    -0.010 A 
HETATM    7  C16 UNL     1       4.713   7.686  -2.977  1.00  0.00     0.040 A 
HETATM    8  C14 UNL     1       4.857   6.441  -3.542  1.00  0.00     0.020 A 
HETATM    9  N3  UNL     1       6.106   6.031  -3.258  1.00  0.00    -0.354 N 
HETATM   10  C15 UNL     1       3.801   5.725  -4.310  1.00  0.00     0.069 C 
ATOM     11  H3  UNL     1       6.505   5.137  -3.548  1.00  0.00     0.166 HD
BRANCH   6  12
HETATM   12  C2  UNL     1       6.236   9.264  -1.600  1.00  0.00     0.037 C 
HETATM   13  C1  UNL     1       5.921   9.076  -0.113  1.00  0.00     0.010 C 
ENDBRANCH   6  12
BRANCH   7  14
HETATM   14  C17 UNL     1       3.557   8.574  -2.986  1.00  0.00     0.158 C 
HETATM   15  C18 UNL     1       2.570   8.420  -1.863  1.00  0.00     0.097 C 
HETATM   16  O4  UNL     1       3.355   9.444  -3.871  1.00  0.00    -0.293 OA
ENDBRANCH   7  14
ENDBRANCH   1   5
BRANCH   3  17
HETATM   17  C6  UNL     1       9.696   6.205  -0.166  1.00  0.00     0.037 A 
HETATM   18  C7  UNL     1      10.157   6.803   0.967  1.00  0.00     0.029 A 
HETATM   19  C8  UNL     1      11.443   6.557   1.465  1.00  0.00     0.005 A 
HETATM   20  C9  UNL     1      12.289   5.697   0.822  1.00  0.00     0.037 A 
HETATM   21  C10 UNL     1      11.861   5.079  -0.314  1.00  0.00     0.071 A 
HETATM   22  C13 UNL     1      10.575   5.337  -0.798  1.00  0.00     0.066 A 
BRANCH  21  23
HETATM   23  O2  UNL     1      12.687   4.203  -0.986  1.00  0.00    -0.342 OA
BRANCH  23  24
HETATM   24  C11 UNL     1      14.076   4.338  -0.896  1.00  0.00     0.275 C 
BRANCH  24  25
HETATM   25  C12 UNL     1      14.841   3.180  -1.384  1.00  0.00     0.255 C 
HETATM   26  N2  UNL     1      16.238   3.015  -1.345  1.00  0.00    -0.060 NA
HETATM   27  O3  UNL     1      14.173   2.233  -1.891  1.00  0.00    -0.274 OA
ENDBRANCH  24  25
ENDBRANCH  23  24
ENDBRANCH  21  23
ENDBRANCH   3  17
TORSDOF 7
ENDMDL
