MODEL 1
REMARK VINA RESULT: -8.028155473      0.000      0.000
REMARK  7 active torsions:
REMARK  status: ('A' for Active; 'I' for Inactive)
REMARK    1  A    between atoms: C2_2  and  C3_3 
REMARK    2  A    between atoms: C4_4  and  C5_5 
REMARK       I    between atoms: C5_5  and  N1_7 
REMARK    3  A    between atoms: N1_7  and  C6_9 
REMARK    4  A    between atoms: C10_13  and  O2_14 
REMARK    5  A    between atoms: O2_14  and  C11_15 
REMARK    6  A    between atoms: C11_15  and  C12_16 
REMARK    7  A    between atoms: C16_24  and  C17_25 
ROOT
HETATM    1  C5  UNL     1       8.619   6.597  -2.364  1.00  0.00     0.273 C 
HETATM    2  O1  UNL     1       9.464   6.947  -3.228  1.00  0.00    -0.266 OA
HETATM    3  N1  UNL     1       9.042   5.989  -1.170  1.00  0.00    -0.322 N 
ATOM      4  H1  UNL     1       8.314   5.729  -0.505  1.00  0.00     0.169 HD
ENDROOT
BRANCH   1   5
HETATM    5  C4  UNL     1       7.174   6.834  -2.620  1.00  0.00     0.108 A 
HETATM    6  C3  UNL     1       6.420   7.880  -2.151  1.00  0.00    -0.010 A 
HETATM    7  C16 UNL     1       5.133   7.679  -2.646  1.00  0.00     0.040 A 
HETATM    8  C14 UNL     1       5.131   6.529  -3.399  1.00  0.00     0.020 A 
HETATM    9  N3  UNL     1       6.384   6.042  -3.362  1.00  0.00    -0.354 N 
HETATM   10  C15 UNL     1       3.942   5.971  -4.100  1.00  0.00     0.069 C 
ATOM     11  H3  UNL     1       6.691   5.189  -3.832  1.00  0.00     0.166 HD
BRANCH   6  12
HETATM   12  C2  UNL     1       6.914   8.983  -1.291  1.00  0.00     0.037 C 
HETATM   13  C1  UNL     1       6.712   8.624   0.184  1.00  0.00     0.010 C 
ENDBRANCH   6  12
BRANCH   7  14
HETATM   14  C17 UNL     1       4.036   8.594  -2.358  1.00  0.00     0.158 C 
HETATM   15  C18 UNL     1       3.122   8.230  -1.222  1.00  0.00     0.097 C 
HETATM   16  O4  UNL     1       3.825   9.653  -3.004  1.00  0.00    -0.293 OA
ENDBRANCH   7  14
ENDBRANCH   1   5
BRANCH   3  17
HETATM   17  C6  UNL     1      10.377   5.702  -0.797  1.00  0.00     0.037 A 
HETATM   18  C7  UNL     1      11.167   6.428   0.042  1.00  0.00     0.029 A 
HETATM   19  C8  UNL     1      12.479   6.043   0.345  1.00  0.00     0.005 A 
HETATM   20  C9  UNL     1      13.019   4.911  -0.198  1.00  0.00     0.037 A 
HETATM   21  C10 UNL     1      12.258   4.158  -1.042  1.00  0.00     0.071 A 
HETATM   22  C13 UNL     1      10.950   4.558  -1.334  1.00  0.00     0.066 A 
BRANCH  21  23
HETATM   23  O2  UNL     1      12.769   3.009  -1.605  1.00  0.00    -0.342 OA
BRANCH  23  24
HETATM   24  C11 UNL     1      14.150   2.785  -1.616  1.00  0.00     0.275 C 
BRANCH  24  25
HETATM   25  C12 UNL     1      14.651   2.086  -2.809  1.00  0.00     0.255 C 
HETATM   26  N2  UNL     1      13.880   1.531  -3.848  1.00  0.00    -0.060 NA
HETATM   27  O3  UNL     1      15.906   1.974  -2.913  1.00  0.00    -0.274 OA
ENDBRANCH  24  25
ENDBRANCH  23  24
ENDBRANCH  21  23
ENDBRANCH   3  17
TORSDOF 7
ENDMDL
