MODEL 4
REMARK VINA RESULT: -7.325014573      2.289      8.400
REMARK  7 active torsions:
REMARK  status: ('A' for Active; 'I' for Inactive)
REMARK    1  A    between atoms: C2_2  and  C3_3 
REMARK    2  A    between atoms: C4_4  and  C5_5 
REMARK       I    between atoms: C5_5  and  N1_7 
REMARK    3  A    between atoms: N1_7  and  C6_9 
REMARK    4  A    between atoms: C10_13  and  O2_14 
REMARK    5  A    between atoms: O2_14  and  C11_15 
REMARK    6  A    between atoms: C11_15  and  C12_16 
REMARK    7  A    between atoms: C16_24  and  C17_25 
ROOT
HETATM    1  C5  UNL     1       8.839   6.309  -0.543  1.00  0.00     0.273 C 
HETATM    2  O1  UNL     1       8.080   6.079   0.433  1.00  0.00    -0.266 OA
HETATM    3  N1  UNL     1       8.390   7.101  -1.614  1.00  0.00    -0.322 N 
ATOM      4  H1  UNL     1       9.048   7.256  -2.377  1.00  0.00     0.169 HD
ENDROOT
BRANCH   1   5
HETATM    5  C4  UNL     1      10.211   5.736  -0.551  1.00  0.00     0.108 A 
HETATM    6  C3  UNL     1      11.268   6.133   0.227  1.00  0.00    -0.010 A 
HETATM    7  C16 UNL     1      12.338   5.314  -0.130  1.00  0.00     0.040 A 
HETATM    8  C14 UNL     1      11.913   4.445  -1.106  1.00  0.00     0.020 A 
HETATM    9  N3  UNL     1      10.619   4.728  -1.339  1.00  0.00    -0.354 N 
HETATM   10  C15 UNL     1      12.763   3.407  -1.753  1.00  0.00     0.069 C 
ATOM     11  H3  UNL     1      10.030   4.245  -2.018  1.00  0.00     0.166 HD
BRANCH   6  12
HETATM   12  C2  UNL     1      11.238   7.220   1.236  1.00  0.00     0.037 C 
HETATM   13  C1  UNL     1      10.884   6.645   2.610  1.00  0.00     0.010 C 
ENDBRANCH   6  12
BRANCH   7  14
HETATM   14  C17 UNL     1      13.652   5.435   0.488  1.00  0.00     0.158 C 
HETATM   15  C18 UNL     1      14.637   6.355  -0.176  1.00  0.00     0.097 C 
HETATM   16  O4  UNL     1      13.990   4.817   1.530  1.00  0.00    -0.293 OA
ENDBRANCH   7  14
ENDBRANCH   1   5
BRANCH   3  17
HETATM   17  C6  UNL     1       7.116   7.706  -1.739  1.00  0.00     0.037 A 
HETATM   18  C7  UNL     1       6.612   8.717  -0.980  1.00  0.00     0.029 A 
HETATM   19  C8  UNL     1       5.333   9.243  -1.199  1.00  0.00     0.005 A 
HETATM   20  C9  UNL     1       4.536   8.753  -2.196  1.00  0.00     0.037 A 
HETATM   21  C10 UNL     1       5.007   7.741  -2.978  1.00  0.00     0.071 A 
HETATM   22  C13 UNL     1       6.286   7.227  -2.744  1.00  0.00     0.066 A 
BRANCH  21  23
HETATM   23  O2  UNL     1       4.233   7.225  -3.994  1.00  0.00    -0.342 OA
BRANCH  23  24
HETATM   24  C11 UNL     1       3.158   6.379  -3.699  1.00  0.00     0.275 C 
BRANCH  24  25
HETATM   25  C12 UNL     1       2.886   5.351  -4.715  1.00  0.00     0.255 C 
HETATM   26  N2  UNL     1       3.575   5.160  -5.927  1.00  0.00    -0.060 NA
HETATM   27  O3  UNL     1       1.933   4.555  -4.474  1.00  0.00    -0.274 OA
ENDBRANCH  24  25
ENDBRANCH  23  24
ENDBRANCH  21  23
ENDBRANCH   3  17
TORSDOF 7
ENDMDL
