MODEL 1
REMARK VINA RESULT: -7.194236664      0.000      0.000
REMARK  8 active torsions:
REMARK  status: ('A' for Active; 'I' for Inactive)
REMARK    1  A    between atoms: C2_2  and  N1_3 
REMARK    2  A    between atoms: N1_3  and  C3_4 
REMARK    3  A    between atoms: N1_3  and  S1_6 
REMARK    4  A    between atoms: S1_6  and  C5_9 
REMARK    5  A    between atoms: C8_12  and  O3_13 
REMARK    6  A    between atoms: C9_15  and  N2_16 
REMARK       I    between atoms: N2_16  and  C10_18 
REMARK    7  A    between atoms: C10_18  and  C11_20 
REMARK    8  A    between atoms: C14_25  and  C15_26 
ROOT
HETATM    1  C5  UNL     1       1.927  54.064  21.774  1.00  0.00     0.077 A 
HETATM    2  C6  UNL     1       1.319  53.997  22.999  1.00  0.00     0.028 A 
HETATM    3  C7  UNL     1       1.458  54.960  23.953  1.00  0.00     0.040 A 
HETATM    4  C8  UNL     1       2.258  56.068  23.674  1.00  0.00     0.092 A 
HETATM    5  C9  UNL     1       2.901  56.180  22.436  1.00  0.00     0.070 A 
HETATM    6  C19 UNL     1       2.722  55.182  21.520  1.00  0.00     0.057 A 
ENDROOT
BRANCH   5   7
HETATM    7  N2  UNL     1       3.702  57.328  22.207  1.00  0.00    -0.319 N 
HETATM    8  C10 UNL     1       4.004  57.913  20.951  1.00  0.00     0.273 C 
HETATM    9  O4  UNL     1       3.548  57.412  19.917  1.00  0.00    -0.266 OA
ATOM     10  H2  UNL     1       4.102  57.779  23.030  1.00  0.00     0.169 HD
BRANCH   8  11
HETATM   11  C11 UNL     1       4.868  59.126  20.896  1.00  0.00     0.108 A 
HETATM   12  N3  UNL     1       6.055  59.201  20.255  1.00  0.00    -0.354 N 
HETATM   13  C12 UNL     1       6.531  60.443  20.423  1.00  0.00     0.020 A 
ATOM     14  H3  UNL     1       6.509  58.448  19.737  1.00  0.00     0.166 HD
HETATM   15  C13 UNL     1       7.820  60.967  19.882  1.00  0.00     0.069 C 
HETATM   16  C14 UNL     1       5.649  61.198  21.183  1.00  0.00     0.040 A 
HETATM   17  C17 UNL     1       4.603  60.347  21.474  1.00  0.00    -0.014 A 
HETATM   18  C18 UNL     1       3.413  60.719  22.289  1.00  0.00     0.052 C 
BRANCH  16  19
HETATM   19  C15 UNL     1       5.815  62.586  21.570  1.00  0.00     0.158 C 
HETATM   20  C16 UNL     1       5.704  63.737  20.674  1.00  0.00     0.097 C 
HETATM   21  O5  UNL     1       6.082  62.797  22.815  1.00  0.00    -0.293 OA
ENDBRANCH  16  19
ENDBRANCH   8  11
ENDBRANCH   5   7
BRANCH   4  22
HETATM   22  O3  UNL     1       2.399  57.040  24.638  1.00  0.00    -0.358 OA
ATOM     23  H3  UNL     1       2.287  56.798  25.549  1.00  0.00     0.217 HD
ENDBRANCH   4  22
BRANCH   1  24
HETATM   24  S1  UNL     1       1.735  52.817  20.562  1.00  0.00     0.243 S 
HETATM   25  O1  UNL     1       2.055  53.388  19.204  1.00  0.00    -0.206 OA
HETATM   26  O2  UNL     1       0.311  52.329  20.511  1.00  0.00    -0.206 OA
BRANCH  24  27
HETATM   27  N1  UNL     1       2.747  51.508  20.969  1.00  0.00    -0.207 NA
BRANCH  27  28
HETATM   28  C2  UNL     1       3.276  50.820  19.812  1.00  0.00     0.103 C 
HETATM   29  C1  UNL     1       4.754  50.606  20.025  1.00  0.00     0.021 C 
ENDBRANCH  27  28
BRANCH  27  30
HETATM   30  C3  UNL     1       2.136  50.589  21.907  1.00  0.00     0.103 C 
HETATM   31  C4  UNL     1       2.880  50.641  23.233  1.00  0.00     0.021 C 
ENDBRANCH  27  30
ENDBRANCH  24  27
ENDBRANCH   1  24
TORSDOF 8
ENDMDL
