MODEL 10
REMARK VINA RESULT: -6.836533690      2.997      8.876
REMARK  8 active torsions:
REMARK  status: ('A' for Active; 'I' for Inactive)
REMARK    1  A    between atoms: C2_2  and  N1_3 
REMARK    2  A    between atoms: N1_3  and  C3_4 
REMARK    3  A    between atoms: N1_3  and  S1_6 
REMARK    4  A    between atoms: S1_6  and  C5_9 
REMARK    5  A    between atoms: C8_12  and  O3_13 
REMARK    6  A    between atoms: C9_15  and  N2_16 
REMARK       I    between atoms: N2_16  and  C10_18 
REMARK    7  A    between atoms: C10_18  and  C11_20 
REMARK    8  A    between atoms: C14_25  and  C15_26 
ROOT
HETATM    1  C5  UNL     1       3.959  58.367  22.884  1.00  0.00     0.077 A 
HETATM    2  C6  UNL     1       4.258  59.303  21.930  1.00  0.00     0.028 A 
HETATM    3  C7  UNL     1       4.318  59.016  20.599  1.00  0.00     0.040 A 
HETATM    4  C8  UNL     1       4.064  57.710  20.183  1.00  0.00     0.092 A 
HETATM    5  C9  UNL     1       3.756  56.718  21.122  1.00  0.00     0.070 A 
HETATM    6  C19 UNL     1       3.710  57.067  22.442  1.00  0.00     0.057 A 
ENDROOT
BRANCH   5   7
HETATM    7  N2  UNL     1       3.507  55.407  20.642  1.00  0.00    -0.319 N 
HETATM    8  C10 UNL     1       2.240  54.785  20.496  1.00  0.00     0.273 C 
HETATM    9  O4  UNL     1       1.216  55.404  20.803  1.00  0.00    -0.266 OA
ATOM     10  H2  UNL     1       4.322  54.855  20.375  1.00  0.00     0.169 HD
BRANCH   8  11
HETATM   11  C11 UNL     1       2.165  53.392  19.974  1.00  0.00     0.108 A 
HETATM   12  N3  UNL     1       2.791  52.326  20.521  1.00  0.00    -0.354 N 
HETATM   13  C12 UNL     1       2.483  51.250  19.782  1.00  0.00     0.020 A 
ATOM     14  H3  UNL     1       3.389  52.337  21.347  1.00  0.00     0.166 HD
HETATM   15  C13 UNL     1       2.959  49.855  20.027  1.00  0.00     0.069 C 
HETATM   16  C14 UNL     1       1.646  51.607  18.735  1.00  0.00     0.040 A 
HETATM   17  C17 UNL     1       1.457  52.967  18.872  1.00  0.00    -0.014 A 
HETATM   18  C18 UNL     1       0.630  53.801  17.956  1.00  0.00     0.052 C 
BRANCH  16  19
HETATM   19  C15 UNL     1       1.098  50.719  17.728  1.00  0.00     0.158 C 
HETATM   20  C16 UNL     1       1.700  50.437  16.424  1.00  0.00     0.097 C 
HETATM   21  O5  UNL     1      -0.016  50.141  18.031  1.00  0.00    -0.293 OA
ENDBRANCH  16  19
ENDBRANCH   8  11
ENDBRANCH   5   7
BRANCH   4  22
HETATM   22  O3  UNL     1       4.126  57.420  18.839  1.00  0.00    -0.358 OA
ATOM     23  H3  UNL     1       4.012  56.519  18.561  1.00  0.00     0.217 HD
ENDBRANCH   4  22
BRANCH   1  24
HETATM   24  S1  UNL     1       3.886  58.755  24.588  1.00  0.00     0.243 S 
HETATM   25  O1  UNL     1       3.811  57.480  25.388  1.00  0.00    -0.206 OA
HETATM   26  O2  UNL     1       2.648  59.551  24.908  1.00  0.00    -0.206 OA
BRANCH  24  27
HETATM   27  N1  UNL     1       5.255  59.690  24.987  1.00  0.00    -0.207 NA
BRANCH  27  28
HETATM   28  C2  UNL     1       6.081  59.077  26.003  1.00  0.00     0.103 C 
HETATM   29  C1  UNL     1       6.086  59.978  27.214  1.00  0.00     0.021 C 
ENDBRANCH  27  28
BRANCH  27  30
HETATM   30  C3  UNL     1       4.928  61.062  25.316  1.00  0.00     0.103 C 
HETATM   31  C4  UNL     1       5.195  61.954  24.113  1.00  0.00     0.021 C 
ENDBRANCH  27  30
ENDBRANCH  24  27
ENDBRANCH   1  24
TORSDOF 8
ENDMDL
