MODEL 4
REMARK VINA RESULT: -7.020505040      1.484      1.674
REMARK  8 active torsions:
REMARK  status: ('A' for Active; 'I' for Inactive)
REMARK    1  A    between atoms: C2_2  and  N1_3 
REMARK    2  A    between atoms: N1_3  and  C3_4 
REMARK    3  A    between atoms: N1_3  and  S1_6 
REMARK    4  A    between atoms: S1_6  and  C5_9 
REMARK    5  A    between atoms: C8_12  and  O3_13 
REMARK    6  A    between atoms: C9_15  and  N2_16 
REMARK       I    between atoms: N2_16  and  C10_18 
REMARK    7  A    between atoms: C10_18  and  C11_20 
REMARK    8  A    between atoms: C14_25  and  C15_26 
ROOT
HETATM    1  C5  UNL     1       2.160  55.098  22.416  1.00  0.00     0.077 A 
HETATM    2  C6  UNL     1       1.904  55.330  23.742  1.00  0.00     0.028 A 
HETATM    3  C7  UNL     1       2.481  56.347  24.444  1.00  0.00     0.040 A 
HETATM    4  C8  UNL     1       3.376  57.191  23.787  1.00  0.00     0.092 A 
HETATM    5  C9  UNL     1       3.669  56.992  22.433  1.00  0.00     0.070 A 
HETATM    6  C19 UNL     1       3.058  55.957  21.783  1.00  0.00     0.057 A 
ENDROOT
BRANCH   5   7
HETATM    7  N2  UNL     1       4.586  57.881  21.817  1.00  0.00    -0.319 N 
HETATM    8  C10 UNL     1       4.395  59.268  21.586  1.00  0.00     0.273 C 
HETATM    9  O4  UNL     1       3.341  59.807  21.939  1.00  0.00    -0.266 OA
ATOM     10  H2  UNL     1       5.473  57.484  21.508  1.00  0.00     0.169 HD
BRANCH   8  11
HETATM   11  C11 UNL     1       5.471  60.055  20.921  1.00  0.00     0.108 A 
HETATM   12  N3  UNL     1       6.177  59.643  19.844  1.00  0.00    -0.354 N 
HETATM   13  C12 UNL     1       7.046  60.614  19.531  1.00  0.00     0.020 A 
ATOM     14  H3  UNL     1       6.069  58.753  19.358  1.00  0.00     0.166 HD
HETATM   15  C13 UNL     1       8.026  60.583  18.404  1.00  0.00     0.069 C 
HETATM   16  C14 UNL     1       6.914  61.681  20.409  1.00  0.00     0.040 A 
HETATM   17  C17 UNL     1       5.914  61.307  21.282  1.00  0.00    -0.014 A 
HETATM   18  C18 UNL     1       5.431  62.140  22.419  1.00  0.00     0.052 C 
BRANCH  16  19
HETATM   19  C15 UNL     1       7.676  62.914  20.387  1.00  0.00     0.158 C 
HETATM   20  C16 UNL     1       7.475  64.021  19.451  1.00  0.00     0.097 C 
HETATM   21  O5  UNL     1       8.603  63.021  21.278  1.00  0.00    -0.293 OA
ENDBRANCH  16  19
ENDBRANCH   8  11
ENDBRANCH   5   7
BRANCH   4  22
HETATM   22  O3  UNL     1       3.959  58.216  24.497  1.00  0.00    -0.358 OA
ATOM     23  H3  UNL     1       4.906  58.241  24.566  1.00  0.00     0.217 HD
ENDBRANCH   4  22
BRANCH   1  24
HETATM   24  S1  UNL     1       1.409  53.789  21.533  1.00  0.00     0.243 S 
HETATM   25  O1  UNL     1       1.147  54.230  20.115  1.00  0.00    -0.206 OA
HETATM   26  O2  UNL     1       0.077  53.425  22.135  1.00  0.00    -0.206 OA
BRANCH  24  27
HETATM   27  N1  UNL     1       2.432  52.428  21.609  1.00  0.00    -0.207 NA
BRANCH  27  28
HETATM   28  C2  UNL     1       2.853  51.964  20.306  1.00  0.00     0.103 C 
HETATM   29  C1  UNL     1       4.178  51.258  20.461  1.00  0.00     0.021 C 
ENDBRANCH  27  28
BRANCH  27  30
HETATM   30  C3  UNL     1       1.888  51.353  22.412  1.00  0.00     0.103 C 
HETATM   31  C4  UNL     1       2.421  51.456  23.833  1.00  0.00     0.021 C 
ENDBRANCH  27  30
ENDBRANCH  24  27
ENDBRANCH   1  24
TORSDOF 8
ENDMDL
