MODEL 2
REMARK VINA RESULT: -7.141558379      5.734      7.607
REMARK  8 active torsions:
REMARK  status: ('A' for Active; 'I' for Inactive)
REMARK    1  A    between atoms: C2_2  and  N1_3 
REMARK    2  A    between atoms: N1_3  and  C3_4 
REMARK    3  A    between atoms: N1_3  and  S1_6 
REMARK    4  A    between atoms: S1_6  and  C5_9 
REMARK    5  A    between atoms: C8_12  and  O3_13 
REMARK    6  A    between atoms: C9_15  and  N2_16 
REMARK       I    between atoms: N2_16  and  C10_18 
REMARK    7  A    between atoms: C10_18  and  C11_20 
REMARK    8  A    between atoms: C14_25  and  C15_26 
ROOT
HETATM    1  C5  UNL     1       4.797  61.544  24.980  1.00  0.00     0.077 A 
HETATM    2  C6  UNL     1       3.916  62.590  25.049  1.00  0.00     0.028 A 
HETATM    3  C7  UNL     1       3.593  63.363  23.974  1.00  0.00     0.040 A 
HETATM    4  C8  UNL     1       4.185  63.080  22.744  1.00  0.00     0.092 A 
HETATM    5  C9  UNL     1       5.093  62.022  22.624  1.00  0.00     0.070 A 
HETATM    6  C19 UNL     1       5.376  61.282  23.738  1.00  0.00     0.057 A 
ENDROOT
BRANCH   5   7
HETATM    7  N2  UNL     1       5.664  61.780  21.349  1.00  0.00    -0.319 N 
HETATM    8  C10 UNL     1       6.878  62.317  20.850  1.00  0.00     0.273 C 
HETATM    9  O4  UNL     1       7.546  63.079  21.557  1.00  0.00    -0.266 OA
ATOM     10  H2  UNL     1       5.149  61.156  20.728  1.00  0.00     0.169 HD
BRANCH   8  11
HETATM   11  C11 UNL     1       7.330  61.954  19.477  1.00  0.00     0.108 A 
HETATM   12  N3  UNL     1       7.837  62.823  18.575  1.00  0.00    -0.354 N 
HETATM   13  C12 UNL     1       8.133  62.132  17.465  1.00  0.00     0.020 A 
ATOM     14  H3  UNL     1       7.971  63.825  18.713  1.00  0.00     0.166 HD
HETATM   15  C13 UNL     1       8.718  62.696  16.213  1.00  0.00     0.069 C 
HETATM   16  C14 UNL     1       7.818  60.791  17.634  1.00  0.00     0.040 A 
HETATM   17  C17 UNL     1       7.310  60.698  18.914  1.00  0.00    -0.014 A 
HETATM   18  C18 UNL     1       6.821  59.438  19.539  1.00  0.00     0.052 C 
BRANCH  16  19
HETATM   19  C15 UNL     1       8.000  59.733  16.659  1.00  0.00     0.158 C 
HETATM   20  C16 UNL     1       6.929  59.075  15.910  1.00  0.00     0.097 C 
HETATM   21  O5  UNL     1       9.217  59.358  16.453  1.00  0.00    -0.293 OA
ENDBRANCH  16  19
ENDBRANCH   8  11
ENDBRANCH   5   7
BRANCH   4  22
HETATM   22  O3  UNL     1       3.859  63.862  21.658  1.00  0.00    -0.358 OA
ATOM     23  H3  UNL     1       4.044  63.531  20.787  1.00  0.00     0.217 HD
ENDBRANCH   4  22
BRANCH   1  24
HETATM   24  S1  UNL     1       5.198  60.563  26.372  1.00  0.00     0.243 S 
HETATM   25  O1  UNL     1       3.945  60.285  27.164  1.00  0.00    -0.206 OA
HETATM   26  O2  UNL     1       6.148  61.288  27.288  1.00  0.00    -0.206 OA
BRANCH  24  27
HETATM   27  N1  UNL     1       5.949  59.133  25.826  1.00  0.00    -0.207 NA
BRANCH  27  28
HETATM   28  C2  UNL     1       5.011  58.061  25.577  1.00  0.00     0.103 C 
HETATM   29  C1  UNL     1       5.115  57.672  24.123  1.00  0.00     0.021 C 
ENDBRANCH  27  28
BRANCH  27  30
HETATM   30  C3  UNL     1       7.039  58.705  26.678  1.00  0.00     0.103 C 
HETATM   31  C4  UNL     1       6.613  57.486  27.481  1.00  0.00     0.021 C 
ENDBRANCH  27  30
ENDBRANCH  24  27
ENDBRANCH   1  24
TORSDOF 8
ENDMDL
