MODEL 11
REMARK VINA RESULT: -6.806627452      6.906     11.378
REMARK  8 active torsions:
REMARK  status: ('A' for Active; 'I' for Inactive)
REMARK    1  A    between atoms: C2_2  and  N1_3 
REMARK    2  A    between atoms: N1_3  and  C3_4 
REMARK    3  A    between atoms: N1_3  and  S1_6 
REMARK    4  A    between atoms: S1_6  and  C5_9 
REMARK    5  A    between atoms: C8_12  and  O3_13 
REMARK    6  A    between atoms: C9_15  and  N2_16 
REMARK       I    between atoms: N2_16  and  C10_18 
REMARK    7  A    between atoms: C10_18  and  C11_20 
REMARK    8  A    between atoms: C14_25  and  C15_26 
ROOT
HETATM    1  C5  UNL     1       4.779  65.031  29.105  1.00  0.00     0.077 A 
HETATM    2  C6  UNL     1       5.371  64.216  30.034  1.00  0.00     0.028 A 
HETATM    3  C7  UNL     1       6.038  63.073  29.704  1.00  0.00     0.040 A 
HETATM    4  C8  UNL     1       6.123  62.712  28.360  1.00  0.00     0.092 A 
HETATM    5  C9  UNL     1       5.532  63.513  27.375  1.00  0.00     0.070 A 
HETATM    6  C19 UNL     1       4.879  64.647  27.768  1.00  0.00     0.057 A 
ENDROOT
BRANCH   5   7
HETATM    7  N2  UNL     1       5.651  63.096  26.025  1.00  0.00    -0.319 N 
HETATM    8  C10 UNL     1       4.685  62.381  25.272  1.00  0.00     0.273 C 
HETATM    9  O4  UNL     1       3.613  62.062  25.798  1.00  0.00    -0.266 OA
ATOM     10  H2  UNL     1       6.519  63.336  25.546  1.00  0.00     0.169 HD
BRANCH   8  11
HETATM   11  C11 UNL     1       4.978  62.023  23.856  1.00  0.00     0.108 A 
HETATM   12  N3  UNL     1       5.286  62.909  22.882  1.00  0.00    -0.354 N 
HETATM   13  C12 UNL     1       5.488  62.217  21.752  1.00  0.00     0.020 A 
ATOM     14  H3  UNL     1       5.352  63.921  22.988  1.00  0.00     0.166 HD
HETATM   15  C13 UNL     1       5.851  62.797  20.424  1.00  0.00     0.069 C 
HETATM   16  C14 UNL     1       5.311  60.860  21.978  1.00  0.00     0.040 A 
HETATM   17  C17 UNL     1       4.988  60.757  23.316  1.00  0.00    -0.014 A 
HETATM   18  C18 UNL     1       4.694  59.476  24.017  1.00  0.00     0.052 C 
BRANCH  16  19
HETATM   19  C15 UNL     1       5.449  59.798  21.001  1.00  0.00     0.158 C 
HETATM   20  C16 UNL     1       4.369  58.927  20.535  1.00  0.00     0.097 C 
HETATM   21  O5  UNL     1       6.633  59.625  20.518  1.00  0.00    -0.293 OA
ENDBRANCH  16  19
ENDBRANCH   8  11
ENDBRANCH   5   7
BRANCH   4  22
HETATM   22  O3  UNL     1       6.795  61.558  28.027  1.00  0.00    -0.358 OA
ATOM     23  H3  UNL     1       6.303  60.749  27.953  1.00  0.00     0.217 HD
ENDBRANCH   4  22
BRANCH   1  24
HETATM   24  S1  UNL     1       3.929  66.494  29.549  1.00  0.00     0.243 S 
HETATM   25  O1  UNL     1       4.806  67.327  30.450  1.00  0.00    -0.206 OA
HETATM   26  O2  UNL     1       2.676  66.177  30.323  1.00  0.00    -0.206 OA
BRANCH  24  27
HETATM   27  N1  UNL     1       3.496  67.320  28.123  1.00  0.00    -0.207 NA
BRANCH  27  28
HETATM   28  C2  UNL     1       4.092  68.634  28.027  1.00  0.00     0.103 C 
HETATM   29  C1  UNL     1       4.968  68.668  26.799  1.00  0.00     0.021 C 
ENDBRANCH  27  28
BRANCH  27  30
HETATM   30  C3  UNL     1       2.065  67.363  27.904  1.00  0.00     0.103 C 
HETATM   31  C4  UNL     1       1.737  66.758  26.548  1.00  0.00     0.021 C 
ENDBRANCH  27  30
ENDBRANCH  24  27
ENDBRANCH   1  24
TORSDOF 8
ENDMDL
