MODEL 6
REMARK VINA RESULT: -6.972731649      1.613      2.137
REMARK  8 active torsions:
REMARK  status: ('A' for Active; 'I' for Inactive)
REMARK    1  A    between atoms: C2_2  and  N1_3 
REMARK    2  A    between atoms: N1_3  and  C3_4 
REMARK    3  A    between atoms: N1_3  and  S1_6 
REMARK    4  A    between atoms: S1_6  and  C5_9 
REMARK    5  A    between atoms: C8_12  and  O3_13 
REMARK    6  A    between atoms: C9_15  and  N2_16 
REMARK       I    between atoms: N2_16  and  C10_18 
REMARK    7  A    between atoms: C10_18  and  C11_20 
REMARK    8  A    between atoms: C14_25  and  C15_26 
ROOT
HETATM    1  C5  UNL     1       2.110  53.903  22.011  1.00  0.00     0.077 A 
HETATM    2  C6  UNL     1       1.386  53.915  23.173  1.00  0.00     0.028 A 
HETATM    3  C7  UNL     1       1.393  54.964  24.043  1.00  0.00     0.040 A 
HETATM    4  C8  UNL     1       2.173  56.080  23.741  1.00  0.00     0.092 A 
HETATM    5  C9  UNL     1       2.932  56.112  22.565  1.00  0.00     0.070 A 
HETATM    6  C19 UNL     1       2.883  55.030  21.731  1.00  0.00     0.057 A 
ENDROOT
BRANCH   5   7
HETATM    7  N2  UNL     1       3.706  57.273  22.309  1.00  0.00    -0.319 N 
HETATM    8  C10 UNL     1       4.000  57.831  21.038  1.00  0.00     0.273 C 
HETATM    9  O4  UNL     1       3.561  57.292  20.017  1.00  0.00    -0.266 OA
ATOM     10  H2  UNL     1       4.092  57.754  23.121  1.00  0.00     0.169 HD
BRANCH   8  11
HETATM   11  C11 UNL     1       4.836  59.061  20.954  1.00  0.00     0.108 A 
HETATM   12  N3  UNL     1       5.984  59.170  20.250  1.00  0.00    -0.354 N 
HETATM   13  C12 UNL     1       6.444  60.419  20.410  1.00  0.00     0.020 A 
ATOM     14  H3  UNL     1       6.422  58.434  19.695  1.00  0.00     0.166 HD
HETATM   15  C13 UNL     1       7.690  60.977  19.807  1.00  0.00     0.069 C 
HETATM   16  C14 UNL     1       5.592  61.145  21.230  1.00  0.00     0.040 A 
HETATM   17  C17 UNL     1       4.580  60.268  21.565  1.00  0.00    -0.014 A 
HETATM   18  C18 UNL     1       3.431  60.604  22.451  1.00  0.00     0.052 C 
BRANCH  16  19
HETATM   19  C15 UNL     1       5.751  62.530  21.629  1.00  0.00     0.158 C 
HETATM   20  C16 UNL     1       5.524  63.693  20.771  1.00  0.00     0.097 C 
HETATM   21  O5  UNL     1       6.127  62.727  22.848  1.00  0.00    -0.293 OA
ENDBRANCH  16  19
ENDBRANCH   8  11
ENDBRANCH   5   7
BRANCH   4  22
HETATM   22  O3  UNL     1       2.181  57.139  24.620  1.00  0.00    -0.358 OA
ATOM     23  H3  UNL     1       2.842  57.161  25.301  1.00  0.00     0.217 HD
ENDBRANCH   4  22
BRANCH   1  24
HETATM   24  S1  UNL     1       2.087  52.546  20.906  1.00  0.00     0.243 S 
HETATM   25  O1  UNL     1       2.016  51.263  21.694  1.00  0.00    -0.206 OA
HETATM   26  O2  UNL     1       3.351  52.493  20.089  1.00  0.00    -0.206 OA
BRANCH  24  27
HETATM   27  N1  UNL     1       0.761  52.732  19.851  1.00  0.00    -0.207 NA
BRANCH  27  28
HETATM   28  C2  UNL     1      -0.095  51.567  19.808  1.00  0.00     0.103 C 
HETATM   29  C1  UNL     1      -0.176  51.094  18.377  1.00  0.00     0.021 C 
ENDBRANCH  27  28
BRANCH  27  30
HETATM   30  C3  UNL     1       1.149  53.163  18.524  1.00  0.00     0.103 C 
HETATM   31  C4  UNL     1       1.194  54.682  18.472  1.00  0.00     0.021 C 
ENDBRANCH  27  30
ENDBRANCH  24  27
ENDBRANCH   1  24
TORSDOF 8
ENDMDL
