MODEL 2
REMARK VINA RESULT: -6.774685848      1.045      1.507
REMARK  9 active torsions:
REMARK  status: ('A' for Active; 'I' for Inactive)
REMARK    1  A    between atoms: C2_2  and  C3_3 
REMARK    2  A    between atoms: C4_4  and  C5_5 
REMARK       I    between atoms: C5_5  and  N1_7 
REMARK    3  A    between atoms: N1_7  and  C6_9 
REMARK    4  A    between atoms: C8_11  and  S1_12 
REMARK    5  A    between atoms: S1_12  and  N2_15 
REMARK    6  A    between atoms: N2_15  and  C9_16 
REMARK    7  A    between atoms: N2_15  and  C11_18 
REMARK    8  A    between atoms: C15_22  and  O4_23 
REMARK    9  A    between atoms: C18_29  and  C19_30 
ROOT
HETATM    1  C6  UNL     1       4.209  57.417  22.252  1.00  0.00     0.070 A 
HETATM    2  C7  UNL     1       3.723  56.144  22.211  1.00  0.00     0.057 A 
HETATM    3  C8  UNL     1       3.244  55.557  21.032  1.00  0.00     0.082 A 
HETATM    4  C13 UNL     1       3.279  56.317  19.891  1.00  0.00     0.028 A 
HETATM    5  C14 UNL     1       3.753  57.592  19.870  1.00  0.00     0.040 A 
HETATM    6  C15 UNL     1       4.221  58.147  21.056  1.00  0.00     0.092 A 
ENDROOT
BRANCH   1   7
HETATM    7  N1  UNL     1       4.670  58.012  23.455  1.00  0.00    -0.319 N 
HETATM    8  C5  UNL     1       3.953  58.766  24.392  1.00  0.00     0.273 C 
HETATM    9  O1  UNL     1       2.704  58.914  24.107  1.00  0.00    -0.266 OA
ATOM     10  H1  UNL     1       5.658  57.872  23.666  1.00  0.00     0.169 HD
BRANCH   8  11
HETATM   11  C4  UNL     1       4.435  59.382  25.615  1.00  0.00     0.108 A 
HETATM   12  C3  UNL     1       4.864  60.653  25.867  1.00  0.00    -0.009 A 
HETATM   13  C18 UNL     1       5.244  60.734  27.231  1.00  0.00     0.060 A 
HETATM   14  C16 UNL     1       5.020  59.478  27.747  1.00  0.00     0.021 A 
HETATM   15  N3  UNL     1       4.547  58.704  26.783  1.00  0.00    -0.354 N 
HETATM   16  C17 UNL     1       5.276  59.076  29.155  1.00  0.00     0.069 C 
ATOM     17  H3  UNL     1       4.298  57.722  26.905  1.00  0.00     0.166 HD
BRANCH  12  18
HETATM   18  C2  UNL     1       4.978  61.826  24.991  1.00  0.00     0.037 C 
HETATM   19  C1  UNL     1       3.702  62.535  24.694  1.00  0.00     0.010 C 
ENDBRANCH  12  18
BRANCH  13  20
HETATM   20  C19 UNL     1       5.789  61.880  27.949  1.00  0.00     0.267 C 
HETATM   21  N4  UNL     1       4.866  62.904  28.324  1.00  0.00    -0.057 NA
HETATM   22  O5  UNL     1       7.008  62.013  28.251  1.00  0.00    -0.271 OA
ENDBRANCH  13  20
ENDBRANCH   8  11
ENDBRANCH   1   7
BRANCH   6  23
HETATM   23  O4  UNL     1       4.699  59.437  21.021  1.00  0.00    -0.358 OA
ATOM     24  H4  UNL     1       4.256  60.107  20.515  1.00  0.00     0.217 HD
ENDBRANCH   6  23
BRANCH   3  25
HETATM   25  S1  UNL     1       2.612  53.933  20.967  1.00  0.00     0.264 S 
HETATM   26  O2  UNL     1       3.730  53.032  20.549  1.00  0.00    -0.200 OA
HETATM   27  O3  UNL     1       2.150  53.486  22.347  1.00  0.00    -0.200 OA
BRANCH  25  28
HETATM   28  N2  UNL     1       1.291  53.781  19.912  1.00  0.00    -0.287 N 
BRANCH  28  29
HETATM   29  C9  UNL     1       0.034  54.119  20.460  1.00  0.00     0.136 C 
HETATM   30  C10 UNL     1      -0.659  55.172  19.636  1.00  0.00     0.028 C 
ENDBRANCH  28  29
BRANCH  28  31
HETATM   31  C11 UNL     1       1.359  52.772  18.933  1.00  0.00     0.072 C 
HETATM   32  C12 UNL     1       0.635  51.497  19.285  1.00  0.00     0.055 C 
ENDBRANCH  28  31
ENDBRANCH  25  28
ENDBRANCH   3  25
TORSDOF 9
ENDMDL
