MODEL 3
REMARK VINA RESULT: -6.759243078      3.772      6.286
REMARK  9 active torsions:
REMARK  status: ('A' for Active; 'I' for Inactive)
REMARK    1  A    between atoms: C2_2  and  C3_3 
REMARK    2  A    between atoms: C4_4  and  C5_5 
REMARK       I    between atoms: C5_5  and  N1_7 
REMARK    3  A    between atoms: N1_7  and  C6_9 
REMARK    4  A    between atoms: C8_11  and  S1_12 
REMARK    5  A    between atoms: S1_12  and  N2_15 
REMARK    6  A    between atoms: N2_15  and  C9_16 
REMARK    7  A    between atoms: N2_15  and  C11_18 
REMARK    8  A    between atoms: C15_22  and  O4_23 
REMARK    9  A    between atoms: C18_29  and  C19_30 
ROOT
HETATM    1  C6  UNL     1       3.879  57.078  21.778  1.00  0.00     0.070 A 
HETATM    2  C7  UNL     1       3.562  57.332  23.078  1.00  0.00     0.057 A 
HETATM    3  C8  UNL     1       2.747  56.480  23.836  1.00  0.00     0.082 A 
HETATM    4  C13 UNL     1       2.266  55.354  23.218  1.00  0.00     0.028 A 
HETATM    5  C14 UNL     1       2.548  55.048  21.923  1.00  0.00     0.040 A 
HETATM    6  C15 UNL     1       3.359  55.913  21.197  1.00  0.00     0.092 A 
ENDROOT
BRANCH   1   7
HETATM    7  N1  UNL     1       4.685  57.959  21.010  1.00  0.00    -0.319 N 
HETATM    8  C5  UNL     1       5.250  59.183  21.384  1.00  0.00     0.273 C 
HETATM    9  O1  UNL     1       5.001  59.530  22.601  1.00  0.00    -0.266 OA
ATOM     10  H1  UNL     1       4.879  57.658  20.054  1.00  0.00     0.169 HD
BRANCH   8  11
HETATM   11  C4  UNL     1       6.064  60.084  20.588  1.00  0.00     0.108 A 
HETATM   12  C3  UNL     1       6.274  61.428  20.693  1.00  0.00    -0.009 A 
HETATM   13  C18 UNL     1       7.148  61.827  19.650  1.00  0.00     0.060 A 
HETATM   14  C16 UNL     1       7.431  60.676  18.952  1.00  0.00     0.021 A 
HETATM   15  N3  UNL     1       6.785  59.669  19.518  1.00  0.00    -0.354 N 
HETATM   16  C17 UNL     1       8.315  60.597  17.759  1.00  0.00     0.069 C 
ATOM     17  H3  UNL     1       6.826  58.703  19.192  1.00  0.00     0.166 HD
BRANCH  12  18
HETATM   18  C2  UNL     1       5.753  62.417  21.647  1.00  0.00     0.037 C 
HETATM   19  C1  UNL     1       4.314  62.767  21.489  1.00  0.00     0.010 C 
ENDBRANCH  12  18
BRANCH  13  20
HETATM   20  C19 UNL     1       7.633  63.167  19.343  1.00  0.00     0.267 C 
HETATM   21  N4  UNL     1       8.371  63.323  18.129  1.00  0.00    -0.057 NA
HETATM   22  O5  UNL     1       7.440  64.177  20.077  1.00  0.00    -0.271 OA
ENDBRANCH  13  20
ENDBRANCH   8  11
ENDBRANCH   1   7
BRANCH   6  23
HETATM   23  O4  UNL     1       3.639  55.591  19.888  1.00  0.00    -0.358 OA
ATOM     24  H4  UNL     1       2.958  55.266  19.311  1.00  0.00     0.217 HD
ENDBRANCH   6  23
BRANCH   3  25
HETATM   25  S1  UNL     1       2.327  56.797  25.499  1.00  0.00     0.264 S 
HETATM   26  O2  UNL     1       0.908  56.365  25.694  1.00  0.00    -0.200 OA
HETATM   27  O3  UNL     1       3.195  55.967  26.435  1.00  0.00    -0.200 OA
BRANCH  25  28
HETATM   28  N2  UNL     1       2.523  58.426  25.931  1.00  0.00    -0.287 N 
BRANCH  28  29
HETATM   29  C9  UNL     1       3.599  58.697  26.805  1.00  0.00     0.136 C 
HETATM   30  C10 UNL     1       4.716  59.419  26.096  1.00  0.00     0.028 C 
ENDBRANCH  28  29
BRANCH  28  31
HETATM   31  C11 UNL     1       1.363  59.218  26.012  1.00  0.00     0.072 C 
HETATM   32  C12 UNL     1       0.963  59.889  24.722  1.00  0.00     0.055 C 
ENDBRANCH  28  31
ENDBRANCH  25  28
ENDBRANCH   3  25
TORSDOF 9
ENDMDL
