MODEL 1
REMARK VINA RESULT: -6.822441006      0.000      0.000
REMARK  9 active torsions:
REMARK  status: ('A' for Active; 'I' for Inactive)
REMARK    1  A    between atoms: C2_2  and  C3_3 
REMARK    2  A    between atoms: C4_4  and  C5_5 
REMARK       I    between atoms: C5_5  and  N1_7 
REMARK    3  A    between atoms: N1_7  and  C6_9 
REMARK    4  A    between atoms: C8_11  and  S1_12 
REMARK    5  A    between atoms: S1_12  and  N2_15 
REMARK    6  A    between atoms: N2_15  and  C9_16 
REMARK    7  A    between atoms: N2_15  and  C11_18 
REMARK    8  A    between atoms: C15_22  and  O4_23 
REMARK    9  A    between atoms: C18_29  and  C19_30 
ROOT
HETATM    1  C6  UNL     1       4.186  57.355  22.049  1.00  0.00     0.070 A 
HETATM    2  C7  UNL     1       3.622  56.123  21.905  1.00  0.00     0.057 A 
HETATM    3  C8  UNL     1       3.164  55.643  20.671  1.00  0.00     0.082 A 
HETATM    4  C13 UNL     1       3.301  56.468  19.584  1.00  0.00     0.028 A 
HETATM    5  C14 UNL     1       3.855  57.708  19.666  1.00  0.00     0.040 A 
HETATM    6  C15 UNL     1       4.301  58.156  20.904  1.00  0.00     0.092 A 
ENDROOT
BRANCH   1   7
HETATM    7  N1  UNL     1       4.626  57.843  23.307  1.00  0.00    -0.319 N 
HETATM    8  C5  UNL     1       4.069  58.852  24.101  1.00  0.00     0.273 C 
HETATM    9  O1  UNL     1       3.005  59.387  23.606  1.00  0.00    -0.266 OA
ATOM     10  H1  UNL     1       5.463  57.398  23.684  1.00  0.00     0.169 HD
BRANCH   8  11
HETATM   11  C4  UNL     1       4.533  59.354  25.382  1.00  0.00     0.108 A 
HETATM   12  C3  UNL     1       4.891  60.611  25.773  1.00  0.00    -0.009 A 
HETATM   13  C18 UNL     1       5.286  60.560  27.134  1.00  0.00     0.060 A 
HETATM   14  C16 UNL     1       5.144  59.244  27.506  1.00  0.00     0.021 A 
HETATM   15  N3  UNL     1       4.701  58.556  26.465  1.00  0.00    -0.354 N 
HETATM   16  C17 UNL     1       5.443  58.701  28.857  1.00  0.00     0.069 C 
ATOM     17  H3  UNL     1       4.511  57.554  26.476  1.00  0.00     0.166 HD
BRANCH  12  18
HETATM   18  C2  UNL     1       4.924  61.881  25.035  1.00  0.00     0.037 C 
HETATM   19  C1  UNL     1       3.636  62.628  24.980  1.00  0.00     0.010 C 
ENDBRANCH  12  18
BRANCH  13  20
HETATM   20  C19 UNL     1       5.775  61.649  27.973  1.00  0.00     0.267 C 
HETATM   21  N4  UNL     1       4.792  62.521  28.534  1.00  0.00    -0.057 NA
HETATM   22  O5  UNL     1       6.995  61.857  28.224  1.00  0.00    -0.271 OA
ENDBRANCH  13  20
ENDBRANCH   8  11
ENDBRANCH   1   7
BRANCH   6  23
HETATM   23  O4  UNL     1       4.861  59.412  20.974  1.00  0.00    -0.358 OA
ATOM     24  H4  UNL     1       5.507  59.693  20.337  1.00  0.00     0.217 HD
ENDBRANCH   6  23
BRANCH   3  25
HETATM   25  S1  UNL     1       2.434  54.072  20.473  1.00  0.00     0.264 S 
HETATM   26  O2  UNL     1       2.086  53.916  19.026  1.00  0.00    -0.200 OA
HETATM   27  O3  UNL     1       3.427  52.975  20.829  1.00  0.00    -0.200 OA
BRANCH  25  28
HETATM   28  N2  UNL     1       1.061  53.854  21.447  1.00  0.00    -0.287 N 
BRANCH  28  29
HETATM   29  C9  UNL     1       1.274  53.131  22.642  1.00  0.00     0.136 C 
HETATM   30  C10 UNL     1       1.238  54.036  23.846  1.00  0.00     0.028 C 
ENDBRANCH  28  29
BRANCH  28  31
HETATM   31  C11 UNL     1      -0.183  53.748  20.798  1.00  0.00     0.072 C 
HETATM   32  C12 UNL     1      -0.598  54.973  20.022  1.00  0.00     0.055 C 
ENDBRANCH  28  31
ENDBRANCH  25  28
ENDBRANCH   3  25
TORSDOF 9
ENDMDL
