MODEL 20
REMARK VINA RESULT: -6.378776175      3.141      4.995
REMARK  9 active torsions:
REMARK  status: ('A' for Active; 'I' for Inactive)
REMARK    1  A    between atoms: C2_2  and  C3_3 
REMARK    2  A    between atoms: C4_4  and  C5_5 
REMARK       I    between atoms: C5_5  and  N1_7 
REMARK    3  A    between atoms: N1_7  and  C6_9 
REMARK    4  A    between atoms: C8_11  and  S1_12 
REMARK    5  A    between atoms: S1_12  and  N2_15 
REMARK    6  A    between atoms: N2_15  and  C9_16 
REMARK    7  A    between atoms: N2_15  and  C11_18 
REMARK    8  A    between atoms: C15_22  and  O4_23 
REMARK    9  A    between atoms: C18_29  and  C19_30 
ROOT
HETATM    1  C6  UNL     1       2.660  55.699  22.318  1.00  0.00     0.070 A 
HETATM    2  C7  UNL     1       2.447  54.932  21.212  1.00  0.00     0.057 A 
HETATM    3  C8  UNL     1       1.703  53.745  21.248  1.00  0.00     0.082 A 
HETATM    4  C13 UNL     1       1.180  53.367  22.459  1.00  0.00     0.028 A 
HETATM    5  C14 UNL     1       1.359  54.090  23.597  1.00  0.00     0.040 A 
HETATM    6  C15 UNL     1       2.103  55.263  23.528  1.00  0.00     0.092 A 
ENDROOT
BRANCH   1   7
HETATM    7  N1  UNL     1       3.436  56.886  22.277  1.00  0.00    -0.319 N 
HETATM    8  C5  UNL     1       3.909  57.588  21.162  1.00  0.00     0.273 C 
HETATM    9  O1  UNL     1       3.570  57.072  20.030  1.00  0.00    -0.266 OA
ATOM     10  H1  UNL     1       3.683  57.283  23.184  1.00  0.00     0.169 HD
BRANCH   8  11
HETATM   11  C4  UNL     1       4.714  58.797  21.129  1.00  0.00     0.108 A 
HETATM   12  C3  UNL     1       4.544  60.000  21.749  1.00  0.00    -0.009 A 
HETATM   13  C18 UNL     1       5.612  60.853  21.369  1.00  0.00     0.060 A 
HETATM   14  C16 UNL     1       6.392  60.103  20.520  1.00  0.00     0.021 A 
HETATM   15  N3  UNL     1       5.847  58.903  20.394  1.00  0.00    -0.354 N 
HETATM   16  C17 UNL     1       7.636  60.579  19.860  1.00  0.00     0.069 C 
ATOM     17  H3  UNL     1       6.231  58.154  19.817  1.00  0.00     0.166 HD
BRANCH  12  18
HETATM   18  C2  UNL     1       3.496  60.480  22.660  1.00  0.00     0.037 C 
HETATM   19  C1  UNL     1       3.630  60.047  24.079  1.00  0.00     0.010 C 
ENDBRANCH  12  18
BRANCH  13  20
HETATM   20  C19 UNL     1       5.839  62.240  21.755  1.00  0.00     0.267 C 
HETATM   21  N4  UNL     1       6.059  63.176  20.698  1.00  0.00    -0.057 NA
HETATM   22  O5  UNL     1       5.852  62.651  22.949  1.00  0.00    -0.271 OA
ENDBRANCH  13  20
ENDBRANCH   8  11
ENDBRANCH   1   7
BRANCH   6  23
HETATM   23  O4  UNL     1       2.276  55.987  24.686  1.00  0.00    -0.358 OA
ATOM     24  H4  UNL     1       2.081  55.605  25.533  1.00  0.00     0.217 HD
ENDBRANCH   6  23
BRANCH   3  25
HETATM   25  S1  UNL     1       1.428  52.751  19.843  1.00  0.00     0.264 S 
HETATM   26  O2  UNL     1       0.016  52.261  19.907  1.00  0.00    -0.200 OA
HETATM   27  O3  UNL     1       1.572  53.575  18.571  1.00  0.00    -0.200 OA
BRANCH  25  28
HETATM   28  N2  UNL     1       2.512  51.449  19.733  1.00  0.00    -0.287 N 
BRANCH  28  29
HETATM   29  C9  UNL     1       1.946  50.221  19.323  1.00  0.00     0.136 C 
HETATM   30  C10 UNL     1       1.887  50.118  17.821  1.00  0.00     0.028 C 
ENDBRANCH  28  29
BRANCH  28  31
HETATM   31  C11 UNL     1       3.598  51.435  20.628  1.00  0.00     0.072 C 
HETATM   32  C12 UNL     1       4.642  50.385  20.340  1.00  0.00     0.055 C 
ENDBRANCH  28  31
ENDBRANCH  25  28
ENDBRANCH   3  25
TORSDOF 9
ENDMDL
