MODEL 5
REMARK VINA RESULT: -7.497917602      1.303      1.568
REMARK  14 active torsions:
REMARK  status: ('A' for Active; 'I' for Inactive)
REMARK       I    between atoms: C2_2  and  N1_4 
REMARK    1  A    between atoms: N1_4  and  C3_6 
REMARK    2  A    between atoms: C3_6  and  C4_7 
REMARK    3  A    between atoms: C3_6  and  C14_28 
REMARK    4  A    between atoms: C4_7  and  C5_8 
REMARK    5  A    between atoms: C5_8  and  P1_9 
REMARK    6  A    between atoms: P1_9  and  C6_12 
REMARK    7  A    between atoms: C6_12  and  C7_13 
REMARK    8  A    between atoms: C7_13  and  C8_14 
REMARK    9  A    between atoms: C7_13  and  C13_25 
REMARK   10  A    between atoms: C8_14  and  C9_15 
REMARK   11  A    between atoms: C9_15  and  C10_16 
REMARK   12  A    between atoms: C10_16  and  C11_17 
REMARK   13  A    between atoms: C11_17  and  N2_18 
REMARK   14  A    between atoms: C11_17  and  C12_22 
ROOT
HETATM    1  C6  UNL     1       0.122  25.408  -6.490  1.00  0.00     0.119 C 
ENDROOT
BRANCH   1   2
HETATM    2  P1  UNL     1      -0.230  23.714  -5.908  1.00  0.00     0.107 P 
HETATM    3  O2  UNL     1      -0.649  23.759  -4.227  1.00  0.00    -0.667 OA
HETATM    4  O3  UNL     1      -1.545  23.061  -6.826  1.00  0.00    -0.667 OA
BRANCH   2   5
HETATM    5  C5  UNL     1       1.249  22.663  -6.133  1.00  0.00     0.106 C 
BRANCH   5   6
HETATM    6  C4  UNL     1       1.411  21.897  -4.871  1.00  0.00     0.046 C 
BRANCH   6   7
HETATM    7  C3  UNL     1       0.972  20.459  -4.974  1.00  0.00     0.186 C 
BRANCH   7   8
HETATM    8  N1  UNL     1       0.060  20.421  -6.134  1.00  0.00    -0.347 N 
HETATM    9  C2  UNL     1      -1.162  19.694  -6.087  1.00  0.00     0.214 C 
HETATM   10  C1  UNL     1      -2.074  19.664  -7.267  1.00  0.00     0.117 C 
HETATM   11  O1  UNL     1      -1.468  19.065  -5.019  1.00  0.00    -0.274 OA
ATOM     12  H1  UNL     1       0.309  20.926  -6.985  1.00  0.00     0.163 HD
ENDBRANCH   7   8
BRANCH   7  13
HETATM   13  C14 UNL     1       2.161  19.619  -5.243  1.00  0.00     0.196 C 
HETATM   14  O8  UNL     1       2.720  19.626  -6.392  1.00  0.00    -0.646 OA
HETATM   15  O9  UNL     1       2.728  18.793  -4.299  1.00  0.00    -0.646 OA
ENDBRANCH   7  13
ENDBRANCH   6   7
ENDBRANCH   5   6
ENDBRANCH   2   5
ENDBRANCH   1   2
BRANCH   1  16
HETATM   16  C7  UNL     1      -0.950  25.781  -7.450  1.00  0.00     0.096 C 
BRANCH  16  17
HETATM   17  C8  UNL     1      -0.369  26.791  -8.447  1.00  0.00     0.016 C 
BRANCH  17  18
HETATM   18  C9  UNL     1       0.036  27.979  -7.638  1.00  0.00     0.003 C 
BRANCH  18  19
HETATM   19  C10 UNL     1       0.470  29.124  -8.434  1.00  0.00     0.044 C 
BRANCH  19  20
HETATM   20  C11 UNL     1      -0.233  30.418  -8.433  1.00  0.00     0.283 C 
BRANCH  20  21
HETATM   21  N2  UNL     1      -0.934  30.440  -9.779  1.00  0.00    -0.065 N 
ATOM     22  H23 UNL     1      -0.404  30.892 -10.525  1.00  0.00     0.275 HD
ATOM     23  H22 UNL     1      -1.003  29.531 -10.235  1.00  0.00     0.275 HD
ATOM     24  H21 UNL     1      -1.831  30.879  -9.572  1.00  0.00     0.275 HD
ENDBRANCH  20  21
BRANCH  20  25
HETATM   25  C12 UNL     1      -1.259  30.693  -7.452  1.00  0.00     0.204 C 
HETATM   26  O4  UNL     1      -1.059  30.474  -6.229  1.00  0.00    -0.646 OA
HETATM   27  O5  UNL     1      -2.498  31.195  -7.803  1.00  0.00    -0.646 OA
ENDBRANCH  20  25
ENDBRANCH  19  20
ENDBRANCH  18  19
ENDBRANCH  17  18
ENDBRANCH  16  17
BRANCH  16  28
HETATM   28  C13 UNL     1      -2.154  26.298  -6.792  1.00  0.00     0.177 C 
HETATM   29  O6  UNL     1      -2.975  27.056  -7.412  1.00  0.00    -0.648 OA
HETATM   30  O7  UNL     1      -2.457  25.996  -5.481  1.00  0.00    -0.648 OA
ENDBRANCH  16  28
ENDBRANCH   1  16
TORSDOF 14
ENDMDL
