MODEL 9
REMARK VINA RESULT: -7.346510830      1.250      1.567
REMARK  14 active torsions:
REMARK  status: ('A' for Active; 'I' for Inactive)
REMARK       I    between atoms: C2_2  and  N1_4 
REMARK    1  A    between atoms: N1_4  and  C3_6 
REMARK    2  A    between atoms: C3_6  and  C4_7 
REMARK    3  A    between atoms: C3_6  and  C14_28 
REMARK    4  A    between atoms: C4_7  and  C5_8 
REMARK    5  A    between atoms: C5_8  and  P1_9 
REMARK    6  A    between atoms: P1_9  and  C6_12 
REMARK    7  A    between atoms: C6_12  and  C7_13 
REMARK    8  A    between atoms: C7_13  and  C8_14 
REMARK    9  A    between atoms: C7_13  and  C13_25 
REMARK   10  A    between atoms: C8_14  and  C9_15 
REMARK   11  A    between atoms: C9_15  and  C10_16 
REMARK   12  A    between atoms: C10_16  and  C11_17 
REMARK   13  A    between atoms: C11_17  and  N2_18 
REMARK   14  A    between atoms: C11_17  and  C12_22 
ROOT
HETATM    1  C6  UNL     1      -0.154  23.777  -7.250  1.00  0.00     0.119 C 
ENDROOT
BRANCH   1   2
HETATM    2  P1  UNL     1      -1.453  22.499  -7.354  1.00  0.00     0.107 P 
HETATM    3  O2  UNL     1      -2.819  22.989  -6.407  1.00  0.00    -0.667 OA
HETATM    4  O3  UNL     1      -1.924  22.302  -9.009  1.00  0.00    -0.667 OA
BRANCH   2   5
HETATM    5  C5  UNL     1      -0.813  20.912  -6.712  1.00  0.00     0.106 C 
BRANCH   5   6
HETATM    6  C4  UNL     1       0.329  21.251  -5.826  1.00  0.00     0.046 C 
BRANCH   6   7
HETATM    7  C3  UNL     1       0.684  20.161  -4.848  1.00  0.00     0.186 C 
BRANCH   7   8
HETATM    8  N1  UNL     1      -0.333  19.112  -5.062  1.00  0.00    -0.347 N 
HETATM    9  C2  UNL     1      -0.853  18.358  -3.974  1.00  0.00     0.214 C 
HETATM   10  C1  UNL     1      -1.881  17.301  -4.205  1.00  0.00     0.117 C 
HETATM   11  O1  UNL     1      -0.430  18.598  -2.794  1.00  0.00    -0.274 OA
ATOM     12  H1  UNL     1      -0.668  18.924  -6.007  1.00  0.00     0.163 HD
ENDBRANCH   7   8
BRANCH   7  13
HETATM   13  C14 UNL     1       2.025  19.636  -5.190  1.00  0.00     0.196 C 
HETATM   14  O8  UNL     1       2.681  20.111  -6.178  1.00  0.00    -0.646 OA
HETATM   15  O9  UNL     1       2.640  18.624  -4.485  1.00  0.00    -0.646 OA
ENDBRANCH   7  13
ENDBRANCH   6   7
ENDBRANCH   5   6
ENDBRANCH   2   5
ENDBRANCH   1   2
BRANCH   1  16
HETATM   16  C7  UNL     1      -0.833  25.097  -7.182  1.00  0.00     0.096 C 
BRANCH  16  17
HETATM   17  C8  UNL     1       0.155  26.169  -7.657  1.00  0.00     0.016 C 
BRANCH  17  18
HETATM   18  C9  UNL     1      -0.620  27.443  -7.720  1.00  0.00     0.003 C 
BRANCH  18  19
HETATM   19  C10 UNL     1      -0.021  28.466  -8.573  1.00  0.00     0.044 C 
BRANCH  19  20
HETATM   20  C11 UNL     1      -0.151  29.910  -8.311  1.00  0.00     0.283 C 
BRANCH  20  21
HETATM   21  N2  UNL     1      -0.244  30.513  -9.701  1.00  0.00    -0.065 N 
ATOM     22  H23 UNL     1      -0.364  29.832 -10.451  1.00  0.00     0.275 HD
ATOM     23  H22 UNL     1      -1.107  31.024  -9.884  1.00  0.00     0.275 HD
ATOM     24  H21 UNL     1       0.604  31.075  -9.773  1.00  0.00     0.275 HD
ENDBRANCH  20  21
BRANCH  20  25
HETATM   25  C12 UNL     1      -1.291  30.422  -7.584  1.00  0.00     0.204 C 
HETATM   26  O4  UNL     1      -2.319  30.818  -8.191  1.00  0.00    -0.646 OA
HETATM   27  O5  UNL     1      -1.305  30.510  -6.205  1.00  0.00    -0.646 OA
ENDBRANCH  20  25
ENDBRANCH  19  20
ENDBRANCH  18  19
ENDBRANCH  17  18
ENDBRANCH  16  17
BRANCH  16  28
HETATM   28  C13 UNL     1      -1.363  25.400  -5.848  1.00  0.00     0.177 C 
HETATM   29  O6  UNL     1      -0.698  25.126  -4.792  1.00  0.00    -0.648 OA
HETATM   30  O7  UNL     1      -2.596  25.991  -5.669  1.00  0.00    -0.648 OA
ENDBRANCH  16  28
ENDBRANCH   1  16
TORSDOF 14
ENDMDL
