MODEL 1
REMARK VINA RESULT: -7.703188922      0.000      0.000
REMARK  14 active torsions:
REMARK  status: ('A' for Active; 'I' for Inactive)
REMARK       I    between atoms: C2_2  and  N1_4 
REMARK    1  A    between atoms: N1_4  and  C3_6 
REMARK    2  A    between atoms: C3_6  and  C4_7 
REMARK    3  A    between atoms: C3_6  and  C14_28 
REMARK    4  A    between atoms: C4_7  and  C5_8 
REMARK    5  A    between atoms: C5_8  and  P1_9 
REMARK    6  A    between atoms: P1_9  and  C6_12 
REMARK    7  A    between atoms: C6_12  and  C7_13 
REMARK    8  A    between atoms: C7_13  and  C8_14 
REMARK    9  A    between atoms: C7_13  and  C13_25 
REMARK   10  A    between atoms: C8_14  and  C9_15 
REMARK   11  A    between atoms: C9_15  and  C10_16 
REMARK   12  A    between atoms: C10_16  and  C11_17 
REMARK   13  A    between atoms: C11_17  and  N2_18 
REMARK   14  A    between atoms: C11_17  and  C12_22 
ROOT
HETATM    1  C6  UNL     1       0.325  24.592  -6.777  1.00  0.00     0.119 C 
ENDROOT
BRANCH   1   2
HETATM    2  P1  UNL     1       0.122  23.155  -5.671  1.00  0.00     0.107 P 
HETATM    3  O2  UNL     1      -0.433  23.697  -4.121  1.00  0.00    -0.667 OA
HETATM    4  O3  UNL     1      -1.033  22.066  -6.362  1.00  0.00    -0.667 OA
BRANCH   2   5
HETATM    5  C5  UNL     1       1.723  22.296  -5.470  1.00  0.00     0.106 C 
BRANCH   5   6
HETATM    6  C4  UNL     1       1.554  20.952  -6.078  1.00  0.00     0.046 C 
BRANCH   6   7
HETATM    7  C3  UNL     1       1.341  19.853  -5.069  1.00  0.00     0.186 C 
BRANCH   7   8
HETATM    8  N1  UNL     1       0.008  19.301  -5.382  1.00  0.00    -0.347 N 
HETATM    9  C2  UNL     1      -0.784  18.677  -4.379  1.00  0.00     0.214 C 
HETATM   10  C1  UNL     1      -2.130  18.123  -4.709  1.00  0.00     0.117 C 
HETATM   11  O1  UNL     1      -0.328  18.595  -3.190  1.00  0.00    -0.274 OA
ATOM     12  H1  UNL     1      -0.352  19.369  -6.334  1.00  0.00     0.163 HD
ENDBRANCH   7   8
BRANCH   7  13
HETATM   13  C14 UNL     1       2.375  18.813  -5.277  1.00  0.00     0.196 C 
HETATM   14  O8  UNL     1       2.873  18.179  -4.286  1.00  0.00    -0.646 OA
HETATM   15  O9  UNL     1       2.860  18.472  -6.520  1.00  0.00    -0.646 OA
ENDBRANCH   7  13
ENDBRANCH   6   7
ENDBRANCH   5   6
ENDBRANCH   2   5
ENDBRANCH   1   2
BRANCH   1  16
HETATM   16  C7  UNL     1      -1.029  24.992  -7.241  1.00  0.00     0.096 C 
BRANCH  16  17
HETATM   17  C8  UNL     1      -0.870  26.122  -8.265  1.00  0.00     0.016 C 
BRANCH  17  18
HETATM   18  C9  UNL     1       0.215  27.002  -7.741  1.00  0.00     0.003 C 
BRANCH  18  19
HETATM   19  C10 UNL     1       0.452  28.201  -8.541  1.00  0.00     0.044 C 
BRANCH  19  20
HETATM   20  C11 UNL     1       0.100  29.557  -8.085  1.00  0.00     0.283 C 
BRANCH  20  21
HETATM   21  N2  UNL     1      -0.008  30.346  -9.377  1.00  0.00    -0.065 N 
ATOM     22  H23 UNL     1       0.690  30.104 -10.080  1.00  0.00     0.275 HD
ATOM     23  H22 UNL     1      -0.820  30.113  -9.948  1.00  0.00     0.275 HD
ATOM     24  H21 UNL     1       0.025  31.317  -9.064  1.00  0.00     0.275 HD
ENDBRANCH  20  21
BRANCH  20  25
HETATM   25  C12 UNL     1      -1.139  29.792  -7.376  1.00  0.00     0.204 C 
HETATM   26  O4  UNL     1      -2.226  29.329  -7.806  1.00  0.00    -0.646 OA
HETATM   27  O5  UNL     1      -1.191  30.534  -6.212  1.00  0.00    -0.646 OA
ENDBRANCH  20  25
ENDBRANCH  19  20
ENDBRANCH  18  19
ENDBRANCH  17  18
ENDBRANCH  16  17
BRANCH  16  28
HETATM   28  C13 UNL     1      -1.919  25.379  -6.141  1.00  0.00     0.177 C 
HETATM   29  O6  UNL     1      -1.696  26.426  -5.443  1.00  0.00    -0.648 OA
HETATM   30  O7  UNL     1      -3.032  24.637  -5.807  1.00  0.00    -0.648 OA
ENDBRANCH  16  28
ENDBRANCH   1  16
TORSDOF 14
ENDMDL
