MODEL 14
REMARK VINA RESULT: -7.048738027      2.784      7.943
REMARK  14 active torsions:
REMARK  status: ('A' for Active; 'I' for Inactive)
REMARK       I    between atoms: C2_2  and  N1_4 
REMARK    1  A    between atoms: N1_4  and  C3_6 
REMARK    2  A    between atoms: C3_6  and  C4_7 
REMARK    3  A    between atoms: C3_6  and  C14_28 
REMARK    4  A    between atoms: C4_7  and  C5_8 
REMARK    5  A    between atoms: C5_8  and  P1_9 
REMARK    6  A    between atoms: P1_9  and  C6_12 
REMARK    7  A    between atoms: C6_12  and  C7_13 
REMARK    8  A    between atoms: C7_13  and  C8_14 
REMARK    9  A    between atoms: C7_13  and  C13_25 
REMARK   10  A    between atoms: C8_14  and  C9_15 
REMARK   11  A    between atoms: C9_15  and  C10_16 
REMARK   12  A    between atoms: C10_16  and  C11_17 
REMARK   13  A    between atoms: C11_17  and  N2_18 
REMARK   14  A    between atoms: C11_17  and  C12_22 
ROOT
HETATM    1  C6  UNL     1      -0.344  20.645  -6.001  1.00  0.00     0.119 C 
ENDROOT
BRANCH   1   2
HETATM    2  P1  UNL     1       1.178  21.206  -5.164  1.00  0.00     0.107 P 
HETATM    3  O2  UNL     1       1.109  20.763  -3.490  1.00  0.00    -0.667 OA
HETATM    4  O3  UNL     1       2.547  20.458  -5.916  1.00  0.00    -0.667 OA
BRANCH   2   5
HETATM    5  C5  UNL     1       1.326  23.023  -5.301  1.00  0.00     0.106 C 
BRANCH   5   6
HETATM    6  C4  UNL     1       0.545  23.415  -6.501  1.00  0.00     0.046 C 
BRANCH   6   7
HETATM    7  C3  UNL     1      -0.262  24.674  -6.314  1.00  0.00     0.186 C 
BRANCH   7   8
HETATM    8  N1  UNL     1       0.371  25.668  -7.204  1.00  0.00    -0.347 N 
HETATM    9  C2  UNL     1      -0.053  27.025  -7.211  1.00  0.00     0.214 C 
HETATM   10  C1  UNL     1       0.596  28.019  -8.115  1.00  0.00     0.117 C 
HETATM   11  O1  UNL     1      -0.998  27.384  -6.432  1.00  0.00    -0.274 OA
ATOM     12  H1  UNL     1       1.127  25.376  -7.824  1.00  0.00     0.163 HD
ENDBRANCH   7   8
BRANCH   7  13
HETATM   13  C14 UNL     1      -1.651  24.417  -6.757  1.00  0.00     0.196 C 
HETATM   14  O8  UNL     1      -2.630  24.537  -5.945  1.00  0.00    -0.646 OA
HETATM   15  O9  UNL     1      -1.972  24.037  -8.042  1.00  0.00    -0.646 OA
ENDBRANCH   7  13
ENDBRANCH   6   7
ENDBRANCH   5   6
ENDBRANCH   2   5
ENDBRANCH   1   2
BRANCH   1  16
HETATM   16  C7  UNL     1      -0.169  19.205  -6.324  1.00  0.00     0.096 C 
BRANCH  16  17
HETATM   17  C8  UNL     1      -0.527  18.998  -7.801  1.00  0.00     0.016 C 
BRANCH  17  18
HETATM   18  C9  UNL     1      -1.693  19.891  -8.069  1.00  0.00     0.003 C 
BRANCH  18  19
HETATM   19  C10 UNL     1      -2.869  19.199  -8.589  1.00  0.00     0.044 C 
BRANCH  19  20
HETATM   20  C11 UNL     1      -4.085  18.967  -7.790  1.00  0.00     0.283 C 
BRANCH  20  21
HETATM   21  N2  UNL     1      -3.927  17.534  -7.316  1.00  0.00    -0.065 N 
ATOM     22  H23 UNL     1      -4.616  16.884  -7.694  1.00  0.00     0.275 HD
ATOM     23  H22 UNL     1      -3.110  17.053  -7.690  1.00  0.00     0.275 HD
ATOM     24  H21 UNL     1      -3.939  17.619  -6.299  1.00  0.00     0.275 HD
ENDBRANCH  20  21
BRANCH  20  25
HETATM   25  C12 UNL     1      -4.340  19.749  -6.601  1.00  0.00     0.204 C 
HETATM   26  O4  UNL     1      -4.287  19.224  -5.460  1.00  0.00    -0.646 OA
HETATM   27  O5  UNL     1      -4.659  21.092  -6.658  1.00  0.00    -0.646 OA
ENDBRANCH  20  25
ENDBRANCH  19  20
ENDBRANCH  18  19
ENDBRANCH  17  18
ENDBRANCH  16  17
BRANCH  16  28
HETATM   28  C13 UNL     1      -0.948  18.323  -5.448  1.00  0.00     0.177 C 
HETATM   29  O6  UNL     1      -1.310  17.159  -5.831  1.00  0.00    -0.648 OA
HETATM   30  O7  UNL     1      -1.327  18.704  -4.178  1.00  0.00    -0.648 OA
ENDBRANCH  16  28
ENDBRANCH   1  16
TORSDOF 14
ENDMDL
