MODEL 3
REMARK VINA RESULT: -7.557513131      0.915      1.249
REMARK  14 active torsions:
REMARK  status: ('A' for Active; 'I' for Inactive)
REMARK       I    between atoms: C2_2  and  N1_4 
REMARK    1  A    between atoms: N1_4  and  C3_6 
REMARK    2  A    between atoms: C3_6  and  C4_7 
REMARK    3  A    between atoms: C3_6  and  C14_28 
REMARK    4  A    between atoms: C4_7  and  C5_8 
REMARK    5  A    between atoms: C5_8  and  P1_9 
REMARK    6  A    between atoms: P1_9  and  C6_12 
REMARK    7  A    between atoms: C6_12  and  C7_13 
REMARK    8  A    between atoms: C7_13  and  C8_14 
REMARK    9  A    between atoms: C7_13  and  C13_25 
REMARK   10  A    between atoms: C8_14  and  C9_15 
REMARK   11  A    between atoms: C9_15  and  C10_16 
REMARK   12  A    between atoms: C10_16  and  C11_17 
REMARK   13  A    between atoms: C11_17  and  N2_18 
REMARK   14  A    between atoms: C11_17  and  C12_22 
ROOT
HETATM    1  C6  UNL     1       0.404  24.763  -6.737  1.00  0.00     0.119 C 
ENDROOT
BRANCH   1   2
HETATM    2  P1  UNL     1       0.408  23.263  -5.697  1.00  0.00     0.107 P 
HETATM    3  O2  UNL     1       2.038  22.711  -5.493  1.00  0.00    -0.667 OA
HETATM    4  O3  UNL     1      -0.284  23.640  -4.155  1.00  0.00    -0.667 OA
BRANCH   2   5
HETATM    5  C5  UNL     1      -0.576  21.949  -6.501  1.00  0.00     0.106 C 
BRANCH   5   6
HETATM    6  C4  UNL     1       0.327  20.780  -6.643  1.00  0.00     0.046 C 
BRANCH   6   7
HETATM    7  C3  UNL     1       0.545  20.022  -5.359  1.00  0.00     0.186 C 
BRANCH   7   8
HETATM    8  N1  UNL     1      -0.503  18.983  -5.346  1.00  0.00    -0.347 N 
HETATM    9  C2  UNL     1      -0.934  18.387  -4.129  1.00  0.00     0.214 C 
HETATM   10  C1  UNL     1      -1.995  17.337  -4.131  1.00  0.00     0.117 C 
HETATM   11  O1  UNL     1      -0.400  18.762  -3.031  1.00  0.00    -0.274 OA
ATOM     12  H1  UNL     1      -0.926  18.687  -6.225  1.00  0.00     0.163 HD
ENDBRANCH   7   8
BRANCH   7  13
HETATM   13  C14 UNL     1       1.882  19.387  -5.406  1.00  0.00     0.196 C 
HETATM   14  O8  UNL     1       2.588  19.270  -4.348  1.00  0.00    -0.646 OA
HETATM   15  O9  UNL     1       2.440  18.893  -6.564  1.00  0.00    -0.646 OA
ENDBRANCH   7  13
ENDBRANCH   6   7
ENDBRANCH   5   6
ENDBRANCH   2   5
ENDBRANCH   1   2
BRANCH   1  16
HETATM   16  C7  UNL     1      -0.987  24.967  -7.218  1.00  0.00     0.096 C 
BRANCH  16  17
HETATM   17  C8  UNL     1      -0.975  26.099  -8.253  1.00  0.00     0.016 C 
BRANCH  17  18
HETATM   18  C9  UNL     1       0.032  27.087  -7.768  1.00  0.00     0.003 C 
BRANCH  18  19
HETATM   19  C10 UNL     1       0.236  28.222  -8.664  1.00  0.00     0.044 C 
BRANCH  19  20
HETATM   20  C11 UNL     1      -0.020  29.618  -8.268  1.00  0.00     0.283 C 
BRANCH  20  21
HETATM   21  N2  UNL     1      -0.263  30.320  -9.592  1.00  0.00    -0.065 N 
ATOM     22  H23 UNL     1      -0.513  31.306  -9.508  1.00  0.00     0.275 HD
ATOM     23  H22 UNL     1       0.576  30.470 -10.151  1.00  0.00     0.275 HD
ATOM     24  H21 UNL     1      -0.973  29.741 -10.041  1.00  0.00     0.275 HD
ENDBRANCH  20  21
BRANCH  20  25
HETATM   25  C12 UNL     1      -1.156  29.945  -7.435  1.00  0.00     0.204 C 
HETATM   26  O4  UNL     1      -2.323  29.630  -7.782  1.00  0.00    -0.646 OA
HETATM   27  O5  UNL     1      -1.019  30.619  -6.237  1.00  0.00    -0.646 OA
ENDBRANCH  20  25
ENDBRANCH  19  20
ENDBRANCH  18  19
ENDBRANCH  17  18
ENDBRANCH  16  17
BRANCH  16  28
HETATM   28  C13 UNL     1      -1.936  25.234  -6.132  1.00  0.00     0.177 C 
HETATM   29  O6  UNL     1      -2.935  24.466  -5.919  1.00  0.00    -0.648 OA
HETATM   30  O7  UNL     1      -1.799  26.321  -5.294  1.00  0.00    -0.648 OA
ENDBRANCH  16  28
ENDBRANCH   1  16
TORSDOF 14
ENDMDL
