MODEL 19
REMARK VINA RESULT: -6.934218683      2.494      8.084
REMARK  14 active torsions:
REMARK  status: ('A' for Active; 'I' for Inactive)
REMARK       I    between atoms: C2_2  and  N1_4 
REMARK    1  A    between atoms: N1_4  and  C3_6 
REMARK    2  A    between atoms: C3_6  and  C4_7 
REMARK    3  A    between atoms: C3_6  and  C14_28 
REMARK    4  A    between atoms: C4_7  and  C5_8 
REMARK    5  A    between atoms: C5_8  and  P1_9 
REMARK    6  A    between atoms: P1_9  and  C6_12 
REMARK    7  A    between atoms: C6_12  and  C7_13 
REMARK    8  A    between atoms: C7_13  and  C8_14 
REMARK    9  A    between atoms: C7_13  and  C13_25 
REMARK   10  A    between atoms: C8_14  and  C9_15 
REMARK   11  A    between atoms: C9_15  and  C10_16 
REMARK   12  A    between atoms: C10_16  and  C11_17 
REMARK   13  A    between atoms: C11_17  and  N2_18 
REMARK   14  A    between atoms: C11_17  and  C12_22 
ROOT
HETATM    1  C6  UNL     1      -0.283  21.292  -5.929  1.00  0.00     0.119 C 
ENDROOT
BRANCH   1   2
HETATM    2  P1  UNL     1       0.297  23.010  -5.718  1.00  0.00     0.107 P 
HETATM    3  O2  UNL     1      -0.404  23.680  -4.282  1.00  0.00    -0.667 OA
HETATM    4  O3  UNL     1       2.024  23.013  -5.587  1.00  0.00    -0.667 OA
BRANCH   2   5
HETATM    5  C5  UNL     1      -0.206  24.015  -7.159  1.00  0.00     0.106 C 
BRANCH   5   6
HETATM    6  C4  UNL     1       0.466  25.330  -7.005  1.00  0.00     0.046 C 
BRANCH   6   7
HETATM    7  C3  UNL     1      -0.487  26.478  -6.794  1.00  0.00     0.186 C 
BRANCH   7   8
HETATM    8  N1  UNL     1      -0.325  27.332  -7.987  1.00  0.00    -0.347 N 
HETATM    9  C2  UNL     1      -0.462  28.745  -7.904  1.00  0.00     0.214 C 
HETATM   10  C1  UNL     1      -0.296  29.597  -9.119  1.00  0.00     0.117 C 
HETATM   11  O1  UNL     1      -0.730  29.278  -6.776  1.00  0.00    -0.274 OA
ATOM     12  H1  UNL     1      -0.111  26.901  -8.886  1.00  0.00     0.163 HD
ENDBRANCH   7   8
BRANCH   7  13
HETATM   13  C14 UNL     1      -1.867  25.944  -6.742  1.00  0.00     0.196 C 
HETATM   14  O8  UNL     1      -2.457  25.553  -7.806  1.00  0.00    -0.646 OA
HETATM   15  O9  UNL     1      -2.590  25.838  -5.575  1.00  0.00    -0.646 OA
ENDBRANCH   7  13
ENDBRANCH   6   7
ENDBRANCH   5   6
ENDBRANCH   2   5
ENDBRANCH   1   2
BRANCH   1  16
HETATM   16  C7  UNL     1       0.919  20.425  -6.025  1.00  0.00     0.096 C 
BRANCH  16  17
HETATM   17  C8  UNL     1       0.583  19.238  -6.937  1.00  0.00     0.016 C 
BRANCH  17  18
HETATM   18  C9  UNL     1      -0.906  19.127  -6.933  1.00  0.00     0.003 C 
BRANCH  18  19
HETATM   19  C10 UNL     1      -1.478  18.723  -8.215  1.00  0.00     0.044 C 
BRANCH  19  20
HETATM   20  C11 UNL     1      -2.491  19.519  -8.930  1.00  0.00     0.283 C 
BRANCH  20  21
HETATM   21  N2  UNL     1      -3.490  19.877  -7.845  1.00  0.00    -0.065 N 
ATOM     22  H23 UNL     1      -3.222  19.576  -6.907  1.00  0.00     0.275 HD
ATOM     23  H22 UNL     1      -3.538  20.872  -7.626  1.00  0.00     0.275 HD
ATOM     24  H21 UNL     1      -4.364  19.475  -8.185  1.00  0.00     0.275 HD
ENDBRANCH  20  21
BRANCH  20  25
HETATM   25  C12 UNL     1      -2.130  20.769  -9.559  1.00  0.00     0.204 C 
HETATM   26  O4  UNL     1      -2.184  21.852  -8.922  1.00  0.00    -0.646 OA
HETATM   27  O5  UNL     1      -1.720  20.839 -10.877  1.00  0.00    -0.646 OA
ENDBRANCH  20  25
ENDBRANCH  19  20
ENDBRANCH  18  19
ENDBRANCH  17  18
ENDBRANCH  16  17
BRANCH  16  28
HETATM   28  C13 UNL     1       1.411  19.980  -4.717  1.00  0.00     0.177 C 
HETATM   29  O6  UNL     1       2.475  19.281  -4.610  1.00  0.00    -0.648 OA
HETATM   30  O7  UNL     1       0.754  20.292  -3.545  1.00  0.00    -0.648 OA
ENDBRANCH  16  28
ENDBRANCH   1  16
TORSDOF 14
ENDMDL
