MODEL 15
REMARK VINA RESULT: -7.011860767      4.224      5.982
REMARK  14 active torsions:
REMARK  status: ('A' for Active; 'I' for Inactive)
REMARK       I    between atoms: C2_2  and  N1_4 
REMARK    1  A    between atoms: N1_4  and  C3_6 
REMARK    2  A    between atoms: C3_6  and  C4_7 
REMARK    3  A    between atoms: C3_6  and  C14_28 
REMARK    4  A    between atoms: C4_7  and  C5_8 
REMARK    5  A    between atoms: C5_8  and  P1_9 
REMARK    6  A    between atoms: P1_9  and  C6_12 
REMARK    7  A    between atoms: C6_12  and  C7_13 
REMARK    8  A    between atoms: C7_13  and  C8_14 
REMARK    9  A    between atoms: C7_13  and  C13_25 
REMARK   10  A    between atoms: C8_14  and  C9_15 
REMARK   11  A    between atoms: C9_15  and  C10_16 
REMARK   12  A    between atoms: C10_16  and  C11_17 
REMARK   13  A    between atoms: C11_17  and  N2_18 
REMARK   14  A    between atoms: C11_17  and  C12_22 
ROOT
HETATM    1  C6  UNL     1      -0.695  22.693  -6.978  1.00  0.00     0.119 C 
ENDROOT
BRANCH   1   2
HETATM    2  P1  UNL     1      -1.878  21.702  -7.952  1.00  0.00     0.107 P 
HETATM    3  O2  UNL     1      -1.127  20.213  -8.427  1.00  0.00    -0.667 OA
HETATM    4  O3  UNL     1      -3.276  21.374  -6.984  1.00  0.00    -0.667 OA
BRANCH   2   5
HETATM    5  C5  UNL     1      -2.378  22.627  -9.448  1.00  0.00     0.106 C 
BRANCH   5   6
HETATM    6  C4  UNL     1      -2.767  21.610 -10.456  1.00  0.00     0.046 C 
BRANCH   6   7
HETATM    7  C3  UNL     1      -4.138  21.829 -11.042  1.00  0.00     0.186 C 
BRANCH   7   8
HETATM    8  N1  UNL     1      -3.967  21.634 -12.495  1.00  0.00    -0.347 N 
HETATM    9  C2  UNL     1      -3.684  22.730 -13.357  1.00  0.00     0.214 C 
HETATM   10  C1  UNL     1      -3.514  22.518 -14.824  1.00  0.00     0.117 C 
HETATM   11  O1  UNL     1      -3.576  23.899 -12.858  1.00  0.00    -0.274 OA
ATOM     12  H1  UNL     1      -4.054  20.697 -12.889  1.00  0.00     0.163 HD
ENDBRANCH   7   8
BRANCH   7  13
HETATM   13  C14 UNL     1      -5.053  20.798 -10.502  1.00  0.00     0.196 C 
HETATM   14  O8  UNL     1      -5.746  21.024  -9.452  1.00  0.00    -0.646 OA
HETATM   15  O9  UNL     1      -5.214  19.557 -11.078  1.00  0.00    -0.646 OA
ENDBRANCH   7  13
ENDBRANCH   6   7
ENDBRANCH   5   6
ENDBRANCH   2   5
ENDBRANCH   1   2
BRANCH   1  16
HETATM   16  C7  UNL     1      -1.114  24.115  -7.083  1.00  0.00     0.096 C 
BRANCH  16  17
HETATM   17  C8  UNL     1       0.109  24.946  -7.489  1.00  0.00     0.016 C 
BRANCH  17  18
HETATM   18  C9  UNL     1      -0.406  26.315  -7.789  1.00  0.00     0.003 C 
BRANCH  18  19
HETATM   19  C10 UNL     1       0.463  27.395  -7.328  1.00  0.00     0.044 C 
BRANCH  19  20
HETATM   20  C11 UNL     1       0.290  28.798  -7.741  1.00  0.00     0.283 C 
BRANCH  20  21
HETATM   21  N2  UNL     1       0.302  28.724  -9.257  1.00  0.00    -0.065 N 
ATOM     22  H23 UNL     1       0.747  29.518  -9.717  1.00  0.00     0.275 HD
ATOM     23  H22 UNL     1       0.928  28.016  -9.640  1.00  0.00     0.275 HD
ATOM     24  H21 UNL     1      -0.681  28.593  -9.496  1.00  0.00     0.275 HD
ENDBRANCH  20  21
BRANCH  20  25
HETATM   25  C12 UNL     1      -0.913  29.521  -7.393  1.00  0.00     0.204 C 
HETATM   26  O4  UNL     1      -1.979  29.349  -8.039  1.00  0.00    -0.646 OA
HETATM   27  O5  UNL     1      -0.951  30.430  -6.353  1.00  0.00    -0.646 OA
ENDBRANCH  20  25
ENDBRANCH  19  20
ENDBRANCH  18  19
ENDBRANCH  17  18
ENDBRANCH  16  17
BRANCH  16  28
HETATM   28  C13 UNL     1      -1.730  24.622  -5.852  1.00  0.00     0.177 C 
HETATM   29  O6  UNL     1      -2.995  24.781  -5.760  1.00  0.00    -0.648 OA
HETATM   30  O7  UNL     1      -0.981  24.952  -4.742  1.00  0.00    -0.648 OA
ENDBRANCH  16  28
ENDBRANCH   1  16
TORSDOF 14
ENDMDL
