MODEL 4
REMARK VINA RESULT: -10.518346584      1.094      1.521
REMARK  18 active torsions:
REMARK  status: ('A' for Active; 'I' for Inactive)
REMARK    1  A    between atoms: C1_2  and  C2_4 
REMARK    2  A    between atoms: C2_4  and  C3_5 
REMARK    3  A    between atoms: C2_4  and  N2_10 
REMARK    4  A    between atoms: C3_5  and  C4_6 
REMARK    5  A    between atoms: C4_6  and  C5_7 
REMARK       I    between atoms: N2_10  and  C6_12 
REMARK    6  A    between atoms: C6_12  and  C7_14 
REMARK    7  A    between atoms: C7_14  and  C8_15 
REMARK    8  A    between atoms: C7_14  and  N3_20 
REMARK    9  A    between atoms: C8_15  and  C9_16 
REMARK   10  A    between atoms: C9_16  and  C10_17 
REMARK       I    between atoms: N3_20  and  C11_22 
REMARK   11  A    between atoms: C11_22  and  C12_24 
REMARK   12  A    between atoms: C12_24  and  C13_25 
REMARK   13  A    between atoms: C12_24  and  C15_32 
REMARK   14  A    between atoms: C13_25  and  C14_26 
REMARK       I    between atoms: C14_26  and  N4_28 
REMARK   15  A    between atoms: N4_28  and  O9_30 
REMARK   16  A    between atoms: C15_32  and  C16_33 
REMARK   17  A    between atoms: C18_35  and  C19_36 
REMARK   18  A    between atoms: C22_39  and  C23_40 
ROOT
HETATM    1  C12 UNL     1       7.635  25.354   4.007  1.00  0.00     0.093 C 
ENDROOT
BRANCH   1   2
HETATM    2  C11 UNL     1       8.288  26.665   4.476  1.00  0.00     0.223 C 
HETATM    3  N3  UNL     1       7.416  27.632   5.006  1.00  0.00    -0.347 N 
ATOM      4  H3  UNL     1       6.412  27.456   5.057  1.00  0.00     0.163 HD
HETATM    5  O7  UNL     1       9.511  26.741   4.344  1.00  0.00    -0.273 OA
BRANCH   3   6
HETATM    6  C7  UNL     1       7.983  28.915   5.491  1.00  0.00     0.177 C 
BRANCH   6   7
HETATM    7  C6  UNL     1       7.554  29.136   6.850  1.00  0.00     0.241 C 
HETATM    8  N2  UNL     1       8.440  29.440   7.930  1.00  0.00    -0.346 N 
ATOM      9  H2  UNL     1       9.443  29.527   7.769  1.00  0.00     0.163 HD
HETATM   10  O4  UNL     1       6.323  29.058   7.155  1.00  0.00    -0.271 OA
BRANCH   8  11
HETATM   11  C2  UNL     1       7.891  29.619   9.241  1.00  0.00     0.174 C 
BRANCH  11  12
HETATM   12  C1  UNL     1       7.838  31.070   9.549  1.00  0.00     0.254 C 
HETATM   13  N1  UNL     1       6.692  31.852   9.241  1.00  0.00    -0.060 NA
HETATM   14  O1  UNL     1       8.814  31.665  10.098  1.00  0.00    -0.275 OA
ENDBRANCH  11  12
BRANCH  11  15
HETATM   15  C3  UNL     1       8.769  28.997  10.313  1.00  0.00     0.045 C 
BRANCH  15  16
HETATM   16  C4  UNL     1       8.038  28.109  11.257  1.00  0.00     0.116 C 
BRANCH  16  17
HETATM   17  C5  UNL     1       8.870  27.329  12.174  1.00  0.00     0.172 C 
HETATM   18  O2  UNL     1       8.357  26.285  12.702  1.00  0.00    -0.648 OA
HETATM   19  O3  UNL     1      10.164  27.595  12.538  1.00  0.00    -0.648 OA
ENDBRANCH  16  17
ENDBRANCH  15  16
ENDBRANCH  11  15
ENDBRANCH   8  11
ENDBRANCH   6   7
BRANCH   6  20
HETATM   20  C8  UNL     1       7.702  29.903   4.433  1.00  0.00     0.045 C 
BRANCH  20  21
HETATM   21  C9  UNL     1       8.778  30.318   3.512  1.00  0.00     0.116 C 
BRANCH  21  22
HETATM   22  C10 UNL     1       8.867  29.582   2.259  1.00  0.00     0.172 C 
HETATM   23  O5  UNL     1      10.045  29.242   1.886  1.00  0.00    -0.648 OA
HETATM   24  O6  UNL     1       7.798  29.231   1.467  1.00  0.00    -0.648 OA
ENDBRANCH  21  22
ENDBRANCH  20  21
ENDBRANCH   6  20
ENDBRANCH   3   6
ENDBRANCH   1   2
BRANCH   1  25
HETATM   25  C13 UNL     1       8.339  24.876   2.777  1.00  0.00     0.119 C 
BRANCH  25  26
HETATM   26  C14 UNL     1       8.141  25.651   1.565  1.00  0.00     0.241 C 
HETATM   27  O8  UNL     1       7.041  25.725   0.945  1.00  0.00    -0.271 OA
HETATM   28  N4  UNL     1       9.211  26.405   0.972  1.00  0.00    -0.237 N 
ATOM     29  H4  UNL     1      10.131  26.394   1.414  1.00  0.00     0.197 HD
BRANCH  28  30
HETATM   30  O9  UNL     1       9.032  27.128  -0.154  1.00  0.00    -0.287 OA
ATOM     31  H9  UNL     1       9.715  27.689  -0.502  1.00  0.00     0.244 HD
ENDBRANCH  28  30
ENDBRANCH  25  26
ENDBRANCH   1  25
BRANCH   1  32
HETATM   32  C15 UNL     1       7.844  24.473   5.214  1.00  0.00     0.081 C 
BRANCH  32  33
HETATM   33  C16 UNL     1       6.790  23.533   5.483  1.00  0.00     0.079 A 
HETATM   34  C17 UNL     1       5.499  23.873   5.829  1.00  0.00     0.067 A 
HETATM   35  C18 UNL     1       4.791  22.714   6.000  1.00  0.00     0.067 A 
HETATM   36  N5  UNL     1       5.667  21.715   5.755  1.00  0.00    -0.260 N 
HETATM   37  O10 UNL     1       6.824  22.217   5.456  1.00  0.00    -0.242 OA
ATOM     38  H5  UNL     1       5.451  20.720   5.799  1.00  0.00     0.195 HD
BRANCH  35  39
HETATM   39  C19 UNL     1       3.392  22.616   6.359  1.00  0.00    -0.007 A 
HETATM   40  C20 UNL     1       2.990  21.752   7.336  1.00  0.00     0.014 A 
HETATM   41  C21 UNL     1       1.641  21.647   7.707  1.00  0.00     0.013 A 
HETATM   42  C22 UNL     1       0.703  22.432   7.074  1.00  0.00    -0.026 A 
HETATM   43  C29 UNL     1       1.127  23.299   6.091  1.00  0.00     0.013 A 
HETATM   44  C30 UNL     1       2.474  23.405   5.719  1.00  0.00     0.014 A 
BRANCH  42  45
HETATM   45  C23 UNL     1      -0.709  22.375   7.416  1.00  0.00    -0.024 A 
HETATM   46  C24 UNL     1      -1.414  21.178   7.359  1.00  0.00     0.012 A 
HETATM   47  C25 UNL     1      -2.748  21.106   7.677  1.00  0.00     0.003 A 
HETATM   48  C26 UNL     1      -3.420  22.240   8.066  1.00  0.00     0.024 A 
HETATM   49  C27 UNL     1      -2.763  23.452   8.138  1.00  0.00     0.034 A 
HETATM   50 CL1  UNL     1      -3.657  24.878   8.636  1.00  0.00    -0.084 Cl
HETATM   51  C28 UNL     1      -1.431  23.492   7.813  1.00  0.00     0.036 A 
ENDBRANCH  42  45
ENDBRANCH  35  39
ENDBRANCH  32  33
ENDBRANCH   1  32
TORSDOF 18
ENDMDL
