MODEL 2
REMARK VINA RESULT: -10.859480580      0.920      1.343
REMARK  18 active torsions:
REMARK  status: ('A' for Active; 'I' for Inactive)
REMARK    1  A    between atoms: C1_2  and  C2_4 
REMARK    2  A    between atoms: C2_4  and  C3_5 
REMARK    3  A    between atoms: C2_4  and  N2_10 
REMARK    4  A    between atoms: C3_5  and  C4_6 
REMARK    5  A    between atoms: C4_6  and  C5_7 
REMARK       I    between atoms: N2_10  and  C6_12 
REMARK    6  A    between atoms: C6_12  and  C7_14 
REMARK    7  A    between atoms: C7_14  and  C8_15 
REMARK    8  A    between atoms: C7_14  and  N3_20 
REMARK    9  A    between atoms: C8_15  and  C9_16 
REMARK   10  A    between atoms: C9_16  and  C10_17 
REMARK       I    between atoms: N3_20  and  C11_22 
REMARK   11  A    between atoms: C11_22  and  C12_24 
REMARK   12  A    between atoms: C12_24  and  C13_25 
REMARK   13  A    between atoms: C12_24  and  C15_32 
REMARK   14  A    between atoms: C13_25  and  C14_26 
REMARK       I    between atoms: C14_26  and  N4_28 
REMARK   15  A    between atoms: N4_28  and  O9_30 
REMARK   16  A    between atoms: C15_32  and  C16_33 
REMARK   17  A    between atoms: C18_35  and  C19_36 
REMARK   18  A    between atoms: C22_39  and  C23_40 
ROOT
HETATM    1  C12 UNL     1       8.295  26.670   3.423  1.00  0.00     0.093 C 
ENDROOT
BRANCH   1   2
HETATM    2  C11 UNL     1       8.660  28.050   3.995  1.00  0.00     0.223 C 
HETATM    3  N3  UNL     1       7.694  28.649   4.823  1.00  0.00    -0.347 N 
ATOM      4  H3  UNL     1       6.807  28.182   5.010  1.00  0.00     0.163 HD
HETATM    5  O7  UNL     1       9.763  28.497   3.675  1.00  0.00    -0.273 OA
BRANCH   3   6
HETATM    6  C7  UNL     1       7.989  29.976   5.419  1.00  0.00     0.177 C 
BRANCH   6   7
HETATM    7  C6  UNL     1       7.648  29.948   6.821  1.00  0.00     0.241 C 
HETATM    8  N2  UNL     1       8.524  30.375   7.867  1.00  0.00    -0.346 N 
ATOM      9  H2  UNL     1       9.451  30.740   7.651  1.00  0.00     0.163 HD
HETATM   10  O4  UNL     1       6.513  29.518   7.197  1.00  0.00    -0.271 OA
BRANCH   8  11
HETATM   11  C2  UNL     1       8.073  30.280   9.224  1.00  0.00     0.174 C 
BRANCH  11  12
HETATM   12  C1  UNL     1       8.583  31.448   9.985  1.00  0.00     0.254 C 
HETATM   13  N1  UNL     1       9.973  31.720  10.083  1.00  0.00    -0.060 NA
HETATM   14  O1  UNL     1       7.793  32.245  10.576  1.00  0.00    -0.275 OA
ENDBRANCH  11  12
BRANCH  11  15
HETATM   15  C3  UNL     1       8.630  29.051   9.922  1.00  0.00     0.045 C 
BRANCH  15  16
HETATM   16  C4  UNL     1       7.662  28.377  10.828  1.00  0.00     0.116 C 
BRANCH  16  17
HETATM   17  C5  UNL     1       8.235  27.753  12.022  1.00  0.00     0.172 C 
HETATM   18  O2  UNL     1       8.426  28.491  13.047  1.00  0.00    -0.648 OA
HETATM   19  O3  UNL     1       8.595  26.439  12.170  1.00  0.00    -0.648 OA
ENDBRANCH  16  17
ENDBRANCH  15  16
ENDBRANCH  11  15
ENDBRANCH   8  11
ENDBRANCH   6   7
BRANCH   6  20
HETATM   20  C8  UNL     1       7.390  30.968   4.509  1.00  0.00     0.045 C 
BRANCH  20  21
HETATM   21  C9  UNL     1       8.246  31.703   3.558  1.00  0.00     0.116 C 
BRANCH  21  22
HETATM   22  C10 UNL     1       9.543  32.131   4.065  1.00  0.00     0.172 C 
HETATM   23  O5  UNL     1       9.527  33.069   4.937  1.00  0.00    -0.648 OA
HETATM   24  O6  UNL     1      10.757  31.607   3.682  1.00  0.00    -0.648 OA
ENDBRANCH  21  22
ENDBRANCH  20  21
ENDBRANCH   6  20
ENDBRANCH   3   6
ENDBRANCH   1   2
BRANCH   1  25
HETATM   25  C13 UNL     1       9.054  26.457   2.153  1.00  0.00     0.119 C 
BRANCH  25  26
HETATM   26  C14 UNL     1       8.549  25.438   1.249  1.00  0.00     0.241 C 
HETATM   27  O8  UNL     1       7.386  25.448   0.754  1.00  0.00    -0.271 OA
HETATM   28  N4  UNL     1       9.359  24.321   0.847  1.00  0.00    -0.237 N 
ATOM     29  H4  UNL     1      10.311  24.242   1.207  1.00  0.00     0.197 HD
BRANCH  28  30
HETATM   30  O9  UNL     1       8.894  23.373   0.007  1.00  0.00    -0.287 OA
ATOM     31  H9  UNL     1       8.184  22.791   0.253  1.00  0.00     0.244 HD
ENDBRANCH  28  30
ENDBRANCH  25  26
ENDBRANCH   1  25
BRANCH   1  32
HETATM   32  C15 UNL     1       8.719  25.763   4.551  1.00  0.00     0.081 C 
BRANCH  32  33
HETATM   33  C16 UNL     1       7.849  24.647   4.807  1.00  0.00     0.079 A 
HETATM   34  C17 UNL     1       6.550  24.746   5.259  1.00  0.00     0.067 A 
HETATM   35  C18 UNL     1       6.048  23.478   5.378  1.00  0.00     0.067 A 
HETATM   36  N5  UNL     1       7.050  22.656   4.998  1.00  0.00    -0.260 N 
HETATM   37  O10 UNL     1       8.087  23.359   4.670  1.00  0.00    -0.242 OA
ATOM     38  H5  UNL     1       6.997  21.637   4.974  1.00  0.00     0.195 HD
BRANCH  35  39
HETATM   39  C19 UNL     1       4.712  23.129   5.814  1.00  0.00    -0.007 A 
HETATM   40  C20 UNL     1       4.529  22.194   6.791  1.00  0.00     0.014 A 
HETATM   41  C21 UNL     1       3.244  21.846   7.236  1.00  0.00     0.013 A 
HETATM   42  C22 UNL     1       2.146  22.461   6.676  1.00  0.00    -0.026 A 
HETATM   43  C29 UNL     1       2.350  23.402   5.691  1.00  0.00     0.013 A 
HETATM   44  C30 UNL     1       3.632  23.750   5.245  1.00  0.00     0.014 A 
BRANCH  42  45
HETATM   45  C23 UNL     1       0.790  22.149   7.096  1.00  0.00    -0.024 A 
HETATM   46  C24 UNL     1       0.518  21.028   7.873  1.00  0.00     0.012 A 
HETATM   47  C25 UNL     1      -0.757  20.718   8.277  1.00  0.00     0.003 A 
HETATM   48  C26 UNL     1      -1.806  21.528   7.914  1.00  0.00     0.024 A 
HETATM   49  C27 UNL     1      -1.586  22.652   7.144  1.00  0.00     0.034 A 
HETATM   50 CL1  UNL     1      -2.952  23.662   6.699  1.00  0.00    -0.084 Cl
HETATM   51  C28 UNL     1      -0.302  22.936   6.755  1.00  0.00     0.036 A 
ENDBRANCH  42  45
ENDBRANCH  35  39
ENDBRANCH  32  33
ENDBRANCH   1  32
TORSDOF 18
ENDMDL
