MODEL 1
REMARK VINA RESULT: -11.005666087      0.000      0.000
REMARK  18 active torsions:
REMARK  status: ('A' for Active; 'I' for Inactive)
REMARK    1  A    between atoms: C1_2  and  C2_4 
REMARK    2  A    between atoms: C2_4  and  C3_5 
REMARK    3  A    between atoms: C2_4  and  N2_10 
REMARK    4  A    between atoms: C3_5  and  C4_6 
REMARK    5  A    between atoms: C4_6  and  C5_7 
REMARK       I    between atoms: N2_10  and  C6_12 
REMARK    6  A    between atoms: C6_12  and  C7_14 
REMARK    7  A    between atoms: C7_14  and  C8_15 
REMARK    8  A    between atoms: C7_14  and  N3_20 
REMARK    9  A    between atoms: C8_15  and  C9_16 
REMARK   10  A    between atoms: C9_16  and  C10_17 
REMARK       I    between atoms: N3_20  and  C11_22 
REMARK   11  A    between atoms: C11_22  and  C12_24 
REMARK   12  A    between atoms: C12_24  and  C13_25 
REMARK   13  A    between atoms: C12_24  and  C15_32 
REMARK   14  A    between atoms: C13_25  and  C14_26 
REMARK       I    between atoms: C14_26  and  N4_28 
REMARK   15  A    between atoms: N4_28  and  O9_30 
REMARK   16  A    between atoms: C15_32  and  C16_33 
REMARK   17  A    between atoms: C18_35  and  C19_36 
REMARK   18  A    between atoms: C22_39  and  C23_40 
ROOT
HETATM    1  C12 UNL     1       8.128  26.347   3.741  1.00  0.00     0.093 C 
ENDROOT
BRANCH   1   2
HETATM    2  C11 UNL     1       8.561  27.560   4.580  1.00  0.00     0.223 C 
HETATM    3  N3  UNL     1       7.672  28.650   4.594  1.00  0.00    -0.347 N 
ATOM      4  H3  UNL     1       6.802  28.618   4.063  1.00  0.00     0.163 HD
HETATM    5  O7  UNL     1       9.644  27.461   5.161  1.00  0.00    -0.273 OA
BRANCH   3   6
HETATM    6  C7  UNL     1       8.024  29.848   5.396  1.00  0.00     0.177 C 
BRANCH   6   7
HETATM    7  C6  UNL     1       7.516  29.682   6.737  1.00  0.00     0.241 C 
HETATM    8  N2  UNL     1       8.317  29.788   7.915  1.00  0.00    -0.346 N 
ATOM      9  H2  UNL     1       9.312  30.004   7.850  1.00  0.00     0.163 HD
HETATM   10  O4  UNL     1       6.287  29.418   6.929  1.00  0.00    -0.271 OA
BRANCH   8  11
HETATM   11  C2  UNL     1       7.696  29.584   9.190  1.00  0.00     0.174 C 
BRANCH  11  12
HETATM   12  C1  UNL     1       7.306  30.900   9.755  1.00  0.00     0.254 C 
HETATM   13  N1  UNL     1       5.943  31.280   9.876  1.00  0.00    -0.060 NA
HETATM   14  O1  UNL     1       8.177  31.733  10.149  1.00  0.00    -0.275 OA
ENDBRANCH  11  12
BRANCH  11  15
HETATM   15  C3  UNL     1       8.653  28.966  10.195  1.00  0.00     0.045 C 
BRANCH  15  16
HETATM   16  C4  UNL     1       7.982  28.237  11.305  1.00  0.00     0.116 C 
BRANCH  16  17
HETATM   17  C5  UNL     1       8.849  27.401  12.136  1.00  0.00     0.172 C 
HETATM   18  O2  UNL     1       8.368  26.307  12.586  1.00  0.00    -0.648 OA
HETATM   19  O3  UNL     1      10.146  27.663  12.495  1.00  0.00    -0.648 OA
ENDBRANCH  16  17
ENDBRANCH  15  16
ENDBRANCH  11  15
ENDBRANCH   8  11
ENDBRANCH   6   7
BRANCH   6  20
HETATM   20  C8  UNL     1       7.640  31.009   4.573  1.00  0.00     0.045 C 
BRANCH  20  21
HETATM   21  C9  UNL     1       8.341  31.270   3.301  1.00  0.00     0.116 C 
BRANCH  21  22
HETATM   22  C10 UNL     1       9.756  30.927   3.268  1.00  0.00     0.172 C 
HETATM   23  O5  UNL     1      10.059  29.839   2.664  1.00  0.00    -0.648 OA
HETATM   24  O6  UNL     1      10.767  31.675   3.826  1.00  0.00    -0.648 OA
ENDBRANCH  21  22
ENDBRANCH  20  21
ENDBRANCH   6  20
ENDBRANCH   3   6
ENDBRANCH   1   2
BRANCH   1  25
HETATM   25  C13 UNL     1       8.772  26.434   2.395  1.00  0.00     0.119 C 
BRANCH  25  26
HETATM   26  C14 UNL     1       8.373  25.445   1.410  1.00  0.00     0.241 C 
HETATM   27  O8  UNL     1       7.247  25.435   0.835  1.00  0.00    -0.271 OA
HETATM   28  N4  UNL     1       9.255  24.381   1.013  1.00  0.00    -0.237 N 
ATOM     29  H4  UNL     1      10.182  24.321   1.435  1.00  0.00     0.197 HD
BRANCH  28  30
HETATM   30  O9  UNL     1       8.888  23.460   0.098  1.00  0.00    -0.287 OA
ATOM     31  H9  UNL     1       9.530  22.952  -0.386  1.00  0.00     0.244 HD
ENDBRANCH  28  30
ENDBRANCH  25  26
ENDBRANCH   1  25
BRANCH   1  32
HETATM   32  C15 UNL     1       8.633  25.207   4.590  1.00  0.00     0.081 C 
BRANCH  32  33
HETATM   33  C16 UNL     1       7.664  24.191   4.899  1.00  0.00     0.079 A 
HETATM   34  C17 UNL     1       6.382  24.432   5.349  1.00  0.00     0.067 A 
HETATM   35  C18 UNL     1       5.765  23.224   5.527  1.00  0.00     0.067 A 
HETATM   36  N5  UNL     1       6.683  22.294   5.185  1.00  0.00    -0.260 N 
HETATM   37  O10 UNL     1       7.780  22.881   4.822  1.00  0.00    -0.242 OA
ATOM     38  H5  UNL     1       6.535  21.285   5.208  1.00  0.00     0.195 HD
BRANCH  35  39
HETATM   39  C19 UNL     1       4.405  23.021   5.981  1.00  0.00    -0.007 A 
HETATM   40  C20 UNL     1       3.376  23.699   5.396  1.00  0.00     0.014 A 
HETATM   41  C21 UNL     1       2.048  23.511   5.813  1.00  0.00     0.013 A 
HETATM   42  C22 UNL     1       1.779  22.626   6.832  1.00  0.00    -0.026 A 
HETATM   43  C29 UNL     1       2.831  21.950   7.410  1.00  0.00     0.013 A 
HETATM   44  C30 UNL     1       4.156  22.136   6.996  1.00  0.00     0.014 A 
BRANCH  42  45
HETATM   45  C23 UNL     1       0.427  22.383   7.306  1.00  0.00    -0.024 A 
HETATM   46  C24 UNL     1       0.011  21.107   7.668  1.00  0.00     0.012 A 
HETATM   47  C25 UNL     1      -1.264  20.859   8.116  1.00  0.00     0.003 A 
HETATM   48  C26 UNL     1      -2.166  21.891   8.215  1.00  0.00     0.024 A 
HETATM   49  C27 UNL     1      -1.800  23.175   7.867  1.00  0.00     0.034 A 
HETATM   50 CL1  UNL     1      -2.981  24.466   8.006  1.00  0.00    -0.084 Cl
HETATM   51  C28 UNL     1      -0.521  23.391   7.423  1.00  0.00     0.036 A 
ENDBRANCH  42  45
ENDBRANCH  35  39
ENDBRANCH  32  33
ENDBRANCH   1  32
TORSDOF 18
ENDMDL
