MODEL 9
REMARK VINA RESULT: -10.327518766      3.212      7.029
REMARK  18 active torsions:
REMARK  status: ('A' for Active; 'I' for Inactive)
REMARK    1  A    between atoms: C1_2  and  C2_4 
REMARK    2  A    between atoms: C2_4  and  C3_5 
REMARK    3  A    between atoms: C2_4  and  N2_10 
REMARK    4  A    between atoms: C3_5  and  C4_6 
REMARK    5  A    between atoms: C4_6  and  C5_7 
REMARK       I    between atoms: N2_10  and  C6_12 
REMARK    6  A    between atoms: C6_12  and  C7_14 
REMARK    7  A    between atoms: C7_14  and  C8_15 
REMARK    8  A    between atoms: C7_14  and  N3_20 
REMARK    9  A    between atoms: C8_15  and  C9_16 
REMARK   10  A    between atoms: C9_16  and  C10_17 
REMARK       I    between atoms: N3_20  and  C11_22 
REMARK   11  A    between atoms: C11_22  and  C12_24 
REMARK   12  A    between atoms: C12_24  and  C13_25 
REMARK   13  A    between atoms: C12_24  and  C15_32 
REMARK   14  A    between atoms: C13_25  and  C14_26 
REMARK       I    between atoms: C14_26  and  N4_28 
REMARK   15  A    between atoms: N4_28  and  O9_30 
REMARK   16  A    between atoms: C15_32  and  C16_33 
REMARK   17  A    between atoms: C18_35  and  C19_36 
REMARK   18  A    between atoms: C22_39  and  C23_40 
ROOT
HETATM    1  C12 UNL     1       7.669  25.406   4.899  1.00  0.00     0.093 C 
ENDROOT
BRANCH   1   2
HETATM    2  C11 UNL     1       8.739  25.644   3.821  1.00  0.00     0.223 C 
HETATM    3  N3  UNL     1       8.262  25.867   2.517  1.00  0.00    -0.347 N 
ATOM      4  H3  UNL     1       7.261  25.856   2.320  1.00  0.00     0.163 HD
HETATM    5  O7  UNL     1       9.910  25.618   4.202  1.00  0.00    -0.273 OA
BRANCH   3   6
HETATM    6  C7  UNL     1       9.242  26.117   1.431  1.00  0.00     0.177 C 
BRANCH   6   7
HETATM    7  C6  UNL     1       9.175  27.507   1.048  1.00  0.00     0.241 C 
HETATM    8  N2  UNL     1       8.568  27.976  -0.158  1.00  0.00    -0.346 N 
ATOM      9  H2  UNL     1       8.134  27.322  -0.810  1.00  0.00     0.163 HD
HETATM   10  O4  UNL     1       9.678  28.403   1.794  1.00  0.00    -0.271 OA
BRANCH   8  11
HETATM   11  C2  UNL     1       8.582  29.382  -0.434  1.00  0.00     0.174 C 
BRANCH  11  12
HETATM   12  C1  UNL     1       7.249  29.951  -0.113  1.00  0.00     0.254 C 
HETATM   13  N1  UNL     1       6.889  30.294   1.217  1.00  0.00    -0.060 NA
HETATM   14  O1  UNL     1       6.382  30.151  -1.018  1.00  0.00    -0.275 OA
ENDBRANCH  11  12
BRANCH  11  15
HETATM   15  C3  UNL     1       8.815  29.669  -1.907  1.00  0.00     0.045 C 
BRANCH  15  16
HETATM   16  C4  UNL     1       8.859  28.453  -2.763  1.00  0.00     0.116 C 
BRANCH  16  17
HETATM   17  C5  UNL     1      10.185  27.870  -2.976  1.00  0.00     0.172 C 
HETATM   18  O2  UNL     1      10.525  27.587  -4.175  1.00  0.00    -0.648 OA
HETATM   19  O3  UNL     1      11.122  27.587  -2.017  1.00  0.00    -0.648 OA
ENDBRANCH  16  17
ENDBRANCH  15  16
ENDBRANCH  11  15
ENDBRANCH   8  11
ENDBRANCH   6   7
BRANCH   6  20
HETATM   20  C8  UNL     1       9.031  25.043   0.445  1.00  0.00     0.045 C 
BRANCH  20  21
HETATM   21  C9  UNL     1      10.137  24.636  -0.446  1.00  0.00     0.116 C 
BRANCH  21  22
HETATM   22  C10 UNL     1       9.749  24.121  -1.752  1.00  0.00     0.172 C 
HETATM   23  O5  UNL     1       8.680  24.612  -2.258  1.00  0.00    -0.648 OA
HETATM   24  O6  UNL     1      10.439  23.167  -2.465  1.00  0.00    -0.648 OA
ENDBRANCH  21  22
ENDBRANCH  20  21
ENDBRANCH   6  20
ENDBRANCH   3   6
ENDBRANCH   1   2
BRANCH   1  25
HETATM   25  C13 UNL     1       7.017  26.711   5.230  1.00  0.00     0.119 C 
BRANCH  25  26
HETATM   26  C14 UNL     1       7.839  27.902   5.120  1.00  0.00     0.241 C 
HETATM   27  O8  UNL     1       8.762  28.201   5.931  1.00  0.00    -0.271 OA
HETATM   28  N4  UNL     1       7.654  28.848   4.053  1.00  0.00    -0.237 N 
ATOM     29  H4  UNL     1       6.926  28.678   3.359  1.00  0.00     0.197 HD
BRANCH  28  30
HETATM   30  O9  UNL     1       8.416  29.957   3.947  1.00  0.00    -0.287 OA
ATOM     31  H9  UNL     1       8.062  30.780   3.631  1.00  0.00     0.244 HD
ENDBRANCH  28  30
ENDBRANCH  25  26
ENDBRANCH   1  25
BRANCH   1  32
HETATM   32  C15 UNL     1       6.760  24.426   4.199  1.00  0.00     0.081 C 
BRANCH  32  33
HETATM   33  C16 UNL     1       5.906  23.654   5.060  1.00  0.00     0.079 A 
HETATM   34  C17 UNL     1       4.534  23.780   5.132  1.00  0.00     0.067 A 
HETATM   35  C18 UNL     1       4.077  22.879   6.056  1.00  0.00     0.067 A 
HETATM   36  N5  UNL     1       5.176  22.240   6.513  1.00  0.00    -0.260 N 
HETATM   37  O10 UNL     1       6.228  22.708   5.918  1.00  0.00    -0.242 OA
ATOM     38  H5  UNL     1       5.177  21.503   7.217  1.00  0.00     0.195 HD
BRANCH  35  39
HETATM   39  C19 UNL     1       2.694  22.674   6.432  1.00  0.00    -0.007 A 
HETATM   40  C20 UNL     1       2.364  21.710   7.340  1.00  0.00     0.014 A 
HETATM   41  C21 UNL     1       1.031  21.499   7.727  1.00  0.00     0.013 A 
HETATM   42  C22 UNL     1       0.037  22.281   7.181  1.00  0.00    -0.026 A 
HETATM   43  C29 UNL     1       0.390  23.248   6.267  1.00  0.00     0.013 A 
HETATM   44  C30 UNL     1       1.719  23.460   5.878  1.00  0.00     0.014 A 
BRANCH  42  45
HETATM   45  C23 UNL     1      -1.361  22.116   7.544  1.00  0.00    -0.024 A 
HETATM   46  C24 UNL     1      -1.896  20.857   7.789  1.00  0.00     0.012 A 
HETATM   47  C25 UNL     1      -3.214  20.683   8.132  1.00  0.00     0.003 A 
HETATM   48  C26 UNL     1      -4.042  21.775   8.241  1.00  0.00     0.024 A 
HETATM   49  C27 UNL     1      -3.557  23.045   8.008  1.00  0.00     0.034 A 
HETATM   50 CL1  UNL     1      -4.646  24.415   8.155  1.00  0.00    -0.084 Cl
HETATM   51  C28 UNL     1      -2.236  23.187   7.667  1.00  0.00     0.036 A 
ENDBRANCH  42  45
ENDBRANCH  35  39
ENDBRANCH  32  33
ENDBRANCH   1  32
TORSDOF 18
ENDMDL
