MODEL 6
REMARK VINA RESULT: -10.406300786      1.306      1.650
REMARK  18 active torsions:
REMARK  status: ('A' for Active; 'I' for Inactive)
REMARK    1  A    between atoms: C1_2  and  C2_4 
REMARK    2  A    between atoms: C2_4  and  C3_5 
REMARK    3  A    between atoms: C2_4  and  N2_10 
REMARK    4  A    between atoms: C3_5  and  C4_6 
REMARK    5  A    between atoms: C4_6  and  C5_7 
REMARK       I    between atoms: N2_10  and  C6_12 
REMARK    6  A    between atoms: C6_12  and  C7_14 
REMARK    7  A    between atoms: C7_14  and  C8_15 
REMARK    8  A    between atoms: C7_14  and  N3_20 
REMARK    9  A    between atoms: C8_15  and  C9_16 
REMARK   10  A    between atoms: C9_16  and  C10_17 
REMARK       I    between atoms: N3_20  and  C11_22 
REMARK   11  A    between atoms: C11_22  and  C12_24 
REMARK   12  A    between atoms: C12_24  and  C13_25 
REMARK   13  A    between atoms: C12_24  and  C15_32 
REMARK   14  A    between atoms: C13_25  and  C14_26 
REMARK       I    between atoms: C14_26  and  N4_28 
REMARK   15  A    between atoms: N4_28  and  O9_30 
REMARK   16  A    between atoms: C15_32  and  C16_33 
REMARK   17  A    between atoms: C18_35  and  C19_36 
REMARK   18  A    between atoms: C22_39  and  C23_40 
ROOT
HETATM    1  C12 UNL     1       7.731  25.357   3.967  1.00  0.00     0.093 C 
ENDROOT
BRANCH   1   2
HETATM    2  C11 UNL     1       8.412  26.631   4.493  1.00  0.00     0.223 C 
HETATM    3  N3  UNL     1       7.553  27.632   4.981  1.00  0.00    -0.347 N 
ATOM      4  H3  UNL     1       6.542  27.502   4.966  1.00  0.00     0.163 HD
HETATM    5  O7  UNL     1       9.643  26.651   4.439  1.00  0.00    -0.273 OA
BRANCH   3   6
HETATM    6  C7  UNL     1       8.147  28.882   5.517  1.00  0.00     0.177 C 
BRANCH   6   7
HETATM    7  C6  UNL     1       7.661  29.096   6.859  1.00  0.00     0.241 C 
HETATM    8  N2  UNL     1       8.499  29.410   7.973  1.00  0.00    -0.346 N 
ATOM      9  H2  UNL     1       9.507  29.510   7.854  1.00  0.00     0.163 HD
HETATM   10  O4  UNL     1       6.419  29.003   7.114  1.00  0.00    -0.271 OA
BRANCH   8  11
HETATM   11  C2  UNL     1       7.895  29.582   9.261  1.00  0.00     0.174 C 
BRANCH  11  12
HETATM   12  C1  UNL     1       7.805  31.032   9.564  1.00  0.00     0.254 C 
HETATM   13  N1  UNL     1       6.556  31.663   9.803  1.00  0.00    -0.060 NA
HETATM   14  O1  UNL     1       8.843  31.760   9.621  1.00  0.00    -0.275 OA
ENDBRANCH  11  12
BRANCH  11  15
HETATM   15  C3  UNL     1       8.740  28.975  10.369  1.00  0.00     0.045 C 
BRANCH  15  16
HETATM   16  C4  UNL     1       8.025  27.963  11.193  1.00  0.00     0.116 C 
BRANCH  16  17
HETATM   17  C5  UNL     1       8.830  27.285  12.210  1.00  0.00     0.172 C 
HETATM   18  O2  UNL     1       8.286  26.328  12.858  1.00  0.00    -0.648 OA
HETATM   19  O3  UNL     1      10.126  27.566  12.554  1.00  0.00    -0.648 OA
ENDBRANCH  16  17
ENDBRANCH  15  16
ENDBRANCH  11  15
ENDBRANCH   8  11
ENDBRANCH   6   7
BRANCH   6  20
HETATM   20  C8  UNL     1       7.959  29.898   4.467  1.00  0.00     0.045 C 
BRANCH  20  21
HETATM   21  C9  UNL     1       9.061  30.202   3.533  1.00  0.00     0.116 C 
BRANCH  21  22
HETATM   22  C10 UNL     1       8.977  29.575   2.221  1.00  0.00     0.172 C 
HETATM   23  O5  UNL     1      10.093  29.309   1.650  1.00  0.00    -0.648 OA
HETATM   24  O6  UNL     1       7.810  29.254   1.567  1.00  0.00    -0.648 OA
ENDBRANCH  21  22
ENDBRANCH  20  21
ENDBRANCH   6  20
ENDBRANCH   3   6
ENDBRANCH   1   2
BRANCH   1  25
HETATM   25  C13 UNL     1       8.398  24.942   2.694  1.00  0.00     0.119 C 
BRANCH  25  26
HETATM   26  C14 UNL     1       8.077  25.709   1.504  1.00  0.00     0.241 C 
HETATM   27  O8  UNL     1       6.929  25.743   0.974  1.00  0.00    -0.271 OA
HETATM   28  N4  UNL     1       9.069  26.500   0.830  1.00  0.00    -0.237 N 
ATOM     29  H4  UNL     1      10.021  26.522   1.196  1.00  0.00     0.197 HD
BRANCH  28  30
HETATM   30  O9  UNL     1       8.775  27.216  -0.276  1.00  0.00    -0.287 OA
ATOM     31  H9  UNL     1       8.019  27.790  -0.314  1.00  0.00     0.244 HD
ENDBRANCH  28  30
ENDBRANCH  25  26
ENDBRANCH   1  25
BRANCH   1  32
HETATM   32  C15 UNL     1       7.956  24.406   5.116  1.00  0.00     0.081 C 
BRANCH  32  33
HETATM   33  C16 UNL     1       6.856  23.533   5.420  1.00  0.00     0.079 A 
HETATM   34  C17 UNL     1       5.575  23.950   5.717  1.00  0.00     0.067 A 
HETATM   35  C18 UNL     1       4.813  22.837   5.945  1.00  0.00     0.067 A 
HETATM   36  N5  UNL     1       5.646  21.787   5.782  1.00  0.00    -0.260 N 
HETATM   37  O10 UNL     1       6.830  22.217   5.477  1.00  0.00    -0.242 OA
ATOM     38  H5  UNL     1       5.385  20.807   5.884  1.00  0.00     0.195 HD
BRANCH  35  39
HETATM   39  C19 UNL     1       3.403  22.824   6.279  1.00  0.00    -0.007 A 
HETATM   40  C20 UNL     1       2.517  23.569   5.557  1.00  0.00     0.014 A 
HETATM   41  C21 UNL     1       1.146  23.564   5.856  1.00  0.00     0.013 A 
HETATM   42  C22 UNL     1       0.685  22.793   6.900  1.00  0.00    -0.026 A 
HETATM   43  C29 UNL     1       1.594  22.047   7.617  1.00  0.00     0.013 A 
HETATM   44  C30 UNL     1       2.963  22.051   7.320  1.00  0.00     0.014 A 
BRANCH  42  45
HETATM   45  C23 UNL     1      -0.723  22.740   7.257  1.00  0.00    -0.024 A 
HETATM   46  C24 UNL     1      -1.363  23.838   7.820  1.00  0.00     0.012 A 
HETATM   47  C25 UNL     1      -2.692  23.806   8.165  1.00  0.00     0.003 A 
HETATM   48  C26 UNL     1      -3.425  22.662   7.953  1.00  0.00     0.024 A 
HETATM   49  C27 UNL     1      -2.834  21.547   7.396  1.00  0.00     0.034 A 
HETATM   50 CL1  UNL     1      -3.804  20.105   7.143  1.00  0.00    -0.084 Cl
HETATM   51  C28 UNL     1      -1.506  21.610   7.063  1.00  0.00     0.036 A 
ENDBRANCH  42  45
ENDBRANCH  35  39
ENDBRANCH  32  33
ENDBRANCH   1  32
TORSDOF 18
ENDMDL
