MODEL 8
REMARK VINA RESULT: -10.332412449      1.329      1.847
REMARK  18 active torsions:
REMARK  status: ('A' for Active; 'I' for Inactive)
REMARK    1  A    between atoms: C1_2  and  C2_4 
REMARK    2  A    between atoms: C2_4  and  C3_5 
REMARK    3  A    between atoms: C2_4  and  N2_10 
REMARK    4  A    between atoms: C3_5  and  C4_6 
REMARK    5  A    between atoms: C4_6  and  C5_7 
REMARK       I    between atoms: N2_10  and  C6_12 
REMARK    6  A    between atoms: C6_12  and  C7_14 
REMARK    7  A    between atoms: C7_14  and  C8_15 
REMARK    8  A    between atoms: C7_14  and  N3_20 
REMARK    9  A    between atoms: C8_15  and  C9_16 
REMARK   10  A    between atoms: C9_16  and  C10_17 
REMARK       I    between atoms: N3_20  and  C11_22 
REMARK   11  A    between atoms: C11_22  and  C12_24 
REMARK   12  A    between atoms: C12_24  and  C13_25 
REMARK   13  A    between atoms: C12_24  and  C15_32 
REMARK   14  A    between atoms: C13_25  and  C14_26 
REMARK       I    between atoms: C14_26  and  N4_28 
REMARK   15  A    between atoms: N4_28  and  O9_30 
REMARK   16  A    between atoms: C15_32  and  C16_33 
REMARK   17  A    between atoms: C18_35  and  C19_36 
REMARK   18  A    between atoms: C22_39  and  C23_40 
ROOT
HETATM    1  C12 UNL     1       8.225  26.051   3.715  1.00  0.00     0.093 C 
ENDROOT
BRANCH   1   2
HETATM    2  C11 UNL     1       8.568  27.413   4.341  1.00  0.00     0.223 C 
HETATM    3  N3  UNL     1       7.526  28.357   4.373  1.00  0.00    -0.347 N 
ATOM      4  H3  UNL     1       6.609  28.132   3.988  1.00  0.00     0.163 HD
HETATM    5  O7  UNL     1       9.721  27.546   4.756  1.00  0.00    -0.273 OA
BRANCH   3   6
HETATM    6  C7  UNL     1       7.786  29.687   4.978  1.00  0.00     0.177 C 
BRANCH   6   7
HETATM    7  C6  UNL     1       7.441  29.643   6.378  1.00  0.00     0.241 C 
HETATM    8  N2  UNL     1       8.266  30.161   7.423  1.00  0.00    -0.346 N 
ATOM      9  H2  UNL     1       9.157  30.608   7.208  1.00  0.00     0.163 HD
HETATM   10  O4  UNL     1       6.347  29.114   6.753  1.00  0.00    -0.271 OA
BRANCH   8  11
HETATM   11  C2  UNL     1       7.818  30.040   8.779  1.00  0.00     0.174 C 
BRANCH  11  12
HETATM   12  C1  UNL     1       8.374  31.163   9.574  1.00  0.00     0.254 C 
HETATM   13  N1  UNL     1       9.775  31.332   9.739  1.00  0.00    -0.060 NA
HETATM   14  O1  UNL     1       7.618  32.011  10.137  1.00  0.00    -0.275 OA
ENDBRANCH  11  12
BRANCH  11  15
HETATM   15  C3  UNL     1       8.330  28.769   9.434  1.00  0.00     0.045 C 
BRANCH  15  16
HETATM   16  C4  UNL     1       7.724  28.484  10.763  1.00  0.00     0.116 C 
BRANCH  16  17
HETATM   17  C5  UNL     1       8.611  27.868  11.750  1.00  0.00     0.172 C 
HETATM   18  O2  UNL     1       9.516  28.600  12.276  1.00  0.00    -0.648 OA
HETATM   19  O3  UNL     1       8.582  26.569  12.185  1.00  0.00    -0.648 OA
ENDBRANCH  16  17
ENDBRANCH  15  16
ENDBRANCH  11  15
ENDBRANCH   8  11
ENDBRANCH   6   7
BRANCH   6  20
HETATM   20  C8  UNL     1       7.166  30.669   4.070  1.00  0.00     0.045 C 
BRANCH  20  21
HETATM   21  C9  UNL     1       7.840  31.027   2.806  1.00  0.00     0.116 C 
BRANCH  21  22
HETATM   22  C10 UNL     1       7.397  30.308   1.620  1.00  0.00     0.172 C 
HETATM   23  O5  UNL     1       6.594  30.937   0.845  1.00  0.00    -0.648 OA
HETATM   24  O6  UNL     1       7.777  29.030   1.279  1.00  0.00    -0.648 OA
ENDBRANCH  21  22
ENDBRANCH  20  21
ENDBRANCH   6  20
ENDBRANCH   3   6
ENDBRANCH   1   2
BRANCH   1  25
HETATM   25  C13 UNL     1       9.148  25.801   2.565  1.00  0.00     0.119 C 
BRANCH  25  26
HETATM   26  C14 UNL     1       8.614  25.046   1.446  1.00  0.00     0.241 C 
HETATM   27  O8  UNL     1       7.484  25.264   0.922  1.00  0.00    -0.271 OA
HETATM   28  N4  UNL     1       9.353  23.969   0.845  1.00  0.00    -0.237 N 
ATOM     29  H4  UNL     1      10.273  23.731   1.214  1.00  0.00     0.197 HD
BRANCH  28  30
HETATM   30  O9  UNL     1       8.860  23.265  -0.196  1.00  0.00    -0.287 OA
ATOM     31  H9  UNL     1       8.965  23.559  -1.093  1.00  0.00     0.244 HD
ENDBRANCH  28  30
ENDBRANCH  25  26
ENDBRANCH   1  25
BRANCH   1  32
HETATM   32  C15 UNL     1       8.439  25.126   4.887  1.00  0.00     0.081 C 
BRANCH  32  33
HETATM   33  C16 UNL     1       7.377  24.190   5.137  1.00  0.00     0.079 A 
HETATM   34  C17 UNL     1       6.069  24.535   5.407  1.00  0.00     0.067 A 
HETATM   35  C18 UNL     1       5.359  23.379   5.586  1.00  0.00     0.067 A 
HETATM   36  N5  UNL     1       6.249  22.377   5.421  1.00  0.00    -0.260 N 
HETATM   37  O10 UNL     1       7.417  22.874   5.160  1.00  0.00    -0.242 OA
ATOM     38  H5  UNL     1       6.035  21.382   5.490  1.00  0.00     0.195 HD
BRANCH  35  39
HETATM   39  C19 UNL     1       3.943  23.286   5.879  1.00  0.00    -0.007 A 
HETATM   40  C20 UNL     1       3.512  22.611   6.983  1.00  0.00     0.014 A 
HETATM   41  C21 UNL     1       2.146  22.516   7.292  1.00  0.00     0.013 A 
HETATM   42  C22 UNL     1       1.222  23.116   6.465  1.00  0.00    -0.026 A 
HETATM   43  C29 UNL     1       1.677  23.793   5.355  1.00  0.00     0.013 A 
HETATM   44  C30 UNL     1       3.040  23.889   5.045  1.00  0.00     0.014 A 
BRANCH  42  45
HETATM   45  C23 UNL     1      -0.205  23.059   6.733  1.00  0.00    -0.024 A 
HETATM   46  C24 UNL     1      -1.008  24.185   6.593  1.00  0.00     0.012 A 
HETATM   47  C25 UNL     1      -2.358  24.150   6.844  1.00  0.00     0.003 A 
HETATM   48  C26 UNL     1      -2.948  22.975   7.244  1.00  0.00     0.024 A 
HETATM   49  C27 UNL     1      -2.192  21.830   7.397  1.00  0.00     0.034 A 
HETATM   50 CL1  UNL     1      -2.982  20.349   7.912  1.00  0.00    -0.084 Cl
HETATM   51  C28 UNL     1      -0.847  21.897   7.140  1.00  0.00     0.036 A 
ENDBRANCH  42  45
ENDBRANCH  35  39
ENDBRANCH  32  33
ENDBRANCH   1  32
TORSDOF 18
ENDMDL
