MODEL 10
REMARK VINA RESULT: -10.299835514      2.022      4.669
REMARK  18 active torsions:
REMARK  status: ('A' for Active; 'I' for Inactive)
REMARK    1  A    between atoms: C1_2  and  C2_4 
REMARK    2  A    between atoms: C2_4  and  C3_5 
REMARK    3  A    between atoms: C2_4  and  N2_10 
REMARK    4  A    between atoms: C3_5  and  C4_6 
REMARK    5  A    between atoms: C4_6  and  C5_7 
REMARK       I    between atoms: N2_10  and  C6_12 
REMARK    6  A    between atoms: C6_12  and  C7_14 
REMARK    7  A    between atoms: C7_14  and  C8_15 
REMARK    8  A    between atoms: C7_14  and  N3_20 
REMARK    9  A    between atoms: C8_15  and  C9_16 
REMARK   10  A    between atoms: C9_16  and  C10_17 
REMARK       I    between atoms: N3_20  and  C11_22 
REMARK   11  A    between atoms: C11_22  and  C12_24 
REMARK   12  A    between atoms: C12_24  and  C13_25 
REMARK   13  A    between atoms: C12_24  and  C15_32 
REMARK   14  A    between atoms: C13_25  and  C14_26 
REMARK       I    between atoms: C14_26  and  N4_28 
REMARK   15  A    between atoms: N4_28  and  O9_30 
REMARK   16  A    between atoms: C15_32  and  C16_33 
REMARK   17  A    between atoms: C18_35  and  C19_36 
REMARK   18  A    between atoms: C22_39  and  C23_40 
ROOT
HETATM    1  C12 UNL     1       8.066  25.809   3.843  1.00  0.00     0.093 C 
ENDROOT
BRANCH   1   2
HETATM    2  C11 UNL     1       8.262  27.156   4.558  1.00  0.00     0.223 C 
HETATM    3  N3  UNL     1       7.092  27.782   5.023  1.00  0.00    -0.347 N 
ATOM      4  H3  UNL     1       6.178  27.354   4.875  1.00  0.00     0.163 HD
HETATM    5  O7  UNL     1       9.423  27.556   4.656  1.00  0.00    -0.273 OA
BRANCH   3   6
HETATM    6  C7  UNL     1       7.211  29.079   5.736  1.00  0.00     0.177 C 
BRANCH   6   7
HETATM    7  C6  UNL     1       7.630  30.093   4.799  1.00  0.00     0.241 C 
HETATM    8  N2  UNL     1       6.962  30.371   3.567  1.00  0.00    -0.346 N 
ATOM      9  H2  UNL     1       6.126  29.850   3.301  1.00  0.00     0.163 HD
HETATM   10  O4  UNL     1       8.656  30.804   5.040  1.00  0.00    -0.271 OA
BRANCH   8  11
HETATM   11  C2  UNL     1       7.488  31.394   2.713  1.00  0.00     0.174 C 
BRANCH  11  12
HETATM   12  C1  UNL     1       6.513  32.510   2.638  1.00  0.00     0.254 C 
HETATM   13  N1  UNL     1       5.612  32.635   1.547  1.00  0.00    -0.060 NA
HETATM   14  O1  UNL     1       6.450  33.394   3.545  1.00  0.00    -0.275 OA
ENDBRANCH  11  12
BRANCH  11  15
HETATM   15  C3  UNL     1       7.673  30.903   1.288  1.00  0.00     0.045 C 
BRANCH  15  16
HETATM   16  C4  UNL     1       7.810  29.427   1.166  1.00  0.00     0.116 C 
BRANCH  16  17
HETATM   17  C5  UNL     1       9.176  28.924   1.006  1.00  0.00     0.172 C 
HETATM   18  O2  UNL     1      10.056  29.312   1.847  1.00  0.00    -0.648 OA
HETATM   19  O3  UNL     1       9.627  28.065   0.038  1.00  0.00    -0.648 OA
ENDBRANCH  16  17
ENDBRANCH  15  16
ENDBRANCH  11  15
ENDBRANCH   8  11
ENDBRANCH   6   7
BRANCH   6  20
HETATM   20  C8  UNL     1       7.991  28.796   6.954  1.00  0.00     0.045 C 
BRANCH  20  21
HETATM   21  C9  UNL     1       7.628  29.451   8.226  1.00  0.00     0.116 C 
BRANCH  21  22
HETATM   22  C10 UNL     1       8.301  30.711   8.511  1.00  0.00     0.172 C 
HETATM   23  O5  UNL     1       7.636  31.777   8.259  1.00  0.00    -0.648 OA
HETATM   24  O6  UNL     1       9.572  30.833   9.024  1.00  0.00    -0.648 OA
ENDBRANCH  21  22
ENDBRANCH  20  21
ENDBRANCH   6  20
ENDBRANCH   3   6
ENDBRANCH   1   2
BRANCH   1  25
HETATM   25  C13 UNL     1       9.022  25.727   2.696  1.00  0.00     0.119 C 
BRANCH  25  26
HETATM   26  C14 UNL     1       8.559  25.042   1.503  1.00  0.00     0.241 C 
HETATM   27  O8  UNL     1       7.472  25.308   0.913  1.00  0.00    -0.271 OA
HETATM   28  N4  UNL     1       9.324  23.987   0.896  1.00  0.00    -0.237 N 
ATOM     29  H4  UNL     1      10.213  23.713   1.315  1.00  0.00     0.197 HD
BRANCH  28  30
HETATM   30  O9  UNL     1       8.897  23.348  -0.214  1.00  0.00    -0.287 OA
ATOM     31  H9  UNL     1       8.867  22.400  -0.265  1.00  0.00     0.244 HD
ENDBRANCH  28  30
ENDBRANCH  25  26
ENDBRANCH   1  25
BRANCH   1  32
HETATM   32  C15 UNL     1       8.362  24.838   4.959  1.00  0.00     0.081 C 
BRANCH  32  33
HETATM   33  C16 UNL     1       7.331  23.873   5.228  1.00  0.00     0.079 A 
HETATM   34  C17 UNL     1       6.048  24.181   5.630  1.00  0.00     0.067 A 
HETATM   35  C18 UNL     1       5.362  23.006   5.781  1.00  0.00     0.067 A 
HETATM   36  N5  UNL     1       6.243  22.030   5.471  1.00  0.00    -0.260 N 
HETATM   37  O10 UNL     1       7.382  22.560   5.151  1.00  0.00    -0.242 OA
ATOM     38  H5  UNL     1       6.042  21.030   5.485  1.00  0.00     0.195 HD
BRANCH  35  39
HETATM   39  C19 UNL     1       3.977  22.874   6.183  1.00  0.00    -0.007 A 
HETATM   40  C20 UNL     1       2.995  23.518   5.489  1.00  0.00     0.014 A 
HETATM   41  C21 UNL     1       1.645  23.396   5.854  1.00  0.00     0.013 A 
HETATM   42  C22 UNL     1       1.304  22.612   6.934  1.00  0.00    -0.026 A 
HETATM   43  C29 UNL     1       2.310  21.970   7.622  1.00  0.00     0.013 A 
HETATM   44  C30 UNL     1       3.658  22.089   7.260  1.00  0.00     0.014 A 
BRANCH  42  45
HETATM   45  C23 UNL     1      -0.075  22.442   7.360  1.00  0.00    -0.024 A 
HETATM   46  C24 UNL     1      -0.659  21.181   7.414  1.00  0.00     0.012 A 
HETATM   47  C25 UNL     1      -1.961  21.002   7.812  1.00  0.00     0.003 A 
HETATM   48  C26 UNL     1      -2.722  22.089   8.170  1.00  0.00     0.024 A 
HETATM   49  C27 UNL     1      -2.186  23.360   8.133  1.00  0.00     0.034 A 
HETATM   50 CL1  UNL     1      -3.191  24.723   8.596  1.00  0.00    -0.084 Cl
HETATM   51  C28 UNL     1      -0.884  23.507   7.731  1.00  0.00     0.036 A 
ENDBRANCH  42  45
ENDBRANCH  35  39
ENDBRANCH  32  33
ENDBRANCH   1  32
TORSDOF 18
ENDMDL
