MODEL 5
REMARK VINA RESULT: -10.415732952      2.670      5.658
REMARK  18 active torsions:
REMARK  status: ('A' for Active; 'I' for Inactive)
REMARK    1  A    between atoms: C1_2  and  C2_4 
REMARK    2  A    between atoms: C2_4  and  C3_5 
REMARK    3  A    between atoms: C2_4  and  N2_10 
REMARK    4  A    between atoms: C3_5  and  C4_6 
REMARK    5  A    between atoms: C4_6  and  C5_7 
REMARK       I    between atoms: N2_10  and  C6_12 
REMARK    6  A    between atoms: C6_12  and  C7_14 
REMARK    7  A    between atoms: C7_14  and  C8_15 
REMARK    8  A    between atoms: C7_14  and  N3_20 
REMARK    9  A    between atoms: C8_15  and  C9_16 
REMARK   10  A    between atoms: C9_16  and  C10_17 
REMARK       I    between atoms: N3_20  and  C11_22 
REMARK   11  A    between atoms: C11_22  and  C12_24 
REMARK   12  A    between atoms: C12_24  and  C13_25 
REMARK   13  A    between atoms: C12_24  and  C15_32 
REMARK   14  A    between atoms: C13_25  and  C14_26 
REMARK       I    between atoms: C14_26  and  N4_28 
REMARK   15  A    between atoms: N4_28  and  O9_30 
REMARK   16  A    between atoms: C15_32  and  C16_33 
REMARK   17  A    between atoms: C18_35  and  C19_36 
REMARK   18  A    between atoms: C22_39  and  C23_40 
ROOT
HETATM    1  C12 UNL     1       7.854  25.410   4.843  1.00  0.00     0.093 C 
ENDROOT
BRANCH   1   2
HETATM    2  C11 UNL     1       8.880  25.652   3.723  1.00  0.00     0.223 C 
HETATM    3  N3  UNL     1       8.377  26.215   2.537  1.00  0.00    -0.347 N 
ATOM      4  H3  UNL     1       7.385  26.432   2.445  1.00  0.00     0.163 HD
HETATM    5  O7  UNL     1      10.043  25.330   3.973  1.00  0.00    -0.273 OA
BRANCH   3   6
HETATM    6  C7  UNL     1       9.317  26.488   1.422  1.00  0.00     0.177 C 
BRANCH   6   7
HETATM    7  C6  UNL     1       9.266  27.892   1.096  1.00  0.00     0.241 C 
HETATM    8  N2  UNL     1       8.942  28.921   2.033  1.00  0.00    -0.346 N 
ATOM      9  H2  UNL     1       8.738  28.691   3.006  1.00  0.00     0.163 HD
HETATM   10  O4  UNL     1       9.511  28.285  -0.088  1.00  0.00    -0.271 OA
BRANCH   8  11
HETATM   11  C2  UNL     1       8.907  30.280   1.581  1.00  0.00     0.174 C 
BRANCH  11  12
HETATM   12  C1  UNL     1      10.010  31.033   2.227  1.00  0.00     0.254 C 
HETATM   13  N1  UNL     1      10.471  32.270   1.702  1.00  0.00    -0.060 NA
HETATM   14  O1  UNL     1      10.582  30.599   3.273  1.00  0.00    -0.275 OA
ENDBRANCH  11  12
BRANCH  11  15
HETATM   15  C3  UNL     1       7.624  30.982   1.992  1.00  0.00     0.045 C 
BRANCH  15  16
HETATM   16  C4  UNL     1       7.131  30.604   3.343  1.00  0.00     0.116 C 
BRANCH  16  17
HETATM   17  C5  UNL     1       7.321  31.604   4.395  1.00  0.00     0.172 C 
HETATM   18  O2  UNL     1       7.090  31.251   5.601  1.00  0.00    -0.648 OA
HETATM   19  O3  UNL     1       7.726  32.903   4.230  1.00  0.00    -0.648 OA
ENDBRANCH  16  17
ENDBRANCH  15  16
ENDBRANCH  11  15
ENDBRANCH   8  11
ENDBRANCH   6   7
BRANCH   6  20
HETATM   20  C8  UNL     1       9.041  25.458   0.404  1.00  0.00     0.045 C 
BRANCH  20  21
HETATM   21  C9  UNL     1      10.142  24.933  -0.427  1.00  0.00     0.116 C 
BRANCH  21  22
HETATM   22  C10 UNL     1       9.748  24.193  -1.618  1.00  0.00     0.172 C 
HETATM   23  O5  UNL     1       8.650  24.556  -2.171  1.00  0.00    -0.648 OA
HETATM   24  O6  UNL     1      10.458  23.157  -2.179  1.00  0.00    -0.648 OA
ENDBRANCH  21  22
ENDBRANCH  20  21
ENDBRANCH   6  20
ENDBRANCH   3   6
ENDBRANCH   1   2
BRANCH   1  25
HETATM   25  C13 UNL     1       7.164  26.700   5.154  1.00  0.00     0.119 C 
BRANCH  25  26
HETATM   26  C14 UNL     1       7.995  27.791   5.630  1.00  0.00     0.241 C 
HETATM   27  O8  UNL     1       9.010  28.227   5.013  1.00  0.00    -0.271 OA
HETATM   28  N4  UNL     1       7.714  28.466   6.867  1.00  0.00    -0.237 N 
ATOM     29  H4  UNL     1       6.912  28.171   7.424  1.00  0.00     0.197 HD
BRANCH  28  30
HETATM   30  O9  UNL     1       8.484  29.482   7.313  1.00  0.00    -0.287 OA
ATOM     31  H9  UNL     1       8.900  29.457   8.166  1.00  0.00     0.244 HD
ENDBRANCH  28  30
ENDBRANCH  25  26
ENDBRANCH   1  25
BRANCH   1  32
HETATM   32  C15 UNL     1       6.961  24.375   4.205  1.00  0.00     0.081 C 
BRANCH  32  33
HETATM   33  C16 UNL     1       6.097  23.664   5.108  1.00  0.00     0.079 A 
HETATM   34  C17 UNL     1       4.722  23.768   5.132  1.00  0.00     0.067 A 
HETATM   35  C18 UNL     1       4.256  22.943   6.119  1.00  0.00     0.067 A 
HETATM   36  N5  UNL     1       5.352  22.369   6.660  1.00  0.00    -0.260 N 
HETATM   37  O10 UNL     1       6.412  22.805   6.054  1.00  0.00    -0.242 OA
ATOM     38  H5  UNL     1       5.347  21.697   7.427  1.00  0.00     0.195 HD
BRANCH  35  39
HETATM   39  C19 UNL     1       2.866  22.743   6.476  1.00  0.00    -0.007 A 
HETATM   40  C20 UNL     1       2.525  21.831   7.432  1.00  0.00     0.014 A 
HETATM   41  C21 UNL     1       1.186  21.627   7.801  1.00  0.00     0.013 A 
HETATM   42  C22 UNL     1       0.197  22.363   7.186  1.00  0.00    -0.026 A 
HETATM   43  C29 UNL     1       0.561  23.279   6.224  1.00  0.00     0.013 A 
HETATM   44  C30 UNL     1       1.896  23.483   5.854  1.00  0.00     0.014 A 
BRANCH  42  45
HETATM   45  C23 UNL     1      -1.207  22.203   7.527  1.00  0.00    -0.024 A 
HETATM   46  C24 UNL     1      -1.781  20.941   7.635  1.00  0.00     0.012 A 
HETATM   47  C25 UNL     1      -3.106  20.772   7.955  1.00  0.00     0.003 A 
HETATM   48  C26 UNL     1      -3.901  21.871   8.177  1.00  0.00     0.024 A 
HETATM   49  C27 UNL     1      -3.377  23.144   8.081  1.00  0.00     0.034 A 
HETATM   50 CL1  UNL     1      -4.425  24.522   8.370  1.00  0.00    -0.084 Cl
HETATM   51  C28 UNL     1      -2.051  23.280   7.760  1.00  0.00     0.036 A 
ENDBRANCH  42  45
ENDBRANCH  35  39
ENDBRANCH  32  33
ENDBRANCH   1  32
TORSDOF 18
ENDMDL
