MODEL 5
REMARK VINA RESULT: -6.788946128      3.118      4.902
REMARK  11 active torsions:
REMARK  status: ('A' for Active; 'I' for Inactive)
REMARK    1  A    between atoms: C2_2  and  C3_3 
REMARK    2  A    between atoms: C4_4  and  C5_5 
REMARK       I    between atoms: C5_5  and  N1_7 
REMARK    3  A    between atoms: N1_7  and  C6_9 
REMARK    4  A    between atoms: C8_11  and  S1_12 
REMARK    5  A    between atoms: S1_12  and  N2_15 
REMARK    6  A    between atoms: N2_15  and  C9_16 
REMARK    7  A    between atoms: N2_15  and  C11_18 
REMARK    8  A    between atoms: C15_22  and  O4_23 
REMARK    9  A    between atoms: C18_29  and  C19_30 
REMARK   10  A    between atoms: C19_30  and  C20_32 
REMARK   11  A    between atoms: C20_32  and  O6_33 
ROOT
HETATM    1  C5  UNL     1       3.954  58.457  24.173  1.00  0.00     0.273 C 
HETATM    2  O1  UNL     1       2.808  58.775  23.821  1.00  0.00    -0.266 OA
HETATM    3  N1  UNL     1       4.746  57.631  23.350  1.00  0.00    -0.319 N 
ATOM      4  H1  UNL     1       5.678  57.410  23.703  1.00  0.00     0.169 HD
ENDROOT
BRANCH   3   5
HETATM    5  C6  UNL     1       4.412  57.073  22.106  1.00  0.00     0.070 A 
HETATM    6  C7  UNL     1       3.877  55.823  21.921  1.00  0.00     0.057 A 
HETATM    7  C8  UNL     1       3.558  55.300  20.680  1.00  0.00     0.077 A 
HETATM    8  C13 UNL     1       3.788  56.072  19.575  1.00  0.00     0.028 A 
HETATM    9  C14 UNL     1       4.317  57.316  19.720  1.00  0.00     0.040 A 
HETATM   10  C15 UNL     1       4.639  57.843  20.968  1.00  0.00     0.092 A 
BRANCH   7  11
HETATM   11  S1  UNL     1       2.891  53.714  20.591  1.00  0.00     0.243 S 
HETATM   12  O2  UNL     1       2.301  53.492  19.216  1.00  0.00    -0.206 OA
HETATM   13  O3  UNL     1       3.982  52.711  20.803  1.00  0.00    -0.206 OA
BRANCH  11  14
HETATM   14  N2  UNL     1       1.645  53.432  21.737  1.00  0.00    -0.207 NA
BRANCH  14  15
HETATM   15  C9  UNL     1       0.524  52.720  21.189  1.00  0.00     0.103 C 
HETATM   16  C10 UNL     1       0.594  51.238  21.312  1.00  0.00     0.021 C 
ENDBRANCH  14  15
BRANCH  14  17
HETATM   17  C11 UNL     1       2.127  52.928  22.972  1.00  0.00     0.103 C 
HETATM   18  C12 UNL     1       1.670  53.812  24.136  1.00  0.00     0.021 C 
ENDBRANCH  14  17
ENDBRANCH  11  14
ENDBRANCH   7  11
BRANCH  10  19
HETATM   19  O4  UNL     1       5.175  59.121  21.028  1.00  0.00    -0.358 OA
ATOM     20  H4  UNL     1       5.327  59.648  20.252  1.00  0.00     0.217 HD
ENDBRANCH  10  19
ENDBRANCH   3   5
BRANCH   1  21
HETATM   21  C4  UNL     1       4.495  58.951  25.470  1.00  0.00     0.108 A 
HETATM   22  C3  UNL     1       5.006  60.211  25.692  1.00  0.00    -0.010 A 
HETATM   23  C18 UNL     1       5.408  60.285  27.022  1.00  0.00     0.043 A 
HETATM   24  C16 UNL     1       5.117  59.043  27.557  1.00  0.00     0.020 A 
HETATM   25  N3  UNL     1       4.571  58.256  26.614  1.00  0.00    -0.354 N 
HETATM   26  C17 UNL     1       5.369  58.638  28.960  1.00  0.00     0.069 C 
ATOM     27  H3  UNL     1       4.266  57.291  26.746  1.00  0.00     0.166 HD
BRANCH  22  28
HETATM   28  C2  UNL     1       5.121  61.316  24.712  1.00  0.00     0.037 C 
HETATM   29  C1  UNL     1       3.836  62.116  24.623  1.00  0.00     0.010 C 
ENDBRANCH  22  28
BRANCH  23  30
HETATM   30  C19 UNL     1       5.999  61.406  27.706  1.00  0.00     0.185 C 
HETATM   31  O5  UNL     1       7.220  61.341  28.027  1.00  0.00    -0.290 OA
BRANCH  30  32
HETATM   32  C20 UNL     1       5.260  62.641  28.061  1.00  0.00     0.247 C 
BRANCH  32  33
HETATM   33  O6  UNL     1       5.618  63.690  27.224  1.00  0.00    -0.393 OA
ATOM     34  H6  UNL     1       4.941  64.356  27.206  1.00  0.00     0.209 HD
ENDBRANCH  32  33
ENDBRANCH  30  32
ENDBRANCH  23  30
ENDBRANCH   1  21
TORSDOF 11
ENDMDL
