MODEL 2
REMARK VINA RESULT: -6.910329620      3.018      4.553
REMARK  11 active torsions:
REMARK  status: ('A' for Active; 'I' for Inactive)
REMARK    1  A    between atoms: C2_2  and  C3_3 
REMARK    2  A    between atoms: C4_4  and  C5_5 
REMARK       I    between atoms: C5_5  and  N1_7 
REMARK    3  A    between atoms: N1_7  and  C6_9 
REMARK    4  A    between atoms: C8_11  and  S1_12 
REMARK    5  A    between atoms: S1_12  and  N2_15 
REMARK    6  A    between atoms: N2_15  and  C9_16 
REMARK    7  A    between atoms: N2_15  and  C11_18 
REMARK    8  A    between atoms: C15_22  and  O4_23 
REMARK    9  A    between atoms: C18_29  and  C19_30 
REMARK   10  A    between atoms: C19_30  and  C20_32 
REMARK   11  A    between atoms: C20_32  and  O6_33 
ROOT
HETATM    1  C5  UNL     1       3.850  58.257  24.376  1.00  0.00     0.273 C 
HETATM    2  O1  UNL     1       2.661  58.451  24.081  1.00  0.00    -0.266 OA
HETATM    3  N1  UNL     1       4.677  57.492  23.528  1.00  0.00    -0.319 N 
ATOM      4  H1  UNL     1       5.643  57.374  23.834  1.00  0.00     0.169 HD
ENDROOT
BRANCH   3   5
HETATM    5  C6  UNL     1       4.336  56.872  22.316  1.00  0.00     0.070 A 
HETATM    6  C7  UNL     1       3.893  55.580  22.189  1.00  0.00     0.057 A 
HETATM    7  C8  UNL     1       3.563  54.996  20.978  1.00  0.00     0.077 A 
HETATM    8  C13 UNL     1       3.686  55.749  19.843  1.00  0.00     0.028 A 
HETATM    9  C14 UNL     1       4.123  57.033  19.931  1.00  0.00     0.040 A 
HETATM   10  C15 UNL     1       4.455  57.622  21.148  1.00  0.00     0.092 A 
BRANCH   7  11
HETATM   11  S1  UNL     1       3.019  53.361  20.963  1.00  0.00     0.243 S 
HETATM   12  O2  UNL     1       4.193  52.442  20.709  1.00  0.00    -0.206 OA
HETATM   13  O3  UNL     1       2.439  53.025  22.301  1.00  0.00    -0.206 OA
BRANCH  11  14
HETATM   14  N2  UNL     1       1.846  53.044  19.751  1.00  0.00    -0.207 NA
BRANCH  14  15
HETATM   15  C9  UNL     1       1.907  51.702  19.243  1.00  0.00     0.103 C 
HETATM   16  C10 UNL     1       0.987  51.411  18.109  1.00  0.00     0.021 C 
ENDBRANCH  14  15
BRANCH  14  17
HETATM   17  C11 UNL     1       0.547  53.491  20.102  1.00  0.00     0.103 C 
HETATM   18  C12 UNL     1       0.192  54.777  19.351  1.00  0.00     0.021 C 
ENDBRANCH  14  17
ENDBRANCH  11  14
ENDBRANCH   7  11
BRANCH  10  19
HETATM   19  O4  UNL     1       4.892  58.939  21.149  1.00  0.00    -0.358 OA
ATOM     20  H4  UNL     1       5.628  59.231  21.673  1.00  0.00     0.217 HD
ENDBRANCH  10  19
ENDBRANCH   3   5
BRANCH   1  21
HETATM   21  C4  UNL     1       4.406  58.835  25.632  1.00  0.00     0.108 A 
HETATM   22  C3  UNL     1       4.959  60.091  25.754  1.00  0.00    -0.010 A 
HETATM   23  C18 UNL     1       5.362  60.259  27.074  1.00  0.00     0.043 A 
HETATM   24  C16 UNL     1       5.029  59.074  27.706  1.00  0.00     0.020 A 
HETATM   25  N3  UNL     1       4.458  58.232  26.827  1.00  0.00    -0.354 N 
HETATM   26  C17 UNL     1       5.265  58.775  29.138  1.00  0.00     0.069 C 
ATOM     27  H3  UNL     1       4.120  57.292  27.035  1.00  0.00     0.166 HD
BRANCH  22  28
HETATM   28  C2  UNL     1       5.113  61.109  24.688  1.00  0.00     0.037 C 
HETATM   29  C1  UNL     1       3.854  61.937  24.524  1.00  0.00     0.010 C 
ENDBRANCH  22  28
BRANCH  23  30
HETATM   30  C19 UNL     1       5.991  61.410  27.669  1.00  0.00     0.185 C 
HETATM   31  O5  UNL     1       7.207  61.329  28.002  1.00  0.00    -0.290 OA
BRANCH  30  32
HETATM   32  C20 UNL     1       5.294  62.695  27.916  1.00  0.00     0.247 C 
BRANCH  32  33
HETATM   33  O6  UNL     1       5.728  63.672  27.029  1.00  0.00    -0.393 OA
ATOM     34  H6  UNL     1       5.060  63.863  26.382  1.00  0.00     0.209 HD
ENDBRANCH  32  33
ENDBRANCH  30  32
ENDBRANCH  23  30
ENDBRANCH   1  21
TORSDOF 11
ENDMDL
