MODEL 20
REMARK VINA RESULT: -6.264256628      2.039      2.771
REMARK  11 active torsions:
REMARK  status: ('A' for Active; 'I' for Inactive)
REMARK    1  A    between atoms: C2_2  and  C3_3 
REMARK    2  A    between atoms: C4_4  and  C5_5 
REMARK       I    between atoms: C5_5  and  N1_7 
REMARK    3  A    between atoms: N1_7  and  C6_9 
REMARK    4  A    between atoms: C8_11  and  S1_12 
REMARK    5  A    between atoms: S1_12  and  N2_15 
REMARK    6  A    between atoms: N2_15  and  C9_16 
REMARK    7  A    between atoms: N2_15  and  C11_18 
REMARK    8  A    between atoms: C15_22  and  O4_23 
REMARK    9  A    between atoms: C18_29  and  C19_30 
REMARK   10  A    between atoms: C19_30  and  C20_32 
REMARK   11  A    between atoms: C20_32  and  O6_33 
ROOT
HETATM    1  C5  UNL     1       4.594  56.537  22.326  1.00  0.00     0.273 C 
HETATM    2  O1  UNL     1       5.137  56.106  23.354  1.00  0.00    -0.266 OA
HETATM    3  N1  UNL     1       3.555  55.806  21.713  1.00  0.00    -0.319 N 
ATOM      4  H1  UNL     1       3.155  56.220  20.871  1.00  0.00     0.169 HD
ENDROOT
BRANCH   3   5
HETATM    5  C6  UNL     1       3.005  54.580  22.117  1.00  0.00     0.070 A 
HETATM    6  C7  UNL     1       3.102  53.403  21.417  1.00  0.00     0.057 A 
HETATM    7  C8  UNL     1       2.548  52.208  21.841  1.00  0.00     0.077 A 
HETATM    8  C13 UNL     1       1.863  52.198  23.026  1.00  0.00     0.028 A 
HETATM    9  C14 UNL     1       1.747  53.345  23.746  1.00  0.00     0.040 A 
HETATM   10  C15 UNL     1       2.304  54.548  23.320  1.00  0.00     0.092 A 
BRANCH   7  11
HETATM   11  S1  UNL     1       2.746  50.804  20.863  1.00  0.00     0.243 S 
HETATM   12  O2  UNL     1       1.583  49.864  21.091  1.00  0.00    -0.206 OA
HETATM   13  O3  UNL     1       2.750  51.207  19.422  1.00  0.00    -0.206 OA
BRANCH  11  14
HETATM   14  N2  UNL     1       4.186  49.934  21.202  1.00  0.00    -0.207 NA
BRANCH  14  15
HETATM   15  C9  UNL     1       3.977  48.819  22.082  1.00  0.00     0.103 C 
HETATM   16  C10 UNL     1       4.239  49.091  23.523  1.00  0.00     0.021 C 
ENDBRANCH  14  15
BRANCH  14  17
HETATM   17  C11 UNL     1       4.949  49.645  20.042  1.00  0.00     0.103 C 
HETATM   18  C12 UNL     1       5.501  48.219  20.095  1.00  0.00     0.021 C 
ENDBRANCH  14  17
ENDBRANCH  11  14
ENDBRANCH   7  11
BRANCH  10  19
HETATM   19  O4  UNL     1       2.138  55.673  24.115  1.00  0.00    -0.358 OA
ATOM     20  H4  UNL     1       2.859  56.248  24.342  1.00  0.00     0.217 HD
ENDBRANCH  10  19
ENDBRANCH   3   5
BRANCH   1  21
HETATM   21  C4  UNL     1       5.040  57.830  21.737  1.00  0.00     0.108 A 
HETATM   22  C3  UNL     1       4.439  59.052  21.949  1.00  0.00    -0.010 A 
HETATM   23  C18 UNL     1       5.144  60.010  21.230  1.00  0.00     0.043 A 
HETATM   24  C16 UNL     1       6.161  59.314  20.601  1.00  0.00     0.020 A 
HETATM   25  N3  UNL     1       6.083  58.009  20.916  1.00  0.00    -0.354 N 
HETATM   26  C17 UNL     1       7.184  59.914  19.713  1.00  0.00     0.069 C 
ATOM     27  H3  UNL     1       6.713  57.278  20.584  1.00  0.00     0.166 HD
BRANCH  22  28
HETATM   28  C2  UNL     1       3.251  59.331  22.790  1.00  0.00     0.037 C 
HETATM   29  C1  UNL     1       3.634  59.538  24.242  1.00  0.00     0.010 C 
ENDBRANCH  22  28
BRANCH  23  30
HETATM   30  C19 UNL     1       4.884  61.424  21.148  1.00  0.00     0.185 C 
HETATM   31  O5  UNL     1       3.915  61.820  20.440  1.00  0.00    -0.290 OA
BRANCH  30  32
HETATM   32  C20 UNL     1       5.688  62.454  21.849  1.00  0.00     0.247 C 
BRANCH  32  33
HETATM   33  O6  UNL     1       5.797  62.161  23.203  1.00  0.00    -0.393 OA
ATOM     34  H6  UNL     1       4.940  62.121  23.610  1.00  0.00     0.209 HD
ENDBRANCH  32  33
ENDBRANCH  30  32
ENDBRANCH  23  30
ENDBRANCH   1  21
TORSDOF 11
ENDMDL
