MODEL 8
REMARK VINA RESULT: -6.706441771      3.776      9.335
REMARK  11 active torsions:
REMARK  status: ('A' for Active; 'I' for Inactive)
REMARK    1  A    between atoms: C2_2  and  C3_3 
REMARK    2  A    between atoms: C4_4  and  C5_5 
REMARK       I    between atoms: C5_5  and  N1_7 
REMARK    3  A    between atoms: N1_7  and  C6_9 
REMARK    4  A    between atoms: C8_11  and  S1_12 
REMARK    5  A    between atoms: S1_12  and  N2_15 
REMARK    6  A    between atoms: N2_15  and  C9_16 
REMARK    7  A    between atoms: N2_15  and  C11_18 
REMARK    8  A    between atoms: C15_22  and  O4_23 
REMARK    9  A    between atoms: C18_29  and  C19_30 
REMARK   10  A    between atoms: C19_30  and  C20_32 
REMARK   11  A    between atoms: C20_32  and  O6_33 
ROOT
HETATM    1  C5  UNL     1       4.106  56.735  23.013  1.00  0.00     0.273 C 
HETATM    2  O1  UNL     1       5.176  56.564  23.616  1.00  0.00    -0.266 OA
HETATM    3  N1  UNL     1       3.626  58.039  22.776  1.00  0.00    -0.319 N 
ATOM      4  H1  UNL     1       2.739  58.104  22.274  1.00  0.00     0.169 HD
ENDROOT
BRANCH   3   5
HETATM    5  C6  UNL     1       4.214  59.258  23.144  1.00  0.00     0.070 A 
HETATM    6  C7  UNL     1       4.246  59.765  24.419  1.00  0.00     0.057 A 
HETATM    7  C8  UNL     1       4.836  60.973  24.752  1.00  0.00     0.077 A 
HETATM    8  C13 UNL     1       5.420  61.703  23.754  1.00  0.00     0.028 A 
HETATM    9  C14 UNL     1       5.408  61.232  22.478  1.00  0.00     0.040 A 
HETATM   10  C15 UNL     1       4.815  60.018  22.142  1.00  0.00     0.092 A 
BRANCH   7  11
HETATM   11  S1  UNL     1       4.803  61.490  26.395  1.00  0.00     0.243 S 
HETATM   12  O2  UNL     1       4.978  62.992  26.452  1.00  0.00    -0.206 OA
HETATM   13  O3  UNL     1       3.474  61.147  26.990  1.00  0.00    -0.206 OA
BRANCH  11  14
HETATM   14  N2  UNL     1       6.042  60.791  27.355  1.00  0.00    -0.207 NA
BRANCH  14  15
HETATM   15  C9  UNL     1       6.521  61.669  28.386  1.00  0.00     0.103 C 
HETATM   16  C10 UNL     1       6.133  61.288  29.772  1.00  0.00     0.021 C 
ENDBRANCH  14  15
BRANCH  14  17
HETATM   17  C11 UNL     1       5.736  59.474  27.786  1.00  0.00     0.103 C 
HETATM   18  C12 UNL     1       6.533  58.441  26.985  1.00  0.00     0.021 C 
ENDBRANCH  14  17
ENDBRANCH  11  14
ENDBRANCH   7  11
BRANCH  10  19
HETATM   19  O4  UNL     1       4.846  59.611  20.816  1.00  0.00    -0.358 OA
ATOM     20  H4  UNL     1       5.651  59.572  20.313  1.00  0.00     0.217 HD
ENDBRANCH  10  19
ENDBRANCH   3   5
BRANCH   1  21
HETATM   21  C4  UNL     1       3.326  55.558  22.537  1.00  0.00     0.108 A 
HETATM   22  C3  UNL     1       3.375  55.031  21.265  1.00  0.00    -0.010 A 
HETATM   23  C18 UNL     1       2.508  53.945  21.215  1.00  0.00     0.043 A 
HETATM   24  C16 UNL     1       1.961  53.860  22.483  1.00  0.00     0.020 A 
HETATM   25  N3  UNL     1       2.462  54.834  23.262  1.00  0.00    -0.354 N 
HETATM   26  C17 UNL     1       0.971  52.848  22.920  1.00  0.00     0.069 C 
ATOM     27  H3  UNL     1       2.224  54.996  24.241  1.00  0.00     0.166 HD
BRANCH  22  28
HETATM   28  C2  UNL     1       4.195  55.511  20.129  1.00  0.00     0.037 C 
HETATM   29  C1  UNL     1       3.464  56.567  19.323  1.00  0.00     0.010 C 
ENDBRANCH  22  28
BRANCH  23  30
HETATM   30  C19 UNL     1       2.229  53.086  20.093  1.00  0.00     0.185 C 
HETATM   31  O5  UNL     1       2.851  51.989  20.004  1.00  0.00    -0.290 OA
BRANCH  30  32
HETATM   32  C20 UNL     1       1.250  53.409  19.028  1.00  0.00     0.247 C 
BRANCH  32  33
HETATM   33  O6  UNL     1       0.503  54.531  19.365  1.00  0.00    -0.393 OA
ATOM     34  H6  UNL     1       0.326  55.063  18.599  1.00  0.00     0.209 HD
ENDBRANCH  32  33
ENDBRANCH  30  32
ENDBRANCH  23  30
ENDBRANCH   1  21
TORSDOF 11
ENDMDL
