MODEL 3
REMARK VINA RESULT: -7.685897349      3.277      7.149
REMARK  10 active torsions:
REMARK  status: ('A' for Active; 'I' for Inactive)
REMARK    1  A    between atoms: C2_2  and  C3_3 
REMARK    2  A    between atoms: C4_4  and  C5_5 
REMARK    3  A    between atoms: C5_5  and  O1_6 
REMARK    4  A    between atoms: C5_5  and  N1_8 
REMARK    5  A    between atoms: N1_8  and  C6_10 
REMARK    6  A    between atoms: C10_14  and  S1_15 
REMARK    7  A    between atoms: S1_15  and  N2_18 
REMARK    8  A    between atoms: N2_18  and  C11_19 
REMARK    9  A    between atoms: N2_18  and  C13_21 
REMARK   10  A    between atoms: C18_28  and  C19_29 
ROOT
HETATM    1  N1  UNL     1       4.909  60.252  22.061  1.00  0.00    -0.335 N 
ATOM      2  H1  UNL     1       5.156  61.172  21.696  1.00  0.00     0.168 HD
ENDROOT
BRANCH   1   3
HETATM    3  C5  UNL     1       5.319  59.141  21.334  1.00  0.00     0.168 C 
BRANCH   3   4
HETATM    4  C4  UNL     1       4.554  57.948  20.992  1.00  0.00     0.091 A 
HETATM    5  C3  UNL     1       4.223  56.817  21.680  1.00  0.00    -0.012 A 
HETATM    6  C18 UNL     1       3.447  55.956  20.869  1.00  0.00     0.040 A 
HETATM    7  C16 UNL     1       3.338  56.627  19.677  1.00  0.00     0.020 A 
HETATM    8  N3  UNL     1       3.988  57.795  19.752  1.00  0.00    -0.355 N 
HETATM    9  C17 UNL     1       2.600  56.130  18.464  1.00  0.00     0.069 C 
ATOM     10  H3  UNL     1       4.052  58.474  18.994  1.00  0.00     0.166 HD
BRANCH   5  11
HETATM   11  C2  UNL     1       4.608  56.526  23.081  1.00  0.00     0.037 C 
HETATM   12  C1  UNL     1       3.493  56.703  24.053  1.00  0.00     0.010 C 
ENDBRANCH   5  11
BRANCH   6  13
HETATM   13  C19 UNL     1       2.887  54.671  21.245  1.00  0.00     0.158 C 
HETATM   14  C20 UNL     1       1.572  54.538  21.946  1.00  0.00     0.097 C 
HETATM   15  O4  UNL     1       3.465  53.584  21.010  1.00  0.00    -0.293 OA
ENDBRANCH   6  13
ENDBRANCH   3   4
BRANCH   3  16
HETATM   16  O1  UNL     1       6.550  59.210  20.921  1.00  0.00    -0.344 OA
ATOM     17  H1  UNL     1       6.955  60.068  20.879  1.00  0.00     0.219 HD
ENDBRANCH   3  16
ENDBRANCH   1   3
BRANCH   1  18
HETATM   18  C6  UNL     1       4.159  60.201  23.295  1.00  0.00     0.035 A 
HETATM   19  C7  UNL     1       2.819  60.375  23.401  1.00  0.00     0.029 A 
HETATM   20  C8  UNL     1       2.179  60.336  24.617  1.00  0.00     0.004 A 
HETATM   21  C9  UNL     1       2.896  60.119  25.749  1.00  0.00     0.025 A 
HETATM   22  C10 UNL     1       4.272  59.934  25.694  1.00  0.00     0.081 A 
HETATM   23  C15 UNL     1       4.877  59.977  24.485  1.00  0.00     0.054 A 
BRANCH  22  24
HETATM   24  S1  UNL     1       5.086  59.664  27.208  1.00  0.00     0.260 S 
HETATM   25  O2  UNL     1       4.267  60.198  28.370  1.00  0.00    -0.200 OA
HETATM   26  O3  UNL     1       6.359  60.459  27.206  1.00  0.00    -0.200 OA
BRANCH  24  27
HETATM   27  N2  UNL     1       5.441  58.047  27.527  1.00  0.00    -0.307 N 
BRANCH  27  28
HETATM   28  C11 UNL     1       4.661  57.387  28.507  1.00  0.00     0.131 C 
HETATM   29  C12 UNL     1       3.615  56.531  27.796  1.00  0.00     0.027 C 
ENDBRANCH  27  28
BRANCH  27  30
HETATM   30  C13 UNL     1       6.788  57.632  27.367  1.00  0.00     0.131 C 
HETATM   31  C14 UNL     1       6.935  57.110  25.930  1.00  0.00     0.027 C 
ENDBRANCH  27  30
ENDBRANCH  24  27
ENDBRANCH  22  24
ENDBRANCH   1  18
TORSDOF 10
ENDMDL
