MODEL 4
REMARK VINA RESULT: -7.683066219      3.833      7.498
REMARK  10 active torsions:
REMARK  status: ('A' for Active; 'I' for Inactive)
REMARK    1  A    between atoms: C2_2  and  C3_3 
REMARK    2  A    between atoms: C4_4  and  C5_5 
REMARK    3  A    between atoms: C5_5  and  O1_6 
REMARK    4  A    between atoms: C5_5  and  N1_8 
REMARK    5  A    between atoms: N1_8  and  C6_10 
REMARK    6  A    between atoms: C10_14  and  S1_15 
REMARK    7  A    between atoms: S1_15  and  N2_18 
REMARK    8  A    between atoms: N2_18  and  C11_19 
REMARK    9  A    between atoms: N2_18  and  C13_21 
REMARK   10  A    between atoms: C18_28  and  C19_29 
ROOT
HETATM    1  N1  UNL     1       4.796  58.540  22.130  1.00  0.00    -0.335 N 
ATOM      2  H1  UNL     1       5.072  57.757  21.537  1.00  0.00     0.168 HD
ENDROOT
BRANCH   1   3
HETATM    3  C5  UNL     1       4.331  58.246  23.406  1.00  0.00     0.168 C 
BRANCH   3   4
HETATM    4  C4  UNL     1       4.981  58.492  24.687  1.00  0.00     0.091 A 
HETATM    5  C3  UNL     1       4.932  59.523  25.580  1.00  0.00    -0.012 A 
HETATM    6  C18 UNL     1       5.770  59.255  26.689  1.00  0.00     0.040 A 
HETATM    7  C16 UNL     1       6.314  58.027  26.408  1.00  0.00     0.020 A 
HETATM    8  N3  UNL     1       5.849  57.582  25.234  1.00  0.00    -0.355 N 
HETATM    9  C17 UNL     1       7.287  57.287  27.284  1.00  0.00     0.069 C 
ATOM     10  H3  UNL     1       6.105  56.692  24.807  1.00  0.00     0.166 HD
BRANCH   5  11
HETATM   11  C2  UNL     1       4.113  60.749  25.427  1.00  0.00     0.037 C 
HETATM   12  C1  UNL     1       4.872  61.905  24.872  1.00  0.00     0.010 C 
ENDBRANCH   5  11
BRANCH   6  13
HETATM   13  C19 UNL     1       5.972  60.096  27.854  1.00  0.00     0.158 C 
HETATM   14  C20 UNL     1       5.271  59.856  29.154  1.00  0.00     0.097 C 
HETATM   15  O4  UNL     1       6.748  61.081  27.853  1.00  0.00    -0.293 OA
ENDBRANCH   6  13
ENDBRANCH   3   4
BRANCH   3  16
HETATM   16  O1  UNL     1       3.161  57.680  23.420  1.00  0.00    -0.344 OA
ATOM     17  H1  UNL     1       2.801  57.388  22.591  1.00  0.00     0.219 HD
ENDBRANCH   3  16
ENDBRANCH   1   3
BRANCH   1  18
HETATM   18  C6  UNL     1       4.918  59.870  21.581  1.00  0.00     0.035 A 
HETATM   19  C7  UNL     1       3.977  60.842  21.675  1.00  0.00     0.029 A 
HETATM   20  C8  UNL     1       4.157  62.080  21.104  1.00  0.00     0.004 A 
HETATM   21  C9  UNL     1       5.302  62.349  20.425  1.00  0.00     0.025 A 
HETATM   22  C10 UNL     1       6.297  61.387  20.301  1.00  0.00     0.081 A 
HETATM   23  C15 UNL     1       6.095  60.178  20.872  1.00  0.00     0.054 A 
BRANCH  22  24
HETATM   24  S1  UNL     1       7.720  61.845  19.410  1.00  0.00     0.260 S 
HETATM   25  O2  UNL     1       8.969  61.682  20.257  1.00  0.00    -0.200 OA
HETATM   26  O3  UNL     1       7.626  63.310  19.095  1.00  0.00    -0.200 OA
BRANCH  24  27
HETATM   27  N2  UNL     1       7.950  60.982  17.979  1.00  0.00    -0.307 N 
BRANCH  27  28
HETATM   28  C11 UNL     1       7.549  59.625  17.961  1.00  0.00     0.131 C 
HETATM   29  C12 UNL     1       8.058  58.987  16.671  1.00  0.00     0.027 C 
ENDBRANCH  27  28
BRANCH  27  30
HETATM   30  C13 UNL     1       9.050  61.355  17.165  1.00  0.00     0.131 C 
HETATM   31  C14 UNL     1       8.525  62.348  16.118  1.00  0.00     0.027 C 
ENDBRANCH  27  30
ENDBRANCH  24  27
ENDBRANCH  22  24
ENDBRANCH   1  18
TORSDOF 10
ENDMDL
