MODEL 2
REMARK VINA RESULT: -7.687478363      3.995      7.662
REMARK  10 active torsions:
REMARK  status: ('A' for Active; 'I' for Inactive)
REMARK    1  A    between atoms: C2_2  and  C3_3 
REMARK    2  A    between atoms: C4_4  and  C5_5 
REMARK    3  A    between atoms: C5_5  and  O1_6 
REMARK    4  A    between atoms: C5_5  and  N1_8 
REMARK    5  A    between atoms: N1_8  and  C6_10 
REMARK    6  A    between atoms: C10_14  and  S1_15 
REMARK    7  A    between atoms: S1_15  and  N2_18 
REMARK    8  A    between atoms: N2_18  and  C11_19 
REMARK    9  A    between atoms: N2_18  and  C13_21 
REMARK   10  A    between atoms: C18_28  and  C19_29 
ROOT
HETATM    1  N1  UNL     1       5.763  58.781  21.412  1.00  0.00    -0.335 N 
ATOM      2  H1  UNL     1       6.222  58.051  20.868  1.00  0.00     0.168 HD
ENDROOT
BRANCH   1   3
HETATM    3  C5  UNL     1       5.001  58.385  22.505  1.00  0.00     0.168 C 
BRANCH   3   4
HETATM    4  C4  UNL     1       5.323  58.494  23.922  1.00  0.00     0.091 A 
HETATM    5  C3  UNL     1       5.157  59.484  24.848  1.00  0.00    -0.012 A 
HETATM    6  C18 UNL     1       5.649  59.068  26.108  1.00  0.00     0.040 A 
HETATM    7  C16 UNL     1       6.112  57.795  25.883  1.00  0.00     0.020 A 
HETATM    8  N3  UNL     1       5.919  57.462  24.601  1.00  0.00    -0.355 N 
HETATM    9  C17 UNL     1       6.743  56.905  26.917  1.00  0.00     0.069 C 
ATOM     10  H3  UNL     1       6.179  56.567  24.187  1.00  0.00     0.166 HD
BRANCH   5  11
HETATM   11  C2  UNL     1       4.542  60.806  24.584  1.00  0.00     0.037 C 
HETATM   12  C1  UNL     1       3.052  60.775  24.563  1.00  0.00     0.010 C 
ENDBRANCH   5  11
BRANCH   6  13
HETATM   13  C19 UNL     1       5.634  59.826  27.344  1.00  0.00     0.158 C 
HETATM   14  C20 UNL     1       4.453  59.848  28.264  1.00  0.00     0.097 C 
HETATM   15  O4  UNL     1       6.608  60.514  27.730  1.00  0.00    -0.293 OA
ENDBRANCH   6  13
ENDBRANCH   3   4
BRANCH   3  16
HETATM   16  O1  UNL     1       3.859  57.854  22.182  1.00  0.00    -0.344 OA
ATOM     17  H1  UNL     1       3.831  57.302  21.410  1.00  0.00     0.219 HD
ENDBRANCH   3  16
ENDBRANCH   1   3
BRANCH   1  18
HETATM   18  C6  UNL     1       5.954  60.150  20.991  1.00  0.00     0.035 A 
HETATM   19  C7  UNL     1       5.287  61.220  21.489  1.00  0.00     0.029 A 
HETATM   20  C8  UNL     1       5.508  62.493  21.018  1.00  0.00     0.004 A 
HETATM   21  C9  UNL     1       6.415  62.697  20.028  1.00  0.00     0.025 A 
HETATM   22  C10 UNL     1       7.124  61.634  19.484  1.00  0.00     0.081 A 
HETATM   23  C15 UNL     1       6.888  60.392  19.965  1.00  0.00     0.054 A 
BRANCH  22  24
HETATM   24  S1  UNL     1       8.259  62.015  18.221  1.00  0.00     0.260 S 
HETATM   25  O2  UNL     1       9.678  61.681  18.644  1.00  0.00    -0.200 OA
HETATM   26  O3  UNL     1       8.236  63.500  18.002  1.00  0.00    -0.200 OA
BRANCH  24  27
HETATM   27  N2  UNL     1       7.958  61.233  16.758  1.00  0.00    -0.307 N 
BRANCH  27  28
HETATM   28  C11 UNL     1       8.585  59.982  16.544  1.00  0.00     0.131 C 
HETATM   29  C12 UNL     1       7.566  58.877  16.813  1.00  0.00     0.027 C 
ENDBRANCH  27  28
BRANCH  27  30
HETATM   30  C13 UNL     1       7.708  62.047  15.624  1.00  0.00     0.131 C 
HETATM   31  C14 UNL     1       6.427  61.521  14.960  1.00  0.00     0.027 C 
ENDBRANCH  27  30
ENDBRANCH  24  27
ENDBRANCH  22  24
ENDBRANCH   1  18
TORSDOF 10
ENDMDL
