MODEL 2
REMARK VINA RESULT: -6.628303191      4.617      7.233
REMARK  9 active torsions:
REMARK  status: ('A' for Active; 'I' for Inactive)
REMARK    1  A    between atoms: C2_2  and  C3_3 
REMARK    2  A    between atoms: C4_4  and  C5_5 
REMARK       I    between atoms: C5_5  and  N1_7 
REMARK    3  A    between atoms: N1_7  and  C6_9 
REMARK    4  A    between atoms: C8_11  and  S1_12 
REMARK    5  A    between atoms: S1_12  and  N2_15 
REMARK    6  A    between atoms: N2_15  and  C9_16 
REMARK    7  A    between atoms: N2_15  and  C11_18 
REMARK    8  A    between atoms: C16_23  and  O4_24 
REMARK    9  A    between atoms: C19_30  and  C20_31 
ROOT
HETATM    1  C6  UNL     1      15.179  -7.321  -7.067  1.00  0.00     0.070 A 
HETATM    2  C7  UNL     1      15.175  -7.776  -5.769  1.00  0.00     0.057 A 
HETATM    3  C8  UNL     1      15.999  -7.236  -4.784  1.00  0.00     0.083 A 
HETATM    4  C13 UNL     1      16.849  -6.219  -5.095  1.00  0.00    -0.036 A 
HETATM    5  C14 UNL     1      17.759  -5.593  -4.097  1.00  0.00     0.050 C 
HETATM    6  C15 UNL     1      16.853  -5.760  -6.401  1.00  0.00     0.047 A 
HETATM    7  C16 UNL     1      16.050  -6.284  -7.369  1.00  0.00     0.093 A 
ENDROOT
BRANCH   1   8
HETATM    8  N1  UNL     1      14.376  -7.818  -8.117  1.00  0.00    -0.319 N 
HETATM    9  C5  UNL     1      14.230  -9.146  -8.539  1.00  0.00     0.273 C 
HETATM   10  O1  UNL     1      14.856 -10.050  -7.958  1.00  0.00    -0.266 OA
ATOM     11  H1  UNL     1      13.836  -7.124  -8.634  1.00  0.00     0.169 HD
BRANCH   9  12
HETATM   12  C4  UNL     1      13.350  -9.535  -9.662  1.00  0.00     0.108 A 
HETATM   13  C3  UNL     1      12.593 -10.648  -9.814  1.00  0.00    -0.010 A 
HETATM   14  C19 UNL     1      11.936 -10.584 -11.026  1.00  0.00     0.040 A 
HETATM   15  C17 UNL     1      12.312  -9.396 -11.618  1.00  0.00     0.020 A 
HETATM   16  N3  UNL     1      13.159  -8.799 -10.768  1.00  0.00    -0.354 N 
HETATM   17  C18 UNL     1      11.855  -8.878 -12.959  1.00  0.00     0.069 C 
ATOM     18  H3  UNL     1      13.603  -7.897 -10.940  1.00  0.00     0.166 HD
BRANCH  13  19
HETATM   19  C2  UNL     1      12.495 -11.751  -8.841  1.00  0.00     0.037 C 
HETATM   20  C1  UNL     1      13.395 -12.868  -9.332  1.00  0.00     0.010 C 
ENDBRANCH  13  19
BRANCH  14  21
HETATM   21  C20 UNL     1      11.021 -11.539 -11.620  1.00  0.00     0.158 C 
HETATM   22  C21 UNL     1      11.411 -12.260 -12.844  1.00  0.00     0.097 C 
HETATM   23  O5  UNL     1       9.910 -11.753 -11.102  1.00  0.00    -0.293 OA
ENDBRANCH  14  21
ENDBRANCH   9  12
ENDBRANCH   1   8
BRANCH   7  24
HETATM   24  O4  UNL     1      16.113  -5.770  -8.648  1.00  0.00    -0.358 OA
ATOM     25  H4  UNL     1      16.898  -5.328  -8.953  1.00  0.00     0.217 HD
ENDBRANCH   7  24
BRANCH   3  26
HETATM   26  S1  UNL     1      15.942  -7.872  -3.145  1.00  0.00     0.244 S 
HETATM   27  O2  UNL     1      15.776  -6.715  -2.208  1.00  0.00    -0.206 OA
HETATM   28  O3  UNL     1      17.269  -8.522  -2.896  1.00  0.00    -0.206 OA
BRANCH  26  29
HETATM   29  N2  UNL     1      14.634  -8.943  -2.954  1.00  0.00    -0.207 NA
BRANCH  29  30
HETATM   30  C9  UNL     1      13.740  -8.549  -1.906  1.00  0.00     0.103 C 
HETATM   31  C10 UNL     1      12.591  -7.746  -2.520  1.00  0.00     0.021 C 
ENDBRANCH  29  30
BRANCH  29  32
HETATM   32  C11 UNL     1      14.990 -10.316  -2.893  1.00  0.00     0.103 C 
HETATM   33  C12 UNL     1      15.090 -11.038  -4.194  1.00  0.00     0.021 C 
ENDBRANCH  29  32
ENDBRANCH  26  29
ENDBRANCH   3  26
TORSDOF 9
ENDMDL
