MODEL 3
REMARK VINA RESULT: -6.583396472      3.228      5.252
REMARK  9 active torsions:
REMARK  status: ('A' for Active; 'I' for Inactive)
REMARK    1  A    between atoms: C2_2  and  C3_3 
REMARK    2  A    between atoms: C4_4  and  C5_5 
REMARK       I    between atoms: C5_5  and  N1_7 
REMARK    3  A    between atoms: N1_7  and  C6_9 
REMARK    4  A    between atoms: C8_11  and  S1_12 
REMARK    5  A    between atoms: S1_12  and  N2_15 
REMARK    6  A    between atoms: N2_15  and  C9_16 
REMARK    7  A    between atoms: N2_15  and  C11_18 
REMARK    8  A    between atoms: C16_23  and  O4_24 
REMARK    9  A    between atoms: C19_30  and  C20_31 
ROOT
HETATM    1  C6  UNL     1      15.602  -7.720  -7.075  1.00  0.00     0.070 A 
HETATM    2  C7  UNL     1      16.011  -6.407  -7.073  1.00  0.00     0.057 A 
HETATM    3  C8  UNL     1      16.379  -5.736  -8.237  1.00  0.00     0.083 A 
HETATM    4  C13 UNL     1      16.342  -6.384  -9.433  1.00  0.00    -0.036 A 
HETATM    5  C14 UNL     1      16.723  -5.733 -10.717  1.00  0.00     0.050 C 
HETATM    6  C15 UNL     1      15.931  -7.706  -9.436  1.00  0.00     0.047 A 
HETATM    7  C16 UNL     1      15.570  -8.369  -8.302  1.00  0.00     0.093 A 
ENDROOT
BRANCH   1   8
HETATM    8  N1  UNL     1      15.217  -8.466  -5.939  1.00  0.00    -0.319 N 
HETATM    9  C5  UNL     1      16.040  -9.050  -4.968  1.00  0.00     0.273 C 
HETATM   10  O1  UNL     1      17.275  -8.935  -5.057  1.00  0.00    -0.266 OA
ATOM     11  H1  UNL     1      14.213  -8.595  -5.810  1.00  0.00     0.169 HD
BRANCH   9  12
HETATM   12  C4  UNL     1      15.504  -9.812  -3.820  1.00  0.00     0.108 A 
HETATM   13  C3  UNL     1      14.835  -9.364  -2.730  1.00  0.00    -0.010 A 
HETATM   14  C19 UNL     1      14.529 -10.436  -1.916  1.00  0.00     0.040 A 
HETATM   15  C17 UNL     1      15.030 -11.560  -2.539  1.00  0.00     0.020 A 
HETATM   16  N3  UNL     1      15.606 -11.142  -3.675  1.00  0.00    -0.354 N 
HETATM   17  C18 UNL     1      14.944 -12.979  -2.033  1.00  0.00     0.069 C 
ATOM     18  H3  UNL     1      16.064 -11.758  -4.346  1.00  0.00     0.166 HD
BRANCH  13  19
HETATM   19  C2  UNL     1      14.496  -7.955  -2.458  1.00  0.00     0.037 C 
HETATM   20  C1  UNL     1      13.037  -7.763  -2.826  1.00  0.00     0.010 C 
ENDBRANCH  13  19
BRANCH  14  21
HETATM   21  C20 UNL     1      13.825 -10.448  -0.650  1.00  0.00     0.158 C 
HETATM   22  C21 UNL     1      14.439  -9.821   0.533  1.00  0.00     0.097 C 
HETATM   23  O5  UNL     1      12.707 -10.986  -0.555  1.00  0.00    -0.293 OA
ENDBRANCH  14  21
ENDBRANCH   9  12
ENDBRANCH   1   8
BRANCH   7  24
HETATM   24  O4  UNL     1      15.171  -9.687  -8.389  1.00  0.00    -0.358 OA
ATOM     25  H4  UNL     1      14.255  -9.907  -8.515  1.00  0.00     0.217 HD
ENDBRANCH   7  24
BRANCH   3  26
HETATM   26  S1  UNL     1      16.894  -4.056  -8.156  1.00  0.00     0.244 S 
HETATM   27  O2  UNL     1      17.185  -3.732  -6.724  1.00  0.00    -0.206 OA
HETATM   28  O3  UNL     1      15.733  -3.233  -8.624  1.00  0.00    -0.206 OA
BRANCH  26  29
HETATM   29  N2  UNL     1      18.299  -3.806  -9.085  1.00  0.00    -0.207 NA
BRANCH  29  30
HETATM   30  C9  UNL     1      19.503  -3.939  -8.321  1.00  0.00     0.103 C 
HETATM   31  C10 UNL     1      20.629  -4.384  -9.256  1.00  0.00     0.021 C 
ENDBRANCH  29  30
BRANCH  29  32
HETATM   32  C11 UNL     1      18.281  -2.638  -9.893  1.00  0.00     0.103 C 
HETATM   33  C12 UNL     1      18.567  -1.347  -9.203  1.00  0.00     0.021 C 
ENDBRANCH  29  32
ENDBRANCH  26  29
ENDBRANCH   3  26
TORSDOF 9
ENDMDL
