MODEL 5
REMARK VINA RESULT: -6.504703283      3.211      5.039
REMARK  9 active torsions:
REMARK  status: ('A' for Active; 'I' for Inactive)
REMARK    1  A    between atoms: C2_2  and  C3_3 
REMARK    2  A    between atoms: C4_4  and  C5_5 
REMARK       I    between atoms: C5_5  and  N1_7 
REMARK    3  A    between atoms: N1_7  and  C6_9 
REMARK    4  A    between atoms: C8_11  and  S1_12 
REMARK    5  A    between atoms: S1_12  and  N2_15 
REMARK    6  A    between atoms: N2_15  and  C9_16 
REMARK    7  A    between atoms: N2_15  and  C11_18 
REMARK    8  A    between atoms: C16_23  and  O4_24 
REMARK    9  A    between atoms: C19_30  and  C20_31 
ROOT
HETATM    1  C6  UNL     1      15.684  -7.050  -6.828  1.00  0.00     0.070 A 
HETATM    2  C7  UNL     1      16.193  -5.782  -6.989  1.00  0.00     0.057 A 
HETATM    3  C8  UNL     1      16.606  -5.293  -8.226  1.00  0.00     0.083 A 
HETATM    4  C13 UNL     1      16.511  -6.082  -9.332  1.00  0.00    -0.036 A 
HETATM    5  C14 UNL     1      16.933  -5.628 -10.686  1.00  0.00     0.050 C 
HETATM    6  C15 UNL     1      15.999  -7.357  -9.170  1.00  0.00     0.047 A 
HETATM    7  C16 UNL     1      15.594  -7.842  -7.964  1.00  0.00     0.093 A 
ENDROOT
BRANCH   1   8
HETATM    8  N1  UNL     1      15.249  -7.615  -5.609  1.00  0.00    -0.319 N 
HETATM    9  C5  UNL     1      16.020  -8.248  -4.625  1.00  0.00     0.273 C 
HETATM   10  O1  UNL     1      17.249  -8.358  -4.782  1.00  0.00    -0.266 OA
ATOM     11  H1  UNL     1      14.248  -7.556  -5.422  1.00  0.00     0.169 HD
BRANCH   9  12
HETATM   12  C4  UNL     1      15.435  -8.801  -3.385  1.00  0.00     0.108 A 
HETATM   13  C3  UNL     1      14.992 -10.056  -3.131  1.00  0.00    -0.010 A 
HETATM   14  C19 UNL     1      14.526 -10.115  -1.833  1.00  0.00     0.040 A 
HETATM   15  C17 UNL     1      14.695  -8.857  -1.295  1.00  0.00     0.020 A 
HETATM   16  N3  UNL     1      15.242  -8.101  -2.257  1.00  0.00    -0.354 N 
HETATM   17  C18 UNL     1      14.332  -8.424   0.105  1.00  0.00     0.069 C 
ATOM     18  H3  UNL     1      15.482  -7.116  -2.145  1.00  0.00     0.166 HD
BRANCH  13  19
HETATM   19  C2  UNL     1      15.003 -11.175  -4.091  1.00  0.00     0.037 C 
HETATM   20  C1  UNL     1      16.377 -11.814  -4.023  1.00  0.00     0.010 C 
ENDBRANCH  13  19
BRANCH  14  21
HETATM   21  C20 UNL     1      13.959 -11.241  -1.117  1.00  0.00     0.158 C 
HETATM   22  C21 UNL     1      14.829 -12.355  -0.703  1.00  0.00     0.097 C 
HETATM   23  O5  UNL     1      12.744 -11.272  -0.851  1.00  0.00    -0.293 OA
ENDBRANCH  14  21
ENDBRANCH   9  12
ENDBRANCH   1   8
BRANCH   7  24
HETATM   24  O4  UNL     1      15.094  -9.126  -7.887  1.00  0.00    -0.358 OA
ATOM     25  H4  UNL     1      15.418  -9.807  -8.465  1.00  0.00     0.217 HD
ENDBRANCH   7  24
BRANCH   3  26
HETATM   26  S1  UNL     1      17.250  -3.662  -8.355  1.00  0.00     0.244 S 
HETATM   27  O2  UNL     1      17.409  -3.119  -6.969  1.00  0.00    -0.206 OA
HETATM   28  O3  UNL     1      16.221  -2.856  -9.087  1.00  0.00    -0.206 OA
BRANCH  26  29
HETATM   29  N2  UNL     1      18.764  -3.666  -9.134  1.00  0.00    -0.207 NA
BRANCH  29  30
HETATM   30  C9  UNL     1      19.848  -3.951  -8.243  1.00  0.00     0.103 C 
HETATM   31  C10 UNL     1      21.074  -4.337  -9.073  1.00  0.00     0.021 C 
ENDBRANCH  29  30
BRANCH  29  32
HETATM   32  C11 UNL     1      19.011  -2.542  -9.966  1.00  0.00     0.103 C 
HETATM   33  C12 UNL     1      19.011  -2.788 -11.437  1.00  0.00     0.021 C 
ENDBRANCH  29  32
ENDBRANCH  26  29
ENDBRANCH   3  26
TORSDOF 9
ENDMDL
