MODEL 3
REMARK VINA RESULT: -7.052737786      3.386      5.003
REMARK  6 active torsions:
REMARK  status: ('A' for Active; 'I' for Inactive)
REMARK    1  A    between atoms: C2_2  and  C3_3 
REMARK    2  A    between atoms: C4_4  and  C5_5 
REMARK       I    between atoms: C5_5  and  N1_7 
REMARK    3  A    between atoms: N1_7  and  C6_9 
REMARK    4  A    between atoms: C8_11  and  S1_12 
REMARK    5  A    between atoms: S1_12  and  N2_15 
REMARK    6  A    between atoms: C16_26  and  C17_27 
ROOT
HETATM    1  C5  UNL     1      -9.408   6.976   1.947  1.00  0.00     0.273 C 
HETATM    2  O1  UNL     1      -9.379   7.567   3.029  1.00  0.00    -0.266 OA
HETATM    3  N1  UNL     1      -8.339   7.102   1.049  1.00  0.00    -0.321 N 
ATOM      4  H1  UNL     1      -8.428   6.585   0.174  1.00  0.00     0.169 HD
ENDROOT
BRANCH   3   5
HETATM    5  C6  UNL     1      -7.159   7.851   1.205  1.00  0.00     0.042 A 
HETATM    6  C7  UNL     1      -6.383   7.846   2.336  1.00  0.00     0.055 A 
HETATM    7  C8  UNL     1      -5.214   8.614   2.436  1.00  0.00     0.081 A 
HETATM    8  C10 UNL     1      -4.819   9.397   1.390  1.00  0.00     0.026 A 
HETATM    9  C11 UNL     1      -5.571   9.429   0.239  1.00  0.00     0.010 A 
HETATM   10  C12 UNL     1      -6.733   8.659   0.152  1.00  0.00    -0.035 A 
HETATM   11  C13 UNL     1      -7.561   8.676  -1.078  1.00  0.00     0.050 C 
BRANCH   7  12
HETATM   12  S1  UNL     1      -4.241   8.594   3.881  1.00  0.00     0.258 S 
HETATM   13  O2  UNL     1      -3.075   9.528   3.668  1.00  0.00    -0.201 OA
HETATM   14  O3  UNL     1      -3.723   7.199   4.094  1.00  0.00    -0.201 OA
BRANCH  12  15
HETATM   15  N2  UNL     1      -5.103   9.108   5.267  1.00  0.00    -0.320 N 
HETATM   16  C9  UNL     1      -5.709  10.390   5.047  1.00  0.00     0.159 C 
ATOM     17  H2  UNL     1      -5.177   8.575   6.134  1.00  0.00     0.171 HD
ENDBRANCH  12  15
ENDBRANCH   7  12
ENDBRANCH   3   5
BRANCH   1  18
HETATM   18  C4  UNL     1     -10.593   6.140   1.635  1.00  0.00     0.108 A 
HETATM   19  C3  UNL     1     -11.681   6.485   0.848  1.00  0.00    -0.010 A 
HETATM   20  C16 UNL     1     -12.548   5.429   0.835  1.00  0.00     0.040 A 
HETATM   21  C14 UNL     1     -11.955   4.443   1.631  1.00  0.00     0.020 A 
HETATM   22  N3  UNL     1     -10.781   4.888   2.103  1.00  0.00    -0.354 N 
HETATM   23  C15 UNL     1     -12.526   3.099   1.921  1.00  0.00     0.069 C 
ATOM     24  H3  UNL     1     -10.144   4.372   2.708  1.00  0.00     0.166 HD
BRANCH  19  25
HETATM   25  C2  UNL     1     -11.833   7.775   0.152  1.00  0.00     0.037 C 
HETATM   26  C1  UNL     1     -11.240   7.791  -1.227  1.00  0.00     0.010 C 
ENDBRANCH  19  25
BRANCH  20  27
HETATM   27  C17 UNL     1     -13.813   5.299   0.187  1.00  0.00     0.158 C 
HETATM   28  C18 UNL     1     -15.140   5.252   0.788  1.00  0.00     0.097 C 
HETATM   29  O4  UNL     1     -13.825   5.208  -1.100  1.00  0.00    -0.293 OA
ENDBRANCH  20  27
ENDBRANCH   1  18
TORSDOF 6
ENDMDL
