MODEL 1
REMARK VINA RESULT: -7.155985451      0.000      0.000
REMARK  6 active torsions:
REMARK  status: ('A' for Active; 'I' for Inactive)
REMARK    1  A    between atoms: C2_2  and  C3_3 
REMARK    2  A    between atoms: C4_4  and  C5_5 
REMARK       I    between atoms: C5_5  and  N1_7 
REMARK    3  A    between atoms: N1_7  and  C6_9 
REMARK    4  A    between atoms: C8_11  and  S1_12 
REMARK    5  A    between atoms: S1_12  and  N2_15 
REMARK    6  A    between atoms: C16_26  and  C17_27 
ROOT
HETATM    1  C5  UNL     1      -9.786   7.477  -1.786  1.00  0.00     0.273 C 
HETATM    2  O1  UNL     1     -10.035   8.645  -1.475  1.00  0.00    -0.266 OA
HETATM    3  N1  UNL     1      -9.332   6.574  -0.815  1.00  0.00    -0.321 N 
ATOM      4  H1  UNL     1      -9.146   5.625  -1.140  1.00  0.00     0.169 HD
ENDROOT
BRANCH   3   5
HETATM    5  C6  UNL     1      -9.100   6.813   0.552  1.00  0.00     0.042 A 
HETATM    6  C7  UNL     1      -7.917   7.278   1.066  1.00  0.00     0.055 A 
HETATM    7  C8  UNL     1      -7.741   7.500   2.439  1.00  0.00     0.081 A 
HETATM    8  C10 UNL     1      -8.765   7.253   3.307  1.00  0.00     0.026 A 
HETATM    9  C11 UNL     1      -9.967   6.786   2.830  1.00  0.00     0.010 A 
HETATM   10  C12 UNL     1     -10.129   6.569   1.460  1.00  0.00    -0.035 A 
HETATM   11  C13 UNL     1     -11.415   6.066   0.920  1.00  0.00     0.050 C 
BRANCH   7  12
HETATM   12  S1  UNL     1      -6.230   8.092   3.073  1.00  0.00     0.258 S 
HETATM   13  O2  UNL     1      -5.215   6.979   2.969  1.00  0.00    -0.201 OA
HETATM   14  O3  UNL     1      -6.423   8.449   4.520  1.00  0.00    -0.201 OA
BRANCH  12  15
HETATM   15  N2  UNL     1      -5.638   9.449   2.216  1.00  0.00    -0.320 N 
HETATM   16  C9  UNL     1      -6.393  10.627   2.537  1.00  0.00     0.159 C 
ATOM     17  H2  UNL     1      -4.854   9.426   1.564  1.00  0.00     0.171 HD
ENDBRANCH  12  15
ENDBRANCH   7  12
ENDBRANCH   3   5
BRANCH   1  18
HETATM   18  C4  UNL     1      -9.982   7.069  -3.199  1.00  0.00     0.108 A 
HETATM   19  C3  UNL     1     -11.165   6.668  -3.802  1.00  0.00    -0.010 A 
HETATM   20  C16 UNL     1     -10.896   6.370  -5.107  1.00  0.00     0.040 A 
HETATM   21  C14 UNL     1      -9.527   6.603  -5.274  1.00  0.00     0.020 A 
HETATM   22  N3  UNL     1      -8.995   7.022  -4.117  1.00  0.00    -0.354 N 
HETATM   23  C15 UNL     1      -8.760   6.418  -6.537  1.00  0.00     0.069 C 
ATOM     24  H3  UNL     1      -8.017   7.263  -3.959  1.00  0.00     0.166 HD
BRANCH  19  25
HETATM   25  C2  UNL     1     -12.468   6.600  -3.118  1.00  0.00     0.037 C 
HETATM   26  C1  UNL     1     -13.225   7.897  -3.130  1.00  0.00     0.010 C 
ENDBRANCH  19  25
BRANCH  20  27
HETATM   27  C17 UNL     1     -11.772   5.899  -6.131  1.00  0.00     0.158 C 
HETATM   28  C18 UNL     1     -12.903   6.586  -6.744  1.00  0.00     0.097 C 
HETATM   29  O4  UNL     1     -11.570   4.715  -6.600  1.00  0.00    -0.293 OA
ENDBRANCH  20  27
ENDBRANCH   1  18
TORSDOF 6
ENDMDL
