MODEL 5
REMARK VINA RESULT: -7.044246243      3.847      7.766
REMARK  6 active torsions:
REMARK  status: ('A' for Active; 'I' for Inactive)
REMARK    1  A    between atoms: C2_2  and  C3_3 
REMARK    2  A    between atoms: C4_4  and  C5_5 
REMARK       I    between atoms: C5_5  and  N1_7 
REMARK    3  A    between atoms: N1_7  and  C6_9 
REMARK    4  A    between atoms: C8_11  and  S1_12 
REMARK    5  A    between atoms: S1_12  and  N2_15 
REMARK    6  A    between atoms: C16_26  and  C17_27 
ROOT
HETATM    1  C5  UNL     1      -9.206   7.147   0.080  1.00  0.00     0.273 C 
HETATM    2  O1  UNL     1      -9.117   6.200  -0.705  1.00  0.00    -0.266 OA
HETATM    3  N1  UNL     1     -10.463   7.550   0.555  1.00  0.00    -0.321 N 
ATOM      4  H1  UNL     1     -10.463   8.339   1.203  1.00  0.00     0.169 HD
ENDROOT
BRANCH   3   5
HETATM    5  C6  UNL     1     -11.722   7.003   0.250  1.00  0.00     0.042 A 
HETATM    6  C7  UNL     1     -12.251   5.892   0.857  1.00  0.00     0.055 A 
HETATM    7  C8  UNL     1     -13.513   5.390   0.513  1.00  0.00     0.081 A 
HETATM    8  C10 UNL     1     -14.255   6.009  -0.452  1.00  0.00     0.026 A 
HETATM    9  C11 UNL     1     -13.760   7.125  -1.083  1.00  0.00     0.010 A 
HETATM   10  C12 UNL     1     -12.500   7.615  -0.732  1.00  0.00    -0.035 A 
HETATM   11  C13 UNL     1     -11.943   8.817  -1.398  1.00  0.00     0.050 C 
BRANCH   7  12
HETATM   12  S1  UNL     1     -14.168   3.978   1.295  1.00  0.00     0.258 S 
HETATM   13  O2  UNL     1     -13.359   2.783   0.853  1.00  0.00    -0.201 OA
HETATM   14  O3  UNL     1     -15.593   3.800   0.852  1.00  0.00    -0.201 OA
BRANCH  12  15
HETATM   15  N2  UNL     1     -14.102   4.076   3.003  1.00  0.00    -0.320 N 
HETATM   16  C9  UNL     1     -13.880   2.783   3.583  1.00  0.00     0.159 C 
ATOM     17  H2  UNL     1     -14.206   4.940   3.537  1.00  0.00     0.171 HD
ENDBRANCH  12  15
ENDBRANCH   7  12
ENDBRANCH   3   5
BRANCH   1  18
HETATM   18  C4  UNL     1      -7.959   7.831   0.500  1.00  0.00     0.108 A 
HETATM   19  C3  UNL     1      -7.385   7.833   1.762  1.00  0.00    -0.010 A 
HETATM   20  C16 UNL     1      -6.253   8.596   1.713  1.00  0.00     0.040 A 
HETATM   21  C14 UNL     1      -6.160   9.050   0.393  1.00  0.00     0.020 A 
HETATM   22  N3  UNL     1      -7.194   8.580  -0.321  1.00  0.00    -0.354 N 
HETATM   23  C15 UNL     1      -5.085   9.923  -0.154  1.00  0.00     0.069 C 
ATOM     24  H3  UNL     1      -7.370   8.758  -1.310  1.00  0.00     0.166 HD
BRANCH  19  25
HETATM   25  C2  UNL     1      -7.928   7.114   2.927  1.00  0.00     0.037 C 
HETATM   26  C1  UNL     1      -8.731   7.982   3.853  1.00  0.00     0.010 C 
ENDBRANCH  19  25
BRANCH  20  27
HETATM   27  C17 UNL     1      -5.328   8.918   2.750  1.00  0.00     0.158 C 
HETATM   28  C18 UNL     1      -4.192   8.139   3.228  1.00  0.00     0.097 C 
HETATM   29  O4  UNL     1      -5.485  10.037   3.372  1.00  0.00    -0.293 OA
ENDBRANCH  20  27
ENDBRANCH   1  18
TORSDOF 6
ENDMDL
