MODEL 15
REMARK VINA RESULT: -6.726737496      3.071      5.040
REMARK  6 active torsions:
REMARK  status: ('A' for Active; 'I' for Inactive)
REMARK    1  A    between atoms: C2_2  and  C3_3 
REMARK    2  A    between atoms: C4_4  and  C5_5 
REMARK       I    between atoms: C5_5  and  N1_7 
REMARK    3  A    between atoms: N1_7  and  C6_9 
REMARK    4  A    between atoms: C8_11  and  S1_12 
REMARK    5  A    between atoms: S1_12  and  N2_15 
REMARK    6  A    between atoms: C16_26  and  C17_27 
ROOT
HETATM    1  C5  UNL     1      -8.699   6.882   1.268  1.00  0.00     0.273 C 
HETATM    2  O1  UNL     1      -7.957   6.429   2.144  1.00  0.00    -0.266 OA
HETATM    3  N1  UNL     1      -8.265   7.942   0.460  1.00  0.00    -0.321 N 
ATOM      4  H1  UNL     1      -8.928   8.267  -0.245  1.00  0.00     0.169 HD
ENDROOT
BRANCH   3   5
HETATM    5  C6  UNL     1      -7.031   8.615   0.500  1.00  0.00     0.042 A 
HETATM    6  C7  UNL     1      -6.357   8.927   1.653  1.00  0.00     0.055 A 
HETATM    7  C8  UNL     1      -5.127   9.599   1.635  1.00  0.00     0.081 A 
HETATM    8  C10 UNL     1      -4.565   9.962   0.444  1.00  0.00     0.026 A 
HETATM    9  C11 UNL     1      -5.210   9.667  -0.733  1.00  0.00     0.010 A 
HETATM   10  C12 UNL     1      -6.435   8.997  -0.701  1.00  0.00    -0.035 A 
HETATM   11  C13 UNL     1      -7.151   8.667  -1.957  1.00  0.00     0.050 C 
BRANCH   7  12
HETATM   12  S1  UNL     1      -4.285   9.987   3.110  1.00  0.00     0.258 S 
HETATM   13  O2  UNL     1      -5.070  11.061   3.824  1.00  0.00    -0.201 OA
HETATM   14  O3  UNL     1      -2.924  10.519   2.762  1.00  0.00    -0.201 OA
BRANCH  12  15
HETATM   15  N2  UNL     1      -4.130   8.641   4.156  1.00  0.00    -0.320 N 
HETATM   16  C9  UNL     1      -3.507   7.538   3.483  1.00  0.00     0.159 C 
ATOM     17  H2  UNL     1      -4.438   8.626   5.129  1.00  0.00     0.171 HD
ENDBRANCH  12  15
ENDBRANCH   7  12
ENDBRANCH   3   5
BRANCH   1  18
HETATM   18  C4  UNL     1     -10.042   6.274   1.102  1.00  0.00     0.108 A 
HETATM   19  C3  UNL     1     -11.067   6.713   0.278  1.00  0.00    -0.010 A 
HETATM   20  C16 UNL     1     -12.132   5.873   0.439  1.00  0.00     0.040 A 
HETATM   21  C14 UNL     1     -11.722   4.919   1.377  1.00  0.00     0.020 A 
HETATM   22  N3  UNL     1     -10.463   5.176   1.763  1.00  0.00    -0.354 N 
HETATM   23  C15 UNL     1     -12.544   3.785   1.881  1.00  0.00     0.069 C 
ATOM     24  H3  UNL     1      -9.921   4.637   2.438  1.00  0.00     0.166 HD
BRANCH  19  25
HETATM   25  C2  UNL     1     -10.979   7.884  -0.612  1.00  0.00     0.037 C 
HETATM   26  C1  UNL     1     -10.784   7.531  -2.058  1.00  0.00     0.010 C 
ENDBRANCH  19  25
BRANCH  20  27
HETATM   27  C17 UNL     1     -13.421   5.912  -0.170  1.00  0.00     0.158 C 
HETATM   28  C18 UNL     1     -14.642   6.535   0.328  1.00  0.00     0.097 C 
HETATM   29  O4  UNL     1     -13.567   5.331  -1.312  1.00  0.00    -0.293 OA
ENDBRANCH  20  27
ENDBRANCH   1  18
TORSDOF 6
ENDMDL
