MODEL 2
REMARK VINA RESULT: -7.100350811      4.280      7.414
REMARK  6 active torsions:
REMARK  status: ('A' for Active; 'I' for Inactive)
REMARK    1  A    between atoms: C2_2  and  C3_3 
REMARK    2  A    between atoms: C4_4  and  C5_5 
REMARK       I    between atoms: C5_5  and  N1_7 
REMARK    3  A    between atoms: N1_7  and  C6_9 
REMARK    4  A    between atoms: C8_11  and  S1_12 
REMARK    5  A    between atoms: S1_12  and  N2_15 
REMARK    6  A    between atoms: C16_26  and  C17_27 
ROOT
HETATM    1  C5  UNL     1     -10.020   6.518   1.831  1.00  0.00     0.273 C 
HETATM    2  O1  UNL     1     -10.249   6.619   3.038  1.00  0.00    -0.266 OA
HETATM    3  N1  UNL     1     -10.832   5.705   1.028  1.00  0.00    -0.321 N 
ATOM      4  H1  UNL     1     -10.587   5.667   0.038  1.00  0.00     0.169 HD
ENDROOT
BRANCH   3   5
HETATM    5  C6  UNL     1     -11.943   4.935   1.417  1.00  0.00     0.042 A 
HETATM    6  C7  UNL     1     -12.007   4.198   2.572  1.00  0.00     0.055 A 
HETATM    7  C8  UNL     1     -13.142   3.448   2.911  1.00  0.00     0.081 A 
HETATM    8  C10 UNL     1     -14.227   3.437   2.082  1.00  0.00     0.026 A 
HETATM    9  C11 UNL     1     -14.201   4.164   0.914  1.00  0.00     0.010 A 
HETATM   10  C12 UNL     1     -13.064   4.906   0.588  1.00  0.00    -0.035 A 
HETATM   11  C13 UNL     1     -13.011   5.698  -0.664  1.00  0.00     0.050 C 
BRANCH   7  12
HETATM   12  S1  UNL     1     -13.205   2.517   4.383  1.00  0.00     0.258 S 
HETATM   13  O2  UNL     1     -11.792   2.346   4.885  1.00  0.00    -0.201 OA
HETATM   14  O3  UNL     1     -13.787   1.167   4.073  1.00  0.00    -0.201 OA
BRANCH  12  15
HETATM   15  N2  UNL     1     -14.128   3.277   5.607  1.00  0.00    -0.320 N 
HETATM   16  C9  UNL     1     -13.277   3.916   6.569  1.00  0.00     0.159 C 
ATOM     17  H2  UNL     1     -15.148   3.277   5.647  1.00  0.00     0.171 HD
ENDBRANCH  12  15
ENDBRANCH   7  12
ENDBRANCH   3   5
BRANCH   1  18
HETATM   18  C4  UNL     1      -8.875   7.274   1.267  1.00  0.00     0.108 A 
HETATM   19  C3  UNL     1      -7.839   7.874   1.966  1.00  0.00    -0.010 A 
HETATM   20  C16 UNL     1      -7.007   8.472   1.062  1.00  0.00     0.040 A 
HETATM   21  C14 UNL     1      -7.567   8.215  -0.194  1.00  0.00     0.020 A 
HETATM   22  N3  UNL     1      -8.688   7.494  -0.051  1.00  0.00    -0.354 N 
HETATM   23  C15 UNL     1      -7.016   8.667  -1.501  1.00  0.00     0.069 C 
ATOM     24  H3  UNL     1      -9.293   7.169  -0.805  1.00  0.00     0.166 HD
BRANCH  19  25
HETATM   25  C2  UNL     1      -7.690   7.841   3.431  1.00  0.00     0.037 C 
HETATM   26  C1  UNL     1      -8.040   9.137   4.104  1.00  0.00     0.010 C 
ENDBRANCH  19  25
BRANCH  20  27
HETATM   27  C17 UNL     1      -5.818   9.229   1.283  1.00  0.00     0.158 C 
HETATM   28  C18 UNL     1      -5.665  10.677   1.364  1.00  0.00     0.097 C 
HETATM   29  O4  UNL     1      -4.711   8.583   1.434  1.00  0.00    -0.293 OA
ENDBRANCH  20  27
ENDBRANCH   1  18
TORSDOF 6
ENDMDL
