MODEL 4
REMARK VINA RESULT: -7.045287004      3.409      5.112
REMARK  6 active torsions:
REMARK  status: ('A' for Active; 'I' for Inactive)
REMARK    1  A    between atoms: C2_2  and  C3_3 
REMARK    2  A    between atoms: C4_4  and  C5_5 
REMARK       I    between atoms: C5_5  and  N1_7 
REMARK    3  A    between atoms: N1_7  and  C6_9 
REMARK    4  A    between atoms: C8_11  and  S1_12 
REMARK    5  A    between atoms: S1_12  and  N2_15 
REMARK    6  A    between atoms: C16_26  and  C17_27 
ROOT
HETATM    1  C5  UNL     1      -9.362   7.005   1.973  1.00  0.00     0.273 C 
HETATM    2  O1  UNL     1      -9.337   7.589   3.059  1.00  0.00    -0.266 OA
HETATM    3  N1  UNL     1      -8.287   7.133   1.082  1.00  0.00    -0.321 N 
ATOM      4  H1  UNL     1      -8.372   6.622   0.202  1.00  0.00     0.169 HD
ENDROOT
BRANCH   3   5
HETATM    5  C6  UNL     1      -7.106   7.879   1.248  1.00  0.00     0.042 A 
HETATM    6  C7  UNL     1      -6.340   7.871   2.387  1.00  0.00     0.055 A 
HETATM    7  C8  UNL     1      -5.170   8.633   2.498  1.00  0.00     0.081 A 
HETATM    8  C10 UNL     1      -4.761   9.414   1.455  1.00  0.00     0.026 A 
HETATM    9  C11 UNL     1      -5.502   9.449   0.298  1.00  0.00     0.010 A 
HETATM   10  C12 UNL     1      -6.666   8.684   0.199  1.00  0.00    -0.035 A 
HETATM   11  C13 UNL     1      -7.482   8.704  -1.038  1.00  0.00     0.050 C 
BRANCH   7  12
HETATM   12  S1  UNL     1      -4.210   8.610   3.952  1.00  0.00     0.258 S 
HETATM   13  O2  UNL     1      -5.139   8.807   5.125  1.00  0.00    -0.201 OA
HETATM   14  O3  UNL     1      -3.232   9.750   3.901  1.00  0.00    -0.201 OA
BRANCH  12  15
HETATM   15  N2  UNL     1      -3.369   7.136   4.167  1.00  0.00    -0.320 N 
HETATM   16  C9  UNL     1      -2.293   7.018   3.223  1.00  0.00     0.159 C 
ATOM     17  H2  UNL     1      -3.600   6.434   4.870  1.00  0.00     0.171 HD
ENDBRANCH  12  15
ENDBRANCH   7  12
ENDBRANCH   3   5
BRANCH   1  18
HETATM   18  C4  UNL     1     -10.547   6.175   1.649  1.00  0.00     0.108 A 
HETATM   19  C3  UNL     1     -11.627   6.526   0.854  1.00  0.00    -0.010 A 
HETATM   20  C16 UNL     1     -12.498   5.474   0.831  1.00  0.00     0.040 A 
HETATM   21  C14 UNL     1     -11.916   4.484   1.629  1.00  0.00     0.020 A 
HETATM   22  N3  UNL     1     -10.744   4.923   2.112  1.00  0.00    -0.354 N 
HETATM   23  C15 UNL     1     -12.494   3.142   1.912  1.00  0.00     0.069 C 
ATOM     24  H3  UNL     1     -10.113   4.402   2.721  1.00  0.00     0.166 HD
BRANCH  19  25
HETATM   25  C2  UNL     1     -11.768   7.819   0.160  1.00  0.00     0.037 C 
HETATM   26  C1  UNL     1     -11.159   7.837  -1.212  1.00  0.00     0.010 C 
ENDBRANCH  19  25
BRANCH  20  27
HETATM   27  C17 UNL     1     -13.758   5.351   0.173  1.00  0.00     0.158 C 
HETATM   28  C18 UNL     1     -15.092   5.328   0.762  1.00  0.00     0.097 C 
HETATM   29  O4  UNL     1     -13.759   5.242  -1.112  1.00  0.00    -0.293 OA
ENDBRANCH  20  27
ENDBRANCH   1  18
TORSDOF 6
ENDMDL
