MODEL 8
REMARK VINA RESULT: -7.530161453      3.296      8.090
REMARK  5 active torsions:
REMARK  status: ('A' for Active; 'I' for Inactive)
REMARK    1  A    between atoms: C2_2  and  C3_3 
REMARK    2  A    between atoms: C4_4  and  C5_5 
REMARK       I    between atoms: C5_5  and  N1_7 
REMARK    3  A    between atoms: C11_13  and  S1_14 
REMARK    4  A    between atoms: S1_14  and  N2_17 
REMARK    5  A    between atoms: C17_26  and  C18_27 
ROOT
HETATM    1  C5  UNL     1      -8.402   7.488   2.386  1.00  0.00     0.279 C 
HETATM    2  O1  UNL     1      -8.311   7.781   3.598  1.00  0.00    -0.265 OA
HETATM    3  N1  UNL     1      -7.449   7.940   1.464  1.00  0.00    -0.287 N 
HETATM    4  C6  UNL     1      -7.418   7.732   0.125  1.00  0.00     0.101 A 
HETATM    5  C7  UNL     1      -6.294   8.318  -0.416  1.00  0.00     0.031 A 
HETATM    6  C8  UNL     1      -5.650   8.890   0.665  1.00  0.00    -0.007 A 
HETATM    7  C9  UNL     1      -4.468   9.612   0.749  1.00  0.00     0.015 A 
HETATM    8  C10 UNL     1      -3.998  10.096   1.951  1.00  0.00     0.026 A 
HETATM    9  C11 UNL     1      -4.695   9.877   3.135  1.00  0.00     0.081 A 
HETATM   10  C13 UNL     1      -5.869   9.156   3.034  1.00  0.00     0.056 A 
HETATM   11  C14 UNL     1      -6.349   8.666   1.831  1.00  0.00     0.053 A 
ENDROOT
BRANCH   1  12
HETATM   12  C4  UNL     1      -9.524   6.670   1.985  1.00  0.00     0.109 A 
HETATM   13  C3  UNL     1     -10.588   7.159   1.218  1.00  0.00    -0.010 A 
HETATM   14  C17 UNL     1     -11.503   6.145   1.041  1.00  0.00     0.040 A 
HETATM   15  C15 UNL     1     -11.011   5.036   1.693  1.00  0.00     0.020 A 
HETATM   16  N3  UNL     1      -9.822   5.380   2.252  1.00  0.00    -0.354 N 
HETATM   17  C16 UNL     1     -11.696   3.717   1.749  1.00  0.00     0.069 C 
ATOM     18  H3  UNL     1      -9.234   4.750   2.798  1.00  0.00     0.166 HD
BRANCH  13  19
HETATM   19  C2  UNL     1     -10.781   8.520   0.652  1.00  0.00     0.037 C 
HETATM   20  C1  UNL     1     -10.496   8.466  -0.817  1.00  0.00     0.010 C 
ENDBRANCH  13  19
BRANCH  14  21
HETATM   21  C18 UNL     1     -12.771   6.177   0.315  1.00  0.00     0.158 C 
HETATM   22  C19 UNL     1     -14.057   6.547   0.975  1.00  0.00     0.097 C 
HETATM   23  O4  UNL     1     -12.811   5.887  -0.908  1.00  0.00    -0.293 OA
ENDBRANCH  14  21
ENDBRANCH   1  12
BRANCH   9  24
HETATM   24  S1  UNL     1      -4.098  10.489   4.666  1.00  0.00     0.258 S 
HETATM   25  O2  UNL     1      -5.094  11.367   5.325  1.00  0.00    -0.201 OA
HETATM   26  O3  UNL     1      -2.835  11.288   4.442  1.00  0.00    -0.201 OA
BRANCH  24  27
HETATM   27  N2  UNL     1      -3.664   9.161   5.680  1.00  0.00    -0.320 N 
HETATM   28  C12 UNL     1      -2.711   8.276   5.055  1.00  0.00     0.159 C 
ATOM     29  H2  UNL     1      -4.041   9.018   6.617  1.00  0.00     0.171 HD
ENDBRANCH  24  27
ENDBRANCH   9  24
TORSDOF 5
ENDMDL
