MODEL 5
REMARK VINA RESULT: -7.886868934      2.234      3.272
REMARK  5 active torsions:
REMARK  status: ('A' for Active; 'I' for Inactive)
REMARK    1  A    between atoms: C2_2  and  C3_3 
REMARK    2  A    between atoms: C4_4  and  C5_5 
REMARK       I    between atoms: C5_5  and  N1_7 
REMARK    3  A    between atoms: C11_13  and  S1_14 
REMARK    4  A    between atoms: S1_14  and  N2_17 
REMARK    5  A    between atoms: C17_26  and  C18_27 
ROOT
HETATM    1  C5  UNL     1      -9.016   6.720   0.053  1.00  0.00     0.279 C 
HETATM    2  O1  UNL     1      -8.668   5.841   0.871  1.00  0.00    -0.265 OA
HETATM    3  N1  UNL     1     -10.371   6.973  -0.198  1.00  0.00    -0.287 N 
HETATM    4  C6  UNL     1     -10.908   7.867  -1.064  1.00  0.00     0.101 A 
HETATM    5  C7  UNL     1     -12.284   7.829  -0.987  1.00  0.00     0.031 A 
HETATM    6  C8  UNL     1     -12.548   6.866  -0.032  1.00  0.00    -0.007 A 
HETATM    7  C9  UNL     1     -13.747   6.388   0.478  1.00  0.00     0.015 A 
HETATM    8  C10 UNL     1     -13.782   5.409   1.448  1.00  0.00     0.026 A 
HETATM    9  C11 UNL     1     -12.610   4.858   1.957  1.00  0.00     0.081 A 
HETATM   10  C13 UNL     1     -11.426   5.345   1.439  1.00  0.00     0.056 A 
HETATM   11  C14 UNL     1     -11.381   6.329   0.464  1.00  0.00     0.053 A 
ENDROOT
BRANCH   1  12
HETATM   12  C4  UNL     1      -7.966   7.457  -0.614  1.00  0.00     0.109 A 
HETATM   13  C3  UNL     1      -7.634   7.260  -1.959  1.00  0.00    -0.010 A 
HETATM   14  C17 UNL     1      -6.576   8.083  -2.275  1.00  0.00     0.040 A 
HETATM   15  C15 UNL     1      -6.255   8.785  -1.134  1.00  0.00     0.020 A 
HETATM   16  N3  UNL     1      -7.105   8.388  -0.152  1.00  0.00    -0.354 N 
HETATM   17  C16 UNL     1      -5.162   9.790  -1.042  1.00  0.00     0.069 C 
ATOM     18  H3  UNL     1      -7.094   8.745   0.804  1.00  0.00     0.166 HD
BRANCH  13  19
HETATM   19  C2  UNL     1      -8.259   6.343  -2.949  1.00  0.00     0.037 C 
HETATM   20  C1  UNL     1      -7.379   5.139  -3.099  1.00  0.00     0.010 C 
ENDBRANCH  13  19
BRANCH  14  21
HETATM   21  C18 UNL     1      -5.883   8.230  -3.553  1.00  0.00     0.158 C 
HETATM   22  C19 UNL     1      -6.343   9.186  -4.602  1.00  0.00     0.097 C 
HETATM   23  O4  UNL     1      -4.863   7.541  -3.806  1.00  0.00    -0.293 OA
ENDBRANCH  14  21
ENDBRANCH   1  12
BRANCH   9  24
HETATM   24  S1  UNL     1     -12.654   3.613   3.191  1.00  0.00     0.258 S 
HETATM   25  O2  UNL     1     -13.116   2.318   2.640  1.00  0.00    -0.201 OA
HETATM   26  O3  UNL     1     -13.596   4.022   4.299  1.00  0.00    -0.201 OA
BRANCH  24  27
HETATM   27  N2  UNL     1     -11.089   3.468   3.907  1.00  0.00    -0.320 N 
HETATM   28  C12 UNL     1     -11.152   3.192   5.322  1.00  0.00     0.159 C 
ATOM     29  H2  UNL     1     -10.217   3.566   3.386  1.00  0.00     0.171 HD
ENDBRANCH  24  27
ENDBRANCH   9  24
TORSDOF 5
ENDMDL
