MODEL 16
REMARK VINA RESULT: -7.108081093      2.979      7.989
REMARK  5 active torsions:
REMARK  status: ('A' for Active; 'I' for Inactive)
REMARK    1  A    between atoms: C2_2  and  C3_3 
REMARK    2  A    between atoms: C4_4  and  C5_5 
REMARK       I    between atoms: C5_5  and  N1_7 
REMARK    3  A    between atoms: C11_13  and  S1_14 
REMARK    4  A    between atoms: S1_14  and  N2_17 
REMARK    5  A    between atoms: C17_26  and  C18_27 
ROOT
HETATM    1  C5  UNL     1      -8.725   7.093   1.737  1.00  0.00     0.279 C 
HETATM    2  O1  UNL     1      -8.385   7.444   2.889  1.00  0.00    -0.265 OA
HETATM    3  N1  UNL     1      -7.993   7.504   0.616  1.00  0.00    -0.287 N 
HETATM    4  C6  UNL     1      -8.242   7.233  -0.689  1.00  0.00     0.101 A 
HETATM    5  C7  UNL     1      -7.264   7.797  -1.481  1.00  0.00     0.031 A 
HETATM    6  C8  UNL     1      -6.415   8.421  -0.587  1.00  0.00    -0.007 A 
HETATM    7  C9  UNL     1      -5.252   9.151  -0.787  1.00  0.00     0.015 A 
HETATM    8  C10 UNL     1      -4.546   9.692   0.266  1.00  0.00     0.026 A 
HETATM    9  C11 UNL     1      -4.975   9.527   1.579  1.00  0.00     0.081 A 
HETATM   10  C13 UNL     1      -6.134   8.799   1.761  1.00  0.00     0.056 A 
HETATM   11  C14 UNL     1      -6.850   8.251   0.709  1.00  0.00     0.053 A 
ENDROOT
BRANCH   1  12
HETATM   12  C4  UNL     1      -9.896   6.253   1.620  1.00  0.00     0.109 A 
HETATM   13  C3  UNL     1     -11.144   6.738   1.214  1.00  0.00    -0.010 A 
HETATM   14  C17 UNL     1     -12.048   5.700   1.241  1.00  0.00     0.040 A 
HETATM   15  C15 UNL     1     -11.365   4.579   1.660  1.00  0.00     0.020 A 
HETATM   16  N3  UNL     1     -10.075   4.941   1.881  1.00  0.00    -0.354 N 
HETATM   17  C16 UNL     1     -11.976   3.233   1.826  1.00  0.00     0.069 C 
ATOM     18  H3  UNL     1      -9.342   4.307   2.200  1.00  0.00     0.166 HD
BRANCH  13  19
HETATM   19  C2  UNL     1     -11.520   8.119   0.809  1.00  0.00     0.037 C 
HETATM   20  C1  UNL     1     -11.342   8.242  -0.673  1.00  0.00     0.010 C 
ENDBRANCH  13  19
BRANCH  14  21
HETATM   21  C18 UNL     1     -13.469   5.719   0.904  1.00  0.00     0.158 C 
HETATM   22  C19 UNL     1     -14.447   4.780   1.527  1.00  0.00     0.097 C 
HETATM   23  O4  UNL     1     -13.914   6.542   0.064  1.00  0.00    -0.293 OA
ENDBRANCH  14  21
ENDBRANCH   1  12
BRANCH   9  24
HETATM   24  S1  UNL     1      -4.078  10.214   2.920  1.00  0.00     0.258 S 
HETATM   25  O2  UNL     1      -3.388  11.465   2.528  1.00  0.00    -0.201 OA
HETATM   26  O3  UNL     1      -3.039   9.229   3.401  1.00  0.00    -0.201 OA
BRANCH  24  27
HETATM   27  N2  UNL     1      -5.151  10.480   4.246  1.00  0.00    -0.320 N 
HETATM   28  C12 UNL     1      -4.839   9.651   5.386  1.00  0.00     0.159 C 
ATOM     29  H2  UNL     1      -5.922  11.149   4.225  1.00  0.00     0.171 HD
ENDBRANCH  24  27
ENDBRANCH   9  24
TORSDOF 5
ENDMDL
