MODEL 2
REMARK VINA RESULT: -7.932679969      1.284      1.502
REMARK  5 active torsions:
REMARK  status: ('A' for Active; 'I' for Inactive)
REMARK    1  A    between atoms: C2_2  and  C3_3 
REMARK    2  A    between atoms: C4_4  and  C5_5 
REMARK       I    between atoms: C5_5  and  N1_7 
REMARK    3  A    between atoms: C11_13  and  S1_14 
REMARK    4  A    between atoms: S1_14  and  N2_17 
REMARK    5  A    between atoms: C17_26  and  C18_27 
ROOT
HETATM    1  C5  UNL     1      -8.101   7.395   0.378  1.00  0.00     0.279 C 
HETATM    2  O1  UNL     1      -7.952   6.425   1.152  1.00  0.00    -0.265 OA
HETATM    3  N1  UNL     1      -9.363   7.716  -0.138  1.00  0.00    -0.287 N 
HETATM    4  C6  UNL     1      -9.685   8.712  -0.999  1.00  0.00     0.101 A 
HETATM    5  C7  UNL     1     -11.044   8.710  -1.235  1.00  0.00     0.031 A 
HETATM    6  C8  UNL     1     -11.523   7.662  -0.472  1.00  0.00    -0.007 A 
HETATM    7  C9  UNL     1     -12.809   7.172  -0.295  1.00  0.00     0.015 A 
HETATM    8  C10 UNL     1     -13.069   6.099   0.531  1.00  0.00     0.026 A 
HETATM    9  C11 UNL     1     -12.045   5.462   1.224  1.00  0.00     0.081 A 
HETATM   10  C13 UNL     1     -10.771   5.962   1.037  1.00  0.00     0.056 A 
HETATM   11  C14 UNL     1     -10.501   7.039   0.210  1.00  0.00     0.053 A 
ENDROOT
BRANCH   1  12
HETATM   12  C4  UNL     1      -6.922   8.163   0.044  1.00  0.00     0.109 A 
HETATM   13  C3  UNL     1      -6.109   8.768   1.009  1.00  0.00    -0.010 A 
HETATM   14  C17 UNL     1      -5.098   9.448   0.367  1.00  0.00     0.040 A 
HETATM   15  C15 UNL     1      -5.284   9.266  -0.986  1.00  0.00     0.020 A 
HETATM   16  N3  UNL     1      -6.387   8.491  -1.151  1.00  0.00    -0.354 N 
HETATM   17  C16 UNL     1      -4.405   9.838  -2.042  1.00  0.00     0.069 C 
ATOM     18  H3  UNL     1      -6.760   8.198  -2.054  1.00  0.00     0.166 HD
BRANCH  13  19
HETATM   19  C2  UNL     1      -6.238   8.736   2.490  1.00  0.00     0.037 C 
HETATM   20  C1  UNL     1      -5.327   7.672   3.021  1.00  0.00     0.010 C 
ENDBRANCH  13  19
BRANCH  14  21
HETATM   21  C18 UNL     1      -4.011  10.230   0.949  1.00  0.00     0.158 C 
HETATM   22  C19 UNL     1      -4.159  11.679   1.274  1.00  0.00     0.097 C 
HETATM   23  O4  UNL     1      -2.902   9.693   1.197  1.00  0.00    -0.293 OA
ENDBRANCH  14  21
ENDBRANCH   1  12
BRANCH   9  24
HETATM   24  S1  UNL     1     -12.374   4.098   2.276  1.00  0.00     0.258 S 
HETATM   25  O2  UNL     1     -12.583   2.852   1.501  1.00  0.00    -0.201 OA
HETATM   26  O3  UNL     1     -13.618   4.365   3.091  1.00  0.00    -0.201 OA
BRANCH  24  27
HETATM   27  N2  UNL     1     -11.078   3.924   3.403  1.00  0.00    -0.320 N 
HETATM   28  C12 UNL     1     -11.488   3.268   4.622  1.00  0.00     0.159 C 
ATOM     29  H2  UNL     1     -10.127   4.249   3.228  1.00  0.00     0.171 HD
ENDBRANCH  24  27
ENDBRANCH   9  24
TORSDOF 5
ENDMDL
