MODEL 1
REMARK VINA RESULT: -7.945530980      0.000      0.000
REMARK  5 active torsions:
REMARK  status: ('A' for Active; 'I' for Inactive)
REMARK    1  A    between atoms: C2_2  and  C3_3 
REMARK    2  A    between atoms: C4_4  and  C5_5 
REMARK       I    between atoms: C5_5  and  N1_7 
REMARK    3  A    between atoms: C11_13  and  S1_14 
REMARK    4  A    between atoms: S1_14  and  N2_17 
REMARK    5  A    between atoms: C17_26  and  C18_27 
ROOT
HETATM    1  C5  UNL     1      -9.037   6.792   1.202  1.00  0.00     0.279 C 
HETATM    2  O1  UNL     1      -8.966   5.813   1.978  1.00  0.00    -0.265 OA
HETATM    3  N1  UNL     1     -10.254   7.151   0.608  1.00  0.00    -0.287 N 
HETATM    4  C6  UNL     1     -10.492   8.160  -0.265  1.00  0.00     0.101 A 
HETATM    5  C7  UNL     1     -11.831   8.198  -0.588  1.00  0.00     0.031 A 
HETATM    6  C8  UNL     1     -12.388   7.159   0.134  1.00  0.00    -0.007 A 
HETATM    7  C9  UNL     1     -13.696   6.704   0.224  1.00  0.00     0.015 A 
HETATM    8  C10 UNL     1     -14.038   5.634   1.022  1.00  0.00     0.026 A 
HETATM    9  C11 UNL     1     -13.079   4.964   1.776  1.00  0.00     0.081 A 
HETATM   10  C13 UNL     1     -11.783   5.430   1.676  1.00  0.00     0.056 A 
HETATM   11  C14 UNL     1     -11.430   6.504   0.876  1.00  0.00     0.053 A 
ENDROOT
BRANCH   1  12
HETATM   12  C4  UNL     1      -7.819   7.528   0.952  1.00  0.00     0.109 A 
HETATM   13  C3  UNL     1      -6.939   7.915   1.969  1.00  0.00    -0.010 A 
HETATM   14  C17 UNL     1      -5.903   8.626   1.407  1.00  0.00     0.040 A 
HETATM   15  C15 UNL     1      -6.138   8.681   0.050  1.00  0.00     0.020 A 
HETATM   16  N3  UNL     1      -7.296   8.014  -0.194  1.00  0.00    -0.354 N 
HETATM   17  C16 UNL     1      -5.252   9.361  -0.932  1.00  0.00     0.069 C 
ATOM     18  H3  UNL     1      -7.712   7.896  -1.118  1.00  0.00     0.166 HD
BRANCH  13  19
HETATM   19  C2  UNL     1      -7.029   7.649   3.430  1.00  0.00     0.037 C 
HETATM   20  C1  UNL     1      -7.730   8.804   4.078  1.00  0.00     0.010 C 
ENDBRANCH  13  19
BRANCH  14  21
HETATM   21  C18 UNL     1      -4.749   9.233   2.066  1.00  0.00     0.158 C 
HETATM   22  C19 UNL     1      -4.749  10.655   2.519  1.00  0.00     0.097 C 
HETATM   23  O4  UNL     1      -3.707   8.561   2.272  1.00  0.00    -0.293 OA
ENDBRANCH  14  21
ENDBRANCH   1  12
BRANCH   9  24
HETATM   24  S1  UNL     1     -13.513   3.604   2.794  1.00  0.00     0.258 S 
HETATM   25  O2  UNL     1     -12.916   2.342   2.297  1.00  0.00    -0.201 OA
HETATM   26  O3  UNL     1     -15.015   3.441   2.822  1.00  0.00    -0.201 OA
BRANCH  24  27
HETATM   27  N2  UNL     1     -13.026   3.931   4.418  1.00  0.00    -0.320 N 
HETATM   28  C12 UNL     1     -11.916   3.109   4.839  1.00  0.00     0.159 C 
ATOM     29  H2  UNL     1     -13.473   4.627   5.014  1.00  0.00     0.171 HD
ENDBRANCH  24  27
ENDBRANCH   9  24
TORSDOF 5
ENDMDL
