MODEL 14
REMARK VINA RESULT: -7.224383644      2.898      6.824
REMARK  9 active torsions:
REMARK  status: ('A' for Active; 'I' for Inactive)
REMARK    1  A    between atoms: C2_2  and  C3_3 
REMARK    2  A    between atoms: C4_4  and  C5_5 
REMARK    3  A    between atoms: C5_5  and  O1_6 
REMARK    4  A    between atoms: C5_5  and  N1_8 
REMARK    5  A    between atoms: N1_8  and  C7_10 
REMARK    6  A    between atoms: C7_10  and  C8_11 
REMARK    7  A    between atoms: C12_15  and  C13_16 
REMARK    8  A    between atoms: C17_24  and  C18_25 
REMARK    9  A    between atoms: C18_25  and  O3_27 
ROOT
HETATM    1  C5  UNL     1       7.845   6.043   0.192  1.00  0.00     0.166 C 
ENDROOT
BRANCH   1   2
HETATM    2  C4  UNL     1       9.204   5.634   0.012  1.00  0.00     0.091 A 
HETATM    3  C3  UNL     1      10.401   6.032   0.531  1.00  0.00    -0.013 A 
HETATM    4  C17 UNL     1      11.477   5.310  -0.021  1.00  0.00     0.023 A 
HETATM    5  C15 UNL     1      10.849   4.455  -0.905  1.00  0.00     0.019 A 
HETATM    6  N3  UNL     1       9.534   4.643  -0.884  1.00  0.00    -0.355 N 
HETATM    7  C16 UNL     1      11.537   3.438  -1.785  1.00  0.00     0.069 C 
ATOM      8  H3  UNL     1       8.863   4.125  -1.453  1.00  0.00     0.166 HD
BRANCH   3   9
HETATM    9  C2  UNL     1      10.648   7.078   1.551  1.00  0.00     0.037 C 
HETATM   10  C1  UNL     1      10.606   6.582   2.965  1.00  0.00     0.010 C 
ENDBRANCH   3   9
BRANCH   4  11
HETATM   11  C18 UNL     1      12.901   5.353   0.205  1.00  0.00     0.052 C 
HETATM   12  C19 UNL     1      13.934   6.046  -0.541  1.00  0.00     0.077 C 
BRANCH  11  13
HETATM   13  O3  UNL     1      13.349   4.672   1.229  1.00  0.00    -0.364 OA
ATOM     14  H3  UNL     1      12.841   3.913   1.486  1.00  0.00     0.217 HD
ENDBRANCH  11  13
ENDBRANCH   4  11
ENDBRANCH   1   2
BRANCH   1  15
HETATM   15  O1  UNL     1       7.295   5.433   1.297  1.00  0.00    -0.344 OA
ATOM     16  H1  UNL     1       6.590   4.849   1.043  1.00  0.00     0.219 HD
ENDBRANCH   1  15
BRANCH   1  17
HETATM   17  N1  UNL     1       6.892   6.856  -0.377  1.00  0.00    -0.360 N 
HETATM   18  C6  UNL     1       6.369   8.114  -0.029  1.00  0.00     0.152 C 
BRANCH  17  19
HETATM   19  C7  UNL     1       6.285   6.283  -1.655  1.00  0.00     0.163 C 
BRANCH  19  20
HETATM   20  C8  UNL     1       6.763   7.020  -2.824  1.00  0.00    -0.039 A 
HETATM   21  C9  UNL     1       8.060   6.936  -3.274  1.00  0.00     0.009 A 
HETATM   22  C10 UNL     1       8.480   7.664  -4.396  1.00  0.00     0.002 A 
HETATM   23  C11 UNL     1       7.561   8.463  -5.038  1.00  0.00     0.016 A 
HETATM   24  C12 UNL     1       6.262   8.552  -4.596  1.00  0.00     0.029 A 
HETATM   25  C14 UNL     1       5.887   7.832  -3.501  1.00  0.00     0.025 A 
BRANCH  24  26
HETATM   26  C13 UNL     1       5.307   9.416  -5.306  1.00  0.00     0.265 C 
HETATM   27  N2  UNL     1       4.133   8.845  -5.817  1.00  0.00    -0.057 NA
HETATM   28  O2  UNL     1       5.523  10.634  -5.461  1.00  0.00    -0.271 OA
ENDBRANCH  24  26
ENDBRANCH  19  20
ENDBRANCH  17  19
ENDBRANCH   1  17
TORSDOF 9
ENDMDL
