MODEL 1
REMARK VINA RESULT: -7.730199944      0.000      0.000
REMARK  9 active torsions:
REMARK  status: ('A' for Active; 'I' for Inactive)
REMARK    1  A    between atoms: C2_2  and  C3_3 
REMARK    2  A    between atoms: C4_4  and  C5_5 
REMARK    3  A    between atoms: C5_5  and  O1_6 
REMARK    4  A    between atoms: C5_5  and  N1_8 
REMARK    5  A    between atoms: N1_8  and  C7_10 
REMARK    6  A    between atoms: C7_10  and  C8_11 
REMARK    7  A    between atoms: C12_15  and  C13_16 
REMARK    8  A    between atoms: C17_24  and  C18_25 
REMARK    9  A    between atoms: C18_25  and  O3_27 
ROOT
HETATM    1  C5  UNL     1      11.132   5.255  -0.461  1.00  0.00     0.166 C 
ENDROOT
BRANCH   1   2
HETATM    2  C4  UNL     1       9.982   5.698  -1.188  1.00  0.00     0.091 A 
HETATM    3  C3  UNL     1       8.663   5.869  -0.883  1.00  0.00    -0.013 A 
HETATM    4  C17 UNL     1       7.920   6.302  -1.997  1.00  0.00     0.023 A 
HETATM    5  C15 UNL     1       8.876   6.380  -2.990  1.00  0.00     0.019 A 
HETATM    6  N3  UNL     1      10.069   6.031  -2.520  1.00  0.00    -0.355 N 
HETATM    7  C16 UNL     1       8.628   6.800  -4.420  1.00  0.00     0.069 C 
ATOM      8  H3  UNL     1      10.929   6.013  -3.070  1.00  0.00     0.166 HD
BRANCH   3   9
HETATM    9  C2  UNL     1       7.997   5.655   0.423  1.00  0.00     0.037 C 
HETATM   10  C1  UNL     1       7.798   6.905   1.226  1.00  0.00     0.010 C 
ENDBRANCH   3   9
BRANCH   4  11
HETATM   11  C18 UNL     1       6.525   6.626  -2.176  1.00  0.00     0.052 C 
HETATM   12  C19 UNL     1       5.823   7.867  -1.912  1.00  0.00     0.077 C 
BRANCH  11  13
HETATM   13  O3  UNL     1       5.763   5.673  -2.648  1.00  0.00    -0.364 OA
ATOM     14  H3  UNL     1       5.212   5.223  -2.018  1.00  0.00     0.217 HD
ENDBRANCH  11  13
ENDBRANCH   4  11
ENDBRANCH   1   2
BRANCH   1  15
HETATM   15  O1  UNL     1      10.904   5.316   0.895  1.00  0.00    -0.344 OA
ATOM     16  H1  UNL     1      11.233   6.131   1.255  1.00  0.00     0.219 HD
ENDBRANCH   1  15
BRANCH   1  17
HETATM   17  N1  UNL     1      12.407   4.781  -0.668  1.00  0.00    -0.360 N 
HETATM   18  C6  UNL     1      13.633   5.411  -0.944  1.00  0.00     0.152 C 
BRANCH  17  19
HETATM   19  C7  UNL     1      12.518   3.262  -0.564  1.00  0.00     0.163 C 
BRANCH  19  20
HETATM   20  C8  UNL     1      12.949   2.692  -1.840  1.00  0.00    -0.039 A 
HETATM   21  C9  UNL     1      14.213   2.186  -2.037  1.00  0.00     0.009 A 
HETATM   22  C10 UNL     1      14.589   1.653  -3.278  1.00  0.00     0.002 A 
HETATM   23  C11 UNL     1      13.661   1.648  -4.295  1.00  0.00     0.016 A 
HETATM   24  C12 UNL     1      12.396   2.152  -4.108  1.00  0.00     0.029 A 
HETATM   25  C14 UNL     1      12.063   2.663  -2.888  1.00  0.00     0.025 A 
BRANCH  24  26
HETATM   26  C13 UNL     1      11.430   2.130  -5.217  1.00  0.00     0.265 C 
HETATM   27  N2  UNL     1      10.878   3.342  -5.654  1.00  0.00    -0.057 NA
HETATM   28  O2  UNL     1      11.097   1.062  -5.767  1.00  0.00    -0.271 OA
ENDBRANCH  24  26
ENDBRANCH  19  20
ENDBRANCH  17  19
ENDBRANCH   1  17
TORSDOF 9
ENDMDL
