MODEL 3
REMARK VINA RESULT: -7.440334576      2.564      3.746
REMARK  9 active torsions:
REMARK  status: ('A' for Active; 'I' for Inactive)
REMARK    1  A    between atoms: C2_2  and  C3_3 
REMARK    2  A    between atoms: C4_4  and  C5_5 
REMARK    3  A    between atoms: C5_5  and  O1_6 
REMARK    4  A    between atoms: C5_5  and  N1_8 
REMARK    5  A    between atoms: N1_8  and  C7_10 
REMARK    6  A    between atoms: C7_10  and  C8_11 
REMARK    7  A    between atoms: C12_15  and  C13_16 
REMARK    8  A    between atoms: C17_24  and  C18_25 
REMARK    9  A    between atoms: C18_25  and  O3_27 
ROOT
HETATM    1  C5  UNL     1       8.881   5.926   0.574  1.00  0.00     0.166 C 
ENDROOT
BRANCH   1   2
HETATM    2  C4  UNL     1       7.954   6.637  -0.252  1.00  0.00     0.091 A 
HETATM    3  C3  UNL     1       7.707   6.686  -1.593  1.00  0.00    -0.013 A 
HETATM    4  C17 UNL     1       6.683   7.600  -1.904  1.00  0.00     0.023 A 
HETATM    5  C15 UNL     1       6.332   8.098  -0.664  1.00  0.00     0.019 A 
HETATM    6  N3  UNL     1       7.067   7.539   0.291  1.00  0.00    -0.355 N 
HETATM    7  C16 UNL     1       5.264   9.134  -0.401  1.00  0.00     0.069 C 
ATOM      8  H3  UNL     1       6.986   7.749   1.286  1.00  0.00     0.166 HD
BRANCH   3   9
HETATM    9  C2  UNL     1       8.372   5.915  -2.668  1.00  0.00     0.037 C 
HETATM   10  C1  UNL     1       9.373   6.700  -3.461  1.00  0.00     0.010 C 
ENDBRANCH   3   9
BRANCH   4  11
HETATM   11  C18 UNL     1       6.066   7.993  -3.147  1.00  0.00     0.052 C 
HETATM   12  C19 UNL     1       6.336   9.143  -3.990  1.00  0.00     0.077 C 
BRANCH  11  13
HETATM   13  O3  UNL     1       5.122   7.210  -3.602  1.00  0.00    -0.364 OA
ATOM     14  H3  UNL     1       4.297   7.626  -3.822  1.00  0.00     0.217 HD
ENDBRANCH  11  13
ENDBRANCH   4  11
ENDBRANCH   1   2
BRANCH   1  15
HETATM   15  O1  UNL     1       8.243   4.925   1.271  1.00  0.00    -0.344 OA
ATOM     16  H1  UNL     1       8.201   5.134   2.197  1.00  0.00     0.219 HD
ENDBRANCH   1  15
BRANCH   1  17
HETATM   17  N1  UNL     1      10.216   5.907   0.907  1.00  0.00    -0.360 N 
HETATM   18  C6  UNL     1      10.901   5.713   2.119  1.00  0.00     0.152 C 
BRANCH  17  19
HETATM   19  C7  UNL     1      11.145   6.129  -0.283  1.00  0.00     0.163 C 
BRANCH  19  20
HETATM   20  C8  UNL     1      11.583   4.847  -0.836  1.00  0.00    -0.039 A 
HETATM   21  C9  UNL     1      10.702   3.894  -1.288  1.00  0.00     0.009 A 
HETATM   22  C10 UNL     1      11.163   2.676  -1.806  1.00  0.00     0.002 A 
HETATM   23  C11 UNL     1      12.521   2.457  -1.852  1.00  0.00     0.016 A 
HETATM   24  C12 UNL     1      13.410   3.404  -1.401  1.00  0.00     0.029 A 
HETATM   25  C14 UNL     1      12.928   4.579  -0.903  1.00  0.00     0.025 A 
BRANCH  24  26
HETATM   26  C13 UNL     1      14.855   3.137  -1.465  1.00  0.00     0.265 C 
HETATM   27  N2  UNL     1      15.345   2.320  -2.493  1.00  0.00    -0.057 NA
HETATM   28  O2  UNL     1      15.643   3.621  -0.628  1.00  0.00    -0.271 OA
ENDBRANCH  24  26
ENDBRANCH  19  20
ENDBRANCH  17  19
ENDBRANCH   1  17
TORSDOF 9
ENDMDL
