MODEL 2
REMARK VINA RESULT: -7.522204225      2.811      5.462
REMARK  9 active torsions:
REMARK  status: ('A' for Active; 'I' for Inactive)
REMARK    1  A    between atoms: C2_2  and  C3_3 
REMARK    2  A    between atoms: C4_4  and  C5_5 
REMARK    3  A    between atoms: C5_5  and  O1_6 
REMARK    4  A    between atoms: C5_5  and  N1_8 
REMARK    5  A    between atoms: N1_8  and  C7_10 
REMARK    6  A    between atoms: C7_10  and  C8_11 
REMARK    7  A    between atoms: C12_15  and  C13_16 
REMARK    8  A    between atoms: C17_24  and  C18_25 
REMARK    9  A    between atoms: C18_25  and  O3_27 
ROOT
HETATM    1  C5  UNL     1      10.612   4.944  -1.054  1.00  0.00     0.166 C 
ENDROOT
BRANCH   1   2
HETATM    2  C4  UNL     1       9.528   5.643  -1.673  1.00  0.00     0.091 A 
HETATM    3  C3  UNL     1       8.265   5.987  -1.287  1.00  0.00    -0.013 A 
HETATM    4  C17 UNL     1       7.568   6.655  -2.311  1.00  0.00     0.023 A 
HETATM    5  C15 UNL     1       8.493   6.691  -3.337  1.00  0.00     0.019 A 
HETATM    6  N3  UNL     1       9.627   6.106  -2.965  1.00  0.00    -0.355 N 
HETATM    7  C16 UNL     1       8.273   7.303  -4.700  1.00  0.00     0.069 C 
ATOM      8  H3  UNL     1      10.454   6.012  -3.555  1.00  0.00     0.166 HD
BRANCH   3   9
HETATM    9  C2  UNL     1       7.614   5.737   0.020  1.00  0.00     0.037 C 
HETATM   10  C1  UNL     1       7.474   6.954   0.882  1.00  0.00     0.010 C 
ENDBRANCH   3   9
BRANCH   4  11
HETATM   11  C18 UNL     1       6.241   7.215  -2.387  1.00  0.00     0.052 C 
HETATM   12  C19 UNL     1       5.780   8.549  -2.054  1.00  0.00     0.077 C 
BRANCH  11  13
HETATM   13  O3  UNL     1       5.297   6.419  -2.820  1.00  0.00    -0.364 OA
ATOM     14  H3  UNL     1       4.824   6.705  -3.593  1.00  0.00     0.217 HD
ENDBRANCH  11  13
ENDBRANCH   4  11
ENDBRANCH   1   2
BRANCH   1  15
HETATM   15  O1  UNL     1      10.583   3.609  -1.387  1.00  0.00    -0.344 OA
ATOM     16  H1  UNL     1      10.302   3.084  -0.646  1.00  0.00     0.219 HD
ENDBRANCH   1  15
BRANCH   1  17
HETATM   17  N1  UNL     1      11.690   5.165  -0.228  1.00  0.00    -0.360 N 
HETATM   18  C6  UNL     1      12.879   4.452   0.010  1.00  0.00     0.152 C 
BRANCH  17  19
HETATM   19  C7  UNL     1      11.582   6.450   0.587  1.00  0.00     0.163 C 
BRANCH  19  20
HETATM   20  C8  UNL     1      11.462   6.144   2.012  1.00  0.00    -0.039 A 
HETATM   21  C9  UNL     1      12.458   6.423   2.918  1.00  0.00     0.009 A 
HETATM   22  C10 UNL     1      12.305   6.108   4.275  1.00  0.00     0.002 A 
HETATM   23  C11 UNL     1      11.131   5.514   4.680  1.00  0.00     0.016 A 
HETATM   24  C12 UNL     1      10.130   5.231   3.781  1.00  0.00     0.029 A 
HETATM   25  C14 UNL     1      10.311   5.550   2.468  1.00  0.00     0.025 A 
BRANCH  24  26
HETATM   26  C13 UNL     1       8.888   4.595   4.249  1.00  0.00     0.265 C 
HETATM   27  N2  UNL     1       8.910   3.877   5.452  1.00  0.00    -0.057 NA
HETATM   28  O2  UNL     1       7.828   4.684   3.598  1.00  0.00    -0.271 OA
ENDBRANCH  24  26
ENDBRANCH  19  20
ENDBRANCH  17  19
ENDBRANCH   1  17
TORSDOF 9
ENDMDL
