MODEL 20
REMARK VINA RESULT: -7.090455159      3.031      7.332
REMARK  9 active torsions:
REMARK  status: ('A' for Active; 'I' for Inactive)
REMARK    1  A    between atoms: C2_2  and  C3_3 
REMARK    2  A    between atoms: C4_4  and  C5_5 
REMARK    3  A    between atoms: C5_5  and  O1_6 
REMARK    4  A    between atoms: C5_5  and  N1_8 
REMARK    5  A    between atoms: N1_8  and  C7_10 
REMARK    6  A    between atoms: C7_10  and  C8_11 
REMARK    7  A    between atoms: C12_15  and  C13_16 
REMARK    8  A    between atoms: C17_24  and  C18_25 
REMARK    9  A    between atoms: C18_25  and  O3_27 
ROOT
HETATM    1  C5  UNL     1       8.156   5.974  -1.041  1.00  0.00     0.166 C 
ENDROOT
BRANCH   1   2
HETATM    2  C4  UNL     1       9.494   5.525  -0.805  1.00  0.00     0.091 A 
HETATM    3  C3  UNL     1      10.522   5.950  -0.016  1.00  0.00    -0.013 A 
HETATM    4  C17 UNL     1      11.674   5.159  -0.186  1.00  0.00     0.023 A 
HETATM    5  C15 UNL     1      11.272   4.233  -1.129  1.00  0.00     0.019 A 
HETATM    6  N3  UNL     1      10.010   4.445  -1.485  1.00  0.00    -0.355 N 
HETATM    7  C16 UNL     1      12.127   3.123  -1.693  1.00  0.00     0.069 C 
ATOM      8  H3  UNL     1       9.496   3.886  -2.166  1.00  0.00     0.166 HD
BRANCH   3   9
HETATM    9  C2  UNL     1      10.529   7.086   0.935  1.00  0.00     0.037 C 
HETATM   10  C1  UNL     1      10.185   6.712   2.345  1.00  0.00     0.010 C 
ENDBRANCH   3   9
BRANCH   4  11
HETATM   11  C18 UNL     1      12.985   5.198   0.415  1.00  0.00     0.052 C 
HETATM   12  C19 UNL     1      14.217   5.775  -0.089  1.00  0.00     0.077 C 
BRANCH  11  13
HETATM   13  O3  UNL     1      13.103   4.636   1.591  1.00  0.00    -0.364 OA
ATOM     14  H3  UNL     1      12.909   5.183   2.343  1.00  0.00     0.217 HD
ENDBRANCH  11  13
ENDBRANCH   4  11
ENDBRANCH   1   2
BRANCH   1  15
HETATM   15  O1  UNL     1       7.483   6.143   0.149  1.00  0.00    -0.344 OA
ATOM     16  H1  UNL     1       7.826   5.559   0.815  1.00  0.00     0.219 HD
ENDBRANCH   1  15
BRANCH   1  17
HETATM   17  N1  UNL     1       7.307   6.301  -2.073  1.00  0.00    -0.360 N 
HETATM   18  C6  UNL     1       5.931   6.102  -2.284  1.00  0.00     0.152 C 
BRANCH  17  19
HETATM   19  C7  UNL     1       7.993   7.040  -3.218  1.00  0.00     0.163 C 
BRANCH  19  20
HETATM   20  C8  UNL     1       7.300   8.297  -3.503  1.00  0.00    -0.039 A 
HETATM   21  C9  UNL     1       6.925   9.178  -2.515  1.00  0.00     0.009 A 
HETATM   22  C10 UNL     1       6.258  10.370  -2.831  1.00  0.00     0.002 A 
HETATM   23  C11 UNL     1       5.988  10.637  -4.153  1.00  0.00     0.016 A 
HETATM   24  C12 UNL     1       6.359   9.762  -5.147  1.00  0.00     0.029 A 
HETATM   25  C14 UNL     1       7.006   8.612  -4.806  1.00  0.00     0.025 A 
BRANCH  24  26
HETATM   26  C13 UNL     1       6.054  10.080  -6.551  1.00  0.00     0.265 C 
HETATM   27  N2  UNL     1       4.992  10.951  -6.829  1.00  0.00    -0.057 NA
HETATM   28  O2  UNL     1       6.719   9.593  -7.486  1.00  0.00    -0.271 OA
ENDBRANCH  24  26
ENDBRANCH  19  20
ENDBRANCH  17  19
ENDBRANCH   1  17
TORSDOF 9
ENDMDL
