MODEL 2
REMARK VINA RESULT: -6.120303076      0.815      1.255
REMARK  10 active torsions:
REMARK  status: ('A' for Active; 'I' for Inactive)
REMARK    1  A    between atoms: O1_1  and  C1_3 
REMARK    2  A    between atoms: C2_4  and  O2_5 
REMARK    3  A    between atoms: O2_5  and  P1_6 
REMARK    4  A    between atoms: C3_10  and  O6_11 
REMARK    5  A    between atoms: O6_11  and  P2_12 
REMARK    6  A    between atoms: C4_16  and  O10_17 
REMARK    7  A    between atoms: O10_17  and  P3_18 
REMARK    8  A    between atoms: C5_22  and  O14_23 
REMARK    9  A    between atoms: C6_25  and  O15_26 
REMARK   10  A    between atoms: O15_26  and  P4_27 
ROOT
HETATM    1  C1  UNL     1       8.237   7.381   1.407  1.00  0.00     0.182 C 
HETATM    2  C2  UNL     1       9.322   8.378   1.692  1.00  0.00     0.199 C 
HETATM    3  C3  UNL     1      10.204   7.694   2.761  1.00  0.00     0.200 C 
HETATM    4  C4  UNL     1       9.367   7.744   4.014  1.00  0.00     0.199 C 
HETATM    5  C5  UNL     1       8.248   6.757   3.849  1.00  0.00     0.182 C 
HETATM    6  C6  UNL     1       7.460   6.928   2.591  1.00  0.00     0.198 C 
ENDROOT
BRANCH   2   7
HETATM    7  O2  UNL     1      10.103   8.526   0.611  1.00  0.00    -0.272 OA
BRANCH   7   8
HETATM    8  P1  UNL     1      10.128   9.881  -0.250  1.00  0.00     0.422 P 
HETATM    9  O3  UNL     1       9.221  10.662   0.682  1.00  0.00    -0.617 OA
HETATM   10  O4  UNL     1       9.242  10.081  -1.606  1.00  0.00    -0.617 OA
HETATM   11  O5  UNL     1      11.351  11.058   0.029  1.00  0.00    -0.617 OA
ENDBRANCH   7   8
ENDBRANCH   2   7
BRANCH   1  12
HETATM   12  O1  UNL     1       8.847   6.265   0.824  1.00  0.00    -0.390 OA
ATOM     13  H1  UNL     1       8.646   6.291  -0.105  1.00  0.00     0.210 HD
ENDBRANCH   1  12
BRANCH   3  14
HETATM   14  O6  UNL     1      10.399   6.375   2.427  1.00  0.00    -0.272 OA
BRANCH  14  15
HETATM   15  P2  UNL     1      12.000   6.020   2.751  1.00  0.00     0.422 P 
HETATM   16  O7  UNL     1      12.517   4.507   2.907  1.00  0.00    -0.617 OA
HETATM   17  O8  UNL     1      12.283   6.190   1.252  1.00  0.00    -0.617 OA
HETATM   18  O9  UNL     1      12.991   7.309   3.147  1.00  0.00    -0.617 OA
ENDBRANCH  14  15
ENDBRANCH   3  14
BRANCH   6  19
HETATM   19  O15 UNL     1       6.795   5.791   2.205  1.00  0.00    -0.272 OA
BRANCH  19  20
HETATM   20  P4  UNL     1       5.289   5.798   1.747  1.00  0.00     0.422 P 
HETATM   21  O16 UNL     1       4.189   4.617   2.336  1.00  0.00    -0.617 OA
HETATM   22  O17 UNL     1       5.476   4.920   0.500  1.00  0.00    -0.617 OA
HETATM   23  O18 UNL     1       4.634   7.012   0.808  1.00  0.00    -0.617 OA
ENDBRANCH  19  20
ENDBRANCH   6  19
BRANCH   4  24
HETATM   24  O10 UNL     1      10.056   7.427   5.151  1.00  0.00    -0.272 OA
BRANCH  24  25
HETATM   25  P3  UNL     1      10.370   8.557   6.132  1.00  0.00     0.422 P 
HETATM   26  O11 UNL     1       9.269   7.935   7.210  1.00  0.00    -0.617 OA
HETATM   27  O12 UNL     1      11.934   7.985   6.205  1.00  0.00    -0.617 OA
HETATM   28  O13 UNL     1       9.944   9.769   5.152  1.00  0.00    -0.617 OA
ENDBRANCH  24  25
ENDBRANCH   4  24
BRANCH   5  29
HETATM   29  O14 UNL     1       7.466   6.886   4.997  1.00  0.00    -0.390 OA
ATOM     30  H14 UNL     1       6.915   7.644   4.843  1.00  0.00     0.210 HD
ENDBRANCH   5  29
TORSDOF 10
ENDMDL
