MODEL 4
REMARK VINA RESULT: -5.953760756      2.211      6.358
REMARK  10 active torsions:
REMARK  status: ('A' for Active; 'I' for Inactive)
REMARK    1  A    between atoms: O1_1  and  C1_3 
REMARK    2  A    between atoms: C2_4  and  O2_5 
REMARK    3  A    between atoms: O2_5  and  P1_6 
REMARK    4  A    between atoms: C3_10  and  O6_11 
REMARK    5  A    between atoms: O6_11  and  P2_12 
REMARK    6  A    between atoms: C4_16  and  O10_17 
REMARK    7  A    between atoms: O10_17  and  P3_18 
REMARK    8  A    between atoms: C5_22  and  O14_23 
REMARK    9  A    between atoms: C6_25  and  O15_26 
REMARK   10  A    between atoms: O15_26  and  P4_27 
ROOT
HETATM    1  C1  UNL     1       9.105   5.712   4.250  1.00  0.00     0.182 C 
HETATM    2  C2  UNL     1       7.874   6.523   4.528  1.00  0.00     0.199 C 
HETATM    3  C3  UNL     1       7.518   7.164   3.168  1.00  0.00     0.200 C 
HETATM    4  C4  UNL     1       8.576   8.221   2.973  1.00  0.00     0.199 C 
HETATM    5  C5  UNL     1       9.865   7.516   2.663  1.00  0.00     0.182 C 
HETATM    6  C6  UNL     1      10.241   6.462   3.654  1.00  0.00     0.198 C 
ENDROOT
BRANCH   2   7
HETATM    7  O2  UNL     1       6.849   5.711   4.829  1.00  0.00    -0.272 OA
BRANCH   7   8
HETATM    8  P1  UNL     1       5.341   6.247   4.969  1.00  0.00     0.422 P 
HETATM    9  O3  UNL     1       5.411   6.491   6.464  1.00  0.00    -0.617 OA
HETATM   10  O4  UNL     1       4.048   5.251   4.988  1.00  0.00    -0.617 OA
HETATM   11  O5  UNL     1       4.998   7.919   4.759  1.00  0.00    -0.617 OA
ENDBRANCH   7   8
ENDBRANCH   2   7
BRANCH   1  12
HETATM   12  O1  UNL     1       8.735   4.691   3.368  1.00  0.00    -0.390 OA
ATOM     13  H1  UNL     1       9.269   4.789   2.588  1.00  0.00     0.210 HD
ENDBRANCH   1  12
BRANCH   3  14
HETATM   14  O6  UNL     1       7.652   6.233   2.166  1.00  0.00    -0.272 OA
BRANCH  14  15
HETATM   15  P2  UNL     1       6.201   6.192   1.337  1.00  0.00     0.422 P 
HETATM   16  O7  UNL     1       5.212   7.457   1.299  1.00  0.00    -0.617 OA
HETATM   17  O8  UNL     1       6.988   6.495   0.056  1.00  0.00    -0.617 OA
HETATM   18  O9  UNL     1       5.709   4.702   0.756  1.00  0.00    -0.617 OA
ENDBRANCH  14  15
ENDBRANCH   3  14
BRANCH   6  19
HETATM   19  O15 UNL     1      11.103   5.521   3.147  1.00  0.00    -0.272 OA
BRANCH  19  20
HETATM   20  P4  UNL     1      12.667   5.695   3.176  1.00  0.00     0.422 P 
HETATM   21  O16 UNL     1      13.373   7.198   3.615  1.00  0.00    -0.617 OA
HETATM   22  O17 UNL     1      12.828   6.113   1.706  1.00  0.00    -0.617 OA
HETATM   23  O18 UNL     1      13.723   4.425   2.941  1.00  0.00    -0.617 OA
ENDBRANCH  19  20
ENDBRANCH   6  19
BRANCH   4  24
HETATM   24  O10 UNL     1       8.306   9.091   1.953  1.00  0.00    -0.272 OA
BRANCH  24  25
HETATM   25  P3  UNL     1       7.959  10.534   2.323  1.00  0.00     0.422 P 
HETATM   26  O11 UNL     1       8.847  10.395   3.721  1.00  0.00    -0.617 OA
HETATM   27  O12 UNL     1       8.756  11.021   0.942  1.00  0.00    -0.617 OA
HETATM   28  O13 UNL     1       6.357  10.329   2.362  1.00  0.00    -0.617 OA
ENDBRANCH  24  25
ENDBRANCH   4  24
BRANCH   5  29
HETATM   29  O14 UNL     1      10.824   8.524   2.559  1.00  0.00    -0.390 OA
ATOM     30  H14 UNL     1      11.209   8.597   3.423  1.00  0.00     0.210 HD
ENDBRANCH   5  29
TORSDOF 10
ENDMDL
