MODEL 1
REMARK VINA RESULT: -6.263524285      0.000      0.000
REMARK  10 active torsions:
REMARK  status: ('A' for Active; 'I' for Inactive)
REMARK    1  A    between atoms: O1_1  and  C1_3 
REMARK    2  A    between atoms: C2_4  and  O2_5 
REMARK    3  A    between atoms: O2_5  and  P1_6 
REMARK    4  A    between atoms: C3_10  and  O6_11 
REMARK    5  A    between atoms: O6_11  and  P2_12 
REMARK    6  A    between atoms: C4_16  and  O10_17 
REMARK    7  A    between atoms: O10_17  and  P3_18 
REMARK    8  A    between atoms: C5_22  and  O14_23 
REMARK    9  A    between atoms: C6_25  and  O15_26 
REMARK   10  A    between atoms: O15_26  and  P4_27 
ROOT
HETATM    1  C1  UNL     1       8.494   7.361   1.274  1.00  0.00     0.182 C 
HETATM    2  C2  UNL     1       9.639   8.276   1.596  1.00  0.00     0.199 C 
HETATM    3  C3  UNL     1      10.380   7.575   2.756  1.00  0.00     0.200 C 
HETATM    4  C4  UNL     1       9.464   7.758   3.940  1.00  0.00     0.199 C 
HETATM    5  C5  UNL     1       8.278   6.861   3.735  1.00  0.00     0.182 C 
HETATM    6  C6  UNL     1       7.599   7.036   2.415  1.00  0.00     0.198 C 
ENDROOT
BRANCH   2   7
HETATM    7  O2  UNL     1      10.505   8.304   0.571  1.00  0.00    -0.272 OA
BRANCH   7   8
HETATM    8  P1  UNL     1      11.607   9.461   0.410  1.00  0.00     0.422 P 
HETATM    9  O3  UNL     1      12.511   8.673  -0.518  1.00  0.00    -0.617 OA
HETATM   10  O4  UNL     1      12.725   9.779   1.557  1.00  0.00    -0.617 OA
HETATM   11  O5  UNL     1      11.443  10.643  -0.827  1.00  0.00    -0.617 OA
ENDBRANCH   7   8
ENDBRANCH   2   7
BRANCH   1  12
HETATM   12  O1  UNL     1       9.044   6.170   0.788  1.00  0.00    -0.390 OA
ATOM     13  H1  UNL     1       8.341   5.533   0.751  1.00  0.00     0.210 HD
ENDBRANCH   1  12
BRANCH   3  14
HETATM   14  O6  UNL     1      10.482   6.230   2.497  1.00  0.00    -0.272 OA
BRANCH  14  15
HETATM   15  P2  UNL     1      12.032   5.766   2.915  1.00  0.00     0.422 P 
HETATM   16  O7  UNL     1      12.438   4.221   3.084  1.00  0.00    -0.617 OA
HETATM   17  O8  UNL     1      12.420   5.929   1.439  1.00  0.00    -0.617 OA
HETATM   18  O9  UNL     1      13.079   6.983   3.388  1.00  0.00    -0.617 OA
ENDBRANCH  14  15
ENDBRANCH   3  14
BRANCH   6  19
HETATM   19  O15 UNL     1       6.865   5.941   2.031  1.00  0.00    -0.272 OA
BRANCH  19  20
HETATM   20  P4  UNL     1       5.325   6.014   1.716  1.00  0.00     0.422 P 
HETATM   21  O16 UNL     1       4.279   4.724   2.155  1.00  0.00    -0.617 OA
HETATM   22  O17 UNL     1       5.400   5.399   0.309  1.00  0.00    -0.617 OA
HETATM   23  O18 UNL     1       4.593   7.378   1.093  1.00  0.00    -0.617 OA
ENDBRANCH  19  20
ENDBRANCH   6  19
BRANCH   4  24
HETATM   24  O10 UNL     1      10.041   7.441   5.139  1.00  0.00    -0.272 OA
BRANCH  24  25
HETATM   25  P3  UNL     1      10.317   8.582   6.119  1.00  0.00     0.422 P 
HETATM   26  O11 UNL     1       9.148   7.993   7.143  1.00  0.00    -0.617 OA
HETATM   27  O12 UNL     1      11.866   7.988   6.287  1.00  0.00    -0.617 OA
HETATM   28  O13 UNL     1       9.966   9.785   5.099  1.00  0.00    -0.617 OA
ENDBRANCH  24  25
ENDBRANCH   4  24
BRANCH   5  29
HETATM   29  O14 UNL     1       7.430   7.114   4.814  1.00  0.00    -0.390 OA
ATOM     30  H14 UNL     1       6.732   6.474   4.743  1.00  0.00     0.210 HD
ENDBRANCH   5  29
TORSDOF 10
ENDMDL
