MODEL 4
REMARK VINA RESULT: -9.063905922      2.509      6.287
REMARK  5 active torsions:
REMARK  status: ('A' for Active; 'I' for Inactive)
REMARK    1  A    between atoms: C1_2  and  C2_4 
REMARK    2  A    between atoms: C2_4  and  C3_5 
REMARK    3  A    between atoms: C3_5  and  N1_6 
REMARK    4  A    between atoms: C11_14  and  C12_15 
REMARK    5  A    between atoms: C20_23  and  C21_24 
ROOT
HETATM    1  N1  UNL     1     -11.169  -9.644 -19.696  1.00  0.00    -0.344 N 
HETATM    2  C4  UNL     1     -11.748  -8.492 -20.080  1.00  0.00     0.057 A 
HETATM    3  C5  UNL     1     -11.668  -7.864 -21.372  1.00  0.00    -0.008 A 
HETATM    4  C6  UNL     1     -12.786  -7.676 -22.164  1.00  0.00     0.014 A 
HETATM    5  C7  UNL     1     -12.735  -7.077 -23.407  1.00  0.00     0.001 A 
HETATM    6  C8  UNL     1     -11.513  -6.638 -23.901  1.00  0.00     0.000 A 
HETATM    7  C9  UNL     1     -10.385  -6.823 -23.111  1.00  0.00     0.001 A 
HETATM    8  C10 UNL     1     -10.459  -7.425 -21.871  1.00  0.00     0.014 A 
HETATM    9  C11 UNL     1     -12.463  -7.979 -19.005  1.00  0.00     0.014 A 
HETATM   10  C18 UNL     1     -12.309  -8.856 -17.929  1.00  0.00     0.005 A 
HETATM   11  C19 UNL     1     -12.805  -8.814 -16.647  1.00  0.00     0.022 A 
HETATM   12  C20 UNL     1     -12.490  -9.819 -15.791  1.00  0.00    -0.053 A 
HETATM   13  C24 UNL     1     -11.675 -10.866 -16.231  1.00  0.00     0.010 A 
HETATM   14  C25 UNL     1     -11.183 -10.896 -17.519  1.00  0.00     0.031 A 
HETATM   15  C26 UNL     1     -11.501  -9.872 -18.398  1.00  0.00     0.046 A 
ENDROOT
BRANCH   1  16
HETATM   16  C3  UNL     1     -10.349 -10.464 -20.529  1.00  0.00     0.140 C 
BRANCH  16  17
HETATM   17  C2  UNL     1      -8.936 -10.584 -19.967  1.00  0.00     0.133 C 
BRANCH  17  18
HETATM   18  C1  UNL     1      -7.996  -9.682 -20.655  1.00  0.00     0.174 C 
HETATM   19  O1  UNL     1      -7.573  -9.846 -21.823  1.00  0.00    -0.648 OA
HETATM   20  O2  UNL     1      -7.544  -8.574 -19.965  1.00  0.00    -0.648 OA
ENDBRANCH  17  18
ENDBRANCH  16  17
ENDBRANCH   1  16
BRANCH   9  21
HETATM   21  C12 UNL     1     -13.236  -6.748 -18.999  1.00  0.00    -0.023 A 
HETATM   22  C13 UNL     1     -12.640  -5.539 -19.256  1.00  0.00     0.012 A 
HETATM   23  C14 UNL     1     -13.420  -4.404 -19.237  1.00  0.00     0.001 A 
HETATM   24  C15 UNL     1     -14.774  -4.410 -18.972  1.00  0.00     0.000 A 
HETATM   25  C16 UNL     1     -15.371  -5.625 -18.712  1.00  0.00     0.001 A 
HETATM   26  C17 UNL     1     -14.587  -6.766 -18.732  1.00  0.00     0.012 A 
ENDBRANCH   9  21
BRANCH  12  27
HETATM   27  C21 UNL     1     -13.011  -9.795 -14.404  1.00  0.00     0.018 A 
HETATM   28  C22 UNL     1     -12.032  -9.648 -13.273  1.00  0.00     0.010 A 
HETATM   29  C23 UNL     1     -12.928  -8.525 -13.630  1.00  0.00     0.010 A 
ENDBRANCH  12  27
TORSDOF 5
ENDMDL
