MODEL 5
REMARK VINA RESULT: -8.771424482      2.421      6.228
REMARK  5 active torsions:
REMARK  status: ('A' for Active; 'I' for Inactive)
REMARK    1  A    between atoms: C1_2  and  C2_4 
REMARK    2  A    between atoms: C2_4  and  C3_5 
REMARK    3  A    between atoms: C3_5  and  N1_6 
REMARK    4  A    between atoms: C11_14  and  C12_15 
REMARK    5  A    between atoms: C20_23  and  C21_24 
ROOT
HETATM    1  N1  UNL     1     -10.630  -8.912 -18.916  1.00  0.00    -0.344 N 
HETATM    2  C4  UNL     1     -11.385  -8.000 -19.556  1.00  0.00     0.057 A 
HETATM    3  C5  UNL     1     -11.313  -7.628 -20.944  1.00  0.00    -0.008 A 
HETATM    4  C6  UNL     1     -12.371  -7.831 -21.810  1.00  0.00     0.014 A 
HETATM    5  C7  UNL     1     -12.328  -7.482 -23.146  1.00  0.00     0.001 A 
HETATM    6  C8  UNL     1     -11.175  -6.901 -23.659  1.00  0.00     0.000 A 
HETATM    7  C9  UNL     1     -10.108  -6.693 -22.794  1.00  0.00     0.001 A 
HETATM    8  C10 UNL     1     -10.174  -7.050 -21.462  1.00  0.00     0.014 A 
HETATM    9  C11 UNL     1     -12.279  -7.453 -18.645  1.00  0.00     0.014 A 
HETATM   10  C18 UNL     1     -12.054  -8.057 -17.405  1.00  0.00     0.005 A 
HETATM   11  C19 UNL     1     -12.661  -7.876 -16.184  1.00  0.00     0.022 A 
HETATM   12  C20 UNL     1     -12.234  -8.611 -15.127  1.00  0.00    -0.053 A 
HETATM   13  C24 UNL     1     -11.195  -9.529 -15.303  1.00  0.00     0.010 A 
HETATM   14  C25 UNL     1     -10.594  -9.701 -16.532  1.00  0.00     0.031 A 
HETATM   15  C26 UNL     1     -11.025  -8.953 -17.617  1.00  0.00     0.046 A 
ENDROOT
BRANCH   1  16
HETATM   16  C3  UNL     1      -9.594  -9.686 -19.523  1.00  0.00     0.140 C 
BRANCH  16  17
HETATM   17  C2  UNL     1     -10.168 -10.873 -20.289  1.00  0.00     0.133 C 
BRANCH  17  18
HETATM   18  C1  UNL     1     -10.901 -11.793 -19.401  1.00  0.00     0.174 C 
HETATM   19  O1  UNL     1     -10.365 -12.589 -18.596  1.00  0.00    -0.648 OA
HETATM   20  O2  UNL     1     -12.282 -11.782 -19.460  1.00  0.00    -0.648 OA
ENDBRANCH  17  18
ENDBRANCH  16  17
ENDBRANCH   1  16
BRANCH   9  21
HETATM   21  C12 UNL     1     -13.273  -6.432 -18.928  1.00  0.00    -0.023 A 
HETATM   22  C13 UNL     1     -12.902  -5.184 -19.360  1.00  0.00     0.012 A 
HETATM   23  C14 UNL     1     -13.886  -4.255 -19.613  1.00  0.00     0.001 A 
HETATM   24  C15 UNL     1     -15.233  -4.504 -19.456  1.00  0.00     0.000 A 
HETATM   25  C16 UNL     1     -15.606  -5.758 -19.021  1.00  0.00     0.001 A 
HETATM   26  C17 UNL     1     -14.616  -6.693 -18.767  1.00  0.00     0.012 A 
ENDBRANCH   9  21
BRANCH  12  27
HETATM   27  C21 UNL     1     -12.871  -8.432 -13.801  1.00  0.00     0.018 A 
HETATM   28  C22 UNL     1     -12.250  -7.467 -12.831  1.00  0.00     0.010 A 
HETATM   29  C23 UNL     1     -13.531  -7.133 -13.493  1.00  0.00     0.010 A 
ENDBRANCH  12  27
TORSDOF 5
ENDMDL
