MODEL 6
REMARK VINA RESULT: -8.673971288      2.751      7.215
REMARK  5 active torsions:
REMARK  status: ('A' for Active; 'I' for Inactive)
REMARK    1  A    between atoms: C1_2  and  C2_4 
REMARK    2  A    between atoms: C2_4  and  C3_5 
REMARK    3  A    between atoms: C3_5  and  N1_6 
REMARK    4  A    between atoms: C11_14  and  C12_15 
REMARK    5  A    between atoms: C20_23  and  C21_24 
ROOT
HETATM    1  N1  UNL     1     -12.909  -6.171 -18.815  1.00  0.00    -0.344 N 
HETATM    2  C4  UNL     1     -12.258  -7.014 -19.638  1.00  0.00     0.057 A 
HETATM    3  C5  UNL     1     -12.130  -6.910 -21.067  1.00  0.00    -0.008 A 
HETATM    4  C6  UNL     1     -10.901  -6.749 -21.680  1.00  0.00     0.014 A 
HETATM    5  C7  UNL     1     -10.751  -6.647 -23.050  1.00  0.00     0.001 A 
HETATM    6  C8  UNL     1     -11.876  -6.708 -23.863  1.00  0.00     0.000 A 
HETATM    7  C9  UNL     1     -13.114  -6.871 -23.254  1.00  0.00     0.001 A 
HETATM    8  C10 UNL     1     -13.240  -6.969 -21.882  1.00  0.00     0.014 A 
HETATM    9  C11 UNL     1     -11.707  -8.035 -18.875  1.00  0.00     0.014 A 
HETATM   10  C18 UNL     1     -12.038  -7.801 -17.538  1.00  0.00     0.005 A 
HETATM   11  C19 UNL     1     -11.743  -8.503 -16.394  1.00  0.00     0.022 A 
HETATM   12  C20 UNL     1     -12.202  -8.039 -15.204  1.00  0.00    -0.053 A 
HETATM   13  C24 UNL     1     -12.959  -6.864 -15.172  1.00  0.00     0.010 A 
HETATM   14  C25 UNL     1     -13.249  -6.168 -16.326  1.00  0.00     0.031 A 
HETATM   15  C26 UNL     1     -12.783  -6.638 -17.545  1.00  0.00     0.046 A 
ENDROOT
BRANCH   1  16
HETATM   16  C3  UNL     1     -13.608  -4.997 -19.232  1.00  0.00     0.140 C 
BRANCH  16  17
HETATM   17  C2  UNL     1     -15.005  -5.337 -19.741  1.00  0.00     0.133 C 
BRANCH  17  18
HETATM   18  C1  UNL     1     -15.908  -5.719 -18.641  1.00  0.00     0.174 C 
HETATM   19  O1  UNL     1     -16.430  -4.918 -17.832  1.00  0.00    -0.648 OA
HETATM   20  O2  UNL     1     -16.202  -7.060 -18.486  1.00  0.00    -0.648 OA
ENDBRANCH  17  18
ENDBRANCH  16  17
ENDBRANCH   1  16
BRANCH   9  21
HETATM   21  C12 UNL     1     -10.922  -9.151 -19.376  1.00  0.00    -0.023 A 
HETATM   22  C13 UNL     1     -11.515 -10.351 -19.677  1.00  0.00     0.012 A 
HETATM   23  C14 UNL     1     -10.724 -11.375 -20.148  1.00  0.00     0.001 A 
HETATM   24  C15 UNL     1      -9.362 -11.267 -20.336  1.00  0.00     0.000 A 
HETATM   25  C16 UNL     1      -8.767 -10.061 -20.032  1.00  0.00     0.001 A 
HETATM   26  C17 UNL     1      -9.563  -9.031 -19.559  1.00  0.00     0.012 A 
ENDBRANCH   9  21
BRANCH  12  27
HETATM   27  C21 UNL     1     -11.898  -8.780 -13.958  1.00  0.00     0.018 A 
HETATM   28  C22 UNL     1     -13.043  -9.300 -13.135  1.00  0.00     0.010 A 
HETATM   29  C23 UNL     1     -12.193 -10.239 -13.902  1.00  0.00     0.010 A 
ENDBRANCH  12  27
TORSDOF 5
ENDMDL
