MODEL 9
REMARK VINA RESULT: -8.308462665      1.236      1.959
REMARK  5 active torsions:
REMARK  status: ('A' for Active; 'I' for Inactive)
REMARK    1  A    between atoms: C1_2  and  C2_4 
REMARK    2  A    between atoms: C2_4  and  C3_5 
REMARK    3  A    between atoms: C3_5  and  N1_6 
REMARK    4  A    between atoms: C11_14  and  C12_15 
REMARK    5  A    between atoms: C20_23  and  C21_24 
ROOT
HETATM    1  N1  UNL     1     -10.679  -8.213 -18.868  1.00  0.00    -0.344 N 
HETATM    2  C4  UNL     1     -11.781  -7.928 -18.151  1.00  0.00     0.057 A 
HETATM    3  C5  UNL     1     -12.036  -8.264 -16.775  1.00  0.00    -0.008 A 
HETATM    4  C6  UNL     1     -12.215  -7.293 -15.807  1.00  0.00     0.014 A 
HETATM    5  C7  UNL     1     -12.462  -7.589 -14.481  1.00  0.00     0.001 A 
HETATM    6  C8  UNL     1     -12.537  -8.918 -14.084  1.00  0.00     0.000 A 
HETATM    7  C9  UNL     1     -12.358  -9.899 -15.051  1.00  0.00     0.001 A 
HETATM    8  C10 UNL     1     -12.112  -9.580 -16.371  1.00  0.00     0.014 A 
HETATM    9  C11 UNL     1     -12.668  -7.234 -18.964  1.00  0.00     0.014 A 
HETATM   10  C18 UNL     1     -12.078  -7.095 -20.223  1.00  0.00     0.005 A 
HETATM   11  C19 UNL     1     -12.530  -6.496 -21.375  1.00  0.00     0.022 A 
HETATM   12  C20 UNL     1     -11.734  -6.509 -22.474  1.00  0.00    -0.053 A 
HETATM   13  C24 UNL     1     -10.482  -7.127 -22.409  1.00  0.00     0.010 A 
HETATM   14  C25 UNL     1     -10.040  -7.724 -21.247  1.00  0.00     0.031 A 
HETATM   15  C26 UNL     1     -10.848  -7.715 -20.121  1.00  0.00     0.046 A 
ENDROOT
BRANCH   1  16
HETATM   16  C3  UNL     1      -9.541  -8.921 -18.373  1.00  0.00     0.140 C 
BRANCH  16  17
HETATM   17  C2  UNL     1      -8.489  -7.963 -17.825  1.00  0.00     0.133 C 
BRANCH  17  18
HETATM   18  C1  UNL     1      -8.291  -8.141 -16.376  1.00  0.00     0.174 C 
HETATM   19  O1  UNL     1      -7.845  -7.262 -15.602  1.00  0.00    -0.648 OA
HETATM   20  O2  UNL     1      -8.618  -9.365 -15.826  1.00  0.00    -0.648 OA
ENDBRANCH  17  18
ENDBRANCH  16  17
ENDBRANCH   1  16
BRANCH   9  21
HETATM   21  C12 UNL     1     -13.977  -6.739 -18.576  1.00  0.00    -0.023 A 
HETATM   22  C13 UNL     1     -14.238  -5.393 -18.531  1.00  0.00     0.012 A 
HETATM   23  C14 UNL     1     -15.497  -4.978 -18.157  1.00  0.00     0.001 A 
HETATM   24  C15 UNL     1     -16.519  -5.841 -17.821  1.00  0.00     0.000 A 
HETATM   25  C16 UNL     1     -16.256  -7.194 -17.866  1.00  0.00     0.001 A 
HETATM   26  C17 UNL     1     -14.991  -7.610 -18.243  1.00  0.00     0.012 A 
ENDBRANCH   9  21
BRANCH  12  27
HETATM   27  C21 UNL     1     -12.201  -5.872 -23.727  1.00  0.00     0.018 A 
HETATM   28  C22 UNL     1     -12.256  -6.703 -24.978  1.00  0.00     0.010 A 
HETATM   29  C23 UNL     1     -13.508  -6.294 -24.303  1.00  0.00     0.010 A 
ENDBRANCH  12  27
TORSDOF 5
ENDMDL
