MODEL 1
REMARK VINA RESULT: -10.317719027      0.000      0.000
REMARK  5 active torsions:
REMARK  status: ('A' for Active; 'I' for Inactive)
REMARK    1  A    between atoms: C1_2  and  C2_4 
REMARK    2  A    between atoms: C2_4  and  C3_5 
REMARK    3  A    between atoms: C3_5  and  N1_6 
REMARK    4  A    between atoms: C11_14  and  C12_15 
REMARK    5  A    between atoms: C20_23  and  C21_24 
ROOT
HETATM    1  N1  UNL     1     -10.217  -8.431 -17.228  1.00  0.00    -0.344 N 
HETATM    2  C4  UNL     1     -11.478  -8.146 -16.857  1.00  0.00     0.057 A 
HETATM    3  C5  UNL     1     -12.077  -8.363 -15.567  1.00  0.00    -0.008 A 
HETATM    4  C6  UNL     1     -12.539  -7.315 -14.791  1.00  0.00     0.014 A 
HETATM    5  C7  UNL     1     -13.118  -7.496 -13.550  1.00  0.00     0.001 A 
HETATM    6  C8  UNL     1     -13.249  -8.783 -13.042  1.00  0.00     0.000 A 
HETATM    7  C9  UNL     1     -12.788  -9.840 -13.816  1.00  0.00     0.001 A 
HETATM    8  C10 UNL     1     -12.212  -9.636 -15.054  1.00  0.00     0.014 A 
HETATM    9  C11 UNL     1     -12.142  -7.591 -17.944  1.00  0.00     0.014 A 
HETATM   10  C18 UNL     1     -11.245  -7.539 -19.014  1.00  0.00     0.005 A 
HETATM   11  C19 UNL     1     -11.396  -7.084 -20.303  1.00  0.00     0.022 A 
HETATM   12  C20 UNL     1     -10.338  -7.154 -21.149  1.00  0.00    -0.053 A 
HETATM   13  C24 UNL     1      -9.127  -7.683 -20.694  1.00  0.00     0.010 A 
HETATM   14  C25 UNL     1      -8.988  -8.137 -19.399  1.00  0.00     0.031 A 
HETATM   15  C26 UNL     1     -10.066  -8.068 -18.529  1.00  0.00     0.046 A 
ENDROOT
BRANCH   1  16
HETATM   16  C3  UNL     1      -9.228  -9.017 -16.380  1.00  0.00     0.140 C 
BRANCH  16  17
HETATM   17  C2  UNL     1      -8.310  -7.953 -15.785  1.00  0.00     0.133 C 
BRANCH  17  18
HETATM   18  C1  UNL     1      -8.860  -7.395 -14.537  1.00  0.00     0.174 C 
HETATM   19  O1  UNL     1      -9.033  -8.043 -13.478  1.00  0.00    -0.648 OA
HETATM   20  O2  UNL     1      -9.213  -6.059 -14.529  1.00  0.00    -0.648 OA
ENDBRANCH  17  18
ENDBRANCH  16  17
ENDBRANCH   1  16
BRANCH   9  21
HETATM   21  C12 UNL     1     -13.523  -7.143 -17.966  1.00  0.00    -0.023 A 
HETATM   22  C13 UNL     1     -14.558  -8.037 -17.857  1.00  0.00     0.012 A 
HETATM   23  C14 UNL     1     -15.849  -7.557 -17.885  1.00  0.00     0.001 A 
HETATM   24  C15 UNL     1     -16.166  -6.222 -18.018  1.00  0.00     0.000 A 
HETATM   25  C16 UNL     1     -15.126  -5.324 -18.129  1.00  0.00     0.001 A 
HETATM   26  C17 UNL     1     -13.829  -5.806 -18.101  1.00  0.00     0.012 A 
ENDBRANCH   9  21
BRANCH  12  27
HETATM   27  C21 UNL     1     -10.478  -6.671 -22.543  1.00  0.00     0.018 A 
HETATM   28  C22 UNL     1     -10.258  -7.646 -23.666  1.00  0.00     0.010 A 
HETATM   29  C23 UNL     1     -11.623  -7.161 -23.360  1.00  0.00     0.010 A 
ENDBRANCH  12  27
TORSDOF 5
ENDMDL
