MODEL 7
REMARK VINA RESULT: -8.355155094      2.178      5.863
REMARK  7 active torsions:
REMARK  status: ('A' for Active; 'I' for Inactive)
REMARK    1  A    between atoms: O1_2  and  C2_3 
REMARK    2  A    between atoms: C6_9  and  C7_10 
REMARK    3  A    between atoms: C8_11  and  C9_12 
REMARK    4  A    between atoms: N2_18  and  C15_19 
REMARK    5  A    between atoms: C15_19  and  C16_20 
REMARK    6  A    between atoms: C16_20  and  C17_21 
REMARK    7  A    between atoms: C21_27  and  C22_28 
ROOT
HETATM    1  C7  UNL     1       3.550   7.251  18.194  1.00  0.00     0.017 A 
HETATM    2  C8  UNL     1       4.392   7.195  19.300  1.00  0.00     0.057 A 
HETATM    3  N2  UNL     1       5.629   7.381  18.810  1.00  0.00    -0.344 N 
HETATM    4  C18 UNL     1       5.589   7.549  17.458  1.00  0.00     0.046 A 
HETATM    5  C19 UNL     1       6.538   7.768  16.485  1.00  0.00     0.031 A 
HETATM    6  C20 UNL     1       6.214   7.904  15.152  1.00  0.00     0.010 A 
HETATM    7  C21 UNL     1       4.884   7.822  14.747  1.00  0.00    -0.053 A 
HETATM    8  C25 UNL     1       3.932   7.604  15.706  1.00  0.00     0.022 A 
HETATM    9  C26 UNL     1       4.277   7.470  17.041  1.00  0.00     0.005 A 
ENDROOT
BRANCH   1  10
HETATM   10  C6  UNL     1       2.102   7.098  18.257  1.00  0.00     0.013 A 
HETATM   11  C2  UNL     1       1.577   5.818  18.220  1.00  0.00     0.094 A 
HETATM   12  C3  UNL     1       0.200   5.692  18.280  1.00  0.00     0.125 A 
HETATM   13  N1  UNL     1      -0.598   6.770  18.371  1.00  0.00    -0.373 N 
HETATM   14  C4  UNL     1      -0.086   8.011  18.407  1.00  0.00     0.088 A 
ATOM     15  H1  UNL     1      -1.609   6.643  18.414  1.00  0.00     0.164 HD
HETATM   16  C5  UNL     1       1.271   8.199  18.351  1.00  0.00     0.032 A 
BRANCH  11  17
HETATM   17  O1  UNL     1       2.431   4.721  18.126  1.00  0.00    -0.354 OA
HETATM   18  C1  UNL     1       2.027   3.497  18.731  1.00  0.00     0.210 C 
ENDBRANCH  11  17
ENDBRANCH   1  10
BRANCH   2  19
HETATM   19  C9  UNL     1       3.944   6.983  20.681  1.00  0.00    -0.008 A 
HETATM   20  C10 UNL     1       4.038   8.000  21.619  1.00  0.00     0.014 A 
HETATM   21  C11 UNL     1       3.632   7.866  22.932  1.00  0.00     0.001 A 
HETATM   22  C12 UNL     1       3.103   6.657  23.340  1.00  0.00     0.000 A 
HETATM   23  C13 UNL     1       2.994   5.619  22.430  1.00  0.00     0.001 A 
HETATM   24  C14 UNL     1       3.411   5.792  21.124  1.00  0.00     0.014 A 
ENDBRANCH   2  19
BRANCH   3  25
HETATM   25  C15 UNL     1       6.842   7.395  19.570  1.00  0.00     0.140 C 
BRANCH  25  26
HETATM   26  C16 UNL     1       7.447   8.785  19.691  1.00  0.00     0.133 C 
BRANCH  26  27
HETATM   27  C17 UNL     1       7.779   9.157  21.078  1.00  0.00     0.174 C 
HETATM   28  O2  UNL     1       8.512  10.170  21.269  1.00  0.00    -0.648 OA
HETATM   29  O3  UNL     1       7.325   8.446  22.179  1.00  0.00    -0.648 OA
ENDBRANCH  26  27
ENDBRANCH  25  26
ENDBRANCH   3  25
BRANCH   7  30
HETATM   30  C22 UNL     1       4.494   7.962  13.325  1.00  0.00     0.018 A 
HETATM   31  C23 UNL     1       3.144   7.514  12.904  1.00  0.00     0.010 A 
HETATM   32  C24 UNL     1       3.497   8.997  12.940  1.00  0.00     0.010 A 
ENDBRANCH   7  30
TORSDOF 7
ENDMDL
