MODEL 4
REMARK VINA RESULT: -8.792007868      2.598      7.149
REMARK  7 active torsions:
REMARK  status: ('A' for Active; 'I' for Inactive)
REMARK    1  A    between atoms: O1_2  and  C2_3 
REMARK    2  A    between atoms: C6_9  and  C7_10 
REMARK    3  A    between atoms: C8_11  and  C9_12 
REMARK    4  A    between atoms: N2_18  and  C15_19 
REMARK    5  A    between atoms: C15_19  and  C16_20 
REMARK    6  A    between atoms: C16_20  and  C17_21 
REMARK    7  A    between atoms: C21_27  and  C22_28 
ROOT
HETATM    1  C7  UNL     1       4.634   8.028  18.983  1.00  0.00     0.017 A 
HETATM    2  C8  UNL     1       4.161   6.991  19.780  1.00  0.00     0.057 A 
HETATM    3  N2  UNL     1       3.583   6.128  18.927  1.00  0.00    -0.344 N 
HETATM    4  C18 UNL     1       3.678   6.584  17.646  1.00  0.00     0.046 A 
HETATM    5  C19 UNL     1       3.268   6.109  16.421  1.00  0.00     0.031 A 
HETATM    6  C20 UNL     1       3.501   6.792  15.246  1.00  0.00     0.010 A 
HETATM    7  C21 UNL     1       4.174   8.012  15.271  1.00  0.00    -0.053 A 
HETATM    8  C25 UNL     1       4.585   8.494  16.484  1.00  0.00     0.022 A 
HETATM    9  C26 UNL     1       4.343   7.792  17.655  1.00  0.00     0.005 A 
ENDROOT
BRANCH   1  10
HETATM   10  C6  UNL     1       5.339   9.198  19.493  1.00  0.00     0.013 A 
HETATM   11  C2  UNL     1       4.622  10.369  19.668  1.00  0.00     0.094 A 
HETATM   12  C3  UNL     1       5.308  11.469  20.152  1.00  0.00     0.125 A 
HETATM   13  N1  UNL     1       6.618  11.405  20.442  1.00  0.00    -0.373 N 
HETATM   14  C4  UNL     1       7.312  10.268  20.272  1.00  0.00     0.088 A 
ATOM     15  H1  UNL     1       7.095  12.234  20.797  1.00  0.00     0.164 HD
HETATM   16  C5  UNL     1       6.686   9.144  19.795  1.00  0.00     0.032 A 
BRANCH  11  17
HETATM   17  O1  UNL     1       3.264  10.403  19.358  1.00  0.00    -0.354 OA
HETATM   18  C1  UNL     1       2.800  11.413  18.467  1.00  0.00     0.210 C 
ENDBRANCH  11  17
ENDBRANCH   1  10
BRANCH   2  19
HETATM   19  C9  UNL     1       4.309   6.923  21.238  1.00  0.00    -0.008 A 
HETATM   20  C10 UNL     1       5.567   6.872  21.820  1.00  0.00     0.014 A 
HETATM   21  C11 UNL     1       5.775   6.811  23.183  1.00  0.00     0.001 A 
HETATM   22  C12 UNL     1       4.675   6.799  24.019  1.00  0.00     0.000 A 
HETATM   23  C13 UNL     1       3.404   6.849  23.474  1.00  0.00     0.001 A 
HETATM   24  C14 UNL     1       3.237   6.910  22.103  1.00  0.00     0.014 A 
ENDBRANCH   2  19
BRANCH   3  25
HETATM   25  C15 UNL     1       2.938   4.900  19.281  1.00  0.00     0.140 C 
BRANCH  25  26
HETATM   26  C16 UNL     1       1.516   5.102  19.780  1.00  0.00     0.133 C 
BRANCH  26  27
HETATM   27  C17 UNL     1       0.590   5.560  18.730  1.00  0.00     0.174 C 
HETATM   28  O2  UNL     1       0.123   4.704  17.924  1.00  0.00    -0.648 OA
HETATM   29  O3  UNL     1       0.209   6.887  18.586  1.00  0.00    -0.648 OA
ENDBRANCH  26  27
ENDBRANCH  25  26
ENDBRANCH   3  25
BRANCH   7  30
HETATM   30  C22 UNL     1       4.443   8.777  14.033  1.00  0.00     0.018 A 
HETATM   31  C23 UNL     1       3.334   9.001  13.074  1.00  0.00     0.010 A 
HETATM   32  C24 UNL     1       3.900  10.155  13.894  1.00  0.00     0.010 A 
ENDBRANCH   7  30
TORSDOF 7
ENDMDL
