MODEL 1
REMARK VINA RESULT: -9.641519621      0.000      0.000
REMARK  7 active torsions:
REMARK  status: ('A' for Active; 'I' for Inactive)
REMARK    1  A    between atoms: O1_2  and  C2_3 
REMARK    2  A    between atoms: C6_9  and  C7_10 
REMARK    3  A    between atoms: C8_11  and  C9_12 
REMARK    4  A    between atoms: N2_18  and  C15_19 
REMARK    5  A    between atoms: C15_19  and  C16_20 
REMARK    6  A    between atoms: C16_20  and  C17_21 
REMARK    7  A    between atoms: C21_27  and  C22_28 
ROOT
HETATM    1  C7  UNL     1       3.594   7.691  17.995  1.00  0.00     0.017 A 
HETATM    2  C8  UNL     1       4.436   8.150  16.988  1.00  0.00     0.057 A 
HETATM    3  N2  UNL     1       5.662   8.174  17.538  1.00  0.00    -0.344 N 
HETATM    4  C18 UNL     1       5.615   7.752  18.832  1.00  0.00     0.046 A 
HETATM    5  C19 UNL     1       6.552   7.587  19.827  1.00  0.00     0.031 A 
HETATM    6  C20 UNL     1       6.223   7.131  21.086  1.00  0.00     0.010 A 
HETATM    7  C21 UNL     1       4.900   6.819  21.390  1.00  0.00    -0.053 A 
HETATM    8  C25 UNL     1       3.960   6.980  20.408  1.00  0.00     0.022 A 
HETATM    9  C26 UNL     1       4.309   7.439  19.148  1.00  0.00     0.005 A 
ENDROOT
BRANCH   1  10
HETATM   10  C6  UNL     1       2.156   7.506  17.842  1.00  0.00     0.013 A 
HETATM   11  C2  UNL     1       1.672   6.216  17.723  1.00  0.00     0.094 A 
HETATM   12  C3  UNL     1       0.305   6.059  17.577  1.00  0.00     0.125 A 
HETATM   13  N1  UNL     1      -0.522   7.118  17.551  1.00  0.00    -0.373 N 
HETATM   14  C4  UNL     1      -0.050   8.370  17.666  1.00  0.00     0.088 A 
ATOM     15  H1  UNL     1      -1.525   6.969  17.442  1.00  0.00     0.164 HD
HETATM   16  C5  UNL     1       1.296   8.588  17.813  1.00  0.00     0.032 A 
BRANCH  11  17
HETATM   17  O1  UNL     1       2.556   5.138  17.754  1.00  0.00    -0.354 OA
HETATM   18  C1  UNL     1       2.322   4.101  18.702  1.00  0.00     0.210 C 
ENDBRANCH  11  17
ENDBRANCH   1  10
BRANCH   2  19
HETATM   19  C9  UNL     1       4.001   8.505  15.632  1.00  0.00    -0.008 A 
HETATM   20  C10 UNL     1       3.830   9.833  15.269  1.00  0.00     0.014 A 
HETATM   21  C11 UNL     1       3.427  10.235  14.012  1.00  0.00     0.001 A 
HETATM   22  C12 UNL     1       3.178   9.267  13.058  1.00  0.00     0.000 A 
HETATM   23  C13 UNL     1       3.337   7.931  13.384  1.00  0.00     0.001 A 
HETATM   24  C14 UNL     1       3.743   7.569  14.655  1.00  0.00     0.014 A 
ENDBRANCH   2  19
BRANCH   3  25
HETATM   25  C15 UNL     1       6.867   8.590  16.887  1.00  0.00     0.140 C 
BRANCH  25  26
HETATM   26  C16 UNL     1       7.632   7.432  16.265  1.00  0.00     0.133 C 
BRANCH  26  27
HETATM   27  C17 UNL     1       7.171   7.091  14.908  1.00  0.00     0.174 C 
HETATM   28  O2  UNL     1       6.769   5.913  14.688  1.00  0.00    -0.648 OA
HETATM   29  O3  UNL     1       7.161   8.005  13.863  1.00  0.00    -0.648 OA
ENDBRANCH  26  27
ENDBRANCH  25  26
ENDBRANCH   3  25
BRANCH   7  30
HETATM   30  C22 UNL     1       4.505   6.327  22.729  1.00  0.00     0.018 A 
HETATM   31  C23 UNL     1       4.924   7.096  23.927  1.00  0.00     0.010 A 
HETATM   32  C24 UNL     1       3.462   7.060  23.497  1.00  0.00     0.010 A 
ENDBRANCH   7  30
TORSDOF 7
ENDMDL
