MODEL 2
REMARK VINA RESULT: -8.904559769      1.180      1.929
REMARK  7 active torsions:
REMARK  status: ('A' for Active; 'I' for Inactive)
REMARK    1  A    between atoms: O1_2  and  C2_3 
REMARK    2  A    between atoms: C6_9  and  C7_10 
REMARK    3  A    between atoms: C8_11  and  C9_12 
REMARK    4  A    between atoms: N2_18  and  C15_19 
REMARK    5  A    between atoms: C15_19  and  C16_20 
REMARK    6  A    between atoms: C16_20  and  C17_21 
REMARK    7  A    between atoms: C21_27  and  C22_28 
ROOT
HETATM    1  C7  UNL     1       3.803   7.840  17.808  1.00  0.00     0.017 A 
HETATM    2  C8  UNL     1       4.589   8.121  16.696  1.00  0.00     0.057 A 
HETATM    3  N2  UNL     1       5.855   8.104  17.147  1.00  0.00    -0.344 N 
HETATM    4  C18 UNL     1       5.885   7.824  18.480  1.00  0.00     0.046 A 
HETATM    5  C19 UNL     1       6.887   7.689  19.414  1.00  0.00     0.031 A 
HETATM    6  C20 UNL     1       6.631   7.395  20.737  1.00  0.00     0.010 A 
HETATM    7  C21 UNL     1       5.318   7.224  21.172  1.00  0.00    -0.053 A 
HETATM    8  C25 UNL     1       4.314   7.358  20.251  1.00  0.00     0.022 A 
HETATM    9  C26 UNL     1       4.591   7.652  18.925  1.00  0.00     0.005 A 
ENDROOT
BRANCH   1  10
HETATM   10  C6  UNL     1       2.347   7.756  17.784  1.00  0.00     0.013 A 
HETATM   11  C2  UNL     1       1.626   8.933  17.678  1.00  0.00     0.094 A 
HETATM   12  C3  UNL     1       0.246   8.835  17.658  1.00  0.00     0.125 A 
HETATM   13  N1  UNL     1      -0.372   7.644  17.736  1.00  0.00    -0.373 N 
HETATM   14  C4  UNL     1       0.330   6.504  17.839  1.00  0.00     0.088 A 
ATOM     15  H1  UNL     1      -1.390   7.605  17.718  1.00  0.00     0.164 HD
HETATM   16  C5  UNL     1       1.701   6.538  17.864  1.00  0.00     0.032 A 
BRANCH  11  17
HETATM   17  O1  UNL     1       2.297  10.152  17.598  1.00  0.00    -0.354 OA
HETATM   18  C1  UNL     1       2.713  10.774  18.810  1.00  0.00     0.210 C 
ENDBRANCH  11  17
ENDBRANCH   1  10
BRANCH   2  19
HETATM   19  C9  UNL     1       4.070   8.367  15.346  1.00  0.00    -0.008 A 
HETATM   20  C10 UNL     1       4.011   9.655  14.834  1.00  0.00     0.014 A 
HETATM   21  C11 UNL     1       3.538   9.953  13.572  1.00  0.00     0.001 A 
HETATM   22  C12 UNL     1       3.097   8.918  12.771  1.00  0.00     0.000 A 
HETATM   23  C13 UNL     1       3.140   7.619  13.248  1.00  0.00     0.001 A 
HETATM   24  C14 UNL     1       3.622   7.361  14.517  1.00  0.00     0.014 A 
ENDBRANCH   2  19
BRANCH   3  25
HETATM   25  C15 UNL     1       7.029   8.350  16.366  1.00  0.00     0.140 C 
BRANCH  25  26
HETATM   26  C16 UNL     1       7.743   7.073  15.953  1.00  0.00     0.133 C 
BRANCH  26  27
HETATM   27  C17 UNL     1       6.959   6.244  15.020  1.00  0.00     0.174 C 
HETATM   28  O2  UNL     1       6.832   6.639  13.826  1.00  0.00    -0.648 OA
HETATM   29  O3  UNL     1       6.355   5.052  15.395  1.00  0.00    -0.648 OA
ENDBRANCH  26  27
ENDBRANCH  25  26
ENDBRANCH   3  25
BRANCH   7  30
HETATM   30  C22 UNL     1       5.002   6.909  22.583  1.00  0.00     0.018 A 
HETATM   31  C23 UNL     1       3.771   7.477  23.185  1.00  0.00     0.010 A 
HETATM   32  C24 UNL     1       3.877   5.985  22.890  1.00  0.00     0.010 A 
ENDBRANCH   7  30
TORSDOF 7
ENDMDL
