MODEL 5
REMARK VINA RESULT: -8.757616964      2.263      7.060
REMARK  7 active torsions:
REMARK  status: ('A' for Active; 'I' for Inactive)
REMARK    1  A    between atoms: O1_2  and  C2_3 
REMARK    2  A    between atoms: C6_9  and  C7_10 
REMARK    3  A    between atoms: C8_11  and  C9_12 
REMARK    4  A    between atoms: N2_18  and  C15_19 
REMARK    5  A    between atoms: C15_19  and  C16_20 
REMARK    6  A    between atoms: C16_20  and  C17_21 
REMARK    7  A    between atoms: C21_27  and  C22_28 
ROOT
HETATM    1  C7  UNL     1       4.412   8.027  18.808  1.00  0.00     0.017 A 
HETATM    2  C8  UNL     1       4.004   6.967  19.611  1.00  0.00     0.057 A 
HETATM    3  N2  UNL     1       3.515   6.049  18.759  1.00  0.00    -0.344 N 
HETATM    4  C18 UNL     1       3.604   6.493  17.474  1.00  0.00     0.046 A 
HETATM    5  C19 UNL     1       3.261   5.969  16.248  1.00  0.00     0.031 A 
HETATM    6  C20 UNL     1       3.466   6.653  15.067  1.00  0.00     0.010 A 
HETATM    7  C21 UNL     1       4.040   7.922  15.088  1.00  0.00    -0.053 A 
HETATM    8  C25 UNL     1       4.384   8.452  16.302  1.00  0.00     0.022 A 
HETATM    9  C26 UNL     1       4.171   7.750  17.478  1.00  0.00     0.005 A 
ENDROOT
BRANCH   1  10
HETATM   10  C6  UNL     1       5.011   9.256  19.315  1.00  0.00     0.013 A 
HETATM   11  C2  UNL     1       6.388   9.311  19.436  1.00  0.00     0.094 A 
HETATM   12  C3  UNL     1       6.939  10.485  19.920  1.00  0.00     0.125 A 
HETATM   13  N1  UNL     1       6.167  11.532  20.259  1.00  0.00    -0.373 N 
HETATM   14  C4  UNL     1       4.831  11.476  20.140  1.00  0.00     0.088 A 
ATOM     15  H1  UNL     1       6.604  12.383  20.612  1.00  0.00     0.164 HD
HETATM   16  C5  UNL     1       4.228  10.339  19.666  1.00  0.00     0.032 A 
BRANCH  11  17
HETATM   17  O1  UNL     1       7.160   8.208  19.076  1.00  0.00    -0.354 OA
HETATM   18  C1  UNL     1       8.445   8.060  19.672  1.00  0.00     0.210 C 
ENDBRANCH  11  17
ENDBRANCH   1  10
BRANCH   2  19
HETATM   19  C9  UNL     1       4.123   6.932  21.072  1.00  0.00    -0.008 A 
HETATM   20  C10 UNL     1       5.369   6.866  21.679  1.00  0.00     0.014 A 
HETATM   21  C11 UNL     1       5.551   6.834  23.047  1.00  0.00     0.001 A 
HETATM   22  C12 UNL     1       4.436   6.868  23.862  1.00  0.00     0.000 A 
HETATM   23  C13 UNL     1       3.176   6.934  23.292  1.00  0.00     0.001 A 
HETATM   24  C14 UNL     1       3.036   6.965  21.917  1.00  0.00     0.014 A 
ENDBRANCH   2  19
BRANCH   3  25
HETATM   25  C15 UNL     1       2.962   4.779  19.119  1.00  0.00     0.140 C 
BRANCH  25  26
HETATM   26  C16 UNL     1       1.546   4.885  19.663  1.00  0.00     0.133 C 
BRANCH  26  27
HETATM   27  C17 UNL     1       0.601   5.499  18.714  1.00  0.00     0.174 C 
HETATM   28  O2  UNL     1       0.104   4.774  17.805  1.00  0.00    -0.648 OA
HETATM   29  O3  UNL     1       0.235   6.837  18.772  1.00  0.00    -0.648 OA
ENDBRANCH  26  27
ENDBRANCH  25  26
ENDBRANCH   3  25
BRANCH   7  30
HETATM   30  C22 UNL     1       4.276   8.688  13.843  1.00  0.00     0.018 A 
HETATM   31  C23 UNL     1       3.118   9.032  12.983  1.00  0.00     0.010 A 
HETATM   32  C24 UNL     1       3.850  10.112  13.772  1.00  0.00     0.010 A 
ENDBRANCH   7  30
TORSDOF 7
ENDMDL
