MODEL 4
REMARK VINA RESULT: -10.307247643      0.936      1.113
REMARK  8 active torsions:
REMARK  status: ('A' for Active; 'I' for Inactive)
REMARK    1  A    between atoms: C5_9  and  C6_10 
REMARK    2  A    between atoms: C7_11  and  C8_12 
REMARK    3  A    between atoms: C12_16  and  O1_17 
REMARK    4  A    between atoms: O1_17  and  C13_18 
REMARK    5  A    between atoms: N3_22  and  C17_23 
REMARK    6  A    between atoms: C17_23  and  C18_24 
REMARK    7  A    between atoms: C18_24  and  C19_25 
REMARK    8  A    between atoms: C23_31  and  C24_32 
ROOT
HETATM    1  C6  UNL     1       3.365   7.920  18.515  1.00  0.00     0.018 A 
HETATM    2  C7  UNL     1       4.323   7.784  17.523  1.00  0.00     0.057 A 
HETATM    3  N3  UNL     1       5.512   7.448  18.043  1.00  0.00    -0.344 N 
HETATM    4  C20 UNL     1       5.341   7.359  19.394  1.00  0.00     0.046 A 
HETATM    5  C21 UNL     1       6.168   7.054  20.440  1.00  0.00     0.031 A 
HETATM    6  C22 UNL     1       5.691   7.037  21.755  1.00  0.00     0.010 A 
HETATM    7  C23 UNL     1       4.373   7.329  22.027  1.00  0.00    -0.053 A 
HETATM    8  C27 UNL     1       3.549   7.632  20.988  1.00  0.00     0.022 A 
HETATM    9  C28 UNL     1       4.026   7.646  19.699  1.00  0.00     0.005 A 
ENDROOT
BRANCH   2  10
HETATM   10  C8  UNL     1       4.051   7.958  16.100  1.00  0.00    -0.006 A 
HETATM   11  C9  UNL     1       3.540   6.922  15.369  1.00  0.00     0.014 A 
HETATM   12  C10 UNL     1       3.288   7.126  14.027  1.00  0.00     0.004 A 
HETATM   13  C11 UNL     1       3.552   8.355  13.438  1.00  0.00     0.037 A 
HETATM   14  C12 UNL     1       4.067   9.419  14.145  1.00  0.00     0.070 A 
HETATM   15  C16 UNL     1       4.304   9.172  15.495  1.00  0.00     0.050 A 
BRANCH  14  16
HETATM   16  O1  UNL     1       4.346  10.659  13.600  1.00  0.00    -0.347 OA
BRANCH  16  17
HETATM   17  C13 UNL     1       3.641  11.840  13.757  1.00  0.00     0.120 C 
HETATM   18  C14 UNL     1       2.173  11.633  14.038  1.00  0.00     0.040 C 
HETATM   19  C15 UNL     1       4.223  12.529  14.995  1.00  0.00     0.040 C 
ENDBRANCH  16  17
ENDBRANCH  14  16
ENDBRANCH   2  10
BRANCH   1  20
HETATM   20  C5  UNL     1       1.956   8.264  18.357  1.00  0.00     0.025 A 
HETATM   21  C2  UNL     1       1.391   9.510  18.239  1.00  0.00     0.035 A 
HETATM   22  C1  UNL     1       2.113  10.834  18.239  1.00  0.00     0.070 C 
HETATM   23  N1  UNL     1       0.068   9.357  18.117  1.00  0.00    -0.304 N 
HETATM   24  N2  UNL     1      -0.200   8.056  18.158  1.00  0.00    -0.304 N 
ATOM     25  H1  UNL     1      -0.616  10.107  18.012  1.00  0.00     0.186 HD
HETATM   26  C3  UNL     1       0.931   7.358  18.304  1.00  0.00     0.035 A 
ATOM     27  H2  UNL     1      -1.132   7.650  18.088  1.00  0.00     0.186 HD
HETATM   28  C4  UNL     1       1.014   5.887  18.389  1.00  0.00     0.070 C 
ENDBRANCH   1  20
BRANCH   3  29
HETATM   29  C17 UNL     1       6.805   7.208  17.451  1.00  0.00     0.140 C 
BRANCH  29  30
HETATM   30  C18 UNL     1       7.019   5.768  17.034  1.00  0.00     0.133 C 
BRANCH  30  31
HETATM   31  C19 UNL     1       6.932   5.672  15.543  1.00  0.00     0.174 C 
HETATM   32  O2  UNL     1       6.785   4.552  14.999  1.00  0.00    -0.648 OA
HETATM   33  O3  UNL     1       7.007   6.784  14.713  1.00  0.00    -0.648 OA
ENDBRANCH  30  31
ENDBRANCH  29  30
ENDBRANCH   3  29
BRANCH   7  34
HETATM   34  C24 UNL     1       3.811   7.316  23.392  1.00  0.00     0.018 A 
HETATM   35  C25 UNL     1       4.622   6.474  24.372  1.00  0.00     0.010 A 
HETATM   36  C26 UNL     1       3.234   6.111  23.999  1.00  0.00     0.010 A 
ENDBRANCH   7  34
TORSDOF 8
ENDMDL
