MODEL 1
REMARK VINA RESULT: -10.837525247      0.000      0.000
REMARK  8 active torsions:
REMARK  status: ('A' for Active; 'I' for Inactive)
REMARK    1  A    between atoms: C5_9  and  C6_10 
REMARK    2  A    between atoms: C7_11  and  C8_12 
REMARK    3  A    between atoms: C12_16  and  O1_17 
REMARK    4  A    between atoms: O1_17  and  C13_18 
REMARK    5  A    between atoms: N3_22  and  C17_23 
REMARK    6  A    between atoms: C17_23  and  C18_24 
REMARK    7  A    between atoms: C18_24  and  C19_25 
REMARK    8  A    between atoms: C23_31  and  C24_32 
ROOT
HETATM    1  C6  UNL     1       3.387   7.944  18.123  1.00  0.00     0.018 A 
HETATM    2  C7  UNL     1       4.352   8.184  17.158  1.00  0.00     0.057 A 
HETATM    3  N3  UNL     1       5.578   7.892  17.616  1.00  0.00    -0.344 N 
HETATM    4  C20 UNL     1       5.425   7.453  18.899  1.00  0.00     0.046 A 
HETATM    5  C21 UNL     1       6.289   7.015  19.864  1.00  0.00     0.031 A 
HETATM    6  C22 UNL     1       5.822   6.612  21.121  1.00  0.00     0.010 A 
HETATM    7  C23 UNL     1       4.478   6.650  21.415  1.00  0.00    -0.053 A 
HETATM    8  C27 UNL     1       3.617   7.085  20.456  1.00  0.00     0.022 A 
HETATM    9  C28 UNL     1       4.084   7.478  19.224  1.00  0.00     0.005 A 
ENDROOT
BRANCH   2  10
HETATM   10  C8  UNL     1       4.055   8.664  15.812  1.00  0.00    -0.006 A 
HETATM   11  C9  UNL     1       3.679   7.780  14.838  1.00  0.00     0.014 A 
HETATM   12  C10 UNL     1       3.398   8.272  13.578  1.00  0.00     0.004 A 
HETATM   13  C11 UNL     1       3.499   9.630  13.312  1.00  0.00     0.037 A 
HETATM   14  C12 UNL     1       3.875  10.546  14.269  1.00  0.00     0.070 A 
HETATM   15  C16 UNL     1       4.147  10.010  15.525  1.00  0.00     0.050 A 
BRANCH  14  16
HETATM   16  O1  UNL     1       3.990  11.907  14.048  1.00  0.00    -0.347 OA
BRANCH  16  17
HETATM   17  C13 UNL     1       3.045  12.892  14.273  1.00  0.00     0.120 C 
HETATM   18  C14 UNL     1       1.622  12.405  14.138  1.00  0.00     0.040 C 
HETATM   19  C15 UNL     1       3.213  13.328  15.731  1.00  0.00     0.040 C 
ENDBRANCH  16  17
ENDBRANCH  14  16
ENDBRANCH   2  10
BRANCH   1  20
HETATM   20  C5  UNL     1       1.944   8.124  18.010  1.00  0.00     0.025 A 
HETATM   21  C2  UNL     1       1.219   9.285  18.123  1.00  0.00     0.035 A 
HETATM   22  C1  UNL     1       1.761  10.667  18.389  1.00  0.00     0.070 C 
HETATM   23  N1  UNL     1      -0.073   8.987  17.952  1.00  0.00    -0.304 N 
HETATM   24  N2  UNL     1      -0.167   7.679  17.738  1.00  0.00    -0.304 N 
ATOM     25  H1  UNL     1      -0.850   9.647  17.981  1.00  0.00     0.186 HD
HETATM   26  C3  UNL     1       1.047   7.119  17.766  1.00  0.00     0.035 A 
ATOM     27  H2  UNL     1      -1.038   7.175  17.576  1.00  0.00     0.186 HD
HETATM   28  C4  UNL     1       1.323   5.683  17.570  1.00  0.00     0.070 C 
ENDBRANCH   1  20
BRANCH   3  29
HETATM   29  C17 UNL     1       6.889   7.980  17.024  1.00  0.00     0.140 C 
BRANCH  29  30
HETATM   30  C18 UNL     1       7.083   7.047  15.847  1.00  0.00     0.133 C 
BRANCH  30  31
HETATM   31  C19 UNL     1       6.752   5.649  16.271  1.00  0.00     0.174 C 
HETATM   32  O2  UNL     1       7.452   5.080  17.141  1.00  0.00    -0.648 OA
HETATM   33  O3  UNL     1       5.686   4.936  15.737  1.00  0.00    -0.648 OA
ENDBRANCH  30  31
ENDBRANCH  29  30
ENDBRANCH   3  29
BRANCH   7  34
HETATM   34  C24 UNL     1       3.927   6.229  22.718  1.00  0.00     0.018 A 
HETATM   35  C25 UNL     1       3.321   7.377  23.518  1.00  0.00     0.010 A 
HETATM   36  C26 UNL     1       4.516   6.642  23.997  1.00  0.00     0.010 A 
ENDBRANCH   7  34
TORSDOF 8
ENDMDL
