MODEL 18
REMARK VINA RESULT: -8.487676629      2.694      6.889
REMARK  8 active torsions:
REMARK  status: ('A' for Active; 'I' for Inactive)
REMARK    1  A    between atoms: C5_9  and  C6_10 
REMARK    2  A    between atoms: C7_11  and  C8_12 
REMARK    3  A    between atoms: C12_16  and  O1_17 
REMARK    4  A    between atoms: O1_17  and  C13_18 
REMARK    5  A    between atoms: N3_22  and  C17_23 
REMARK    6  A    between atoms: C17_23  and  C18_24 
REMARK    7  A    between atoms: C18_24  and  C19_25 
REMARK    8  A    between atoms: C23_31  and  C24_32 
ROOT
HETATM    1  C6  UNL     1       3.059   8.821  17.775  1.00  0.00     0.018 A 
HETATM    2  C7  UNL     1       3.887   8.643  18.872  1.00  0.00     0.057 A 
HETATM    3  N3  UNL     1       4.828   9.596  18.927  1.00  0.00    -0.344 N 
HETATM    4  C20 UNL     1       4.622  10.416  17.856  1.00  0.00     0.046 A 
HETATM    5  C21 UNL     1       5.241  11.542  17.386  1.00  0.00     0.031 A 
HETATM    6  C22 UNL     1       4.786  12.186  16.230  1.00  0.00     0.010 A 
HETATM    7  C23 UNL     1       3.701  11.698  15.536  1.00  0.00    -0.053 A 
HETATM    8  C27 UNL     1       3.085  10.579  16.002  1.00  0.00     0.022 A 
HETATM    9  C28 UNL     1       3.538   9.952  17.139  1.00  0.00     0.005 A 
ENDROOT
BRANCH   2  10
HETATM   10  C8  UNL     1       3.725   7.570  19.848  1.00  0.00    -0.006 A 
HETATM   11  C9  UNL     1       3.747   6.265  19.441  1.00  0.00     0.014 A 
HETATM   12  C10 UNL     1       3.598   5.276  20.394  1.00  0.00     0.004 A 
HETATM   13  C11 UNL     1       3.428   5.606  21.731  1.00  0.00     0.037 A 
HETATM   14  C12 UNL     1       3.400   6.909  22.175  1.00  0.00     0.070 A 
HETATM   15  C16 UNL     1       3.556   7.874  21.183  1.00  0.00     0.050 A 
BRANCH  14  16
HETATM   16  O1  UNL     1       3.232   7.283  23.496  1.00  0.00    -0.347 OA
BRANCH  16  17
HETATM   17  C13 UNL     1       3.994   6.917  24.592  1.00  0.00     0.120 C 
HETATM   18  C14 UNL     1       3.659   5.547  25.128  1.00  0.00     0.040 C 
HETATM   19  C15 UNL     1       5.444   6.845  24.105  1.00  0.00     0.040 C 
ENDBRANCH  16  17
ENDBRANCH  14  16
ENDBRANCH   2  10
BRANCH   1  20
HETATM   20  C5  UNL     1       1.917   8.006  17.374  1.00  0.00     0.025 A 
HETATM   21  C2  UNL     1       1.895   6.930  16.522  1.00  0.00     0.035 A 
HETATM   22  C1  UNL     1       3.072   6.327  15.796  1.00  0.00     0.070 C 
HETATM   23  N1  UNL     1       0.636   6.489  16.440  1.00  0.00    -0.304 N 
HETATM   24  N2  UNL     1      -0.119   7.261  17.215  1.00  0.00    -0.304 N 
ATOM     25  H1  UNL     1       0.311   5.699  15.882  1.00  0.00     0.186 HD
HETATM   26  C3  UNL     1       0.631   8.199  17.802  1.00  0.00     0.035 A 
ATOM     27  H2  UNL     1      -1.125   7.153  17.343  1.00  0.00     0.186 HD
HETATM   28  C4  UNL     1       0.127   9.232  18.727  1.00  0.00     0.070 C 
ENDBRANCH   1  20
BRANCH   3  29
HETATM   29  C17 UNL     1       5.914   9.846  19.842  1.00  0.00     0.140 C 
BRANCH  29  30
HETATM   30  C18 UNL     1       7.069   8.880  19.686  1.00  0.00     0.133 C 
BRANCH  30  31
HETATM   31  C19 UNL     1       7.258   8.130  20.968  1.00  0.00     0.174 C 
HETATM   32  O2  UNL     1       7.008   6.903  21.014  1.00  0.00    -0.648 OA
HETATM   33  O3  UNL     1       7.706   8.739  22.134  1.00  0.00    -0.648 OA
ENDBRANCH  30  31
ENDBRANCH  29  30
ENDBRANCH   3  29
BRANCH   7  34
HETATM   34  C24 UNL     1       3.170  12.340  14.318  1.00  0.00     0.018 A 
HETATM   35  C25 UNL     1       2.185  13.468  14.609  1.00  0.00     0.010 A 
HETATM   36  C26 UNL     1       1.764  12.228  13.914  1.00  0.00     0.010 A 
ENDBRANCH   7  34
TORSDOF 8
ENDMDL
