MODEL 2
REMARK VINA RESULT: -10.809465197      0.303      1.409
REMARK  8 active torsions:
REMARK  status: ('A' for Active; 'I' for Inactive)
REMARK    1  A    between atoms: C5_9  and  C6_10 
REMARK    2  A    between atoms: C7_11  and  C8_12 
REMARK    3  A    between atoms: C12_16  and  O1_17 
REMARK    4  A    between atoms: O1_17  and  C13_18 
REMARK    5  A    between atoms: N3_22  and  C17_23 
REMARK    6  A    between atoms: C17_23  and  C18_24 
REMARK    7  A    between atoms: C18_24  and  C19_25 
REMARK    8  A    between atoms: C23_31  and  C24_32 
ROOT
HETATM    1  C6  UNL     1       3.452   7.687  18.186  1.00  0.00     0.018 A 
HETATM    2  C7  UNL     1       4.392   7.982  17.212  1.00  0.00     0.057 A 
HETATM    3  N3  UNL     1       5.638   7.799  17.671  1.00  0.00    -0.344 N 
HETATM    4  C20 UNL     1       5.524   7.377  18.964  1.00  0.00     0.046 A 
HETATM    5  C21 UNL     1       6.423   7.029  19.935  1.00  0.00     0.031 A 
HETATM    6  C22 UNL     1       5.994   6.618  21.202  1.00  0.00     0.010 A 
HETATM    7  C23 UNL     1       4.651   6.555  21.501  1.00  0.00    -0.053 A 
HETATM    8  C27 UNL     1       3.756   6.900  20.536  1.00  0.00     0.022 A 
HETATM    9  C28 UNL     1       4.187   7.302  19.294  1.00  0.00     0.005 A 
ENDROOT
BRANCH   2  10
HETATM   10  C8  UNL     1       4.054   8.408  15.858  1.00  0.00    -0.006 A 
HETATM   11  C9  UNL     1       3.577   7.499  14.954  1.00  0.00     0.014 A 
HETATM   12  C10 UNL     1       3.261   7.940  13.684  1.00  0.00     0.004 A 
HETATM   13  C11 UNL     1       3.427   9.274  13.338  1.00  0.00     0.037 A 
HETATM   14  C12 UNL     1       3.905  10.213  14.223  1.00  0.00     0.070 A 
HETATM   15  C16 UNL     1       4.211   9.729  15.493  1.00  0.00     0.050 A 
BRANCH  14  16
HETATM   16  O1  UNL     1       4.088  11.551  13.921  1.00  0.00    -0.347 OA
BRANCH  16  17
HETATM   17  C13 UNL     1       3.213  12.603  14.132  1.00  0.00     0.120 C 
HETATM   18  C14 UNL     1       1.761  12.193  14.107  1.00  0.00     0.040 C 
HETATM   19  C15 UNL     1       3.490  13.117  15.548  1.00  0.00     0.040 C 
ENDBRANCH  16  17
ENDBRANCH  14  16
ENDBRANCH   2  10
BRANCH   1  20
HETATM   20  C5  UNL     1       1.999   7.750  18.076  1.00  0.00     0.025 A 
HETATM   21  C2  UNL     1       1.110   6.713  17.931  1.00  0.00     0.035 A 
HETATM   22  C1  UNL     1       1.438   5.243  17.857  1.00  0.00     0.070 C 
HETATM   23  N1  UNL     1      -0.123   7.228  17.867  1.00  0.00    -0.304 N 
HETATM   24  N2  UNL     1      -0.020   8.549  17.968  1.00  0.00    -0.304 N 
ATOM     25  H1  UNL     1      -0.989   6.700  17.761  1.00  0.00     0.186 HD
HETATM   26  C3  UNL     1       1.263   8.904  18.097  1.00  0.00     0.035 A 
ATOM     27  H2  UNL     1      -0.806   9.199  17.950  1.00  0.00     0.186 HD
HETATM   28  C4  UNL     1       1.750  10.289  18.232  1.00  0.00     0.070 C 
ENDBRANCH   1  20
BRANCH   3  29
HETATM   29  C17 UNL     1       6.938   7.977  17.072  1.00  0.00     0.140 C 
BRANCH  29  30
HETATM   30  C18 UNL     1       7.169   7.099  15.861  1.00  0.00     0.133 C 
BRANCH  30  31
HETATM   31  C19 UNL     1       6.888   5.675  16.228  1.00  0.00     0.174 C 
HETATM   32  O2  UNL     1       7.559   5.121  17.130  1.00  0.00    -0.648 OA
HETATM   33  O3  UNL     1       5.900   4.920  15.607  1.00  0.00    -0.648 OA
ENDBRANCH  30  31
ENDBRANCH  29  30
ENDBRANCH   3  29
BRANCH   7  34
HETATM   34  C24 UNL     1       4.139   6.119  22.814  1.00  0.00     0.018 A 
HETATM   35  C25 UNL     1       3.261   7.163  23.498  1.00  0.00     0.010 A 
HETATM   36  C26 UNL     1       4.561   6.742  24.074  1.00  0.00     0.010 A 
ENDBRANCH   7  34
TORSDOF 8
ENDMDL
