MODEL 3
REMARK VINA RESULT: -10.713225073      1.102      1.450
REMARK  8 active torsions:
REMARK  status: ('A' for Active; 'I' for Inactive)
REMARK    1  A    between atoms: C5_9  and  C6_10 
REMARK    2  A    between atoms: C7_11  and  C8_12 
REMARK    3  A    between atoms: C12_16  and  O1_17 
REMARK    4  A    between atoms: O1_17  and  C13_18 
REMARK    5  A    between atoms: N3_22  and  C17_23 
REMARK    6  A    between atoms: C17_23  and  C18_24 
REMARK    7  A    between atoms: C18_24  and  C19_25 
REMARK    8  A    between atoms: C23_31  and  C24_32 
ROOT
HETATM    1  C6  UNL     1       3.136   7.117  18.366  1.00  0.00     0.018 A 
HETATM    2  C7  UNL     1       3.973   7.607  17.377  1.00  0.00     0.057 A 
HETATM    3  N3  UNL     1       5.219   7.778  17.839  1.00  0.00    -0.344 N 
HETATM    4  C20 UNL     1       5.210   7.398  19.150  1.00  0.00     0.046 A 
HETATM    5  C21 UNL     1       6.160   7.342  20.132  1.00  0.00     0.031 A 
HETATM    6  C22 UNL     1       5.843   6.889  21.417  1.00  0.00     0.010 A 
HETATM    7  C23 UNL     1       4.562   6.488  21.724  1.00  0.00    -0.053 A 
HETATM    8  C27 UNL     1       3.616   6.542  20.748  1.00  0.00     0.022 A 
HETATM    9  C28 UNL     1       3.936   6.989  19.488  1.00  0.00     0.005 A 
ENDROOT
BRANCH   2  10
HETATM   10  C8  UNL     1       3.546   7.868  16.006  1.00  0.00    -0.006 A 
HETATM   11  C9  UNL     1       3.319   6.826  15.150  1.00  0.00     0.014 A 
HETATM   12  C10 UNL     1       2.909   7.112  13.862  1.00  0.00     0.004 A 
HETATM   13  C11 UNL     1       2.736   8.426  13.452  1.00  0.00     0.037 A 
HETATM   14  C12 UNL     1       2.956   9.498  14.288  1.00  0.00     0.070 A 
HETATM   15  C16 UNL     1       3.367   9.167  15.577  1.00  0.00     0.050 A 
BRANCH  14  16
HETATM   16  O1  UNL     1       2.798  10.822  13.922  1.00  0.00    -0.347 OA
BRANCH  16  17
HETATM   17  C13 UNL     1       3.144  11.955  14.638  1.00  0.00     0.120 C 
HETATM   18  C14 UNL     1       4.458  12.561  14.209  1.00  0.00     0.040 C 
HETATM   19  C15 UNL     1       2.069  13.003  14.336  1.00  0.00     0.040 C 
ENDBRANCH  16  17
ENDBRANCH  14  16
ENDBRANCH   2  10
BRANCH   1  20
HETATM   20  C5  UNL     1       1.718   6.790  18.258  1.00  0.00     0.025 A 
HETATM   21  C2  UNL     1       0.651   7.648  18.157  1.00  0.00     0.035 A 
HETATM   22  C1  UNL     1       0.702   9.156  18.128  1.00  0.00     0.070 C 
HETATM   23  N1  UNL     1      -0.466   6.917  18.084  1.00  0.00    -0.304 N 
HETATM   24  N2  UNL     1      -0.120   5.635  18.137  1.00  0.00    -0.304 N 
ATOM     25  H1  UNL     1      -1.416   7.279  18.001  1.00  0.00     0.186 HD
HETATM   26  C3  UNL     1       1.208   5.520  18.244  1.00  0.00     0.035 A 
ATOM     27  H2  UNL     1      -0.773   4.852  18.102  1.00  0.00     0.186 HD
HETATM   28  C4  UNL     1       1.944   4.244  18.330  1.00  0.00     0.070 C 
ENDBRANCH   1  20
BRANCH   3  29
HETATM   29  C17 UNL     1       6.431   8.266  17.228  1.00  0.00     0.140 C 
BRANCH  29  30
HETATM   30  C18 UNL     1       7.319   7.165  16.687  1.00  0.00     0.133 C 
BRANCH  30  31
HETATM   31  C19 UNL     1       6.921   6.863  15.276  1.00  0.00     0.174 C 
HETATM   32  O2  UNL     1       6.776   7.800  14.456  1.00  0.00    -0.648 OA
HETATM   33  O3  UNL     1       6.698   5.569  14.820  1.00  0.00    -0.648 OA
ENDBRANCH  30  31
ENDBRANCH  29  30
ENDBRANCH   3  29
BRANCH   7  34
HETATM   34  C24 UNL     1       4.172   5.991  23.057  1.00  0.00     0.018 A 
HETATM   35  C25 UNL     1       3.212   6.922  23.792  1.00  0.00     0.010 A 
HETATM   36  C26 UNL     1       4.579   6.656  24.300  1.00  0.00     0.010 A 
ENDBRANCH   7  34
TORSDOF 8
ENDMDL
