MODEL 20
REMARK VINA RESULT: -8.382849508      2.791      6.776
REMARK  8 active torsions:
REMARK  status: ('A' for Active; 'I' for Inactive)
REMARK    1  A    between atoms: C5_9  and  C6_10 
REMARK    2  A    between atoms: C7_11  and  C8_12 
REMARK    3  A    between atoms: C12_16  and  O1_17 
REMARK    4  A    between atoms: O1_17  and  C13_18 
REMARK    5  A    between atoms: N3_22  and  C17_23 
REMARK    6  A    between atoms: C17_23  and  C18_24 
REMARK    7  A    between atoms: C18_24  and  C19_25 
REMARK    8  A    between atoms: C23_31  and  C24_32 
ROOT
HETATM    1  C6  UNL     1       3.119   8.910  17.900  1.00  0.00     0.018 A 
HETATM    2  C7  UNL     1       3.886   8.786  19.047  1.00  0.00     0.057 A 
HETATM    3  N3  UNL     1       4.785   9.776  19.138  1.00  0.00    -0.344 N 
HETATM    4  C20 UNL     1       4.612  10.567  18.039  1.00  0.00     0.046 A 
HETATM    5  C21 UNL     1       5.214  11.708  17.583  1.00  0.00     0.031 A 
HETATM    6  C22 UNL     1       4.804  12.311  16.389  1.00  0.00     0.010 A 
HETATM    7  C23 UNL     1       3.783  11.768  15.642  1.00  0.00    -0.053 A 
HETATM    8  C27 UNL     1       3.183  10.634  16.095  1.00  0.00     0.022 A 
HETATM    9  C28 UNL     1       3.592  10.047  17.269  1.00  0.00     0.005 A 
ENDROOT
BRANCH   2  10
HETATM   10  C8  UNL     1       3.707   7.726  20.034  1.00  0.00    -0.006 A 
HETATM   11  C9  UNL     1       3.964   7.971  21.356  1.00  0.00     0.014 A 
HETATM   12  C10 UNL     1       3.776   6.946  22.262  1.00  0.00     0.004 A 
HETATM   13  C11 UNL     1       3.339   5.699  21.837  1.00  0.00     0.037 A 
HETATM   14  C12 UNL     1       3.073   5.419  20.515  1.00  0.00     0.070 A 
HETATM   15  C16 UNL     1       3.273   6.479  19.635  1.00  0.00     0.050 A 
BRANCH  14  16
HETATM   16  O1  UNL     1       2.638   4.192  20.047  1.00  0.00    -0.347 OA
BRANCH  16  17
HETATM   17  C13 UNL     1       2.032   3.905  18.837  1.00  0.00     0.120 C 
HETATM   18  C14 UNL     1       2.106   2.446  18.457  1.00  0.00     0.040 C 
HETATM   19  C15 UNL     1       0.545   4.229  19.011  1.00  0.00     0.040 C 
ENDBRANCH  16  17
ENDBRANCH  14  16
ENDBRANCH   2  10
BRANCH   1  20
HETATM   20  C5  UNL     1       2.036   8.043  17.449  1.00  0.00     0.025 A 
HETATM   21  C2  UNL     1       2.106   6.953  16.618  1.00  0.00     0.035 A 
HETATM   22  C1  UNL     1       3.346   6.386  15.973  1.00  0.00     0.070 C 
HETATM   23  N1  UNL     1       0.872   6.460  16.472  1.00  0.00    -0.304 N 
HETATM   24  N2  UNL     1       0.043   7.214  17.187  1.00  0.00    -0.304 N 
ATOM     25  H1  UNL     1       0.612   5.648  15.912  1.00  0.00     0.186 HD
HETATM   26  C3  UNL     1       0.720   8.191  17.798  1.00  0.00     0.035 A 
ATOM     27  H2  UNL     1      -0.964   7.067  17.259  1.00  0.00     0.186 HD
HETATM   28  C4  UNL     1       0.122   9.218  18.673  1.00  0.00     0.070 C 
ENDBRANCH   1  20
BRANCH   3  29
HETATM   29  C17 UNL     1       5.804  10.086  20.110  1.00  0.00     0.140 C 
BRANCH  29  30
HETATM   30  C18 UNL     1       7.008   9.173  20.034  1.00  0.00     0.133 C 
BRANCH  30  31
HETATM   31  C19 UNL     1       7.719   9.189  21.351  1.00  0.00     0.174 C 
HETATM   32  O2  UNL     1       7.358   8.408  22.263  1.00  0.00    -0.648 OA
HETATM   33  O3  UNL     1       8.781  10.044  21.621  1.00  0.00    -0.648 OA
ENDBRANCH  30  31
ENDBRANCH  29  30
ENDBRANCH   3  29
BRANCH   7  34
HETATM   34  C24 UNL     1       3.302  12.365  14.382  1.00  0.00     0.018 A 
HETATM   35  C25 UNL     1       2.140  13.334  14.577  1.00  0.00     0.010 A 
HETATM   36  C26 UNL     1       1.978  12.069  13.821  1.00  0.00     0.010 A 
ENDBRANCH   7  34
TORSDOF 8
ENDMDL
