MODEL 1
REMARK VINA RESULT: -7.192035687      0.000      0.000
REMARK  2 active torsions:
REMARK  status: ('A' for Active; 'I' for Inactive)
REMARK    1  A    between atoms: C9_12  and  C10_13 
REMARK    2  A    between atoms: N3_17  and  C12_18 
ROOT
HETATM    1  C1  UNL     1       3.281  62.356  50.873  1.00  0.00     0.032 C 
HETATM    2  C2  UNL     1       4.377  61.402  50.392  1.00  0.00     0.086 C 
HETATM    3  C3  UNL     1       4.535  61.493  48.908  1.00  0.00     0.127 C 
HETATM    4  C4  UNL     1       5.770  60.752  48.483  1.00  0.00     0.224 C 
HETATM    5  O1  UNL     1       6.732  61.439  48.039  1.00  0.00    -0.273 OA
HETATM    6  N1  UNL     1       5.911  59.339  48.554  1.00  0.00    -0.325 N 
ATOM      7  H1  UNL     1       6.674  58.930  48.014  1.00  0.00     0.169 HD
HETATM    8  C5  UNL     1       5.096  58.425  49.304  1.00  0.00     0.062 A 
HETATM    9  C6  UNL     1       5.214  57.129  48.867  1.00  0.00     0.032 A 
HETATM   10  C7  UNL     1       4.470  56.158  49.491  1.00  0.00     0.003 A 
HETATM   11  C8  UNL     1       3.639  56.511  50.523  1.00  0.00     0.015 A 
HETATM   12  C9  UNL     1       3.517  57.835  50.971  1.00  0.00     0.006 A 
HETATM   13  C17 UNL     1       4.255  58.811  50.357  1.00  0.00     0.066 A 
HETATM   14  N4  UNL     1       4.086  60.100  50.918  1.00  0.00    -0.383 N 
ATOM     15  H4  UNL     1       3.689  60.103  51.857  1.00  0.00     0.160 HD
ENDROOT
BRANCH  12  16
HETATM   16  C10 UNL     1       2.597  58.172  52.042  1.00  0.00     0.010 A 
HETATM   17  C11 UNL     1       1.549  59.056  52.010  1.00  0.00     0.121 A 
HETATM   18  N2  UNL     1       0.994  59.026  53.235  1.00  0.00    -0.308 N 
HETATM   19  N3  UNL     1       1.614  58.189  54.039  1.00  0.00    -0.294 N 
ATOM     20  H2  UNL     1       0.187  59.587  53.508  1.00  0.00     0.186 HD
HETATM   21  C16 UNL     1       2.611  57.648  53.317  1.00  0.00     0.124 A 
BRANCH  19  22
HETATM   22  C12 UNL     1       1.234  57.955  55.411  1.00  0.00     0.042 C 
HETATM   23  C13 UNL     1       2.101  56.901  56.065  1.00  0.00     0.039 C 
HETATM   24  C14 UNL     1       1.332  59.205  56.262  1.00  0.00     0.039 C 
HETATM   25  C15 UNL     1      -0.206  57.446  55.516  1.00  0.00     0.039 C 
ENDBRANCH  19  22
ENDBRANCH  12  16
TORSDOF 2
ENDMDL
