MODEL 9
REMARK VINA RESULT: -6.560117275      2.621      6.060
REMARK  2 active torsions:
REMARK  status: ('A' for Active; 'I' for Inactive)
REMARK    1  A    between atoms: C9_12  and  C10_13 
REMARK    2  A    between atoms: N3_17  and  C12_18 
ROOT
HETATM    1  C1  UNL     1       6.918  60.772  48.495  1.00  0.00     0.032 C 
HETATM    2  C2  UNL     1       5.480  60.936  48.992  1.00  0.00     0.086 C 
HETATM    3  C3  UNL     1       5.457  61.679  50.288  1.00  0.00     0.127 C 
HETATM    4  C4  UNL     1       4.044  62.053  50.634  1.00  0.00     0.224 C 
HETATM    5  O1  UNL     1       3.745  63.278  50.598  1.00  0.00    -0.273 OA
HETATM    6  N1  UNL     1       3.040  61.111  50.992  1.00  0.00    -0.325 N 
ATOM      7  H1  UNL     1       2.205  61.486  51.444  1.00  0.00     0.169 HD
HETATM    8  C5  UNL     1       3.073  59.691  50.787  1.00  0.00     0.062 A 
HETATM    9  C6  UNL     1       2.175  59.019  51.579  1.00  0.00     0.032 A 
HETATM   10  C7  UNL     1       2.120  57.650  51.491  1.00  0.00     0.003 A 
HETATM   11  C8  UNL     1       2.959  57.002  50.620  1.00  0.00     0.015 A 
HETATM   12  C9  UNL     1       3.877  57.685  49.810  1.00  0.00     0.006 A 
HETATM   13  C17 UNL     1       3.939  59.051  49.889  1.00  0.00     0.066 A 
HETATM   14  N4  UNL     1       4.868  59.638  48.997  1.00  0.00    -0.383 N 
ATOM     15  H4  UNL     1       5.152  59.036  48.225  1.00  0.00     0.160 HD
ENDROOT
BRANCH  12  16
HETATM   16  C10 UNL     1       4.773  56.958  48.930  1.00  0.00     0.010 A 
HETATM   17  C11 UNL     1       5.339  57.386  47.756  1.00  0.00     0.121 A 
HETATM   18  N2  UNL     1       6.090  56.365  47.306  1.00  0.00    -0.308 N 
HETATM   19  N3  UNL     1       6.041  55.322  48.108  1.00  0.00    -0.294 N 
ATOM     20  H2  UNL     1       6.634  56.395  46.444  1.00  0.00     0.186 HD
HETATM   21  C16 UNL     1       5.229  55.671  49.122  1.00  0.00     0.124 A 
BRANCH  19  22
HETATM   22  C12 UNL     1       6.749  54.088  47.874  1.00  0.00     0.042 C 
HETATM   23  C13 UNL     1       7.714  53.769  48.995  1.00  0.00     0.039 C 
HETATM   24  C14 UNL     1       5.818  52.901  47.735  1.00  0.00     0.039 C 
HETATM   25  C15 UNL     1       7.590  54.156  46.596  1.00  0.00     0.039 C 
ENDBRANCH  19  22
ENDBRANCH  12  16
TORSDOF 2
ENDMDL
