MODEL 4
REMARK VINA RESULT: -6.989177115      1.784      3.557
REMARK  2 active torsions:
REMARK  status: ('A' for Active; 'I' for Inactive)
REMARK    1  A    between atoms: C9_12  and  C10_13 
REMARK    2  A    between atoms: N3_17  and  C12_18 
ROOT
HETATM    1  C1  UNL     1       3.879  54.658  50.735  1.00  0.00     0.032 C 
HETATM    2  C2  UNL     1       4.104  55.672  49.611  1.00  0.00     0.086 C 
HETATM    3  C3  UNL     1       5.521  55.624  49.140  1.00  0.00     0.127 C 
HETATM    4  C4  UNL     1       5.665  56.430  47.881  1.00  0.00     0.224 C 
HETATM    5  O1  UNL     1       5.906  55.799  46.815  1.00  0.00    -0.273 OA
HETATM    6  N1  UNL     1       5.545  57.846  47.828  1.00  0.00    -0.325 N 
ATOM      7  H1  UNL     1       5.906  58.302  46.989  1.00  0.00     0.169 HD
HETATM    8  C5  UNL     1       4.972  58.704  48.826  1.00  0.00     0.062 A 
HETATM    9  C6  UNL     1       5.355  60.015  48.682  1.00  0.00     0.032 A 
HETATM   10  C7  UNL     1       4.888  60.936  49.587  1.00  0.00     0.003 A 
HETATM   11  C8  UNL     1       4.059  60.520  50.599  1.00  0.00     0.015 A 
HETATM   12  C9  UNL     1       3.667  59.182  50.747  1.00  0.00     0.006 A 
HETATM   13  C17 UNL     1       4.126  58.255  49.850  1.00  0.00     0.066 A 
HETATM   14  N4  UNL     1       3.632  56.946  50.069  1.00  0.00    -0.383 N 
ATOM     15  H4  UNL     1       2.798  56.902  50.654  1.00  0.00     0.160 HD
ENDROOT
BRANCH  12  16
HETATM   16  C10 UNL     1       2.820  58.778  51.854  1.00  0.00     0.010 A 
HETATM   17  C11 UNL     1       1.518  59.134  52.097  1.00  0.00     0.121 A 
HETATM   18  N2  UNL     1       1.163  58.511  53.236  1.00  0.00    -0.308 N 
HETATM   19  N3  UNL     1       2.145  57.788  53.732  1.00  0.00    -0.294 N 
ATOM     20  H2  UNL     1       0.241  58.590  53.665  1.00  0.00     0.186 HD
HETATM   21  C16 UNL     1       3.182  57.940  52.888  1.00  0.00     0.124 A 
BRANCH  19  22
HETATM   22  C12 UNL     1       2.046  57.015  54.944  1.00  0.00     0.042 C 
HETATM   23  C13 UNL     1       1.537  57.844  56.104  1.00  0.00     0.039 C 
HETATM   24  C14 UNL     1       1.115  55.828  54.803  1.00  0.00     0.039 C 
HETATM   25  C15 UNL     1       3.411  56.472  55.378  1.00  0.00     0.039 C 
ENDBRANCH  19  22
ENDBRANCH  12  16
TORSDOF 2
ENDMDL
