MODEL 5
REMARK VINA RESULT: -6.986563605      4.212      6.171
REMARK  2 active torsions:
REMARK  status: ('A' for Active; 'I' for Inactive)
REMARK    1  A    between atoms: C9_12  and  C10_13 
REMARK    2  A    between atoms: N3_17  and  C12_18 
ROOT
HETATM    1  C1  UNL     1       5.409  58.092  44.762  1.00  0.00     0.032 C 
HETATM    2  C2  UNL     1       6.030  56.964  45.589  1.00  0.00     0.086 C 
HETATM    3  C3  UNL     1       5.500  55.639  45.145  1.00  0.00     0.127 C 
HETATM    4  C4  UNL     1       6.297  54.536  45.780  1.00  0.00     0.224 C 
HETATM    5  O1  UNL     1       7.027  53.839  45.022  1.00  0.00    -0.273 OA
HETATM    6  N1  UNL     1       6.272  54.240  47.171  1.00  0.00    -0.325 N 
ATOM      7  H1  UNL     1       6.643  53.331  47.449  1.00  0.00     0.169 HD
HETATM    8  C5  UNL     1       5.782  55.081  48.226  1.00  0.00     0.062 A 
HETATM    9  C6  UNL     1       5.519  54.385  49.380  1.00  0.00     0.032 A 
HETATM   10  C7  UNL     1       5.027  55.073  50.462  1.00  0.00     0.003 A 
HETATM   11  C8  UNL     1       4.815  56.425  50.355  1.00  0.00     0.015 A 
HETATM   12  C9  UNL     1       5.082  57.137  49.177  1.00  0.00     0.006 A 
HETATM   13  C17 UNL     1       5.575  56.461  48.093  1.00  0.00     0.066 A 
HETATM   14  N4  UNL     1       5.848  57.285  46.975  1.00  0.00    -0.383 N 
ATOM     15  H4  UNL     1       5.930  58.278  47.192  1.00  0.00     0.160 HD
ENDROOT
BRANCH  12  16
HETATM   16  C10 UNL     1       4.807  58.560  49.094  1.00  0.00     0.010 A 
HETATM   17  C11 UNL     1       3.639  59.175  48.720  1.00  0.00     0.121 A 
HETATM   18  N2  UNL     1       3.869  60.498  48.801  1.00  0.00    -0.308 N 
HETATM   19  N3  UNL     1       5.095  60.765  49.197  1.00  0.00    -0.294 N 
ATOM     20  H2  UNL     1       3.174  61.212  48.581  1.00  0.00     0.186 HD
HETATM   21  C16 UNL     1       5.693  59.575  49.385  1.00  0.00     0.124 A 
BRANCH  19  22
HETATM   22  C12 UNL     1       5.616  62.098  49.371  1.00  0.00     0.042 C 
HETATM   23  C13 UNL     1       6.863  62.110  50.230  1.00  0.00     0.039 C 
HETATM   24  C14 UNL     1       5.976  62.758  48.055  1.00  0.00     0.039 C 
HETATM   25  C15 UNL     1       4.607  63.009  50.075  1.00  0.00     0.039 C 
ENDBRANCH  19  22
ENDBRANCH  12  16
TORSDOF 2
ENDMDL
