MODEL 2
REMARK VINA RESULT: -7.263754790      2.666      4.468
REMARK  6 active torsions:
REMARK  status: ('A' for Active; 'I' for Inactive)
REMARK    1  A    between atoms: N1_1  and  C1_5 
REMARK    2  A    between atoms: C1_5  and  C2_6 
REMARK    3  A    between atoms: C1_5  and  C13_21 
REMARK    4  A    between atoms: C2_6  and  C3_7 
REMARK    5  A    between atoms: C5_9  and  C6_10 
REMARK    6  A    between atoms: N3_14  and  C7_15 
ROOT
HETATM    1  C3  UNL     1     -20.848  18.104  -8.608  1.00  0.00     0.109 C 
HETATM    2  C4  UNL     1     -19.485  17.560  -8.522  1.00  0.00     0.061 C 
HETATM    3  C5  UNL     1     -19.031  17.748  -7.089  1.00  0.00     0.202 C 
HETATM    4  N2  UNL     1     -19.863  18.787  -6.580  1.00  0.00    -0.122 NA
HETATM    5  N3  UNL     1     -20.963  18.946  -7.443  1.00  0.00    -0.290 N 
ENDROOT
BRANCH   1   6
HETATM    6  C2  UNL     1     -21.263  18.803  -9.816  1.00  0.00     0.071 C 
BRANCH   6   7
HETATM    7  C1  UNL     1     -20.241  19.008 -10.898  1.00  0.00     0.285 C 
BRANCH   7   8
HETATM    8  N1  UNL     1     -20.564  18.392 -12.149  1.00  0.00    -0.065 N 
ATOM      9  H13 UNL     1     -20.631  17.380 -12.039  1.00  0.00     0.275 HD
ATOM     10  H12 UNL     1     -21.527  18.605 -12.410  1.00  0.00     0.275 HD
ATOM     11  H11 UNL     1     -19.931  18.625 -12.914  1.00  0.00     0.275 HD
ENDBRANCH   7   8
BRANCH   7  12
HETATM   12  C13 UNL     1     -19.823  20.421 -11.033  1.00  0.00     0.204 C 
HETATM   13  O3  UNL     1     -19.628  20.909 -12.166  1.00  0.00    -0.646 OA
HETATM   14  O4  UNL     1     -19.653  21.185  -9.915  1.00  0.00    -0.646 OA
ENDBRANCH   7  12
ENDBRANCH   6   7
ENDBRANCH   1   6
BRANCH   5  15
HETATM   15  C7  UNL     1     -22.017  19.824  -7.087  1.00  0.00     0.047 A 
HETATM   16  C8  UNL     1     -23.201  19.232  -6.668  1.00  0.00     0.031 A 
HETATM   17  C9  UNL     1     -24.243  20.028  -6.294  1.00  0.00     0.002 A 
HETATM   18  C10 UNL     1     -24.115  21.406  -6.335  1.00  0.00     0.000 A 
HETATM   19  C11 UNL     1     -22.941  21.966  -6.751  1.00  0.00     0.002 A 
HETATM   20  C12 UNL     1     -21.854  21.182  -7.140  1.00  0.00     0.031 A 
ENDBRANCH   5  15
BRANCH   3  21
HETATM   21  C6  UNL     1     -19.209  16.521  -6.275  1.00  0.00     0.195 C 
HETATM   22  O1  UNL     1     -18.271  15.693  -6.157  1.00  0.00    -0.647 OA
HETATM   23  O2  UNL     1     -20.391  16.222  -5.614  1.00  0.00    -0.647 OA
ENDBRANCH   3  21
TORSDOF 6
ENDMDL
