MODEL 1
REMARK VINA RESULT: -7.518969003      0.000      0.000
REMARK  6 active torsions:
REMARK  status: ('A' for Active; 'I' for Inactive)
REMARK    1  A    between atoms: N1_1  and  C1_5 
REMARK    2  A    between atoms: C1_5  and  C2_6 
REMARK    3  A    between atoms: C1_5  and  C13_21 
REMARK    4  A    between atoms: C2_6  and  C3_7 
REMARK    5  A    between atoms: C5_9  and  C6_10 
REMARK    6  A    between atoms: N3_14  and  C7_15 
ROOT
HETATM    1  C3  UNL     1     -20.344  18.256  -8.619  1.00  0.00     0.109 C 
HETATM    2  C4  UNL     1     -19.929  18.286 -10.029  1.00  0.00     0.061 C 
HETATM    3  C5  UNL     1     -18.979  17.122 -10.228  1.00  0.00     0.202 C 
HETATM    4  N2  UNL     1     -18.502  16.817  -8.919  1.00  0.00    -0.122 NA
HETATM    5  N3  UNL     1     -19.348  17.432  -7.978  1.00  0.00    -0.290 N 
ENDROOT
BRANCH   1   6
HETATM    6  C2  UNL     1     -20.542  19.509  -7.906  1.00  0.00     0.071 C 
BRANCH   6   7
HETATM    7  C1  UNL     1     -21.452  20.534  -8.520  1.00  0.00     0.285 C 
BRANCH   7   8
HETATM    8  N1  UNL     1     -22.395  21.115  -7.614  1.00  0.00    -0.065 N 
ATOM      9  H13 UNL     1     -23.266  20.582  -7.620  1.00  0.00     0.275 HD
ATOM     10  H12 UNL     1     -22.102  20.961  -6.650  1.00  0.00     0.275 HD
ATOM     11  H11 UNL     1     -22.584  22.104  -7.772  1.00  0.00     0.275 HD
ENDBRANCH   7   8
BRANCH   7  12
HETATM   12  C13 UNL     1     -20.724  21.538  -9.327  1.00  0.00     0.204 C 
HETATM   13  O3  UNL     1     -20.056  22.430  -8.762  1.00  0.00    -0.646 OA
HETATM   14  O4  UNL     1     -20.788  21.485 -10.690  1.00  0.00    -0.646 OA
ENDBRANCH   7  12
ENDBRANCH   6   7
ENDBRANCH   1   6
BRANCH   5  15
HETATM   15  C7  UNL     1     -19.175  17.169  -6.597  1.00  0.00     0.047 A 
HETATM   16  C8  UNL     1     -17.930  17.467  -6.061  1.00  0.00     0.031 A 
HETATM   17  C9  UNL     1     -17.712  17.253  -4.731  1.00  0.00     0.002 A 
HETATM   18  C10 UNL     1     -18.724  16.746  -3.934  1.00  0.00     0.000 A 
HETATM   19  C11 UNL     1     -19.942  16.462  -4.483  1.00  0.00     0.002 A 
HETATM   20  C12 UNL     1     -20.200  16.668  -5.839  1.00  0.00     0.031 A 
ENDBRANCH   5  15
BRANCH   3  21
HETATM   21  C6  UNL     1     -19.654  15.935 -10.803  1.00  0.00     0.195 C 
HETATM   22  O1  UNL     1     -19.119  14.800 -10.731  1.00  0.00    -0.647 OA
HETATM   23  O2  UNL     1     -20.885  16.004 -11.439  1.00  0.00    -0.647 OA
ENDBRANCH   3  21
TORSDOF 6
ENDMDL
