MODEL 3
REMARK VINA RESULT: -7.150375475      3.070      5.502
REMARK  6 active torsions:
REMARK  status: ('A' for Active; 'I' for Inactive)
REMARK    1  A    between atoms: N1_1  and  C1_5 
REMARK    2  A    between atoms: C1_5  and  C2_6 
REMARK    3  A    between atoms: C1_5  and  C13_21 
REMARK    4  A    between atoms: C2_6  and  C3_7 
REMARK    5  A    between atoms: C5_9  and  C6_10 
REMARK    6  A    between atoms: N3_14  and  C7_15 
ROOT
HETATM    1  C3  UNL     1     -20.616  19.019  -7.294  1.00  0.00     0.109 C 
HETATM    2  C4  UNL     1     -20.140  18.685  -8.645  1.00  0.00     0.061 C 
HETATM    3  C5  UNL     1     -20.858  19.617  -9.601  1.00  0.00     0.202 C 
HETATM    4  N2  UNL     1     -22.016  20.044  -8.888  1.00  0.00    -0.122 NA
HETATM    5  N3  UNL     1     -21.839  19.749  -7.524  1.00  0.00    -0.290 N 
ENDROOT
BRANCH   1   6
HETATM    6  C2  UNL     1     -20.804  17.953  -6.321  1.00  0.00     0.071 C 
BRANCH   6   7
HETATM    7  C1  UNL     1     -19.696  17.689  -5.342  1.00  0.00     0.285 C 
BRANCH   7   8
HETATM    8  N1  UNL     1     -19.904  18.246  -4.040  1.00  0.00    -0.065 N 
ATOM      9  H13 UNL     1     -20.318  19.176  -4.115  1.00  0.00     0.275 HD
ATOM     10  H12 UNL     1     -20.660  17.756  -3.561  1.00  0.00     0.275 HD
ATOM     11  H11 UNL     1     -19.072  18.274  -3.451  1.00  0.00     0.275 HD
ENDBRANCH   7   8
BRANCH   7  12
HETATM   12  C13 UNL     1     -19.285  16.268  -5.309  1.00  0.00     0.204 C 
HETATM   13  O3  UNL     1     -18.528  15.814  -6.193  1.00  0.00    -0.646 OA
HETATM   14  O4  UNL     1     -19.737  15.457  -4.308  1.00  0.00    -0.646 OA
ENDBRANCH   7  12
ENDBRANCH   6   7
ENDBRANCH   1   6
BRANCH   5  15
HETATM   15  C7  UNL     1     -22.789  20.200  -6.575  1.00  0.00     0.047 A 
HETATM   16  C8  UNL     1     -22.304  20.984  -5.537  1.00  0.00     0.031 A 
HETATM   17  C9  UNL     1     -23.177  21.464  -4.606  1.00  0.00     0.002 A 
HETATM   18  C10 UNL     1     -24.526  21.169  -4.701  1.00  0.00     0.000 A 
HETATM   19  C11 UNL     1     -24.981  20.396  -5.731  1.00  0.00     0.002 A 
HETATM   20  C12 UNL     1     -24.117  19.889  -6.701  1.00  0.00     0.031 A 
ENDBRANCH   5  15
BRANCH   3  21
HETATM   21  C6  UNL     1     -20.034  20.793  -9.967  1.00  0.00     0.195 C 
HETATM   22  O1  UNL     1     -19.339  20.783 -11.015  1.00  0.00    -0.647 OA
HETATM   23  O2  UNL     1     -19.982  21.945  -9.196  1.00  0.00    -0.647 OA
ENDBRANCH   3  21
TORSDOF 6
ENDMDL
