MODEL 5
REMARK VINA RESULT: -10.178307790      1.590      1.907
REMARK  6 active torsions:
REMARK  status: ('A' for Active; 'I' for Inactive)
REMARK    1  A    between atoms: N1_2  and  C2_4 
REMARK    2  A    between atoms: C6_10  and  C7_11 
REMARK    3  A    between atoms: C10_14  and  C11_15 
REMARK    4  A    between atoms: N4_28  and  C20_29 
REMARK    5  A    between atoms: C20_29  and  C21_30 
REMARK    6  A    between atoms: C23_33  and  N5_34 
ROOT
HETATM    1  C2  UNL     1      14.531 -15.149  15.693  1.00  0.00     0.679 A 
HETATM    2  N2  UNL     1      14.723 -16.427  15.348  1.00  0.00    -0.201 N 
ATOM      3  H2  UNL     1      14.077 -17.155  15.654  1.00  0.00     0.183 HD
HETATM    4  C3  UNL     1      15.805 -16.732  14.577  1.00  0.00     0.121 A 
HETATM    5  C4  UNL     1      16.684 -15.759  14.157  1.00  0.00     0.026 A 
HETATM    6  C5  UNL     1      17.767 -16.095  13.379  1.00  0.00     0.034 A 
HETATM    7  C6  UNL     1      18.608 -15.096  12.991  1.00  0.00     0.045 A 
HETATM    8  C19 UNL     1      18.364 -13.779  13.376  1.00  0.00     0.260 A 
HETATM    9  O1  UNL     1      19.195 -12.923  12.968  1.00  0.00    -0.267 OA
HETATM   10  N4  UNL     1      17.306 -13.457  14.133  1.00  0.00    -0.294 N 
HETATM   11  C25 UNL     1      16.481 -14.444  14.515  1.00  0.00     0.138 A 
HETATM   12  N6  UNL     1      15.391 -14.203  15.281  1.00  0.00    -0.176 N 
ATOM     13  H6  UNL     1      15.212 -13.239  15.565  1.00  0.00     0.186 HD
ENDROOT
BRANCH   7  14
HETATM   14  C7  UNL     1      19.760 -15.401  12.162  1.00  0.00     0.001 A 
HETATM   15  C8  UNL     1      21.021 -15.569  12.691  1.00  0.00     0.015 A 
HETATM   16  C9  UNL     1      22.064 -15.845  11.842  1.00  0.00     0.014 A 
HETATM   17  C10 UNL     1      21.918 -15.964  10.487  1.00  0.00    -0.008 A 
HETATM   18  C17 UNL     1      20.634 -15.789   9.982  1.00  0.00     0.038 A 
HETATM   19  C18 UNL     1      19.570 -15.512  10.801  1.00  0.00     0.046 A 
HETATM   20 CL1  UNL     1      17.965 -15.316  10.097  1.00  0.00    -0.083 Cl
BRANCH  17  21
HETATM   21  C11 UNL     1      22.999 -16.253   9.557  1.00  0.00     0.042 A 
HETATM   22  C12 UNL     1      24.207 -16.664  10.008  1.00  0.00     0.030 A 
HETATM   23  C13 UNL     1      25.257 -16.946   9.119  1.00  0.00     0.004 A 
HETATM   24  C14 UNL     1      24.989 -16.780   7.782  1.00  0.00     0.024 A 
HETATM   25  C15 UNL     1      23.766 -16.363   7.310  1.00  0.00     0.005 A 
HETATM   26  C16 UNL     1      23.503 -16.197   5.861  1.00  0.00     0.068 C 
HETATM   27  N3  UNL     1      22.813 -16.113   8.214  1.00  0.00    -0.359 N 
ATOM     28  H3  UNL     1      21.900 -15.801   7.882  1.00  0.00     0.166 HD
ENDBRANCH  17  21
ENDBRANCH   7  14
BRANCH  10  29
HETATM   29  C20 UNL     1      17.026 -12.131  14.541  1.00  0.00     0.194 C 
BRANCH  29  30
HETATM   30  C21 UNL     1      16.196 -11.316  13.594  1.00  0.00     0.277 C 
HETATM   31  O2  UNL     1      15.386 -10.495  14.394  1.00  0.00    -0.357 OA
HETATM   32  C22 UNL     1      14.537  -9.713  13.631  1.00  0.00     0.205 C 
HETATM   33  C23 UNL     1      15.306  -8.977  12.565  1.00  0.00     0.231 C 
HETATM   34  C24 UNL     1      16.766  -9.249  12.750  1.00  0.00     0.205 C 
HETATM   35  O3  UNL     1      17.002 -10.599  12.723  1.00  0.00    -0.357 OA
BRANCH  33  36
HETATM   36  N5  UNL     1      14.803  -9.418  11.285  1.00  0.00    -0.071 N 
ATOM     37  H53 UNL     1      13.899  -9.886  11.353  1.00  0.00     0.274 HD
ATOM     38  H52 UNL     1      14.511  -8.648  10.685  1.00  0.00     0.274 HD
ATOM     39  H51 UNL     1      15.523 -10.004  10.859  1.00  0.00     0.274 HD
ENDBRANCH  33  36
ENDBRANCH  29  30
ENDBRANCH  10  29
BRANCH   1  40
HETATM   40  N1  UNL     1      13.404 -14.755  16.509  1.00  0.00    -0.230 N 
HETATM   41  C1  UNL     1      13.295 -15.220  17.871  1.00  0.00     0.165 C 
ATOM     42  H1  UNL     1      12.684 -14.147  16.121  1.00  0.00     0.177 HD
ENDBRANCH   1  40
TORSDOF 6
ENDMDL
