MODEL 4
REMARK VINA RESULT: -10.296953230      0.913      1.561
REMARK  6 active torsions:
REMARK  status: ('A' for Active; 'I' for Inactive)
REMARK    1  A    between atoms: N1_2  and  C2_4 
REMARK    2  A    between atoms: C6_10  and  C7_11 
REMARK    3  A    between atoms: C10_14  and  C11_15 
REMARK    4  A    between atoms: N4_28  and  C20_29 
REMARK    5  A    between atoms: C20_29  and  C21_30 
REMARK    6  A    between atoms: C23_33  and  N5_34 
ROOT
HETATM    1  C2  UNL     1      15.268 -16.080  16.834  1.00  0.00     0.679 A 
HETATM    2  N2  UNL     1      16.373 -16.749  17.183  1.00  0.00    -0.201 N 
ATOM      3  H2  UNL     1      16.448 -17.194  18.098  1.00  0.00     0.183 HD
HETATM    4  C3  UNL     1      17.394 -16.823  16.283  1.00  0.00     0.121 A 
HETATM    5  C4  UNL     1      17.304 -16.228  15.045  1.00  0.00     0.026 A 
HETATM    6  C5  UNL     1      18.350 -16.318  14.157  1.00  0.00     0.034 A 
HETATM    7  C6  UNL     1      18.212 -15.712  12.945  1.00  0.00     0.045 A 
HETATM    8  C19 UNL     1      17.041 -15.027  12.629  1.00  0.00     0.260 A 
HETATM    9  O1  UNL     1      17.004 -14.499  11.484  1.00  0.00    -0.267 OA
HETATM   10  N4  UNL     1      16.024 -14.942  13.497  1.00  0.00    -0.294 N 
HETATM   11  C25 UNL     1      16.164 -15.540  14.691  1.00  0.00     0.138 A 
HETATM   12  N6  UNL     1      15.185 -15.501  15.624  1.00  0.00    -0.176 N 
ATOM     13  H6  UNL     1      14.327 -14.998  15.394  1.00  0.00     0.186 HD
ENDROOT
BRANCH   7  14
HETATM   14  C7  UNL     1      19.287 -15.787  11.972  1.00  0.00     0.001 A 
HETATM   15  C8  UNL     1      20.267 -14.823  11.885  1.00  0.00     0.015 A 
HETATM   16  C9  UNL     1      21.245 -14.958  10.930  1.00  0.00     0.014 A 
HETATM   17  C10 UNL     1      21.300 -16.006  10.054  1.00  0.00    -0.008 A 
HETATM   18  C17 UNL     1      20.297 -16.963  10.166  1.00  0.00     0.038 A 
HETATM   19  C18 UNL     1      19.306 -16.860  11.107  1.00  0.00     0.046 A 
HETATM   20 CL1  UNL     1      18.072 -18.118  11.204  1.00  0.00    -0.083 Cl
BRANCH  17  21
HETATM   21  C11 UNL     1      22.318 -16.181   9.029  1.00  0.00     0.042 A 
HETATM   22  C12 UNL     1      22.041 -15.928   7.729  1.00  0.00     0.030 A 
HETATM   23  C13 UNL     1      23.016 -16.093   6.733  1.00  0.00     0.004 A 
HETATM   24  C14 UNL     1      24.252 -16.523   7.150  1.00  0.00     0.024 A 
HETATM   25  C15 UNL     1      24.547 -16.785   8.467  1.00  0.00     0.005 A 
HETATM   26  C16 UNL     1      25.892 -17.244   8.890  1.00  0.00     0.068 C 
HETATM   27  N3  UNL     1      23.570 -16.605   9.362  1.00  0.00    -0.359 N 
ATOM     28  H3  UNL     1      23.771 -16.796  10.344  1.00  0.00     0.166 HD
ENDBRANCH  17  21
ENDBRANCH   7  14
BRANCH  10  29
HETATM   29  C20 UNL     1      14.820 -14.257  13.209  1.00  0.00     0.194 C 
BRANCH  29  30
HETATM   30  C21 UNL     1      14.771 -12.816  13.623  1.00  0.00     0.277 C 
HETATM   31  O2  UNL     1      14.224 -12.802  14.917  1.00  0.00    -0.357 OA
HETATM   32  C22 UNL     1      14.091 -11.514  15.402  1.00  0.00     0.205 C 
HETATM   33  C23 UNL     1      15.387 -10.757  15.268  1.00  0.00     0.231 C 
HETATM   34  C24 UNL     1      16.437 -11.689  14.749  1.00  0.00     0.205 C 
HETATM   35  O3  UNL     1      16.032 -12.242  13.562  1.00  0.00    -0.357 OA
BRANCH  33  36
HETATM   36  N5  UNL     1      15.144  -9.633  14.395  1.00  0.00    -0.071 N 
ATOM     37  H53 UNL     1      15.270  -8.733  14.860  1.00  0.00     0.274 HD
ATOM     38  H52 UNL     1      15.866  -9.517  13.684  1.00  0.00     0.274 HD
ATOM     39  H51 UNL     1      14.211  -9.749  13.998  1.00  0.00     0.274 HD
ENDBRANCH  33  36
ENDBRANCH  29  30
ENDBRANCH  10  29
BRANCH   1  40
HETATM   40  N1  UNL     1      14.146 -15.962  17.738  1.00  0.00    -0.230 N 
HETATM   41  C1  UNL     1      13.026 -15.118  17.402  1.00  0.00     0.165 C 
ATOM     42  H1  UNL     1      14.147 -16.479  18.618  1.00  0.00     0.177 HD
ENDBRANCH   1  40
TORSDOF 6
ENDMDL
