MODEL 1
REMARK VINA RESULT: -10.582074677      0.000      0.000
REMARK  6 active torsions:
REMARK  status: ('A' for Active; 'I' for Inactive)
REMARK    1  A    between atoms: N1_2  and  C2_4 
REMARK    2  A    between atoms: C6_10  and  C7_11 
REMARK    3  A    between atoms: C10_14  and  C11_15 
REMARK    4  A    between atoms: N4_28  and  C20_29 
REMARK    5  A    between atoms: C20_29  and  C21_30 
REMARK    6  A    between atoms: C23_33  and  N5_34 
ROOT
HETATM    1  C2  UNL     1      15.699 -16.170  16.790  1.00  0.00     0.679 A 
HETATM    2  N2  UNL     1      16.686 -17.012  17.120  1.00  0.00    -0.201 N 
ATOM      3  H2  UNL     1      16.644 -17.553  17.984  1.00  0.00     0.183 HD
HETATM    4  C3  UNL     1      17.746 -17.129  16.272  1.00  0.00     0.121 A 
HETATM    5  C4  UNL     1      17.814 -16.405  15.103  1.00  0.00     0.026 A 
HETATM    6  C5  UNL     1      18.896 -16.542  14.266  1.00  0.00     0.034 A 
HETATM    7  C6  UNL     1      18.915 -15.804  13.121  1.00  0.00     0.045 A 
HETATM    8  C19 UNL     1      17.863 -14.941  12.822  1.00  0.00     0.260 A 
HETATM    9  O1  UNL     1      17.968 -14.299  11.741  1.00  0.00    -0.267 OA
HETATM   10  N4  UNL     1      16.810 -14.811  13.640  1.00  0.00    -0.294 N 
HETATM   11  C25 UNL     1      16.795 -15.540  14.767  1.00  0.00     0.138 A 
HETATM   12  N6  UNL     1      15.770 -15.466  15.648  1.00  0.00    -0.176 N 
ATOM     13  H6  UNL     1      14.999 -14.833  15.430  1.00  0.00     0.186 HD
ENDROOT
BRANCH   7  14
HETATM   14  C7  UNL     1      20.033 -15.922  12.203  1.00  0.00     0.001 A 
HETATM   15  C8  UNL     1      21.222 -15.257  12.406  1.00  0.00     0.015 A 
HETATM   16  C9  UNL     1      22.231 -15.410  11.486  1.00  0.00     0.014 A 
HETATM   17  C10 UNL     1      22.118 -16.193  10.370  1.00  0.00    -0.008 A 
HETATM   18  C17 UNL     1      20.906 -16.850  10.193  1.00  0.00     0.038 A 
HETATM   19  C18 UNL     1      19.878 -16.720  11.091  1.00  0.00     0.046 A 
HETATM   20 CL1  UNL     1      18.371 -17.595  10.813  1.00  0.00    -0.083 Cl
BRANCH  17  21
HETATM   21  C11 UNL     1      23.163 -16.376   9.374  1.00  0.00     0.042 A 
HETATM   22  C12 UNL     1      24.408 -16.755   9.741  1.00  0.00     0.030 A 
HETATM   23  C13 UNL     1      25.424 -16.935   8.789  1.00  0.00     0.004 A 
HETATM   24  C14 UNL     1      25.082 -16.706   7.479  1.00  0.00     0.024 A 
HETATM   25  C15 UNL     1      23.821 -16.320   7.091  1.00  0.00     0.005 A 
HETATM   26  C16 UNL     1      23.478 -16.083   5.668  1.00  0.00     0.068 C 
HETATM   27  N3  UNL     1      22.904 -16.168   8.053  1.00  0.00    -0.359 N 
ATOM     28  H3  UNL     1      21.963 -15.881   7.783  1.00  0.00     0.166 HD
ENDBRANCH  17  21
ENDBRANCH   7  14
BRANCH  10  29
HETATM   29  C20 UNL     1      15.724 -13.946  13.366  1.00  0.00     0.194 C 
BRANCH  29  30
HETATM   30  C21 UNL     1      15.735 -12.631  14.088  1.00  0.00     0.277 C 
HETATM   31  O2  UNL     1      15.499 -11.649  13.112  1.00  0.00    -0.357 OA
HETATM   32  C22 UNL     1      15.523 -10.376  13.651  1.00  0.00     0.205 C 
HETATM   33  C23 UNL     1      14.617 -10.288  14.851  1.00  0.00     0.231 C 
HETATM   34  C24 UNL     1      13.895 -11.590  15.006  1.00  0.00     0.205 C 
HETATM   35  O3  UNL     1      14.794 -12.619  15.107  1.00  0.00    -0.357 OA
BRANCH  33  36
HETATM   36  N5  UNL     1      15.438  -9.955  15.991  1.00  0.00    -0.071 N 
ATOM     37  H53 UNL     1      16.216 -10.602  16.123  1.00  0.00     0.274 HD
ATOM     38  H52 UNL     1      15.991  -9.110  15.850  1.00  0.00     0.274 HD
ATOM     39  H51 UNL     1      14.825  -9.899  16.805  1.00  0.00     0.274 HD
ENDBRANCH  33  36
ENDBRANCH  29  30
ENDBRANCH  10  29
BRANCH   1  40
HETATM   40  N1  UNL     1      14.545 -15.998  17.642  1.00  0.00    -0.230 N 
HETATM   41  C1  UNL     1      13.405 -15.244  17.179  1.00  0.00     0.165 C 
ATOM     42  H1  UNL     1      14.536 -16.410  18.574  1.00  0.00     0.177 HD
ENDBRANCH   1  40
TORSDOF 6
ENDMDL
