MODEL 17
REMARK VINA RESULT: -8.716154995      3.409      9.205
REMARK  6 active torsions:
REMARK  status: ('A' for Active; 'I' for Inactive)
REMARK    1  A    between atoms: N1_2  and  C2_4 
REMARK    2  A    between atoms: C6_10  and  C7_11 
REMARK    3  A    between atoms: C10_14  and  C11_15 
REMARK    4  A    between atoms: N4_28  and  C20_29 
REMARK    5  A    between atoms: C20_29  and  C21_30 
REMARK    6  A    between atoms: C23_33  and  N5_34 
ROOT
HETATM    1  C2  UNL     1      21.898 -15.750   8.569  1.00  0.00     0.679 A 
HETATM    2  N2  UNL     1      21.427 -16.951   8.924  1.00  0.00    -0.201 N 
ATOM      3  H2  UNL     1      21.837 -17.806   8.546  1.00  0.00     0.183 HD
HETATM    4  C3  UNL     1      20.387 -17.004   9.802  1.00  0.00     0.121 A 
HETATM    5  C4  UNL     1      19.825 -15.859  10.320  1.00  0.00     0.026 A 
HETATM    6  C5  UNL     1      18.776 -15.942  11.204  1.00  0.00     0.034 A 
HETATM    7  C6  UNL     1      18.255 -14.779  11.687  1.00  0.00     0.045 A 
HETATM    8  C19 UNL     1      18.780 -13.552  11.288  1.00  0.00     0.260 A 
HETATM    9  O1  UNL     1      18.234 -12.531  11.787  1.00  0.00    -0.267 OA
HETATM   10  N4  UNL     1      19.803 -13.476  10.426  1.00  0.00    -0.294 N 
HETATM   11  C25 UNL     1      20.313 -14.624   9.952  1.00  0.00     0.138 A 
HETATM   12  N6  UNL     1      21.346 -14.635   9.077  1.00  0.00    -0.176 N 
ATOM     13  H6  UNL     1      21.731 -13.737   8.783  1.00  0.00     0.186 HD
ENDROOT
BRANCH   7  14
HETATM   14  C7  UNL     1      17.151 -14.818  12.630  1.00  0.00     0.001 A 
HETATM   15  C8  UNL     1      15.851 -14.571  12.249  1.00  0.00     0.015 A 
HETATM   16  C9  UNL     1      14.862 -14.614  13.201  1.00  0.00     0.014 A 
HETATM   17  C10 UNL     1      15.101 -14.891  14.519  1.00  0.00    -0.008 A 
HETATM   18  C17 UNL     1      16.423 -15.136  14.874  1.00  0.00     0.038 A 
HETATM   19  C18 UNL     1      17.435 -15.100  13.949  1.00  0.00     0.046 A 
HETATM   20 CL1  UNL     1      19.089 -15.434  14.464  1.00  0.00    -0.083 Cl
BRANCH  17  21
HETATM   21  C11 UNL     1      14.080 -14.944  15.555  1.00  0.00     0.042 A 
HETATM   22  C12 UNL     1      14.380 -15.387  16.798  1.00  0.00     0.030 A 
HETATM   23  C13 UNL     1      13.404 -15.442  17.805  1.00  0.00     0.004 A 
HETATM   24  C14 UNL     1      12.142 -15.025  17.458  1.00  0.00     0.024 A 
HETATM   25  C15 UNL     1      11.823 -14.574  16.199  1.00  0.00     0.005 A 
HETATM   26  C16 UNL     1      10.453 -14.126  15.853  1.00  0.00     0.068 C 
HETATM   27  N3  UNL     1      12.804 -14.549  15.290  1.00  0.00    -0.359 N 
ATOM     28  H3  UNL     1      12.585 -14.217  14.351  1.00  0.00     0.166 HD
ENDBRANCH  17  21
ENDBRANCH   7  14
BRANCH  10  29
HETATM   29  C20 UNL     1      20.363 -12.248  10.001  1.00  0.00     0.194 C 
BRANCH  29  30
HETATM   30  C21 UNL     1      19.483 -11.392   9.139  1.00  0.00     0.277 C 
HETATM   31  O2  UNL     1      19.436 -10.133   9.760  1.00  0.00    -0.357 OA
HETATM   32  C22 UNL     1      18.617  -9.254   9.075  1.00  0.00     0.205 C 
HETATM   33  C23 UNL     1      18.986  -9.211   7.614  1.00  0.00     0.231 C 
HETATM   34  C24 UNL     1      20.200 -10.059   7.400  1.00  0.00     0.205 C 
HETATM   35  O3  UNL     1      19.968 -11.336   7.840  1.00  0.00    -0.357 OA
BRANCH  33  36
HETATM   36  N5  UNL     1      17.838  -9.663   6.864  1.00  0.00    -0.071 N 
ATOM     37  H53 UNL     1      17.542 -10.605   7.119  1.00  0.00     0.274 HD
ATOM     38  H52 UNL     1      16.978  -9.178   7.123  1.00  0.00     0.274 HD
ATOM     39  H51 UNL     1      18.064  -9.571   5.873  1.00  0.00     0.274 HD
ENDBRANCH  33  36
ENDBRANCH  29  30
ENDBRANCH  10  29
BRANCH   1  40
HETATM   40  N1  UNL     1      22.999 -15.620   7.643  1.00  0.00    -0.230 N 
HETATM   41  C1  UNL     1      24.059 -16.599   7.632  1.00  0.00     0.165 C 
ATOM     42  H1  UNL     1      23.027 -14.834   6.994  1.00  0.00     0.177 HD
ENDBRANCH   1  40
TORSDOF 6
ENDMDL
