MODEL 20
REMARK VINA RESULT: -8.547321366      2.594      4.274
REMARK  6 active torsions:
REMARK  status: ('A' for Active; 'I' for Inactive)
REMARK    1  A    between atoms: N1_2  and  C2_4 
REMARK    2  A    between atoms: C6_10  and  C7_11 
REMARK    3  A    between atoms: C10_14  and  C11_15 
REMARK    4  A    between atoms: N4_28  and  C20_29 
REMARK    5  A    between atoms: C20_29  and  C21_30 
REMARK    6  A    between atoms: C23_33  and  N5_34 
ROOT
HETATM    1  C2  UNL     1      13.170 -11.898  11.683  1.00  0.00     0.679 A 
HETATM    2  N2  UNL     1      13.218 -12.251  10.392  1.00  0.00    -0.201 N 
ATOM      3  H2  UNL     1      12.418 -12.094   9.778  1.00  0.00     0.183 HD
HETATM    4  C3  UNL     1      14.361 -12.823   9.921  1.00  0.00     0.121 A 
HETATM    5  C4  UNL     1      15.446 -13.039  10.739  1.00  0.00     0.026 A 
HETATM    6  C5  UNL     1      16.587 -13.618  10.237  1.00  0.00     0.034 A 
HETATM    7  C6  UNL     1      17.633 -13.810  11.089  1.00  0.00     0.045 A 
HETATM    8  C19 UNL     1      17.535 -13.426  12.424  1.00  0.00     0.260 A 
HETATM    9  O1  UNL     1      18.553 -13.643  13.136  1.00  0.00    -0.267 OA
HETATM   10  N4  UNL     1      16.421 -12.861  12.909  1.00  0.00    -0.294 N 
HETATM   11  C25 UNL     1      15.392 -12.674  12.067  1.00  0.00     0.138 A 
HETATM   12  N6  UNL     1      14.232 -12.111  12.478  1.00  0.00    -0.176 N 
ATOM     13  H6  UNL     1      14.158 -11.829  13.456  1.00  0.00     0.186 HD
ENDROOT
BRANCH   7  14
HETATM   14  C7  UNL     1      18.862 -14.412  10.601  1.00  0.00     0.001 A 
HETATM   15  C8  UNL     1      19.022 -15.776  10.502  1.00  0.00     0.015 A 
HETATM   16  C9  UNL     1      20.218 -16.271  10.042  1.00  0.00     0.014 A 
HETATM   17  C10 UNL     1      21.268 -15.475   9.675  1.00  0.00    -0.008 A 
HETATM   18  C17 UNL     1      21.077 -14.102   9.787  1.00  0.00     0.038 A 
HETATM   19  C18 UNL     1      19.896 -13.574  10.242  1.00  0.00     0.046 A 
HETATM   20 CL1  UNL     1      19.714 -11.823  10.345  1.00  0.00    -0.083 Cl
BRANCH  17  21
HETATM   21  C11 UNL     1      22.549 -15.962   9.186  1.00  0.00     0.042 A 
HETATM   22  C12 UNL     1      23.490 -16.414  10.047  1.00  0.00     0.030 A 
HETATM   23  C13 UNL     1      24.730 -16.887   9.587  1.00  0.00     0.004 A 
HETATM   24  C14 UNL     1      24.928 -16.861   8.228  1.00  0.00     0.024 A 
HETATM   25  C15 UNL     1      23.981 -16.403   7.342  1.00  0.00     0.005 A 
HETATM   26  C16 UNL     1      24.221 -16.392   5.879  1.00  0.00     0.068 C 
HETATM   27  N3  UNL     1      22.824 -15.969   7.852  1.00  0.00    -0.359 N 
ATOM     28  H3  UNL     1      22.110 -15.625   7.209  1.00  0.00     0.166 HD
ENDBRANCH  17  21
ENDBRANCH   7  14
BRANCH  10  29
HETATM   29  C20 UNL     1      16.288 -12.455  14.258  1.00  0.00     0.194 C 
BRANCH  29  30
HETATM   30  C21 UNL     1      15.721 -13.480  15.196  1.00  0.00     0.277 C 
HETATM   31  O2  UNL     1      14.335 -13.254  15.229  1.00  0.00    -0.357 OA
HETATM   32  C22 UNL     1      13.696 -14.120  16.097  1.00  0.00     0.205 C 
HETATM   33  C23 UNL     1      14.085 -15.547  15.809  1.00  0.00     0.231 C 
HETATM   34  C24 UNL     1      14.961 -15.571  14.596  1.00  0.00     0.205 C 
HETATM   35  O3  UNL     1      16.051 -14.762  14.784  1.00  0.00    -0.357 OA
BRANCH  33  36
HETATM   36  N5  UNL     1      14.736 -16.065  16.990  1.00  0.00    -0.071 N 
ATOM     37  H53 UNL     1      14.902 -15.349  17.699  1.00  0.00     0.274 HD
ATOM     38  H52 UNL     1      14.129 -16.666  17.547  1.00  0.00     0.274 HD
ATOM     39  H51 UNL     1      15.591 -16.532  16.688  1.00  0.00     0.274 HD
ENDBRANCH  33  36
ENDBRANCH  29  30
ENDBRANCH  10  29
BRANCH   1  40
HETATM   40  N1  UNL     1      11.990 -11.286  12.249  1.00  0.00    -0.230 N 
HETATM   41  C1  UNL     1      10.703 -11.923  12.110  1.00  0.00     0.165 C 
ATOM     42  H1  UNL     1      12.067 -10.401  12.748  1.00  0.00     0.177 HD
ENDBRANCH   1  40
TORSDOF 6
ENDMDL
