MODEL 3
REMARK VINA RESULT: -10.493133369      0.902      1.206
REMARK  6 active torsions:
REMARK  status: ('A' for Active; 'I' for Inactive)
REMARK    1  A    between atoms: N1_2  and  C2_4 
REMARK    2  A    between atoms: C6_10  and  C7_11 
REMARK    3  A    between atoms: C10_14  and  C11_15 
REMARK    4  A    between atoms: N4_28  and  C20_29 
REMARK    5  A    between atoms: C20_29  and  C21_30 
REMARK    6  A    between atoms: C23_33  and  N5_34 
ROOT
HETATM    1  C2  UNL     1      15.702 -16.170  16.680  1.00  0.00     0.679 A 
HETATM    2  N2  UNL     1      16.725 -16.946  17.059  1.00  0.00    -0.201 N 
ATOM      3  H2  UNL     1      16.702 -17.444  17.949  1.00  0.00     0.183 HD
HETATM    4  C3  UNL     1      17.796 -17.055  16.224  1.00  0.00     0.121 A 
HETATM    5  C4  UNL     1      17.839 -16.389  15.020  1.00  0.00     0.026 A 
HETATM    6  C5  UNL     1      18.934 -16.516  14.197  1.00  0.00     0.034 A 
HETATM    7  C6  UNL     1      18.927 -15.837  13.017  1.00  0.00     0.045 A 
HETATM    8  C19 UNL     1      17.839 -15.041  12.668  1.00  0.00     0.260 A 
HETATM    9  O1  UNL     1      17.922 -14.450  11.556  1.00  0.00    -0.267 OA
HETATM   10  N4  UNL     1      16.774 -14.920  13.472  1.00  0.00    -0.294 N 
HETATM   11  C25 UNL     1      16.784 -15.591  14.635  1.00  0.00     0.138 A 
HETATM   12  N6  UNL     1      15.749 -15.522  15.504  1.00  0.00    -0.176 N 
ATOM     13  H6  UNL     1      14.951 -14.938  15.250  1.00  0.00     0.186 HD
ENDROOT
BRANCH   7  14
HETATM   14  C7  UNL     1      20.058 -15.947  12.112  1.00  0.00     0.001 A 
HETATM   15  C8  UNL     1      21.219 -15.230  12.297  1.00  0.00     0.015 A 
HETATM   16  C9  UNL     1      22.241 -15.379  11.391  1.00  0.00     0.014 A 
HETATM   17  C10 UNL     1      22.167 -16.209  10.307  1.00  0.00    -0.008 A 
HETATM   18  C17 UNL     1      20.983 -16.920  10.147  1.00  0.00     0.038 A 
HETATM   19  C18 UNL     1      19.943 -16.795  11.031  1.00  0.00     0.046 A 
HETATM   20 CL1  UNL     1      18.473 -17.737  10.777  1.00  0.00    -0.083 Cl
BRANCH  17  21
HETATM   21  C11 UNL     1      23.227 -16.392   9.327  1.00  0.00     0.042 A 
HETATM   22  C12 UNL     1      24.469 -16.765   9.713  1.00  0.00     0.030 A 
HETATM   23  C13 UNL     1      25.499 -16.943   8.776  1.00  0.00     0.004 A 
HETATM   24  C14 UNL     1      25.176 -16.719   7.461  1.00  0.00     0.024 A 
HETATM   25  C15 UNL     1      23.918 -16.339   7.054  1.00  0.00     0.005 A 
HETATM   26  C16 UNL     1      23.596 -16.107   5.625  1.00  0.00     0.068 C 
HETATM   27  N3  UNL     1      22.987 -16.188   8.001  1.00  0.00    -0.359 N 
ATOM     28  H3  UNL     1      22.049 -15.905   7.717  1.00  0.00     0.166 HD
ENDBRANCH  17  21
ENDBRANCH   7  14
BRANCH  10  29
HETATM   29  C20 UNL     1      15.650 -14.123  13.148  1.00  0.00     0.194 C 
BRANCH  29  30
HETATM   30  C21 UNL     1      15.770 -12.662  13.465  1.00  0.00     0.277 C 
HETATM   31  O2  UNL     1      16.773 -12.557  14.443  1.00  0.00    -0.357 OA
HETATM   32  C22 UNL     1      16.956 -11.248  14.850  1.00  0.00     0.205 C 
HETATM   33  C23 UNL     1      17.150 -10.342  13.662  1.00  0.00     0.231 C 
HETATM   34  C24 UNL     1      17.192 -11.178  12.421  1.00  0.00     0.205 C 
HETATM   35  O3  UNL     1      16.051 -11.931  12.320  1.00  0.00    -0.357 OA
BRANCH  33  36
HETATM   36  N5  UNL     1      16.069  -9.385  13.666  1.00  0.00    -0.071 N 
ATOM     37  H53 UNL     1      15.167  -9.802  13.435  1.00  0.00     0.274 HD
ATOM     38  H52 UNL     1      15.829  -9.060  14.603  1.00  0.00     0.274 HD
ATOM     39  H51 UNL     1      16.329  -8.626  13.036  1.00  0.00     0.274 HD
ENDBRANCH  33  36
ENDBRANCH  29  30
ENDBRANCH  10  29
BRANCH   1  40
HETATM   40  N1  UNL     1      14.534 -16.010  17.516  1.00  0.00    -0.230 N 
HETATM   41  C1  UNL     1      13.397 -15.259  17.041  1.00  0.00     0.165 C 
ATOM     42  H1  UNL     1      14.514 -16.429  18.445  1.00  0.00     0.177 HD
ENDBRANCH   1  40
TORSDOF 6
ENDMDL
