MODEL 7
REMARK VINA RESULT: -10.016968023      1.635      1.924
REMARK  6 active torsions:
REMARK  status: ('A' for Active; 'I' for Inactive)
REMARK    1  A    between atoms: N1_2  and  C2_4 
REMARK    2  A    between atoms: C6_10  and  C7_11 
REMARK    3  A    between atoms: C10_14  and  C11_15 
REMARK    4  A    between atoms: N4_28  and  C20_29 
REMARK    5  A    between atoms: C20_29  and  C21_30 
REMARK    6  A    between atoms: C23_33  and  N5_34 
ROOT
HETATM    1  C2  UNL     1      14.579 -15.163  15.716  1.00  0.00     0.679 A 
HETATM    2  N2  UNL     1      14.783 -16.442  15.379  1.00  0.00    -0.201 N 
ATOM      3  H2  UNL     1      14.149 -17.175  15.699  1.00  0.00     0.183 HD
HETATM    4  C3  UNL     1      15.859 -16.741  14.598  1.00  0.00     0.121 A 
HETATM    5  C4  UNL     1      16.722 -15.762  14.159  1.00  0.00     0.026 A 
HETATM    6  C5  UNL     1      17.800 -16.091  13.372  1.00  0.00     0.034 A 
HETATM    7  C6  UNL     1      18.624 -15.086  12.965  1.00  0.00     0.045 A 
HETATM    8  C19 UNL     1      18.369 -13.769  13.342  1.00  0.00     0.260 A 
HETATM    9  O1  UNL     1      19.185 -12.907  12.918  1.00  0.00    -0.267 OA
HETATM   10  N4  UNL     1      17.316 -13.453  14.109  1.00  0.00    -0.294 N 
HETATM   11  C25 UNL     1      16.507 -14.446  14.509  1.00  0.00     0.138 A 
HETATM   12  N6  UNL     1      15.424 -14.211  15.286  1.00  0.00    -0.176 N 
ATOM     13  H6  UNL     1      15.237 -13.247  15.563  1.00  0.00     0.186 HD
ENDROOT
BRANCH   7  14
HETATM   14  C7  UNL     1      19.770 -15.385  12.126  1.00  0.00     0.001 A 
HETATM   15  C8  UNL     1      21.035 -15.555  12.645  1.00  0.00     0.015 A 
HETATM   16  C9  UNL     1      22.072 -15.825  11.786  1.00  0.00     0.014 A 
HETATM   17  C10 UNL     1      21.916 -15.935  10.432  1.00  0.00    -0.008 A 
HETATM   18  C17 UNL     1      20.628 -15.758   9.938  1.00  0.00     0.038 A 
HETATM   19  C18 UNL     1      19.570 -15.487  10.766  1.00  0.00     0.046 A 
HETATM   20 CL1  UNL     1      17.959 -15.288  10.075  1.00  0.00    -0.083 Cl
BRANCH  17  21
HETATM   21  C11 UNL     1      22.990 -16.217   9.491  1.00  0.00     0.042 A 
HETATM   22  C12 UNL     1      24.205 -16.621   9.931  1.00  0.00     0.030 A 
HETATM   23  C13 UNL     1      25.248 -16.896   9.032  1.00  0.00     0.004 A 
HETATM   24  C14 UNL     1      24.967 -16.732   7.698  1.00  0.00     0.024 A 
HETATM   25  C15 UNL     1      23.737 -16.322   7.238  1.00  0.00     0.005 A 
HETATM   26  C16 UNL     1      23.460 -16.157   5.791  1.00  0.00     0.068 C 
HETATM   27  N3  UNL     1      22.791 -16.078   8.151  1.00  0.00    -0.359 N 
ATOM     28  H3  UNL     1      21.873 -15.772   7.827  1.00  0.00     0.166 HD
ENDBRANCH  17  21
ENDBRANCH   7  14
BRANCH  10  29
HETATM   29  C20 UNL     1      17.026 -12.126  14.509  1.00  0.00     0.194 C 
BRANCH  29  30
HETATM   30  C21 UNL     1      16.173 -11.331  13.565  1.00  0.00     0.277 C 
HETATM   31  O2  UNL     1      17.049 -10.475  12.876  1.00  0.00    -0.357 OA
HETATM   32  C22 UNL     1      16.373  -9.654  11.993  1.00  0.00     0.205 C 
HETATM   33  C23 UNL     1      15.466 -10.462  11.101  1.00  0.00     0.231 C 
HETATM   34  C24 UNL     1      15.676 -11.915  11.392  1.00  0.00     0.205 C 
HETATM   35  O3  UNL     1      15.458 -12.167  12.721  1.00  0.00    -0.357 OA
BRANCH  33  36
HETATM   36  N5  UNL     1      14.113 -10.023  11.348  1.00  0.00    -0.071 N 
ATOM     37  H53 UNL     1      13.412 -10.677  10.999  1.00  0.00     0.274 HD
ATOM     38  H52 UNL     1      13.855 -10.065  12.334  1.00  0.00     0.274 HD
ATOM     39  H51 UNL     1      14.017  -9.088  10.951  1.00  0.00     0.274 HD
ENDBRANCH  33  36
ENDBRANCH  29  30
ENDBRANCH  10  29
BRANCH   1  40
HETATM   40  N1  UNL     1      13.458 -14.776  16.541  1.00  0.00    -0.230 N 
HETATM   41  C1  UNL     1      12.186 -14.459  15.938  1.00  0.00     0.165 C 
ATOM     42  H1  UNL     1      13.566 -14.726  17.554  1.00  0.00     0.177 HD
ENDBRANCH   1  40
TORSDOF 6
ENDMDL
