MODEL 5
REMARK VINA RESULT: -9.672601227      1.994      2.916
REMARK  8 active torsions:
REMARK  status: ('A' for Active; 'I' for Inactive)
REMARK    1  A    between atoms: C2_2  and  N1_3 
REMARK    2  A    between atoms: C3_4  and  O1_5 
REMARK    3  A    between atoms: C4_7  and  C5_8 
REMARK    4  A    between atoms: C8_11  and  C9_12 
REMARK    5  A    between atoms: C19_29  and  N5_30 
REMARK    6  A    between atoms: N5_30  and  C20_32 
REMARK    7  A    between atoms: C20_32  and  C21_33 
REMARK    8  A    between atoms: C21_33  and  C22_34 
ROOT
HETATM    1  N1  UNL     1      13.490  35.251 -15.755  1.00  0.00    -0.313 N 
HETATM    2  C3  UNL     1      12.191  35.269 -15.178  1.00  0.00     0.151 A 
HETATM    3  C4  UNL     1      11.961  35.137 -13.874  1.00  0.00     0.009 A 
HETATM    4  C16 UNL     1      13.090  34.970 -12.955  1.00  0.00     0.088 A 
HETATM    5  C17 UNL     1      14.428  34.956 -13.583  1.00  0.00     0.007 A 
HETATM    6  C18 UNL     1      15.511  34.812 -12.748  1.00  0.00     0.117 A 
HETATM    7  N4  UNL     1      16.744  34.807 -13.284  1.00  0.00    -0.201 N 
ATOM      8  H4  UNL     1      17.552  34.700 -12.672  1.00  0.00     0.183 HD
HETATM    9  C19 UNL     1      16.939  34.942 -14.626  1.00  0.00     0.679 A 
HETATM   10  N7  UNL     1      15.887  35.082 -15.450  1.00  0.00    -0.176 N 
ATOM     11  H7  UNL     1      16.026  35.182 -16.455  1.00  0.00     0.186 HD
HETATM   12  C28 UNL     1      14.633  35.089 -14.924  1.00  0.00     0.133 A 
ENDROOT
BRANCH   3  13
HETATM   13  C5  UNL     1      10.572  35.186 -13.426  1.00  0.00    -0.004 A 
HETATM   14  C6  UNL     1       9.957  33.932 -13.245  1.00  0.00     0.014 A 
HETATM   15  C7  UNL     1       8.649  33.936 -12.825  1.00  0.00     0.014 A 
HETATM   16  C8  UNL     1       7.957  35.098 -12.589  1.00  0.00    -0.006 A 
HETATM   17  C14 UNL     1       8.579  36.317 -12.772  1.00  0.00     0.038 A 
HETATM   18  C15 UNL     1       9.900  36.354 -13.195  1.00  0.00     0.045 A 
HETATM   19 CL1  UNL     1      10.676  37.924 -13.391  1.00  0.00    -0.083 Cl
BRANCH  16  20
HETATM   20  C9  UNL     1       6.576  35.101 -12.163  1.00  0.00     0.058 A 
HETATM   21  C10 UNL     1       5.587  35.475 -13.030  1.00  0.00     0.117 A 
HETATM   22  N2  UNL     1       4.274  35.492 -12.647  1.00  0.00    -0.371 N 
HETATM   23  C11 UNL     1       3.953  35.140 -11.408  1.00  0.00     0.112 A 
ATOM     24  H2  UNL     1       3.548  35.773 -13.307  1.00  0.00     0.164 HD
HETATM   25  C12 UNL     1       4.926  34.755 -10.499  1.00  0.00     0.021 A 
HETATM   26  C13 UNL     1       4.504  34.374  -9.128  1.00  0.00     0.069 C 
HETATM   27  N3  UNL     1       6.206  34.750 -10.909  1.00  0.00    -0.357 N 
ATOM     28  H3  UNL     1       6.929  34.469 -10.247  1.00  0.00     0.166 HD
ENDBRANCH  16  20
ENDBRANCH   3  13
BRANCH   2  29
HETATM   29  O1  UNL     1      11.127  35.441 -16.090  1.00  0.00    -0.345 OA
ATOM     30  H1  UNL     1      10.298  35.697 -15.705  1.00  0.00     0.219 HD
ENDBRANCH   2  29
BRANCH   1  31
HETATM   31  C2  UNL     1      13.676  35.392 -17.187  1.00  0.00     0.128 C 
HETATM   32  C1  UNL     1      13.603  34.030 -17.814  1.00  0.00     0.027 C 
ENDBRANCH   1  31
BRANCH   9  33
HETATM   33  N5  UNL     1      18.277  34.954 -15.135  1.00  0.00    -0.226 N 
ATOM     34  H5  UNL     1      19.056  35.093 -14.491  1.00  0.00     0.177 HD
BRANCH  33  35
HETATM   35  C20 UNL     1      18.545  34.772 -16.534  1.00  0.00     0.138 C 
BRANCH  35  36
HETATM   36  C21 UNL     1      18.958  36.092 -17.129  1.00  0.00     0.025 C 
BRANCH  36  37
HETATM   37  C22 UNL     1      20.248  35.799 -17.913  1.00  0.00    -0.010 C 
HETATM   38  C23 UNL     1      19.865  34.808 -18.991  1.00  0.00     0.035 C 
HETATM   39  C24 UNL     1      21.039  33.968 -19.364  1.00  0.00     0.272 C 
HETATM   40  N6  UNL     1      22.293  34.673 -19.197  1.00  0.00     0.084 N 
HETATM   41  C25 UNL     1      23.327  33.789 -19.743  1.00  0.00     0.309 C 
HETATM   42  C26 UNL     1      22.530  34.931 -17.786  1.00  0.00     0.272 C 
HETATM   43  C27 UNL     1      21.263  35.150 -17.011  1.00  0.00     0.035 C 
ENDBRANCH  36  37
ENDBRANCH  35  36
ENDBRANCH  33  35
ENDBRANCH   9  33
TORSDOF 8
ENDMDL
