MODEL 4
REMARK VINA RESULT: -9.782339462      1.030      1.532
REMARK  8 active torsions:
REMARK  status: ('A' for Active; 'I' for Inactive)
REMARK    1  A    between atoms: C2_2  and  N1_3 
REMARK    2  A    between atoms: C3_4  and  O1_5 
REMARK    3  A    between atoms: C4_7  and  C5_8 
REMARK    4  A    between atoms: C8_11  and  C9_12 
REMARK    5  A    between atoms: C19_29  and  N5_30 
REMARK    6  A    between atoms: N5_30  and  C20_32 
REMARK    7  A    between atoms: C20_32  and  C21_33 
REMARK    8  A    between atoms: C21_33  and  C22_34 
ROOT
HETATM    1  N1  UNL     1      13.182  34.501 -15.239  1.00  0.00    -0.313 N 
HETATM    2  C3  UNL     1      11.891  34.589 -14.653  1.00  0.00     0.151 A 
HETATM    3  C4  UNL     1      11.682  34.797 -13.355  1.00  0.00     0.009 A 
HETATM    4  C16 UNL     1      12.827  34.956 -12.456  1.00  0.00     0.088 A 
HETATM    5  C17 UNL     1      14.158  34.862 -13.094  1.00  0.00     0.007 A 
HETATM    6  C18 UNL     1      15.256  35.017 -12.280  1.00  0.00     0.117 A 
HETATM    7  N4  UNL     1      16.481  34.949 -12.829  1.00  0.00    -0.201 N 
ATOM      8  H4  UNL     1      17.300  35.063 -12.233  1.00  0.00     0.183 HD
HETATM    9  C19 UNL     1      16.654  34.731 -14.163  1.00  0.00     0.679 A 
HETATM   10  N7  UNL     1      15.588  34.577 -14.965  1.00  0.00    -0.176 N 
ATOM     11  H7  UNL     1      15.711  34.412 -15.964  1.00  0.00     0.186 HD
HETATM   12  C28 UNL     1      14.341  34.643 -14.426  1.00  0.00     0.133 A 
ENDROOT
BRANCH   3  13
HETATM   13  C5  UNL     1      10.297  34.874 -12.899  1.00  0.00    -0.004 A 
HETATM   14  C6  UNL     1       9.775  33.679 -12.366  1.00  0.00     0.014 A 
HETATM   15  C7  UNL     1       8.473  33.710 -11.928  1.00  0.00     0.014 A 
HETATM   16  C8  UNL     1       7.702  34.844 -11.997  1.00  0.00    -0.006 A 
HETATM   17  C14 UNL     1       8.233  36.005 -12.522  1.00  0.00     0.038 A 
HETATM   18  C15 UNL     1       9.545  36.013 -12.975  1.00  0.00     0.045 A 
HETATM   19 CL1  UNL     1      10.205  37.518 -13.612  1.00  0.00    -0.083 Cl
BRANCH  16  20
HETATM   20  C9  UNL     1       6.328  34.872 -11.550  1.00  0.00     0.058 A 
HETATM   21  C10 UNL     1       6.012  34.504 -10.271  1.00  0.00     0.117 A 
HETATM   22  N2  UNL     1       4.718  34.516  -9.827  1.00  0.00    -0.371 N 
HETATM   23  C11 UNL     1       3.749  34.891 -10.654  1.00  0.00     0.112 A 
ATOM     24  H2  UNL     1       4.499  34.240  -8.870  1.00  0.00     0.164 HD
HETATM   25  C12 UNL     1       4.029  35.271 -11.958  1.00  0.00     0.021 A 
HETATM   26  C13 UNL     1       2.903  35.679 -12.834  1.00  0.00     0.069 C 
HETATM   27  N3  UNL     1       5.310  35.247 -12.361  1.00  0.00    -0.357 N 
ATOM     28  H3  UNL     1       5.526  35.523 -13.318  1.00  0.00     0.166 HD
ENDBRANCH  16  20
ENDBRANCH   3  13
BRANCH   2  29
HETATM   29  O1  UNL     1      10.809  34.440 -15.549  1.00  0.00    -0.345 OA
ATOM     30  H1  UNL     1      10.076  33.933 -15.220  1.00  0.00     0.219 HD
ENDBRANCH   2  29
BRANCH   1  31
HETATM   31  C2  UNL     1      13.346  34.265 -16.661  1.00  0.00     0.128 C 
HETATM   32  C1  UNL     1      13.346  35.590 -17.368  1.00  0.00     0.027 C 
ENDBRANCH   1  31
BRANCH   9  33
HETATM   33  N5  UNL     1      17.984  34.693 -14.692  1.00  0.00    -0.226 N 
ATOM     34  H5  UNL     1      18.771  34.924 -14.086  1.00  0.00     0.177 HD
BRANCH  33  35
HETATM   35  C20 UNL     1      18.232  34.334 -16.061  1.00  0.00     0.138 C 
BRANCH  35  36
HETATM   36  C21 UNL     1      18.654  35.564 -16.821  1.00  0.00     0.025 C 
BRANCH  36  37
HETATM   37  C22 UNL     1      17.579  35.765 -17.902  1.00  0.00    -0.010 C 
HETATM   38  C23 UNL     1      16.994  34.394 -18.168  1.00  0.00     0.035 C 
HETATM   39  C24 UNL     1      16.471  34.316 -19.563  1.00  0.00     0.272 C 
HETATM   40  N6  UNL     1      16.009  35.600 -20.048  1.00  0.00     0.084 N 
HETATM   41  C25 UNL     1      15.389  35.337 -21.350  1.00  0.00     0.309 C 
HETATM   42  C26 UNL     1      17.135  36.509 -20.187  1.00  0.00     0.272 C 
HETATM   43  C27 UNL     1      18.213  36.265 -19.172  1.00  0.00     0.035 C 
ENDBRANCH  36  37
ENDBRANCH  35  36
ENDBRANCH  33  35
ENDBRANCH   9  33
TORSDOF 8
ENDMDL
