MODEL 2
REMARK VINA RESULT: -9.949057150      1.568      2.431
REMARK  8 active torsions:
REMARK  status: ('A' for Active; 'I' for Inactive)
REMARK    1  A    between atoms: C2_2  and  N1_3 
REMARK    2  A    between atoms: C3_4  and  O1_5 
REMARK    3  A    between atoms: C4_7  and  C5_8 
REMARK    4  A    between atoms: C8_11  and  C9_12 
REMARK    5  A    between atoms: C19_29  and  N5_30 
REMARK    6  A    between atoms: N5_30  and  C20_32 
REMARK    7  A    between atoms: C20_32  and  C21_33 
REMARK    8  A    between atoms: C21_33  and  C22_34 
ROOT
HETATM    1  N1  UNL     1      13.104  34.132 -15.182  1.00  0.00    -0.313 N 
HETATM    2  C3  UNL     1      11.826  34.260 -14.575  1.00  0.00     0.151 A 
HETATM    3  C4  UNL     1      11.643  34.651 -13.316  1.00  0.00     0.009 A 
HETATM    4  C16 UNL     1      12.804  34.983 -12.487  1.00  0.00     0.088 A 
HETATM    5  C17 UNL     1      14.121  34.842 -13.146  1.00  0.00     0.007 A 
HETATM    6  C18 UNL     1      15.232  35.157 -12.400  1.00  0.00     0.117 A 
HETATM    7  N4  UNL     1      16.444  35.052 -12.970  1.00  0.00    -0.201 N 
ATOM      8  H4  UNL     1      17.273  35.283 -12.424  1.00  0.00     0.183 HD
HETATM    9  C19 UNL     1      16.591  34.644 -14.263  1.00  0.00     0.679 A 
HETATM   10  N7  UNL     1      15.511  34.334 -14.999  1.00  0.00    -0.176 N 
ATOM     11  H7  UNL     1      15.615  34.028 -15.966  1.00  0.00     0.186 HD
HETATM   12  C28 UNL     1      14.277  34.435 -14.437  1.00  0.00     0.133 A 
ENDROOT
BRANCH   3  13
HETATM   13  C5  UNL     1      10.269  34.744 -12.833  1.00  0.00    -0.004 A 
HETATM   14  C6  UNL     1       9.796  33.608 -12.148  1.00  0.00     0.014 A 
HETATM   15  C7  UNL     1       8.506  33.657 -11.679  1.00  0.00     0.014 A 
HETATM   16  C8  UNL     1       7.699  34.753 -11.860  1.00  0.00    -0.006 A 
HETATM   17  C14 UNL     1       8.182  35.857 -12.534  1.00  0.00     0.038 A 
HETATM   18  C15 UNL     1       9.481  35.846 -13.022  1.00  0.00     0.045 A 
HETATM   19 CL1  UNL     1      10.079  37.281 -13.852  1.00  0.00    -0.083 Cl
BRANCH  16  20
HETATM   20  C9  UNL     1       6.337  34.798 -11.380  1.00  0.00     0.058 A 
HETATM   21  C10 UNL     1       6.030  34.329 -10.132  1.00  0.00     0.117 A 
HETATM   22  N2  UNL     1       4.747  34.355  -9.659  1.00  0.00    -0.371 N 
HETATM   23  C11 UNL     1       3.779  34.844 -10.426  1.00  0.00     0.112 A 
ATOM     24  H2  UNL     1       4.535  34.002  -8.725  1.00  0.00     0.164 HD
HETATM   25  C12 UNL     1       4.050  35.328 -11.696  1.00  0.00     0.021 A 
HETATM   26  C13 UNL     1       2.926  35.860 -12.506  1.00  0.00     0.069 C 
HETATM   27  N3  UNL     1       5.321  35.287 -12.130  1.00  0.00    -0.357 N 
ATOM     28  H3  UNL     1       5.530  35.640 -13.063  1.00  0.00     0.166 HD
ENDBRANCH  16  20
ENDBRANCH   3  13
BRANCH   2  29
HETATM   29  O1  UNL     1      10.729  33.940 -15.405  1.00  0.00    -0.345 OA
ATOM     30  H1  UNL     1      10.650  34.462 -16.195  1.00  0.00     0.219 HD
ENDBRANCH   2  29
BRANCH   1  31
HETATM   31  C2  UNL     1      13.241  33.693 -16.559  1.00  0.00     0.128 C 
HETATM   32  C1  UNL     1      13.369  32.197 -16.572  1.00  0.00     0.027 C 
ENDBRANCH   1  31
BRANCH   9  33
HETATM   33  N5  UNL     1      17.907  34.576 -14.822  1.00  0.00    -0.226 N 
ATOM     34  H5  UNL     1      18.717  34.605 -14.203  1.00  0.00     0.177 HD
BRANCH  33  35
HETATM   35  C20 UNL     1      18.110  34.466 -16.240  1.00  0.00     0.138 C 
BRANCH  35  36
HETATM   36  C21 UNL     1      18.379  35.836 -16.805  1.00  0.00     0.025 C 
BRANCH  36  37
HETATM   37  C22 UNL     1      19.692  35.700 -17.593  1.00  0.00    -0.010 C 
HETATM   38  C23 UNL     1      19.411  34.713 -18.706  1.00  0.00     0.035 C 
HETATM   39  C24 UNL     1      20.664  34.008 -19.103  1.00  0.00     0.272 C 
HETATM   40  N6  UNL     1      21.841  34.829 -18.906  1.00  0.00     0.084 N 
HETATM   41  C25 UNL     1      22.958  34.072 -19.478  1.00  0.00     0.309 C 
HETATM   42  C26 UNL     1      22.049  35.061 -17.486  1.00  0.00     0.272 C 
HETATM   43  C27 UNL     1      20.767  35.125 -16.709  1.00  0.00     0.035 C 
ENDBRANCH  36  37
ENDBRANCH  35  36
ENDBRANCH  33  35
ENDBRANCH   9  33
TORSDOF 8
ENDMDL
