MODEL 1
REMARK VINA RESULT: -10.075074789      0.000      0.000
REMARK  8 active torsions:
REMARK  status: ('A' for Active; 'I' for Inactive)
REMARK    1  A    between atoms: C2_2  and  N1_3 
REMARK    2  A    between atoms: C3_4  and  O1_5 
REMARK    3  A    between atoms: C4_7  and  C5_8 
REMARK    4  A    between atoms: C8_11  and  C9_12 
REMARK    5  A    between atoms: C19_29  and  N5_30 
REMARK    6  A    between atoms: N5_30  and  C20_32 
REMARK    7  A    between atoms: C20_32  and  C21_33 
REMARK    8  A    between atoms: C21_33  and  C22_34 
ROOT
HETATM    1  N1  UNL     1      13.095  34.116 -15.212  1.00  0.00    -0.313 N 
HETATM    2  C3  UNL     1      11.822  34.242 -14.594  1.00  0.00     0.151 A 
HETATM    3  C4  UNL     1      11.649  34.632 -13.333  1.00  0.00     0.009 A 
HETATM    4  C16 UNL     1      12.817  34.965 -12.514  1.00  0.00     0.088 A 
HETATM    5  C17 UNL     1      14.128  34.826 -13.184  1.00  0.00     0.007 A 
HETATM    6  C18 UNL     1      15.245  35.142 -12.447  1.00  0.00     0.117 A 
HETATM    7  N4  UNL     1      16.452  35.038 -13.027  1.00  0.00    -0.201 N 
ATOM      8  H4  UNL     1      17.286  35.270 -12.487  1.00  0.00     0.183 HD
HETATM    9  C19 UNL     1      16.589  34.632 -14.321  1.00  0.00     0.679 A 
HETATM   10  N7  UNL     1      15.503  34.320 -15.049  1.00  0.00    -0.176 N 
ATOM     11  H7  UNL     1      15.600  34.014 -16.017  1.00  0.00     0.186 HD
HETATM   12  C28 UNL     1      14.274  34.419 -14.476  1.00  0.00     0.133 A 
ENDROOT
BRANCH   3  13
HETATM   13  C5  UNL     1      10.279  34.724 -12.839  1.00  0.00    -0.004 A 
HETATM   14  C6  UNL     1       9.812  33.585 -12.154  1.00  0.00     0.014 A 
HETATM   15  C7  UNL     1       8.525  33.632 -11.674  1.00  0.00     0.014 A 
HETATM   16  C8  UNL     1       7.717  34.729 -11.845  1.00  0.00    -0.006 A 
HETATM   17  C14 UNL     1       8.194  35.835 -12.518  1.00  0.00     0.038 A 
HETATM   18  C15 UNL     1       9.490  35.826 -13.018  1.00  0.00     0.045 A 
HETATM   19 CL1  UNL     1      10.081  37.264 -13.848  1.00  0.00    -0.083 Cl
BRANCH  16  20
HETATM   20  C9  UNL     1       6.359  34.772 -11.354  1.00  0.00     0.058 A 
HETATM   21  C10 UNL     1       6.062  34.303 -10.104  1.00  0.00     0.117 A 
HETATM   22  N2  UNL     1       4.783  34.327  -9.620  1.00  0.00    -0.371 N 
HETATM   23  C11 UNL     1       3.809  34.815 -10.378  1.00  0.00     0.112 A 
ATOM     24  H2  UNL     1       4.579  33.974  -8.685  1.00  0.00     0.164 HD
HETATM   25  C12 UNL     1       4.069  35.300 -11.651  1.00  0.00     0.021 A 
HETATM   26  C13 UNL     1       2.938  35.831 -12.451  1.00  0.00     0.069 C 
HETATM   27  N3  UNL     1       5.336  35.261 -12.095  1.00  0.00    -0.357 N 
ATOM     28  H3  UNL     1       5.537  35.614 -13.030  1.00  0.00     0.166 HD
ENDBRANCH  16  20
ENDBRANCH   3  13
BRANCH   2  29
HETATM   29  O1  UNL     1      10.718  33.921 -15.414  1.00  0.00    -0.345 OA
ATOM     30  H1  UNL     1      10.193  33.186 -15.122  1.00  0.00     0.219 HD
ENDBRANCH   2  29
BRANCH   1  31
HETATM   31  C2  UNL     1      13.221  33.677 -16.590  1.00  0.00     0.128 C 
HETATM   32  C1  UNL     1      13.344  32.181 -16.605  1.00  0.00     0.027 C 
ENDBRANCH   1  31
BRANCH   9  33
HETATM   33  N5  UNL     1      17.901  34.565 -14.892  1.00  0.00    -0.226 N 
ATOM     34  H5  UNL     1      18.559  35.325 -14.723  1.00  0.00     0.177 HD
BRANCH  33  35
HETATM   35  C20 UNL     1      18.307  33.446 -15.697  1.00  0.00     0.138 C 
BRANCH  35  36
HETATM   36  C21 UNL     1      18.927  33.959 -16.970  1.00  0.00     0.025 C 
BRANCH  36  37
HETATM   37  C22 UNL     1      18.031  33.430 -18.101  1.00  0.00    -0.010 C 
HETATM   38  C23 UNL     1      17.127  34.581 -18.491  1.00  0.00     0.035 C 
HETATM   39  C24 UNL     1      15.843  34.066 -19.047  1.00  0.00     0.272 C 
HETATM   40  N6  UNL     1      16.004  32.787 -19.707  1.00  0.00     0.084 N 
HETATM   41  C25 UNL     1      14.710  32.490 -20.329  1.00  0.00     0.309 C 
HETATM   42  C26 UNL     1      16.352  31.768 -18.731  1.00  0.00     0.272 C 
HETATM   43  C27 UNL     1      17.171  32.303 -17.592  1.00  0.00     0.035 C 
ENDBRANCH  36  37
ENDBRANCH  35  36
ENDBRANCH  33  35
ENDBRANCH   9  33
TORSDOF 8
ENDMDL
