MODEL 3
REMARK VINA RESULT: -9.855796299      1.432      2.250
REMARK  8 active torsions:
REMARK  status: ('A' for Active; 'I' for Inactive)
REMARK    1  A    between atoms: C2_2  and  N1_3 
REMARK    2  A    between atoms: C3_4  and  O1_5 
REMARK    3  A    between atoms: C4_7  and  C5_8 
REMARK    4  A    between atoms: C8_11  and  C9_12 
REMARK    5  A    between atoms: C19_29  and  N5_30 
REMARK    6  A    between atoms: N5_30  and  C20_32 
REMARK    7  A    between atoms: C20_32  and  C21_33 
REMARK    8  A    between atoms: C21_33  and  C22_34 
ROOT
HETATM    1  N1  UNL     1      13.068  34.115 -15.235  1.00  0.00    -0.313 N 
HETATM    2  C3  UNL     1      11.798  34.243 -14.611  1.00  0.00     0.151 A 
HETATM    3  C4  UNL     1      11.633  34.636 -13.350  1.00  0.00     0.009 A 
HETATM    4  C16 UNL     1      12.805  34.968 -12.537  1.00  0.00     0.088 A 
HETATM    5  C17 UNL     1      14.113  34.827 -13.214  1.00  0.00     0.007 A 
HETATM    6  C18 UNL     1      15.234  35.141 -12.483  1.00  0.00     0.117 A 
HETATM    7  N4  UNL     1      16.438  35.036 -13.070  1.00  0.00    -0.201 N 
ATOM      8  H4  UNL     1      17.275  35.267 -12.535  1.00  0.00     0.183 HD
HETATM    9  C19 UNL     1      16.568  34.628 -14.364  1.00  0.00     0.679 A 
HETATM   10  N7  UNL     1      15.477  34.317 -15.085  1.00  0.00    -0.176 N 
ATOM     11  H7  UNL     1      15.568  34.010 -16.054  1.00  0.00     0.186 HD
HETATM   12  C28 UNL     1      14.251  34.418 -14.506  1.00  0.00     0.133 A 
ENDROOT
BRANCH   3  13
HETATM   13  C5  UNL     1      10.265  34.729 -12.848  1.00  0.00    -0.004 A 
HETATM   14  C6  UNL     1       9.798  33.590 -12.164  1.00  0.00     0.014 A 
HETATM   15  C7  UNL     1       8.514  33.639 -11.677  1.00  0.00     0.014 A 
HETATM   16  C8  UNL     1       7.709  34.739 -11.841  1.00  0.00    -0.006 A 
HETATM   17  C14 UNL     1       8.186  35.846 -12.512  1.00  0.00     0.038 A 
HETATM   18  C15 UNL     1       9.478  35.834 -13.019  1.00  0.00     0.045 A 
HETATM   19 CL1  UNL     1      10.070  37.274 -13.846  1.00  0.00    -0.083 Cl
BRANCH  16  20
HETATM   20  C9  UNL     1       6.353  34.784 -11.342  1.00  0.00     0.058 A 
HETATM   21  C10 UNL     1       6.062  34.312 -10.092  1.00  0.00     0.117 A 
HETATM   22  N2  UNL     1       4.785  34.339  -9.601  1.00  0.00    -0.371 N 
HETATM   23  C11 UNL     1       3.809  34.831 -10.353  1.00  0.00     0.112 A 
ATOM     24  H2  UNL     1       4.585  33.983  -8.666  1.00  0.00     0.164 HD
HETATM   25  C12 UNL     1       4.063  35.319 -11.626  1.00  0.00     0.021 A 
HETATM   26  C13 UNL     1       2.929  35.856 -12.418  1.00  0.00     0.069 C 
HETATM   27  N3  UNL     1       5.328  35.278 -12.076  1.00  0.00    -0.357 N 
ATOM     28  H3  UNL     1       5.525  35.633 -13.011  1.00  0.00     0.166 HD
ENDBRANCH  16  20
ENDBRANCH   3  13
BRANCH   2  29
HETATM   29  O1  UNL     1      10.689  33.924 -15.425  1.00  0.00    -0.345 OA
ATOM     30  H1  UNL     1      10.344  33.046 -15.315  1.00  0.00     0.219 HD
ENDBRANCH   2  29
BRANCH   1  31
HETATM   31  C2  UNL     1      13.185  33.675 -16.613  1.00  0.00     0.128 C 
HETATM   32  C1  UNL     1      13.319  32.180 -16.627  1.00  0.00     0.027 C 
ENDBRANCH   1  31
BRANCH   9  33
HETATM   33  N5  UNL     1      17.876  34.558 -14.942  1.00  0.00    -0.226 N 
ATOM     34  H5  UNL     1      18.518  35.341 -14.821  1.00  0.00     0.177 HD
BRANCH  33  35
HETATM   35  C20 UNL     1      18.301  33.407 -15.689  1.00  0.00     0.138 C 
BRANCH  35  36
HETATM   36  C21 UNL     1      18.196  33.712 -17.160  1.00  0.00     0.025 C 
BRANCH  36  37
HETATM   37  C22 UNL     1      18.841  35.097 -17.336  1.00  0.00    -0.010 C 
HETATM   38  C23 UNL     1      17.889  35.892 -18.205  1.00  0.00     0.035 C 
HETATM   39  C24 UNL     1      18.635  36.930 -18.974  1.00  0.00     0.272 C 
HETATM   40  N6  UNL     1      19.811  37.396 -18.269  1.00  0.00     0.084 N 
HETATM   41  C25 UNL     1      20.342  38.507 -19.064  1.00  0.00     0.309 C 
HETATM   42  C26 UNL     1      20.785  36.321 -18.170  1.00  0.00     0.272 C 
HETATM   43  C27 UNL     1      20.151  34.965 -18.066  1.00  0.00     0.035 C 
ENDBRANCH  36  37
ENDBRANCH  35  36
ENDBRANCH  33  35
ENDBRANCH   9  33
TORSDOF 8
ENDMDL
