MODEL 14
REMARK VINA RESULT: -8.719513070      2.491     11.423
REMARK  8 active torsions:
REMARK  status: ('A' for Active; 'I' for Inactive)
REMARK    1  A    between atoms: C2_2  and  N1_3 
REMARK    2  A    between atoms: C3_4  and  O1_5 
REMARK    3  A    between atoms: C4_7  and  C5_8 
REMARK    4  A    between atoms: C8_11  and  C9_12 
REMARK    5  A    between atoms: C19_29  and  N5_30 
REMARK    6  A    between atoms: N5_30  and  C20_32 
REMARK    7  A    between atoms: C20_32  and  C21_33 
REMARK    8  A    between atoms: C21_33  and  C22_34 
ROOT
HETATM    1  N1  UNL     1      12.744  34.471 -13.989  1.00  0.00    -0.313 N 
HETATM    2  C3  UNL     1      13.935  34.510 -14.762  1.00  0.00     0.151 A 
HETATM    3  C4  UNL     1      14.162  33.717 -15.808  1.00  0.00     0.009 A 
HETATM    4  C16 UNL     1      13.143  32.746 -16.212  1.00  0.00     0.088 A 
HETATM    5  C17 UNL     1      11.914  32.729 -15.389  1.00  0.00     0.007 A 
HETATM    6  C18 UNL     1      10.932  31.836 -15.748  1.00  0.00     0.117 A 
HETATM    7  N4  UNL     1       9.797  31.802 -15.030  1.00  0.00    -0.201 N 
ATOM      8  H4  UNL     1       9.063  31.143 -15.289  1.00  0.00     0.183 HD
HETATM    9  C19 UNL     1       9.602  32.628 -13.963  1.00  0.00     0.679 A 
HETATM   10  N7  UNL     1      10.557  33.503 -13.605  1.00  0.00    -0.176 N 
ATOM     11  H7  UNL     1      10.417  34.123 -12.807  1.00  0.00     0.186 HD
HETATM   12  C28 UNL     1      11.711  33.550 -14.321  1.00  0.00     0.133 A 
ENDROOT
BRANCH   3  13
HETATM   13  C5  UNL     1      15.430  33.879 -16.513  1.00  0.00    -0.004 A 
HETATM   14  C6  UNL     1      16.524  33.202 -15.940  1.00  0.00     0.014 A 
HETATM   15  C7  UNL     1      17.736  33.332 -16.574  1.00  0.00     0.014 A 
HETATM   16  C8  UNL     1      17.893  34.082 -17.714  1.00  0.00    -0.006 A 
HETATM   17  C14 UNL     1      16.807  34.736 -18.259  1.00  0.00     0.038 A 
HETATM   18  C15 UNL     1      15.566  34.630 -17.647  1.00  0.00     0.045 A 
HETATM   19 CL1  UNL     1      14.192  35.453 -18.384  1.00  0.00    -0.083 Cl
BRANCH  16  20
HETATM   20  C9  UNL     1      19.171  34.229 -18.371  1.00  0.00     0.058 A 
HETATM   21  C10 UNL     1      19.390  33.652 -19.591  1.00  0.00     0.117 A 
HETATM   22  N2  UNL     1      20.594  33.772 -20.229  1.00  0.00    -0.371 N 
HETATM   23  C11 UNL     1      21.570  34.464 -19.653  1.00  0.00     0.112 A 
ATOM     24  H2  UNL     1      20.741  33.335 -21.139  1.00  0.00     0.164 HD
HETATM   25  C12 UNL     1      21.388  35.064 -18.417  1.00  0.00     0.021 A 
HETATM   26  C13 UNL     1      22.517  35.823 -17.824  1.00  0.00     0.069 C 
HETATM   27  N3  UNL     1      20.193  34.925 -17.818  1.00  0.00    -0.357 N 
ATOM     28  H3  UNL     1      20.049  35.363 -16.909  1.00  0.00     0.166 HD
ENDBRANCH  16  20
ENDBRANCH   3  13
BRANCH   2  29
HETATM   29  O1  UNL     1      14.892  35.463 -14.351  1.00  0.00    -0.345 OA
ATOM     30  H1  UNL     1      15.565  35.666 -14.990  1.00  0.00     0.219 HD
ENDBRANCH   2  29
BRANCH   1  31
HETATM   31  C2  UNL     1      12.557  35.356 -12.854  1.00  0.00     0.128 C 
HETATM   32  C1  UNL     1      13.135  34.698 -11.635  1.00  0.00     0.027 C 
ENDBRANCH   1  31
BRANCH   9  33
HETATM   33  N5  UNL     1       8.361  32.561 -13.252  1.00  0.00    -0.226 N 
ATOM     34  H5  UNL     1       7.508  32.318 -13.755  1.00  0.00     0.177 HD
BRANCH  33  35
HETATM   35  C20 UNL     1       8.294  32.831 -11.843  1.00  0.00     0.138 C 
BRANCH  35  36
HETATM   36  C21 UNL     1       7.991  34.292 -11.637  1.00  0.00     0.025 C 
BRANCH  36  37
HETATM   37  C22 UNL     1       6.463  34.413 -11.768  1.00  0.00    -0.010 C 
HETATM   38  C23 UNL     1       6.216  35.573 -12.708  1.00  0.00     0.035 C 
HETATM   39  C24 UNL     1       4.897  36.204 -12.417  1.00  0.00     0.272 C 
HETATM   40  N6  UNL     1       3.939  35.254 -11.890  1.00  0.00     0.084 N 
HETATM   41  C25 UNL     1       2.665  35.975 -11.803  1.00  0.00     0.309 C 
HETATM   42  C26 UNL     1       4.365  34.801 -10.576  1.00  0.00     0.272 C 
HETATM   43  C27 UNL     1       5.858  34.749 -10.431  1.00  0.00     0.035 C 
ENDBRANCH  36  37
ENDBRANCH  35  36
ENDBRANCH  33  35
ENDBRANCH   9  33
TORSDOF 8
ENDMDL
