MODEL 7
REMARK VINA RESULT: -9.359867388      2.616     10.686
REMARK  8 active torsions:
REMARK  status: ('A' for Active; 'I' for Inactive)
REMARK    1  A    between atoms: C2_2  and  N1_3 
REMARK    2  A    between atoms: C3_4  and  O1_5 
REMARK    3  A    between atoms: C4_7  and  C5_8 
REMARK    4  A    between atoms: C8_11  and  C9_12 
REMARK    5  A    between atoms: C19_29  and  N5_30 
REMARK    6  A    between atoms: N5_30  and  C20_32 
REMARK    7  A    between atoms: C20_32  and  C21_33 
REMARK    8  A    between atoms: C21_33  and  C22_34 
ROOT
HETATM    1  N1  UNL     1       9.855  33.720 -13.599  1.00  0.00    -0.313 N 
HETATM    2  C3  UNL     1      11.205  33.897 -14.003  1.00  0.00     0.151 A 
HETATM    3  C4  UNL     1      11.834  35.070 -13.981  1.00  0.00     0.009 A 
HETATM    4  C16 UNL     1      11.123  36.261 -13.511  1.00  0.00     0.088 A 
HETATM    5  C17 UNL     1       9.720  36.046 -13.096  1.00  0.00     0.007 A 
HETATM    6  C18 UNL     1       9.027  37.143 -12.639  1.00  0.00     0.117 A 
HETATM    7  N4  UNL     1       7.753  36.981 -12.243  1.00  0.00    -0.201 N 
ATOM      8  H4  UNL     1       7.232  37.789 -11.903  1.00  0.00     0.183 HD
HETATM    9  C19 UNL     1       7.142  35.764 -12.283  1.00  0.00     0.679 A 
HETATM   10  N7  UNL     1       7.812  34.688 -12.729  1.00  0.00    -0.176 N 
ATOM     11  H7  UNL     1       7.359  33.774 -12.763  1.00  0.00     0.186 HD
HETATM   12  C28 UNL     1       9.101  34.834 -13.135  1.00  0.00     0.133 A 
ENDROOT
BRANCH   3  13
HETATM   13  C5  UNL     1      13.227  35.096 -14.417  1.00  0.00    -0.004 A 
HETATM   14  C6  UNL     1      13.420  35.327 -15.793  1.00  0.00     0.014 A 
HETATM   15  C7  UNL     1      14.717  35.356 -16.243  1.00  0.00     0.014 A 
HETATM   16  C8  UNL     1      15.790  35.171 -15.406  1.00  0.00    -0.006 A 
HETATM   17  C14 UNL     1      15.579  34.948 -14.060  1.00  0.00     0.038 A 
HETATM   18  C15 UNL     1      14.282  34.911 -13.568  1.00  0.00     0.045 A 
HETATM   19 CL1  UNL     1      14.046  34.653 -11.840  1.00  0.00    -0.083 Cl
BRANCH  16  20
HETATM   20  C9  UNL     1      17.154  35.188 -15.883  1.00  0.00     0.058 A 
HETATM   21  C10 UNL     1      18.047  34.247 -15.451  1.00  0.00     0.117 A 
HETATM   22  N2  UNL     1      19.345  34.247 -15.884  1.00  0.00    -0.371 N 
HETATM   23  C11 UNL     1      19.746  35.179 -16.739  1.00  0.00     0.112 A 
ATOM     24  H2  UNL     1      19.998  33.537 -15.552  1.00  0.00     0.164 HD
HETATM   25  C12 UNL     1      18.871  36.151 -17.201  1.00  0.00     0.021 A 
HETATM   26  C13 UNL     1      19.379  37.166 -18.155  1.00  0.00     0.069 C 
HETATM   27  N3  UNL     1      17.604  36.121 -16.755  1.00  0.00    -0.357 N 
ATOM     28  H3  UNL     1      16.953  36.832 -17.088  1.00  0.00     0.166 HD
ENDBRANCH  16  20
ENDBRANCH   3  13
BRANCH   2  29
HETATM   29  O1  UNL     1      11.863  32.727 -14.442  1.00  0.00    -0.345 OA
ATOM     30  H1  UNL     1      12.782  32.666 -14.210  1.00  0.00     0.219 HD
ENDBRANCH   2  29
BRANCH   1  31
HETATM   31  C2  UNL     1       9.220  32.416 -13.653  1.00  0.00     0.128 C 
HETATM   32  C1  UNL     1       8.675  32.208 -15.037  1.00  0.00     0.027 C 
ENDBRANCH   1  31
BRANCH   9  33
HETATM   33  N5  UNL     1       5.790  35.651 -11.824  1.00  0.00    -0.226 N 
ATOM     34  H5  UNL     1       5.549  35.986 -10.892  1.00  0.00     0.177 HD
BRANCH  33  35
HETATM   35  C20 UNL     1       4.768  35.073 -12.652  1.00  0.00     0.138 C 
BRANCH  35  36
HETATM   36  C21 UNL     1       3.972  36.180 -13.291  1.00  0.00     0.025 C 
BRANCH  36  37
HETATM   37  C22 UNL     1       3.601  35.659 -14.690  1.00  0.00    -0.010 C 
HETATM   38  C23 UNL     1       2.171  35.173 -14.588  1.00  0.00     0.035 C 
HETATM   39  C24 UNL     1       1.917  34.096 -15.588  1.00  0.00     0.272 C 
HETATM   40  N6  UNL     1       2.733  34.247 -16.775  1.00  0.00     0.084 N 
HETATM   41  C25 UNL     1       2.266  33.224 -17.716  1.00  0.00     0.309 C 
HETATM   42  C26 UNL     1       4.133  34.040 -16.442  1.00  0.00     0.272 C 
HETATM   43  C27 UNL     1       4.476  34.488 -15.051  1.00  0.00     0.035 C 
ENDBRANCH  36  37
ENDBRANCH  35  36
ENDBRANCH  33  35
ENDBRANCH   9  33
TORSDOF 8
ENDMDL
