MODEL 15
REMARK VINA RESULT: -8.693760418      2.343     10.846
REMARK  8 active torsions:
REMARK  status: ('A' for Active; 'I' for Inactive)
REMARK    1  A    between atoms: C2_2  and  N1_3 
REMARK    2  A    between atoms: C3_4  and  O1_5 
REMARK    3  A    between atoms: C4_7  and  C5_8 
REMARK    4  A    between atoms: C8_11  and  C9_12 
REMARK    5  A    between atoms: C19_29  and  N5_30 
REMARK    6  A    between atoms: N5_30  and  C20_32 
REMARK    7  A    between atoms: C20_32  and  C21_33 
REMARK    8  A    between atoms: C21_33  and  C22_34 
ROOT
HETATM    1  N1  UNL     1       9.481  35.693 -12.793  1.00  0.00    -0.313 N 
HETATM    2  C3  UNL     1      10.786  35.553 -13.335  1.00  0.00     0.151 A 
HETATM    3  C4  UNL     1      11.519  34.448 -13.219  1.00  0.00     0.009 A 
HETATM    4  C16 UNL     1      10.974  33.292 -12.504  1.00  0.00     0.088 A 
HETATM    5  C17 UNL     1       9.613  33.466 -11.952  1.00  0.00     0.007 A 
HETATM    6  C18 UNL     1       9.066  32.395 -11.284  1.00  0.00     0.117 A 
HETATM    7  N4  UNL     1       7.826  32.515 -10.780  1.00  0.00    -0.201 N 
ATOM      8  H4  UNL     1       7.413  31.726 -10.283  1.00  0.00     0.183 HD
HETATM    9  C19 UNL     1       7.107  33.665 -10.917  1.00  0.00     0.679 A 
HETATM   10  N7  UNL     1       7.634  34.716 -11.567  1.00  0.00    -0.176 N 
ATOM     11  H7  UNL     1       7.102  35.579 -11.671  1.00  0.00     0.186 HD
HETATM   12  C28 UNL     1       8.888  34.612 -12.083  1.00  0.00     0.133 A 
ENDROOT
BRANCH   3  13
HETATM   13  C5  UNL     1      12.841  34.448 -13.838  1.00  0.00    -0.004 A 
HETATM   14  C6  UNL     1      13.882  34.945 -13.029  1.00  0.00     0.014 A 
HETATM   15  C7  UNL     1      15.141  34.964 -13.577  1.00  0.00     0.014 A 
HETATM   16  C8  UNL     1      15.394  34.522 -14.853  1.00  0.00    -0.006 A 
HETATM   17  C14 UNL     1      14.361  34.037 -15.628  1.00  0.00     0.038 A 
HETATM   18  C15 UNL     1      13.074  34.002 -15.110  1.00  0.00     0.045 A 
HETATM   19 CL1  UNL     1      11.780  33.350 -16.114  1.00  0.00    -0.083 Cl
BRANCH  16  20
HETATM   20  C9  UNL     1      16.717  34.555 -15.433  1.00  0.00     0.058 A 
HETATM   21  C10 UNL     1      17.614  33.559 -15.164  1.00  0.00     0.117 A 
HETATM   22  N2  UNL     1      18.874  33.574 -15.697  1.00  0.00    -0.371 N 
HETATM   23  C11 UNL     1      19.233  34.574 -16.492  1.00  0.00     0.112 A 
ATOM     24  H2  UNL     1      19.531  32.822 -15.486  1.00  0.00     0.164 HD
HETATM   25  C12 UNL     1      18.353  35.603 -16.789  1.00  0.00     0.021 A 
HETATM   26  C13 UNL     1      18.814  36.694 -17.683  1.00  0.00     0.069 C 
HETATM   27  N3  UNL     1      17.124  35.558 -16.248  1.00  0.00    -0.357 N 
ATOM     28  H3  UNL     1      16.469  36.310 -16.460  1.00  0.00     0.166 HD
ENDBRANCH  16  20
ENDBRANCH   3  13
BRANCH   2  29
HETATM   29  O1  UNL     1      11.279  36.683 -14.025  1.00  0.00    -0.345 OA
ATOM     30  H1  UNL     1      10.623  37.319 -14.283  1.00  0.00     0.219 HD
ENDBRANCH   2  29
BRANCH   1  31
HETATM   31  C2  UNL     1       8.733  36.927 -12.946  1.00  0.00     0.128 C 
HETATM   32  C1  UNL     1       9.260  37.930 -11.960  1.00  0.00     0.027 C 
ENDBRANCH   1  31
BRANCH   9  33
HETATM   33  N5  UNL     1       5.782  33.722 -10.378  1.00  0.00    -0.226 N 
ATOM     34  H5  UNL     1       5.204  32.882 -10.379  1.00  0.00     0.177 HD
BRANCH  33  35
HETATM   35  C20 UNL     1       5.250  34.942  -9.836  1.00  0.00     0.138 C 
BRANCH  35  36
HETATM   36  C21 UNL     1       3.783  35.025 -10.164  1.00  0.00     0.025 C 
BRANCH  36  37
HETATM   37  C22 UNL     1       3.698  34.876 -11.692  1.00  0.00    -0.010 C 
HETATM   38  C23 UNL     1       4.546  35.990 -12.268  1.00  0.00     0.035 C 
HETATM   39  C24 UNL     1       4.051  36.371 -13.622  1.00  0.00     0.272 C 
HETATM   40  N6  UNL     1       3.438  35.258 -14.316  1.00  0.00     0.084 N 
HETATM   41  C25 UNL     1       3.147  35.739 -15.670  1.00  0.00     0.309 C 
HETATM   42  C26 UNL     1       2.215  34.864 -13.635  1.00  0.00     0.272 C 
HETATM   43  C27 UNL     1       2.278  35.075 -12.151  1.00  0.00     0.035 C 
ENDBRANCH  36  37
ENDBRANCH  35  36
ENDBRANCH  33  35
ENDBRANCH   9  33
TORSDOF 8
ENDMDL
