MODEL 1
REMARK VINA RESULT: -10.100791250      0.000      0.000
REMARK  15 active torsions:
REMARK  status: ('A' for Active; 'I' for Inactive)
REMARK    1  A    between atoms: O1_2  and  C2_3 
REMARK    2  A    between atoms: C5_6  and  S1_7 
REMARK    3  A    between atoms: S1_7  and  N1_10 
REMARK    4  A    between atoms: N1_10  and  C6_11 
REMARK    5  A    between atoms: N1_10  and  C10_15 
REMARK    6  A    between atoms: C6_11  and  C7_12 
REMARK    7  A    between atoms: C10_15  and  C11_16 
REMARK    8  A    between atoms: C11_16  and  O4_17 
REMARK    9  A    between atoms: C11_16  and  C12_19 
REMARK   10  A    between atoms: C12_19  and  C13_20 
REMARK   11  A    between atoms: C12_19  and  N2_27 
REMARK   12  A    between atoms: C13_20  and  C14_21 
REMARK       I    between atoms: N2_27  and  C20_29 
REMARK   13  A    between atoms: C20_29  and  O6_31 
REMARK   14  A    between atoms: O6_31  and  C21_32 
REMARK   15  A    between atoms: C26_39  and  O9_40 
ROOT
HETATM    1  C12 UNL     1      18.097  24.509  18.694  1.00  0.00     0.120 C 
ENDROOT
BRANCH   1   2
HETATM    2  C11 UNL     1      16.650  24.616  18.306  1.00  0.00     0.155 C 
BRANCH   2   3
HETATM    3  C10 UNL     1      16.024  23.282  18.196  1.00  0.00     0.141 C 
BRANCH   3   4
HETATM    4  N1  UNL     1      16.596  22.431  17.128  1.00  0.00    -0.204 NA
BRANCH   4   5
HETATM    5  S1  UNL     1      17.120  20.938  17.844  1.00  0.00     0.243 S 
HETATM    6  O2  UNL     1      17.561  19.958  16.802  1.00  0.00    -0.206 OA
HETATM    7  O3  UNL     1      18.241  21.274  18.794  1.00  0.00    -0.206 OA
BRANCH   5   8
HETATM    8  C5  UNL     1      15.815  20.200  18.716  1.00  0.00     0.074 A 
HETATM    9  C4  UNL     1      15.125  19.114  18.186  1.00  0.00     0.027 A 
HETATM   10  C3  UNL     1      14.103  18.496  18.876  1.00  0.00     0.038 A 
HETATM   11  C2  UNL     1      13.762  18.977  20.126  1.00  0.00     0.068 A 
HETATM   12  C30 UNL     1      14.442  20.044  20.642  1.00  0.00     0.038 A 
HETATM   13  C29 UNL     1      15.479  20.693  19.977  1.00  0.00     0.027 A 
BRANCH  11  14
HETATM   14  O1  UNL     1      12.717  18.346  20.829  1.00  0.00    -0.356 OA
HETATM   15  C1  UNL     1      11.545  18.039  20.058  1.00  0.00     0.210 C 
ENDBRANCH  11  14
ENDBRANCH   5   8
ENDBRANCH   4   5
BRANCH   4  16
HETATM   16  C6  UNL     1      15.504  22.137  16.234  1.00  0.00     0.111 C 
BRANCH  16  17
HETATM   17  C7  UNL     1      15.573  22.779  14.890  1.00  0.00    -0.009 C 
HETATM   18  C8  UNL     1      15.386  21.730  13.806  1.00  0.00     0.011 C 
HETATM   19  C9  UNL     1      17.025  23.274  14.745  1.00  0.00     0.011 C 
ENDBRANCH  16  17
ENDBRANCH   4  16
ENDBRANCH   3   4
ENDBRANCH   2   3
BRANCH   2  20
HETATM   20  O4  UNL     1      15.876  25.562  18.867  1.00  0.00    -0.392 OA
ATOM     21  H4  UNL     1      16.350  26.269  19.291  1.00  0.00     0.210 HD
ENDBRANCH   2  20
ENDBRANCH   1   2
BRANCH   1  22
HETATM   22  C13 UNL     1      18.385  24.492  20.150  1.00  0.00     0.066 C 
BRANCH  22  23
HETATM   23  C14 UNL     1      19.801  24.497  20.547  1.00  0.00    -0.056 A 
HETATM   24  C15 UNL     1      20.495  25.567  21.068  1.00  0.00     0.007 A 
HETATM   25  C16 UNL     1      21.823  25.423  21.390  1.00  0.00     0.001 A 
HETATM   26  C17 UNL     1      22.536  24.248  21.225  1.00  0.00     0.000 A 
HETATM   27  C18 UNL     1      21.837  23.175  20.698  1.00  0.00     0.001 A 
HETATM   28  C19 UNL     1      20.504  23.320  20.376  1.00  0.00     0.007 A 
ENDBRANCH  22  23
ENDBRANCH   1  22
BRANCH   1  29
HETATM   29  N2  UNL     1      18.946  25.375  17.935  1.00  0.00    -0.329 N 
HETATM   30  C20 UNL     1      19.853  25.010  16.941  1.00  0.00     0.361 C 
HETATM   31  O5  UNL     1      19.990  23.810  16.582  1.00  0.00    -0.238 OA
ATOM     32  H2  UNL     1      18.881  26.371  18.144  1.00  0.00     0.165 HD
BRANCH  30  33
HETATM   33  O6  UNL     1      20.650  25.899  16.287  1.00  0.00    -0.298 OA
BRANCH  33  34
HETATM   34  C21 UNL     1      20.921  26.094  14.959  1.00  0.00     0.147 C 
HETATM   35  C22 UNL     1      19.806  26.748  14.182  1.00  0.00     0.059 C 
HETATM   36  C23 UNL     1      19.689  28.219  14.505  1.00  0.00     0.173 C 
HETATM   37  O7  UNL     1      20.716  28.677  15.320  1.00  0.00    -0.361 OA
HETATM   38  C24 UNL     1      21.941  28.371  14.718  1.00  0.00     0.268 C 
HETATM   39  O8  UNL     1      22.953  28.964  15.452  1.00  0.00    -0.358 OA
HETATM   40  C28 UNL     1      22.213  26.917  14.808  1.00  0.00     0.102 C 
HETATM   41  C25 UNL     1      23.154  28.151  16.546  1.00  0.00     0.203 C 
HETATM   42  C26 UNL     1      23.148  26.748  15.972  1.00  0.00     0.156 C 
BRANCH  42  43
HETATM   43  O9  UNL     1      24.431  26.355  15.560  1.00  0.00    -0.388 OA
HETATM   44  C27 UNL     1      25.421  26.663  16.465  1.00  0.00     0.202 C 
ENDBRANCH  42  43
ENDBRANCH  33  34
ENDBRANCH  30  33
ENDBRANCH   1  29
TORSDOF 15
ENDMDL
