MODEL 3
REMARK VINA RESULT: -9.634616280      0.987      1.336
REMARK  15 active torsions:
REMARK  status: ('A' for Active; 'I' for Inactive)
REMARK    1  A    between atoms: O1_2  and  C2_3 
REMARK    2  A    between atoms: C5_6  and  S1_7 
REMARK    3  A    between atoms: S1_7  and  N1_10 
REMARK    4  A    between atoms: N1_10  and  C6_11 
REMARK    5  A    between atoms: N1_10  and  C10_15 
REMARK    6  A    between atoms: C6_11  and  C7_12 
REMARK    7  A    between atoms: C10_15  and  C11_16 
REMARK    8  A    between atoms: C11_16  and  O4_17 
REMARK    9  A    between atoms: C11_16  and  C12_19 
REMARK   10  A    between atoms: C12_19  and  C13_20 
REMARK   11  A    between atoms: C12_19  and  N2_27 
REMARK   12  A    between atoms: C13_20  and  C14_21 
REMARK       I    between atoms: N2_27  and  C20_29 
REMARK   13  A    between atoms: C20_29  and  O6_31 
REMARK   14  A    between atoms: O6_31  and  C21_32 
REMARK   15  A    between atoms: C26_39  and  O9_40 
ROOT
HETATM    1  C12 UNL     1      19.288  24.178  19.275  1.00  0.00     0.120 C 
ENDROOT
BRANCH   1   2
HETATM    2  C11 UNL     1      17.869  24.497  19.646  1.00  0.00     0.155 C 
BRANCH   2   3
HETATM    3  C10 UNL     1      16.920  23.592  18.964  1.00  0.00     0.141 C 
BRANCH   3   4
HETATM    4  N1  UNL     1      17.485  22.901  17.783  1.00  0.00    -0.204 NA
BRANCH   4   5
HETATM    5  S1  UNL     1      17.485  21.193  18.100  1.00  0.00     0.243 S 
HETATM    6  O2  UNL     1      17.934  20.415  16.902  1.00  0.00    -0.206 OA
HETATM    7  O3  UNL     1      18.397  20.963  19.279  1.00  0.00    -0.206 OA
BRANCH   5   8
HETATM    8  C5  UNL     1      15.883  20.654  18.486  1.00  0.00     0.074 A 
HETATM    9  C4  UNL     1      15.017  20.214  17.489  1.00  0.00     0.027 A 
HETATM   10  C3  UNL     1      13.749  19.756  17.780  1.00  0.00     0.038 A 
HETATM   11  C2  UNL     1      13.336  19.738  19.099  1.00  0.00     0.068 A 
HETATM   12  C30 UNL     1      14.191  20.171  20.074  1.00  0.00     0.038 A 
HETATM   13  C29 UNL     1      15.477  20.639  19.821  1.00  0.00     0.027 A 
BRANCH  11  14
HETATM   14  O1  UNL     1      12.041  19.271  19.394  1.00  0.00    -0.356 OA
HETATM   15  C1  UNL     1      11.935  18.414  20.541  1.00  0.00     0.210 C 
ENDBRANCH  11  14
ENDBRANCH   5   8
ENDBRANCH   4   5
BRANCH   4  16
HETATM   16  C6  UNL     1      16.565  23.153  16.703  1.00  0.00     0.111 C 
BRANCH  16  17
HETATM   17  C7  UNL     1      17.162  23.204  15.338  1.00  0.00    -0.009 C 
HETATM   18  C8  UNL     1      17.239  24.645  14.862  1.00  0.00     0.011 C 
HETATM   19  C9  UNL     1      16.139  22.515  14.416  1.00  0.00     0.011 C 
ENDBRANCH  16  17
ENDBRANCH   4  16
ENDBRANCH   3   4
ENDBRANCH   2   3
BRANCH   2  20
HETATM   20  O4  UNL     1      17.560  24.785  20.923  1.00  0.00    -0.392 OA
ATOM     21  H4  UNL     1      18.093  25.464  21.321  1.00  0.00     0.210 HD
ENDBRANCH   2  20
ENDBRANCH   1   2
BRANCH   1  22
HETATM   22  C13 UNL     1      20.160  23.693  20.374  1.00  0.00     0.066 C 
BRANCH  22  23
HETATM   23  C14 UNL     1      21.158  24.637  20.897  1.00  0.00    -0.056 A 
HETATM   24  C15 UNL     1      20.904  25.901  21.385  1.00  0.00     0.007 A 
HETATM   25  C16 UNL     1      21.945  26.675  21.838  1.00  0.00     0.001 A 
HETATM   26  C17 UNL     1      23.268  26.268  21.841  1.00  0.00     0.000 A 
HETATM   27  C18 UNL     1      23.520  24.999  21.348  1.00  0.00     0.001 A 
HETATM   28  C19 UNL     1      22.476  24.222  20.894  1.00  0.00     0.007 A 
ENDBRANCH  22  23
ENDBRANCH   1  22
BRANCH   1  29
HETATM   29  N2  UNL     1      19.888  25.177  18.445  1.00  0.00    -0.329 N 
HETATM   30  C20 UNL     1      20.335  25.028  17.133  1.00  0.00     0.361 C 
HETATM   31  O5  UNL     1      20.214  23.936  16.515  1.00  0.00    -0.238 OA
ATOM     32  H2  UNL     1      20.001  26.102  18.859  1.00  0.00     0.165 HD
BRANCH  30  33
HETATM   33  O6  UNL     1      20.926  26.027  16.421  1.00  0.00    -0.298 OA
BRANCH  33  34
HETATM   34  C21 UNL     1      21.182  26.183  15.085  1.00  0.00     0.147 C 
HETATM   35  C22 UNL     1      20.076  26.852  14.310  1.00  0.00     0.059 C 
HETATM   36  C23 UNL     1      20.008  28.334  14.600  1.00  0.00     0.173 C 
HETATM   37  O7  UNL     1      21.061  28.778  15.389  1.00  0.00    -0.361 OA
HETATM   38  C24 UNL     1      22.266  28.421  14.776  1.00  0.00     0.268 C 
HETATM   39  O8  UNL     1      23.307  29.001  15.480  1.00  0.00    -0.358 OA
HETATM   40  C28 UNL     1      22.496  26.963  14.896  1.00  0.00     0.102 C 
HETATM   41  C25 UNL     1      23.500  28.207  16.591  1.00  0.00     0.203 C 
HETATM   42  C26 UNL     1      23.443  26.792  16.050  1.00  0.00     0.156 C 
BRANCH  42  43
HETATM   43  O9  UNL     1      24.707  26.351  15.629  1.00  0.00    -0.388 OA
HETATM   44  C27 UNL     1      25.668  26.403  16.613  1.00  0.00     0.202 C 
ENDBRANCH  42  43
ENDBRANCH  33  34
ENDBRANCH  30  33
ENDBRANCH   1  29
TORSDOF 15
ENDMDL
