MODEL 2
REMARK VINA RESULT: -9.770840843      1.431      4.487
REMARK  15 active torsions:
REMARK  status: ('A' for Active; 'I' for Inactive)
REMARK    1  A    between atoms: O1_2  and  C2_3 
REMARK    2  A    between atoms: C5_6  and  S1_7 
REMARK    3  A    between atoms: S1_7  and  N1_10 
REMARK    4  A    between atoms: N1_10  and  C6_11 
REMARK    5  A    between atoms: N1_10  and  C10_15 
REMARK    6  A    between atoms: C6_11  and  C7_12 
REMARK    7  A    between atoms: C10_15  and  C11_16 
REMARK    8  A    between atoms: C11_16  and  O4_17 
REMARK    9  A    between atoms: C11_16  and  C12_19 
REMARK   10  A    between atoms: C12_19  and  C13_20 
REMARK   11  A    between atoms: C12_19  and  N2_27 
REMARK   12  A    between atoms: C13_20  and  C14_21 
REMARK       I    between atoms: N2_27  and  C20_29 
REMARK   13  A    between atoms: C20_29  and  O6_31 
REMARK   14  A    between atoms: O6_31  and  C21_32 
REMARK   15  A    between atoms: C26_39  and  O9_40 
ROOT
HETATM    1  C12 UNL     1      17.435  24.785  16.253  1.00  0.00     0.120 C 
ENDROOT
BRANCH   1   2
HETATM    2  C11 UNL     1      17.045  24.798  17.703  1.00  0.00     0.155 C 
BRANCH   2   3
HETATM    3  C10 UNL     1      18.194  24.465  18.570  1.00  0.00     0.141 C 
BRANCH   3   4
HETATM    4  N1  UNL     1      17.862  23.562  19.696  1.00  0.00    -0.204 NA
BRANCH   4   5
HETATM    5  S1  UNL     1      17.946  21.925  19.122  1.00  0.00     0.243 S 
HETATM    6  O2  UNL     1      18.823  21.814  17.913  1.00  0.00    -0.206 OA
HETATM    7  O3  UNL     1      18.468  21.084  20.259  1.00  0.00    -0.206 OA
BRANCH   5   8
HETATM    8  C5  UNL     1      16.370  21.369  18.659  1.00  0.00     0.074 A 
HETATM    9  C4  UNL     1      16.211  20.180  17.953  1.00  0.00     0.027 A 
HETATM   10  C3  UNL     1      14.963  19.707  17.599  1.00  0.00     0.038 A 
HETATM   11  C2  UNL     1      13.850  20.442  17.959  1.00  0.00     0.068 A 
HETATM   12  C30 UNL     1      14.012  21.610  18.651  1.00  0.00     0.038 A 
HETATM   13  C29 UNL     1      15.252  22.118  19.027  1.00  0.00     0.027 A 
BRANCH  11  14
HETATM   14  O1  UNL     1      12.577  19.960  17.596  1.00  0.00    -0.356 OA
HETATM   15  C1  UNL     1      12.049  18.914  18.426  1.00  0.00     0.210 C 
ENDBRANCH  11  14
ENDBRANCH   5   8
ENDBRANCH   4   5
BRANCH   4  16
HETATM   16  C6  UNL     1      18.908  23.747  20.669  1.00  0.00     0.111 C 
BRANCH  16  17
HETATM   17  C7  UNL     1      20.207  24.255  20.140  1.00  0.00    -0.009 C 
HETATM   18  C8  UNL     1      21.285  23.198  20.315  1.00  0.00     0.011 C 
HETATM   19  C9  UNL     1      20.604  25.415  21.072  1.00  0.00     0.011 C 
ENDBRANCH  16  17
ENDBRANCH   4  16
ENDBRANCH   3   4
ENDBRANCH   2   3
BRANCH   2  20
HETATM   20  O4  UNL     1      16.245  25.773  18.171  1.00  0.00    -0.392 OA
ATOM     21  H4  UNL     1      16.623  26.645  18.154  1.00  0.00     0.210 HD
ENDBRANCH   2  20
ENDBRANCH   1   2
BRANCH   1  22
HETATM   22  C13 UNL     1      17.306  23.483  15.552  1.00  0.00     0.066 C 
BRANCH  22  23
HETATM   23  C14 UNL     1      15.944  23.023  15.248  1.00  0.00    -0.056 A 
HETATM   24  C15 UNL     1      14.774  23.671  15.582  1.00  0.00     0.007 A 
HETATM   25  C16 UNL     1      13.567  23.114  15.234  1.00  0.00     0.001 A 
HETATM   26  C17 UNL     1      13.434  21.917  14.553  1.00  0.00     0.000 A 
HETATM   27  C18 UNL     1      14.612  21.267  14.221  1.00  0.00     0.001 A 
HETATM   28  C19 UNL     1      15.823  21.825  14.570  1.00  0.00     0.007 A 
ENDBRANCH  22  23
ENDBRANCH   1  22
BRANCH   1  29
HETATM   29  N2  UNL     1      18.663  25.473  15.997  1.00  0.00    -0.329 N 
HETATM   30  C20 UNL     1      19.898  24.909  15.681  1.00  0.00     0.361 C 
HETATM   31  O5  UNL     1      20.041  23.664  15.556  1.00  0.00    -0.238 OA
ATOM     32  H2  UNL     1      18.631  26.491  16.053  1.00  0.00     0.165 HD
BRANCH  30  33
HETATM   33  O6  UNL     1      21.030  25.639  15.483  1.00  0.00    -0.298 OA
BRANCH  33  34
HETATM   34  C21 UNL     1      21.484  26.370  14.418  1.00  0.00     0.147 C 
HETATM   35  C22 UNL     1      20.457  27.287  13.804  1.00  0.00     0.059 C 
HETATM   36  C23 UNL     1      20.189  28.490  14.678  1.00  0.00     0.173 C 
HETATM   37  O7  UNL     1      21.047  28.568  15.768  1.00  0.00    -0.361 OA
HETATM   38  C24 UNL     1      22.367  28.541  15.307  1.00  0.00     0.268 C 
HETATM   39  O8  UNL     1      23.212  28.775  16.377  1.00  0.00    -0.358 OA
HETATM   40  C28 UNL     1      22.723  27.182  14.836  1.00  0.00     0.102 C 
HETATM   41  C25 UNL     1      23.302  27.580  17.057  1.00  0.00     0.203 C 
HETATM   42  C26 UNL     1      23.481  26.544  15.965  1.00  0.00     0.156 C 
BRANCH  42  43
HETATM   43  O9  UNL     1      24.836  26.359  15.649  1.00  0.00    -0.388 OA
HETATM   44  C27 UNL     1      25.652  26.253  16.752  1.00  0.00     0.202 C 
ENDBRANCH  42  43
ENDBRANCH  33  34
ENDBRANCH  30  33
ENDBRANCH   1  29
TORSDOF 15
ENDMDL
