MODEL 4
REMARK VINA RESULT: -9.593436500      2.228     10.736
REMARK  15 active torsions:
REMARK  status: ('A' for Active; 'I' for Inactive)
REMARK    1  A    between atoms: O1_2  and  C2_3 
REMARK    2  A    between atoms: C5_6  and  S1_7 
REMARK    3  A    between atoms: S1_7  and  N1_10 
REMARK    4  A    between atoms: N1_10  and  C6_11 
REMARK    5  A    between atoms: N1_10  and  C10_15 
REMARK    6  A    between atoms: C6_11  and  C7_12 
REMARK    7  A    between atoms: C10_15  and  C11_16 
REMARK    8  A    between atoms: C11_16  and  O4_17 
REMARK    9  A    between atoms: C11_16  and  C12_19 
REMARK   10  A    between atoms: C12_19  and  C13_20 
REMARK   11  A    between atoms: C12_19  and  N2_27 
REMARK   12  A    between atoms: C13_20  and  C14_21 
REMARK       I    between atoms: N2_27  and  C20_29 
REMARK   13  A    between atoms: C20_29  and  O6_31 
REMARK   14  A    between atoms: O6_31  and  C21_32 
REMARK   15  A    between atoms: C26_39  and  O9_40 
ROOT
HETATM    1  C12 UNL     1      14.574  22.566  16.786  1.00  0.00     0.120 C 
ENDROOT
BRANCH   1   2
HETATM    2  C11 UNL     1      15.020  23.630  17.747  1.00  0.00     0.155 C 
BRANCH   2   3
HETATM    3  C10 UNL     1      16.226  24.326  17.253  1.00  0.00     0.141 C 
BRANCH   3   4
HETATM    4  N1  UNL     1      17.479  23.553  17.409  1.00  0.00    -0.204 NA
BRANCH   4   5
HETATM    5  S1  UNL     1      18.355  23.628  15.910  1.00  0.00     0.243 S 
HETATM    6  O2  UNL     1      19.450  22.609  15.866  1.00  0.00    -0.206 OA
HETATM    7  O3  UNL     1      17.355  23.410  14.803  1.00  0.00    -0.206 OA
BRANCH   5   8
HETATM    8  C5  UNL     1      19.100  25.183  15.727  1.00  0.00     0.074 A 
HETATM    9  C4  UNL     1      20.206  25.540  16.492  1.00  0.00     0.027 A 
HETATM   10  C3  UNL     1      20.829  26.762  16.341  1.00  0.00     0.038 A 
HETATM   11  C2  UNL     1      20.333  27.648  15.404  1.00  0.00     0.068 A 
HETATM   12  C30 UNL     1      19.245  27.293  14.656  1.00  0.00     0.038 A 
HETATM   13  C29 UNL     1      18.591  26.070  14.778  1.00  0.00     0.027 A 
BRANCH  11  14
HETATM   14  O1  UNL     1      20.968  28.896  15.252  1.00  0.00    -0.356 OA
HETATM   15  C1  UNL     1      22.398  28.884  15.379  1.00  0.00     0.210 C 
ENDBRANCH  11  14
ENDBRANCH   5   8
ENDBRANCH   4   5
BRANCH   4  16
HETATM   16  C6  UNL     1      18.248  24.249  18.409  1.00  0.00     0.111 C 
BRANCH  16  17
HETATM   17  C7  UNL     1      18.861  23.397  19.468  1.00  0.00    -0.009 C 
HETATM   18  C8  UNL     1      18.276  21.996  19.407  1.00  0.00     0.011 C 
HETATM   19  C9  UNL     1      18.379  23.992  20.804  1.00  0.00     0.011 C 
ENDBRANCH  16  17
ENDBRANCH   4  16
ENDBRANCH   3   4
ENDBRANCH   2   3
BRANCH   2  20
HETATM   20  O4  UNL     1      14.109  24.423  18.337  1.00  0.00    -0.392 OA
ATOM     21  H4  UNL     1      14.028  24.310  19.278  1.00  0.00     0.210 HD
ENDBRANCH   2  20
ENDBRANCH   1   2
BRANCH   1  22
HETATM   22  C13 UNL     1      13.998  23.041  15.503  1.00  0.00     0.066 C 
BRANCH  22  23
HETATM   23  C14 UNL     1      13.259  22.055  14.701  1.00  0.00    -0.056 A 
HETATM   24  C15 UNL     1      11.888  21.935  14.623  1.00  0.00     0.007 A 
HETATM   25  C16 UNL     1      11.337  20.957  13.830  1.00  0.00     0.001 A 
HETATM   26  C17 UNL     1      12.078  20.057  13.084  1.00  0.00     0.000 A 
HETATM   27  C18 UNL     1      13.455  20.179  13.167  1.00  0.00     0.001 A 
HETATM   28  C19 UNL     1      14.008  21.160  13.961  1.00  0.00     0.007 A 
ENDBRANCH  22  23
ENDBRANCH   1  22
BRANCH   1  29
HETATM   29  N2  UNL     1      13.827  21.520  17.416  1.00  0.00    -0.329 N 
HETATM   30  C20 UNL     1      14.268  20.233  17.721  1.00  0.00     0.361 C 
HETATM   31  O5  UNL     1      15.448  19.865  17.478  1.00  0.00    -0.238 OA
ATOM     32  H2  UNL     1      12.865  21.741  17.671  1.00  0.00     0.165 HD
BRANCH  30  33
HETATM   33  O6  UNL     1      13.478  19.284  18.294  1.00  0.00    -0.298 OA
BRANCH  33  34
HETATM   34  C21 UNL     1      13.750  18.251  19.152  1.00  0.00     0.147 C 
HETATM   35  C22 UNL     1      13.972  18.668  20.583  1.00  0.00     0.059 C 
HETATM   36  C23 UNL     1      12.678  19.057  21.259  1.00  0.00     0.173 C 
HETATM   37  O7  UNL     1      11.561  18.803  20.474  1.00  0.00    -0.361 OA
HETATM   38  C24 UNL     1      11.569  17.456  20.098  1.00  0.00     0.268 C 
HETATM   39  O8  UNL     1      10.380  17.172  19.450  1.00  0.00    -0.358 OA
HETATM   40  C28 UNL     1      12.619  17.209  19.083  1.00  0.00     0.102 C 
HETATM   41  C25 UNL     1      10.523  17.653  18.166  1.00  0.00     0.203 C 
HETATM   42  C26 UNL     1      11.913  17.206  17.757  1.00  0.00     0.156 C 
BRANCH  42  43
HETATM   43  O9  UNL     1      11.892  15.928  17.177  1.00  0.00    -0.388 OA
HETATM   44  C27 UNL     1      10.844  15.732  16.307  1.00  0.00     0.202 C 
ENDBRANCH  42  43
ENDBRANCH  33  34
ENDBRANCH  30  33
ENDBRANCH   1  29
TORSDOF 15
ENDMDL
