MODEL 1
REMARK VINA RESULT: -9.899186171      0.000      0.000
REMARK  16 active torsions:
REMARK  status: ('A' for Active; 'I' for Inactive)
REMARK    1  A    between atoms: C2_2  and  N1_3 
REMARK    2  A    between atoms: N1_3  and  C3_5 
REMARK    3  A    between atoms: C8_12  and  O3_13 
REMARK    4  A    between atoms: O3_13  and  C9_14 
REMARK       I    between atoms: C9_14  and  N2_16 
REMARK    5  A    between atoms: N2_16  and  C10_18 
REMARK    6  A    between atoms: C10_18  and  C11_19 
REMARK    7  A    between atoms: C10_18  and  C18_26 
REMARK    8  A    between atoms: C11_19  and  C12_20 
REMARK    9  A    between atoms: C18_26  and  O5_27 
REMARK   10  A    between atoms: C18_26  and  C19_29 
REMARK   11  A    between atoms: C19_29  and  N3_30 
REMARK   12  A    between atoms: N3_30  and  C20_31 
REMARK   13  A    between atoms: N3_30  and  S1_35 
REMARK   14  A    between atoms: C20_31  and  C21_32 
REMARK   15  A    between atoms: S1_35  and  C24_38 
REMARK   16  A    between atoms: C27_41  and  O8_42 
ROOT
HETATM    1  C10 UNL     1      14.810  22.542  17.218  1.00  0.00     0.124 C 
ENDROOT
BRANCH   1   2
HETATM    2  N2  UNL     1      13.763  21.722  17.833  1.00  0.00    -0.329 N 
HETATM    3  C9  UNL     1      13.977  20.315  18.022  1.00  0.00     0.361 C 
HETATM    4  O4  UNL     1      15.074  19.827  17.647  1.00  0.00    -0.238 OA
ATOM      5  H2  UNL     1      12.885  22.149  18.127  1.00  0.00     0.165 HD
BRANCH   3   6
HETATM    6  O3  UNL     1      13.052  19.458  18.593  1.00  0.00    -0.298 OA
BRANCH   6   7
HETATM    7  C8  UNL     1      13.510  18.183  19.020  1.00  0.00     0.146 C 
HETATM    8  C7  UNL     1      13.957  18.332  20.456  1.00  0.00     0.059 C 
HETATM    9  C6  UNL     1      12.733  18.382  21.333  1.00  0.00     0.173 C 
HETATM   10  O2  UNL     1      11.596  18.766  20.600  1.00  0.00    -0.361 OA
HETATM   11  C5  UNL     1      11.212  17.696  19.754  1.00  0.00     0.268 C 
HETATM   12  O1  UNL     1      10.226  18.165  18.938  1.00  0.00    -0.359 OA
HETATM   13  C31 UNL     1      12.370  17.212  18.967  1.00  0.00     0.095 C 
HETATM   14  C4  UNL     1      10.525  17.846  17.624  1.00  0.00     0.196 C 
HETATM   15  C3  UNL     1      11.793  17.078  17.575  1.00  0.00     0.111 C 
BRANCH  15  16
HETATM   16  N1  UNL     1      11.670  15.696  17.245  1.00  0.00    -0.415 N 
ATOM     17  H1  UNL     1      12.477  15.077  17.173  1.00  0.00     0.153 HD
BRANCH  16  18
HETATM   18  C2  UNL     1      10.322  15.237  17.020  1.00  0.00     0.110 C 
HETATM   19  C1  UNL     1       9.882  14.208  18.038  1.00  0.00     0.026 C 
ENDBRANCH  16  18
ENDBRANCH  15  16
ENDBRANCH   6   7
ENDBRANCH   3   6
ENDBRANCH   1   2
BRANCH   1  20
HETATM   20  C11 UNL     1      14.304  23.191  15.961  1.00  0.00     0.066 C 
BRANCH  20  21
HETATM   21  C12 UNL     1      13.827  22.174  15.004  1.00  0.00    -0.056 A 
HETATM   22  C13 UNL     1      14.745  21.372  14.347  1.00  0.00     0.007 A 
HETATM   23  C14 UNL     1      14.332  20.419  13.444  1.00  0.00     0.001 A 
HETATM   24  C15 UNL     1      13.009  20.212  13.148  1.00  0.00     0.000 A 
HETATM   25  C16 UNL     1      12.087  21.016  13.805  1.00  0.00     0.001 A 
HETATM   26  C17 UNL     1      12.487  21.965  14.703  1.00  0.00     0.007 A 
ENDBRANCH  20  21
ENDBRANCH   1  20
BRANCH   1  27
HETATM   27  C18 UNL     1      15.153  23.586  18.283  1.00  0.00     0.180 C 
BRANCH  27  28
HETATM   28  O5  UNL     1      14.028  24.375  18.422  1.00  0.00    -0.388 OA
ATOM     29  H5  UNL     1      14.331  25.207  18.765  1.00  0.00     0.210 HD
ENDBRANCH  27  28
BRANCH  27  30
HETATM   30  C19 UNL     1      16.417  24.310  17.950  1.00  0.00     0.115 C 
BRANCH  30  31
HETATM   31  N3  UNL     1      17.606  23.890  18.562  1.00  0.00    -0.263 N 
BRANCH  31  32
HETATM   32  C20 UNL     1      17.541  23.321  19.839  1.00  0.00     0.085 C 
BRANCH  32  33
HETATM   33  C21 UNL     1      17.559  21.849  19.993  1.00  0.00     0.017 C 
HETATM   34  C22 UNL     1      18.720  21.452  20.928  1.00  0.00     0.015 C 
HETATM   35  C23 UNL     1      16.320  21.295  20.687  1.00  0.00     0.015 C 
ENDBRANCH  32  33
ENDBRANCH  31  32
BRANCH  31  36
HETATM   36  S1  UNL     1      18.955  23.595  17.598  1.00  0.00     0.267 S 
HETATM   37  O6  UNL     1      20.136  23.350  18.547  1.00  0.00    -0.200 OA
HETATM   38  O7  UNL     1      18.894  22.385  16.740  1.00  0.00    -0.200 OA
BRANCH  36  39
HETATM   39  C24 UNL     1      19.384  25.020  16.679  1.00  0.00     0.080 A 
HETATM   40  C25 UNL     1      18.958  25.181  15.386  1.00  0.00     0.028 A 
HETATM   41  C26 UNL     1      19.292  26.302  14.634  1.00  0.00     0.038 A 
HETATM   42  C27 UNL     1      20.069  27.264  15.211  1.00  0.00     0.068 A 
HETATM   43  C29 UNL     1      20.501  27.105  16.518  1.00  0.00     0.038 A 
HETATM   44  C30 UNL     1      20.171  26.010  17.244  1.00  0.00     0.028 A 
BRANCH  42  45
HETATM   45  O8  UNL     1      20.411  28.382  14.486  1.00  0.00    -0.356 OA
HETATM   46  C28 UNL     1      21.605  28.341  13.714  1.00  0.00     0.210 C 
ENDBRANCH  42  45
ENDBRANCH  36  39
ENDBRANCH  31  36
ENDBRANCH  30  31
ENDBRANCH  27  30
ENDBRANCH   1  27
TORSDOF 16
ENDMDL
