MODEL 4
REMARK VINA RESULT: -9.614482160      2.658     10.999
REMARK  16 active torsions:
REMARK  status: ('A' for Active; 'I' for Inactive)
REMARK    1  A    between atoms: C2_2  and  N1_3 
REMARK    2  A    between atoms: N1_3  and  C3_5 
REMARK    3  A    between atoms: C8_12  and  O3_13 
REMARK    4  A    between atoms: O3_13  and  C9_14 
REMARK       I    between atoms: C9_14  and  N2_16 
REMARK    5  A    between atoms: N2_16  and  C10_18 
REMARK    6  A    between atoms: C10_18  and  C11_19 
REMARK    7  A    between atoms: C10_18  and  C18_26 
REMARK    8  A    between atoms: C11_19  and  C12_20 
REMARK    9  A    between atoms: C18_26  and  O5_27 
REMARK   10  A    between atoms: C18_26  and  C19_29 
REMARK   11  A    between atoms: C19_29  and  N3_30 
REMARK   12  A    between atoms: N3_30  and  C20_31 
REMARK   13  A    between atoms: N3_30  and  S1_35 
REMARK   14  A    between atoms: C20_31  and  C21_32 
REMARK   15  A    between atoms: S1_35  and  C24_38 
REMARK   16  A    between atoms: C27_41  and  O8_42 
ROOT
HETATM    1  C10 UNL     1      17.884  24.297  18.547  1.00  0.00     0.124 C 
ENDROOT
BRANCH   1   2
HETATM    2  N2  UNL     1      18.552  25.451  17.941  1.00  0.00    -0.329 N 
HETATM    3  C9  UNL     1      19.656  25.248  17.047  1.00  0.00     0.361 C 
HETATM    4  O4  UNL     1      20.018  24.067  16.811  1.00  0.00    -0.238 OA
ATOM      5  H2  UNL     1      18.232  26.396  18.152  1.00  0.00     0.165 HD
BRANCH   3   6
HETATM    6  O3  UNL     1      20.351  26.272  16.425  1.00  0.00    -0.298 OA
BRANCH   6   7
HETATM    7  C8  UNL     1      20.923  26.002  15.153  1.00  0.00     0.146 C 
HETATM    8  C7  UNL     1      19.848  26.262  14.122  1.00  0.00     0.059 C 
HETATM    9  C6  UNL     1      19.711  27.751  13.941  1.00  0.00     0.173 C 
HETATM   10  O2  UNL     1      20.209  28.447  15.057  1.00  0.00    -0.361 OA
HETATM   11  C5  UNL     1      21.624  28.359  15.061  1.00  0.00     0.268 C 
HETATM   12  O1  UNL     1      22.055  28.887  16.242  1.00  0.00    -0.359 OA
HETATM   13  C31 UNL     1      22.058  26.950  14.916  1.00  0.00     0.095 C 
HETATM   14  C4  UNL     1      22.944  28.010  16.840  1.00  0.00     0.196 C 
HETATM   15  C3  UNL     1      23.138  26.825  15.969  1.00  0.00     0.111 C 
BRANCH  15  16
HETATM   16  N1  UNL     1      24.410  26.725  15.331  1.00  0.00    -0.415 N 
ATOM     17  H1  UNL     1      24.561  26.157  14.497  1.00  0.00     0.153 HD
BRANCH  16  18
HETATM   18  C2  UNL     1      25.468  27.485  15.948  1.00  0.00     0.110 C 
HETATM   19  C1  UNL     1      26.837  27.095  15.437  1.00  0.00     0.026 C 
ENDBRANCH  16  18
ENDBRANCH  15  16
ENDBRANCH   6   7
ENDBRANCH   3   6
ENDBRANCH   1   2
BRANCH   1  20
HETATM   20  C11 UNL     1      18.034  24.323  20.042  1.00  0.00     0.066 C 
BRANCH  20  21
HETATM   21  C12 UNL     1      19.458  24.328  20.423  1.00  0.00    -0.056 A 
HETATM   22  C13 UNL     1      20.217  23.183  20.243  1.00  0.00     0.007 A 
HETATM   23  C14 UNL     1      21.548  23.155  20.594  1.00  0.00     0.001 A 
HETATM   24  C15 UNL     1      22.188  24.241  21.135  1.00  0.00     0.000 A 
HETATM   25  C16 UNL     1      21.429  25.389  21.318  1.00  0.00     0.001 A 
HETATM   26  C17 UNL     1      20.107  25.427  20.972  1.00  0.00     0.007 A 
ENDBRANCH  20  21
ENDBRANCH   1  20
BRANCH   1  27
HETATM   27  C18 UNL     1      16.417  24.443  18.134  1.00  0.00     0.180 C 
BRANCH  27  28
HETATM   28  O5  UNL     1      15.902  25.466  18.905  1.00  0.00    -0.388 OA
ATOM     29  H5  UNL     1      15.001  25.229  19.089  1.00  0.00     0.210 HD
ENDBRANCH  27  28
BRANCH  27  30
HETATM   30  C19 UNL     1      15.694  23.139  18.218  1.00  0.00     0.115 C 
BRANCH  30  31
HETATM   31  N3  UNL     1      16.138  22.076  17.419  1.00  0.00    -0.263 N 
BRANCH  31  32
HETATM   32  C20 UNL     1      16.373  22.312  16.059  1.00  0.00     0.085 C 
BRANCH  32  33
HETATM   33  C21 UNL     1      15.246  22.289  15.101  1.00  0.00     0.017 C 
HETATM   34  C22 UNL     1      15.797  22.083  13.674  1.00  0.00     0.015 C 
HETATM   35  C23 UNL     1      14.299  21.111  15.303  1.00  0.00     0.015 C 
ENDBRANCH  32  33
ENDBRANCH  31  32
BRANCH  31  36
HETATM   36  S1  UNL     1      16.859  20.748  18.160  1.00  0.00     0.267 S 
HETATM   37  O6  UNL     1      17.414  19.859  17.039  1.00  0.00    -0.200 OA
HETATM   38  O7  UNL     1      18.023  21.037  19.033  1.00  0.00    -0.200 OA
BRANCH  36  39
HETATM   39  C24 UNL     1      15.662  19.770  18.980  1.00  0.00     0.080 A 
HETATM   40  C25 UNL     1      15.169  18.628  18.404  1.00  0.00     0.028 A 
HETATM   41  C26 UNL     1      14.212  17.839  19.034  1.00  0.00     0.038 A 
HETATM   42  C27 UNL     1      13.758  18.224  20.262  1.00  0.00     0.068 A 
HETATM   43  C29 UNL     1      14.255  19.377  20.847  1.00  0.00     0.038 A 
HETATM   44  C30 UNL     1      15.187  20.141  20.227  1.00  0.00     0.028 A 
BRANCH  42  45
HETATM   45  O8  UNL     1      12.812  17.458  20.904  1.00  0.00    -0.356 OA
HETATM   46  C28 UNL     1      11.850  16.777  20.109  1.00  0.00     0.210 C 
ENDBRANCH  42  45
ENDBRANCH  36  39
ENDBRANCH  31  36
ENDBRANCH  30  31
ENDBRANCH  27  30
ENDBRANCH   1  27
TORSDOF 16
ENDMDL
