MODEL 8
REMARK VINA RESULT: -9.389394196      1.481      2.065
REMARK  16 active torsions:
REMARK  status: ('A' for Active; 'I' for Inactive)
REMARK    1  A    between atoms: C2_2  and  N1_3 
REMARK    2  A    between atoms: N1_3  and  C3_5 
REMARK    3  A    between atoms: C8_12  and  O3_13 
REMARK    4  A    between atoms: O3_13  and  C9_14 
REMARK       I    between atoms: C9_14  and  N2_16 
REMARK    5  A    between atoms: N2_16  and  C10_18 
REMARK    6  A    between atoms: C10_18  and  C11_19 
REMARK    7  A    between atoms: C10_18  and  C18_26 
REMARK    8  A    between atoms: C11_19  and  C12_20 
REMARK    9  A    between atoms: C18_26  and  O5_27 
REMARK   10  A    between atoms: C18_26  and  C19_29 
REMARK   11  A    between atoms: C19_29  and  N3_30 
REMARK   12  A    between atoms: N3_30  and  C20_31 
REMARK   13  A    between atoms: N3_30  and  S1_35 
REMARK   14  A    between atoms: C20_31  and  C21_32 
REMARK   15  A    between atoms: S1_35  and  C24_38 
REMARK   16  A    between atoms: C27_41  and  O8_42 
ROOT
HETATM    1  C10 UNL     1      15.513  22.986  17.291  1.00  0.00     0.124 C 
ENDROOT
BRANCH   1   2
HETATM    2  N2  UNL     1      14.361  22.274  17.849  1.00  0.00    -0.329 N 
HETATM    3  C9  UNL     1      14.362  20.840  17.894  1.00  0.00     0.361 C 
HETATM    4  O4  UNL     1      15.369  20.233  17.446  1.00  0.00    -0.238 OA
ATOM      5  H2  UNL     1      13.560  22.796  18.205  1.00  0.00     0.165 HD
BRANCH   3   6
HETATM    6  O3  UNL     1      13.323  20.077  18.401  1.00  0.00    -0.298 OA
BRANCH   6   7
HETATM    7  C8  UNL     1      13.371  18.673  18.189  1.00  0.00     0.146 C 
HETATM    8  C7  UNL     1      13.546  18.029  19.545  1.00  0.00     0.059 C 
HETATM    9  C6  UNL     1      12.221  18.054  20.260  1.00  0.00     0.173 C 
HETATM   10  O2  UNL     1      11.376  19.046  19.732  1.00  0.00    -0.361 OA
HETATM   11  C5  UNL     1      10.925  18.635  18.454  1.00  0.00     0.268 C 
HETATM   12  O1  UNL     1      10.261  19.690  17.903  1.00  0.00    -0.359 OA
HETATM   13  C31 UNL     1      12.068  18.222  17.605  1.00  0.00     0.095 C 
HETATM   14  C4  UNL     1      10.730  19.912  16.620  1.00  0.00     0.196 C 
HETATM   15  C3  UNL     1      11.764  18.901  16.287  1.00  0.00     0.111 C 
BRANCH  15  16
HETATM   16  N1  UNL     1      11.384  17.917  15.326  1.00  0.00    -0.415 N 
ATOM     17  H1  UNL     1      11.312  16.927  15.557  1.00  0.00     0.153 HD
BRANCH  16  18
HETATM   18  C2  UNL     1      11.109  18.425  14.005  1.00  0.00     0.110 C 
HETATM   19  C1  UNL     1      12.081  17.904  12.970  1.00  0.00     0.026 C 
ENDBRANCH  16  18
ENDBRANCH  15  16
ENDBRANCH   6   7
ENDBRANCH   3   6
ENDBRANCH   1   2
BRANCH   1  20
HETATM   20  C11 UNL     1      15.108  23.789  16.087  1.00  0.00     0.066 C 
BRANCH  20  21
HETATM   21  C12 UNL     1      14.659  22.903  14.997  1.00  0.00    -0.056 A 
HETATM   22  C13 UNL     1      13.314  22.852  14.669  1.00  0.00     0.007 A 
HETATM   23  C14 UNL     1      12.864  22.031  13.660  1.00  0.00     0.001 A 
HETATM   24  C15 UNL     1      13.706  21.228  12.935  1.00  0.00     0.000 A 
HETATM   25  C16 UNL     1      15.054  21.276  13.263  1.00  0.00     0.001 A 
HETATM   26  C17 UNL     1      15.512  22.088  14.263  1.00  0.00     0.007 A 
ENDBRANCH  20  21
ENDBRANCH   1  20
BRANCH   1  27
HETATM   27  C18 UNL     1      15.989  23.893  18.428  1.00  0.00     0.180 C 
BRANCH  27  28
HETATM   28  O5  UNL     1      15.054  24.904  18.529  1.00  0.00    -0.388 OA
ATOM     29  H5  UNL     1      14.409  24.604  19.158  1.00  0.00     0.210 HD
ENDBRANCH  27  28
BRANCH  27  30
HETATM   30  C19 UNL     1      17.402  24.333  18.221  1.00  0.00     0.115 C 
BRANCH  30  31
HETATM   31  N3  UNL     1      18.314  24.163  19.272  1.00  0.00    -0.263 N 
BRANCH  31  32
HETATM   32  C20 UNL     1      17.946  23.361  20.359  1.00  0.00     0.085 C 
BRANCH  32  33
HETATM   33  C21 UNL     1      18.038  21.889  20.253  1.00  0.00     0.017 C 
HETATM   34  C22 UNL     1      19.084  21.372  21.263  1.00  0.00     0.015 C 
HETATM   35  C23 UNL     1      16.754  21.169  20.652  1.00  0.00     0.015 C 
ENDBRANCH  32  33
ENDBRANCH  31  32
BRANCH  31  36
HETATM   36  S1  UNL     1      19.946  24.464  18.988  1.00  0.00     0.267 S 
HETATM   37  O6  UNL     1      20.402  25.484  20.039  1.00  0.00    -0.200 OA
HETATM   38  O7  UNL     1      20.863  23.308  19.151  1.00  0.00    -0.200 OA
BRANCH  36  39
HETATM   39  C24 UNL     1      20.171  25.255  17.443  1.00  0.00     0.080 A 
HETATM   40  C25 UNL     1      20.419  26.601  17.369  1.00  0.00     0.028 A 
HETATM   41  C26 UNL     1      20.594  27.252  16.153  1.00  0.00     0.038 A 
HETATM   42  C27 UNL     1      20.515  26.518  15.005  1.00  0.00     0.068 A 
HETATM   43  C29 UNL     1      20.266  25.157  15.076  1.00  0.00     0.038 A 
HETATM   44  C30 UNL     1      20.096  24.530  16.265  1.00  0.00     0.028 A 
BRANCH  42  45
HETATM   45  O8  UNL     1      20.686  27.141  13.791  1.00  0.00    -0.356 OA
HETATM   46  C28 UNL     1      21.543  28.275  13.734  1.00  0.00     0.210 C 
ENDBRANCH  42  45
ENDBRANCH  36  39
ENDBRANCH  31  36
ENDBRANCH  30  31
ENDBRANCH  27  30
ENDBRANCH   1  27
TORSDOF 16
ENDMDL
