MODEL 3
REMARK VINA RESULT: -9.625593149      2.419      6.631
REMARK  16 active torsions:
REMARK  status: ('A' for Active; 'I' for Inactive)
REMARK    1  A    between atoms: C2_2  and  N1_3 
REMARK    2  A    between atoms: N1_3  and  C3_5 
REMARK    3  A    between atoms: C8_12  and  O3_13 
REMARK    4  A    between atoms: O3_13  and  C9_14 
REMARK       I    between atoms: C9_14  and  N2_16 
REMARK    5  A    between atoms: N2_16  and  C10_18 
REMARK    6  A    between atoms: C10_18  and  C11_19 
REMARK    7  A    between atoms: C10_18  and  C18_26 
REMARK    8  A    between atoms: C11_19  and  C12_20 
REMARK    9  A    between atoms: C18_26  and  O5_27 
REMARK   10  A    between atoms: C18_26  and  C19_29 
REMARK   11  A    between atoms: C19_29  and  N3_30 
REMARK   12  A    between atoms: N3_30  and  C20_31 
REMARK   13  A    between atoms: N3_30  and  S1_35 
REMARK   14  A    between atoms: C20_31  and  C21_32 
REMARK   15  A    between atoms: S1_35  and  C24_38 
REMARK   16  A    between atoms: C27_41  and  O8_42 
ROOT
HETATM    1  C10 UNL     1      16.363  24.059  16.380  1.00  0.00     0.124 C 
ENDROOT
BRANCH   1   2
HETATM    2  N2  UNL     1      15.039  23.465  16.176  1.00  0.00    -0.329 N 
HETATM    3  C9  UNL     1      14.927  22.138  15.642  1.00  0.00     0.361 C 
HETATM    4  O4  UNL     1      15.986  21.520  15.363  1.00  0.00    -0.238 OA
ATOM      5  H2  UNL     1      14.200  23.993  16.414  1.00  0.00     0.165 HD
BRANCH   3   6
HETATM    6  O3  UNL     1      13.724  21.490  15.415  1.00  0.00    -0.298 OA
BRANCH   6   7
HETATM    7  C8  UNL     1      12.939  21.925  14.314  1.00  0.00     0.146 C 
HETATM    8  C7  UNL     1      13.771  21.715  13.069  1.00  0.00     0.059 C 
HETATM    9  C6  UNL     1      13.756  20.248  12.727  1.00  0.00     0.173 C 
HETATM   10  O2  UNL     1      13.432  19.467  13.851  1.00  0.00    -0.361 OA
HETATM   11  C5  UNL     1      12.056  19.634  14.147  1.00  0.00     0.268 C 
HETATM   12  O1  UNL     1      11.822  19.009  15.336  1.00  0.00    -0.359 OA
HETATM   13  C31 UNL     1      11.711  21.073  14.222  1.00  0.00     0.095 C 
HETATM   14  C4  UNL     1      11.135  19.866  16.179  1.00  0.00     0.196 C 
HETATM   15  C3  UNL     1      10.867  21.146  15.477  1.00  0.00     0.111 C 
BRANCH  15  16
HETATM   16  N1  UNL     1       9.507  21.384  15.119  1.00  0.00    -0.415 N 
ATOM     17  H1  UNL     1       8.790  21.600  15.810  1.00  0.00     0.153 HD
BRANCH  16  18
HETATM   18  C2  UNL     1       9.220  21.298  13.709  1.00  0.00     0.110 C 
HETATM   19  C1  UNL     1       8.344  22.432  13.225  1.00  0.00     0.026 C 
ENDBRANCH  16  18
ENDBRANCH  15  16
ENDBRANCH   6   7
ENDBRANCH   3   6
ENDBRANCH   1   2
BRANCH   1  20
HETATM   20  C11 UNL     1      16.683  25.029  15.278  1.00  0.00     0.066 C 
BRANCH  20  21
HETATM   21  C12 UNL     1      18.140  25.111  15.063  1.00  0.00    -0.056 A 
HETATM   22  C13 UNL     1      18.682  26.250  14.491  1.00  0.00     0.007 A 
HETATM   23  C14 UNL     1      20.037  26.354  14.272  1.00  0.00     0.001 A 
HETATM   24  C15 UNL     1      20.914  25.352  14.601  1.00  0.00     0.000 A 
HETATM   25  C16 UNL     1      20.372  24.209  15.173  1.00  0.00     0.001 A 
HETATM   26  C17 UNL     1      19.028  24.096  15.394  1.00  0.00     0.007 A 
ENDBRANCH  20  21
ENDBRANCH   1  20
BRANCH   1  27
HETATM   27  C18 UNL     1      16.260  24.768  17.732  1.00  0.00     0.180 C 
BRANCH  27  28
HETATM   28  O5  UNL     1      17.043  25.901  17.630  1.00  0.00    -0.388 OA
ATOM     29  H5  UNL     1      16.650  26.545  18.207  1.00  0.00     0.210 HD
ENDBRANCH  27  28
BRANCH  27  30
HETATM   30  C19 UNL     1      16.594  23.847  18.859  1.00  0.00     0.115 C 
BRANCH  30  31
HETATM   31  N3  UNL     1      17.901  23.347  18.947  1.00  0.00    -0.263 N 
BRANCH  31  32
HETATM   32  C20 UNL     1      18.907  24.181  19.450  1.00  0.00     0.085 C 
BRANCH  32  33
HETATM   33  C21 UNL     1      20.187  24.315  18.720  1.00  0.00     0.017 C 
HETATM   34  C22 UNL     1      20.451  25.808  18.430  1.00  0.00     0.015 C 
HETATM   35  C23 UNL     1      21.400  23.878  19.533  1.00  0.00     0.015 C 
ENDBRANCH  32  33
ENDBRANCH  31  32
BRANCH  31  36
HETATM   36  S1  UNL     1      18.135  21.680  18.956  1.00  0.00     0.267 S 
HETATM   37  O6  UNL     1      18.373  21.255  17.501  1.00  0.00    -0.200 OA
HETATM   38  O7  UNL     1      19.323  21.190  19.699  1.00  0.00    -0.200 OA
BRANCH  36  39
HETATM   39  C24 UNL     1      16.675  20.851  19.450  1.00  0.00     0.080 A 
HETATM   40  C25 UNL     1      15.967  20.081  18.564  1.00  0.00     0.028 A 
HETATM   41  C26 UNL     1      14.801  19.418  18.932  1.00  0.00     0.038 A 
HETATM   42  C27 UNL     1      14.357  19.548  20.216  1.00  0.00     0.068 A 
HETATM   43  C29 UNL     1      15.071  20.326  21.114  1.00  0.00     0.038 A 
HETATM   44  C30 UNL     1      16.206  20.968  20.748  1.00  0.00     0.028 A 
BRANCH  42  45
HETATM   45  O8  UNL     1      13.206  18.902  20.602  1.00  0.00    -0.356 OA
HETATM   46  C28 UNL     1      12.219  18.642  19.612  1.00  0.00     0.210 C 
ENDBRANCH  42  45
ENDBRANCH  36  39
ENDBRANCH  31  36
ENDBRANCH  30  31
ENDBRANCH  27  30
ENDBRANCH   1  27
TORSDOF 16
ENDMDL
