MODEL 7
REMARK VINA RESULT: -9.461456434      2.959     10.034
REMARK  16 active torsions:
REMARK  status: ('A' for Active; 'I' for Inactive)
REMARK    1  A    between atoms: C2_2  and  N1_3 
REMARK    2  A    between atoms: N1_3  and  C3_5 
REMARK    3  A    between atoms: C8_12  and  O3_13 
REMARK    4  A    between atoms: O3_13  and  C9_14 
REMARK       I    between atoms: C9_14  and  N2_16 
REMARK    5  A    between atoms: N2_16  and  C10_18 
REMARK    6  A    between atoms: C10_18  and  C11_19 
REMARK    7  A    between atoms: C10_18  and  C18_26 
REMARK    8  A    between atoms: C11_19  and  C12_20 
REMARK    9  A    between atoms: C18_26  and  O5_27 
REMARK   10  A    between atoms: C18_26  and  C19_29 
REMARK   11  A    between atoms: C19_29  and  N3_30 
REMARK   12  A    between atoms: N3_30  and  C20_31 
REMARK   13  A    between atoms: N3_30  and  S1_35 
REMARK   14  A    between atoms: C20_31  and  C21_32 
REMARK   15  A    between atoms: S1_35  and  C24_38 
REMARK   16  A    between atoms: C27_41  and  O8_42 
ROOT
HETATM    1  C10 UNL     1      18.850  25.709  15.679  1.00  0.00     0.124 C 
ENDROOT
BRANCH   1   2
HETATM    2  N2  UNL     1      19.539  24.882  16.674  1.00  0.00    -0.329 N 
HETATM    3  C9  UNL     1      20.122  25.497  17.832  1.00  0.00     0.361 C 
HETATM    4  O4  UNL     1      20.020  26.744  17.956  1.00  0.00    -0.238 OA
ATOM      5  H2  UNL     1      19.603  23.873  16.543  1.00  0.00     0.165 HD
BRANCH   3   6
HETATM    6  O3  UNL     1      20.790  24.803  18.826  1.00  0.00    -0.298 OA
BRANCH   6   7
HETATM    7  C8  UNL     1      20.545  25.181  20.174  1.00  0.00     0.146 C 
HETATM    8  C7  UNL     1      19.374  24.356  20.657  1.00  0.00     0.059 C 
HETATM    9  C6  UNL     1      19.862  22.962  20.951  1.00  0.00     0.173 C 
HETATM   10  O2  UNL     1      21.058  22.685  20.265  1.00  0.00    -0.361 OA
HETATM   11  C5  UNL     1      22.113  23.415  20.867  1.00  0.00     0.268 C 
HETATM   12  O1  UNL     1      23.210  23.263  20.072  1.00  0.00    -0.359 OA
HETATM   13  C31 UNL     1      21.747  24.845  21.002  1.00  0.00     0.095 C 
HETATM   14  C4  UNL     1      23.767  24.504  19.813  1.00  0.00     0.196 C 
HETATM   15  C3  UNL     1      22.993  25.554  20.520  1.00  0.00     0.111 C 
BRANCH  15  16
HETATM   16  N1  UNL     1      23.648  26.166  21.629  1.00  0.00    -0.415 N 
ATOM     17  H1  UNL     1      23.275  26.993  22.096  1.00  0.00     0.153 HD
BRANCH  16  18
HETATM   18  C2  UNL     1      24.875  25.533  22.044  1.00  0.00     0.110 C 
HETATM   19  C1  UNL     1      24.733  24.801  23.360  1.00  0.00     0.026 C 
ENDBRANCH  16  18
ENDBRANCH  15  16
ENDBRANCH   6   7
ENDBRANCH   3   6
ENDBRANCH   1   2
BRANCH   1  20
HETATM   20  C11 UNL     1      19.694  25.866  14.446  1.00  0.00     0.066 C 
BRANCH  20  21
HETATM   21  C12 UNL     1      20.900  26.663  14.737  1.00  0.00    -0.056 A 
HETATM   22  C13 UNL     1      22.123  26.025  14.871  1.00  0.00     0.007 A 
HETATM   23  C14 UNL     1      23.266  26.741  15.149  1.00  0.00     0.001 A 
HETATM   24  C15 UNL     1      23.260  28.103  15.307  1.00  0.00     0.000 A 
HETATM   25  C16 UNL     1      22.036  28.744  15.173  1.00  0.00     0.001 A 
HETATM   26  C17 UNL     1      20.895  28.043  14.898  1.00  0.00     0.007 A 
ENDBRANCH  20  21
ENDBRANCH   1  20
BRANCH   1  27
HETATM   27  C18 UNL     1      17.559  24.946  15.375  1.00  0.00     0.180 C 
BRANCH  27  28
HETATM   28  O5  UNL     1      16.648  25.891  14.946  1.00  0.00    -0.388 OA
ATOM     29  H5  UNL     1      16.141  26.135  15.711  1.00  0.00     0.210 HD
ENDBRANCH  27  28
BRANCH  27  30
HETATM   30  C19 UNL     1      17.131  24.112  16.538  1.00  0.00     0.115 C 
BRANCH  30  31
HETATM   31  N3  UNL     1      16.936  22.738  16.338  1.00  0.00    -0.263 N 
BRANCH  31  32
HETATM   32  C20 UNL     1      16.489  22.298  15.086  1.00  0.00     0.085 C 
BRANCH  32  33
HETATM   33  C21 UNL     1      15.137  21.714  14.949  1.00  0.00     0.017 C 
HETATM   34  C22 UNL     1      14.083  22.832  15.104  1.00  0.00     0.015 C 
HETATM   35  C23 UNL     1      14.860  21.136  13.566  1.00  0.00     0.015 C 
ENDBRANCH  32  33
ENDBRANCH  31  32
BRANCH  31  36
HETATM   36  S1  UNL     1      17.707  21.650  17.364  1.00  0.00     0.267 S 
HETATM   37  O6  UNL     1      18.139  20.455  16.504  1.00  0.00    -0.200 OA
HETATM   38  O7  UNL     1      18.956  22.131  18.009  1.00  0.00    -0.200 OA
BRANCH  36  39
HETATM   39  C24 UNL     1      16.583  20.999  18.536  1.00  0.00     0.080 A 
HETATM   40  C25 UNL     1      16.559  21.465  19.825  1.00  0.00     0.028 A 
HETATM   41  C26 UNL     1      15.679  20.957  20.776  1.00  0.00     0.038 A 
HETATM   42  C27 UNL     1      14.819  19.966  20.402  1.00  0.00     0.068 A 
HETATM   43  C29 UNL     1      14.840  19.494  19.099  1.00  0.00     0.038 A 
HETATM   44  C30 UNL     1      15.700  19.993  18.179  1.00  0.00     0.028 A 
BRANCH  42  45
HETATM   45  O8  UNL     1      13.940  19.451  21.325  1.00  0.00    -0.356 OA
HETATM   46  C28 UNL     1      12.894  18.609  20.857  1.00  0.00     0.210 C 
ENDBRANCH  42  45
ENDBRANCH  36  39
ENDBRANCH  31  36
ENDBRANCH  30  31
ENDBRANCH  27  30
ENDBRANCH   1  27
TORSDOF 16
ENDMDL
