MODEL 6
REMARK VINA RESULT: -6.925393292      3.798      7.004
REMARK  2 active torsions:
REMARK  status: ('A' for Active; 'I' for Inactive)
REMARK    1  A    between atoms: C5_7  and  C6_8 
REMARK    2  A    between atoms: C6_8  and  N2_9 
ROOT
HETATM    1  N2  UNL     1       8.426   9.843  42.328  1.00  0.00    -0.370 N 
ATOM      2  H2  UNL     1       8.249  10.726  41.848  1.00  0.00     0.161 HD
HETATM    3  C7  UNL     1       9.658   9.440  42.008  1.00  0.00     0.128 A 
HETATM    4  C8  UNL     1      10.554  10.456  41.612  1.00  0.00     0.092 A 
HETATM    5  C9  UNL     1      11.845  10.245  41.197  1.00  0.00     0.108 A 
HETATM    6 CL1  UNL     1      12.883  11.583  40.807  1.00  0.00    -0.064 Cl
HETATM    7  N3  UNL     1      12.289   9.003  41.165  1.00  0.00    -0.331 N 
ATOM      8  H3  UNL     1      13.239   8.788  40.863  1.00  0.00     0.168 HD
HETATM    9  C10 UNL     1      11.427   8.014  41.552  1.00  0.00     0.131 A 
HETATM   10  C11 UNL     1      11.676   6.658  41.574  1.00  0.00     0.069 A 
HETATM   11  C12 UNL     1      10.530   6.034  42.008  1.00  0.00     0.111 A 
HETATM   12  N4  UNL     1       9.625   7.013  42.231  1.00  0.00    -0.302 N 
ATOM     13  H4  UNL     1       8.671   6.864  42.561  1.00  0.00     0.186 HD
HETATM   14  N5  UNL     1      10.169   8.218  41.952  1.00  0.00    -0.224 N 
ENDROOT
BRANCH   1  15
HETATM   15  C6  UNL     1       7.274   9.519  43.074  1.00  0.00     0.169 C 
BRANCH  15  16
HETATM   16  C5  UNL     1       6.986  10.549  44.113  1.00  0.00     0.024 A 
HETATM   17  C3  UNL     1       6.877  10.293  45.457  1.00  0.00     0.020 A 
HETATM   18  N1  UNL     1       6.423  11.250  46.216  1.00  0.00    -0.357 N 
HETATM   19  C4  UNL     1       7.468   9.022  46.032  1.00  0.00     0.069 C 
HETATM   20  C2  UNL     1       6.102  12.402  45.681  1.00  0.00     0.047 A 
ATOM     21  H1  UNL     1       6.316  11.103  47.219  1.00  0.00     0.166 HD
HETATM   22  C1  UNL     1       5.577  13.651  46.335  1.00  0.00     0.076 C 
HETATM   23  S1  UNL     1       6.446  12.160  44.016  1.00  0.00    -0.078 SA
ENDBRANCH  15  16
ENDBRANCH   1  15
TORSDOF 2
ENDMDL
