MODEL 4
REMARK VINA RESULT: -7.017995927      3.196      6.625
REMARK  2 active torsions:
REMARK  status: ('A' for Active; 'I' for Inactive)
REMARK    1  A    between atoms: C5_7  and  C6_8 
REMARK    2  A    between atoms: C6_8  and  N2_9 
ROOT
HETATM    1  N2  UNL     1       7.306   9.434  42.607  1.00  0.00    -0.370 N 
ATOM      2  H2  UNL     1       7.123  10.092  41.850  1.00  0.00     0.161 HD
HETATM    3  C7  UNL     1       8.531   8.932  42.428  1.00  0.00     0.128 A 
HETATM    4  C8  UNL     1       9.422   9.734  41.683  1.00  0.00     0.092 A 
HETATM    5  C9  UNL     1      10.704   9.379  41.347  1.00  0.00     0.108 A 
HETATM    6 CL1  UNL     1      11.737  10.483  40.492  1.00  0.00    -0.064 Cl
HETATM    7  N3  UNL     1      11.143   8.200  41.746  1.00  0.00    -0.331 N 
ATOM      8  H3  UNL     1      12.087   7.884  41.522  1.00  0.00     0.168 HD
HETATM    9  C10 UNL     1      10.286   7.420  42.472  1.00  0.00     0.131 A 
HETATM   10  C11 UNL     1      10.532   6.156  42.966  1.00  0.00     0.069 A 
HETATM   11  C12 UNL     1       9.394   5.735  43.611  1.00  0.00     0.111 A 
HETATM   12  N4  UNL     1       8.495   6.739  43.492  1.00  0.00    -0.302 N 
ATOM     13  H4  UNL     1       7.548   6.725  43.870  1.00  0.00     0.186 HD
HETATM   14  N5  UNL     1       9.037   7.763  42.796  1.00  0.00    -0.224 N 
ENDROOT
BRANCH   1  15
HETATM   15  C6  UNL     1       6.169   9.403  43.440  1.00  0.00     0.169 C 
BRANCH  15  16
HETATM   16  C5  UNL     1       6.156  10.552  44.391  1.00  0.00     0.024 A 
HETATM   17  C3  UNL     1       6.469  10.465  45.725  1.00  0.00     0.020 A 
HETATM   18  N1  UNL     1       6.217  11.504  46.469  1.00  0.00    -0.357 N 
HETATM   19  C4  UNL     1       7.268   9.283  46.235  1.00  0.00     0.069 C 
HETATM   20  C2  UNL     1       5.694  12.576  45.928  1.00  0.00     0.047 A 
ATOM     21  H1  UNL     1       6.424  11.482  47.468  1.00  0.00     0.166 HD
HETATM   22  C1  UNL     1       5.329  13.890  46.562  1.00  0.00     0.076 C 
HETATM   23  S1  UNL     1       5.533  12.132  44.277  1.00  0.00    -0.078 SA
ENDBRANCH  15  16
ENDBRANCH   1  15
TORSDOF 2
ENDMDL
