MODEL 5
REMARK VINA RESULT: -6.956016697      3.536      7.247
REMARK  2 active torsions:
REMARK  status: ('A' for Active; 'I' for Inactive)
REMARK    1  A    between atoms: C5_7  and  C6_8 
REMARK    2  A    between atoms: C6_8  and  N2_9 
ROOT
HETATM    1  N2  UNL     1       6.137  12.612  44.216  1.00  0.00    -0.370 N 
ATOM      2  H2  UNL     1       6.293  13.619  44.175  1.00  0.00     0.161 HD
HETATM    3  C7  UNL     1       7.231  12.007  43.746  1.00  0.00     0.128 A 
HETATM    4  C8  UNL     1       8.430  12.747  43.835  1.00  0.00     0.092 A 
HETATM    5  C9  UNL     1       9.648  12.326  43.365  1.00  0.00     0.108 A 
HETATM    6 CL1  UNL     1      11.073  13.292  43.602  1.00  0.00    -0.064 Cl
HETATM    7  N3  UNL     1       9.712  11.142  42.786  1.00  0.00    -0.331 N 
ATOM      8  H3  UNL     1      10.591  10.781  42.416  1.00  0.00     0.168 HD
HETATM    9  C10 UNL     1       8.555  10.418  42.700  1.00  0.00     0.131 A 
HETATM   10  C11 UNL     1       8.394   9.178  42.120  1.00  0.00     0.069 A 
HETATM   11  C12 UNL     1       7.068   8.835  42.238  1.00  0.00     0.111 A 
HETATM   12  N4  UNL     1       6.464   9.864  42.874  1.00  0.00    -0.302 N 
ATOM     13  H4  UNL     1       5.472   9.906  43.108  1.00  0.00     0.186 HD
HETATM   14  N5  UNL     1       7.368  10.828  43.154  1.00  0.00    -0.224 N 
ENDROOT
BRANCH   1  15
HETATM   15  C6  UNL     1       4.849  12.393  44.746  1.00  0.00     0.169 C 
BRANCH  15  16
HETATM   16  C5  UNL     1       4.192  13.675  45.137  1.00  0.00     0.024 A 
HETATM   17  C3  UNL     1       3.826  14.663  44.259  1.00  0.00     0.020 A 
HETATM   18  N1  UNL     1       3.452  15.805  44.762  1.00  0.00    -0.357 N 
HETATM   19  C4  UNL     1       3.668  14.341  42.786  1.00  0.00     0.069 C 
HETATM   20  C2  UNL     1       3.429  15.962  46.062  1.00  0.00     0.047 A 
ATOM     21  H1  UNL     1       3.178  16.572  44.148  1.00  0.00     0.166 HD
HETATM   22  C1  UNL     1       3.028  17.161  46.877  1.00  0.00     0.076 C 
HETATM   23  S1  UNL     1       3.961  14.435  46.642  1.00  0.00    -0.078 SA
ENDBRANCH  15  16
ENDBRANCH   1  15
TORSDOF 2
ENDMDL
