MODEL 2
REMARK VINA RESULT: -8.931918632      1.621      2.111
REMARK  7 active torsions:
REMARK  status: ('A' for Active; 'I' for Inactive)
REMARK    1  A    between atoms: C3_4  and  C4_5 
REMARK    2  A    between atoms: C4_5  and  N2_6 
REMARK    3  A    between atoms: N2_6  and  C5_8 
REMARK    4  A    between atoms: C7_10  and  O1_11 
REMARK    5  A    between atoms: O1_11  and  C8_12 
REMARK    6  A    between atoms: C8_12  and  C9_13 
REMARK    7  A    between atoms: C11_15  and  C12_16 
ROOT
HETATM    1  C5  UNL     1       7.148   9.064  45.919  1.00  0.00     0.129 A 
HETATM    2  C6  UNL     1       6.342   9.578  46.870  1.00  0.00     0.106 A 
HETATM    3  C7  UNL     1       6.277  10.973  47.065  1.00  0.00     0.147 A 
HETATM    4  N4  UNL     1       7.048  11.701  46.261  1.00  0.00    -0.321 N 
ATOM      5  H4  UNL     1       7.018  12.713  46.382  1.00  0.00     0.169 HD
HETATM    6  C17 UNL     1       7.856  11.226  45.312  1.00  0.00     0.132 A 
HETATM    7  C18 UNL     1       8.716  11.823  44.397  1.00  0.00     0.069 A 
HETATM    8  C19 UNL     1       9.277  10.791  43.676  1.00  0.00     0.111 A 
HETATM    9  N5  UNL     1       8.747   9.662  44.173  1.00  0.00    -0.302 N 
ATOM     10  H5  UNL     1       8.981   8.732  43.828  1.00  0.00     0.186 HD
HETATM   11  N6  UNL     1       7.898   9.879  45.146  1.00  0.00    -0.224 N 
ENDROOT
BRANCH   3  12
HETATM   12  O1  UNL     1       5.442  11.383  48.035  1.00  0.00    -0.335 OA
BRANCH  12  13
HETATM   13  C8  UNL     1       4.603  12.415  48.276  1.00  0.00     0.182 C 
BRANCH  13  14
HETATM   14  C9  UNL     1       3.814  12.868  47.109  1.00  0.00     0.020 A 
HETATM   15  C10 UNL     1       2.910  14.000  47.011  1.00  0.00     0.018 A 
HETATM   16  C11 UNL     1       4.205  14.059  46.268  1.00  0.00     0.042 A 
BRANCH  16  17
HETATM   17  C12 UNL     1       4.229  13.814  44.809  1.00  0.00     0.013 A 
HETATM   18  C13 UNL     1       3.708  14.750  43.948  1.00  0.00     0.025 A 
HETATM   19  C14 UNL     1       3.710  14.557  42.565  1.00  0.00     0.003 A 
HETATM   20  C15 UNL     1       4.250  13.397  42.049  1.00  0.00     0.017 A 
HETATM   21  C16 UNL     1       4.764  12.482  42.939  1.00  0.00     0.088 A 
HETATM   22  N3  UNL     1       4.747  12.696  44.274  1.00  0.00    -0.369 N 
ATOM     23  H3  UNL     1       5.139  11.987  44.893  1.00  0.00     0.165 HD
ENDBRANCH  16  17
ENDBRANCH  13  14
ENDBRANCH  12  13
ENDBRANCH   3  12
BRANCH   1  24
HETATM   24  N2  UNL     1       7.223   7.658  45.712  1.00  0.00    -0.370 N 
ATOM     25  H2  UNL     1       6.415   7.168  45.328  1.00  0.00     0.161 HD
BRANCH  24  26
HETATM   26  C4  UNL     1       8.420   6.907  46.033  1.00  0.00     0.162 C 
BRANCH  26  27
HETATM   27  C3  UNL     1       9.081   6.385  44.831  1.00  0.00    -0.007 A 
HETATM   28  C2  UNL     1      10.413   6.540  44.516  1.00  0.00     0.119 A 
HETATM   29  N1  UNL     1      10.616   5.919  43.344  1.00  0.00    -0.308 N 
HETATM   30  C1  UNL     1      11.906   5.859  42.673  1.00  0.00     0.177 C 
HETATM   31  N7  UNL     1       9.470   5.382  42.913  1.00  0.00    -0.310 N 
HETATM   32  C20 UNL     1       8.516   5.664  43.824  1.00  0.00     0.117 A 
ATOM     33  H7  UNL     1       9.340   4.853  42.050  1.00  0.00     0.186 HD
ENDBRANCH  26  27
ENDBRANCH  24  26
ENDBRANCH   1  24
TORSDOF 7
ENDMDL
