MODEL 3
REMARK VINA RESULT: -8.764537409      2.856      4.847
REMARK  7 active torsions:
REMARK  status: ('A' for Active; 'I' for Inactive)
REMARK    1  A    between atoms: C3_4  and  C4_5 
REMARK    2  A    between atoms: C4_5  and  N2_6 
REMARK    3  A    between atoms: N2_6  and  C5_8 
REMARK    4  A    between atoms: C7_10  and  O1_11 
REMARK    5  A    between atoms: O1_11  and  C8_12 
REMARK    6  A    between atoms: C8_12  and  C9_13 
REMARK    7  A    between atoms: C11_15  and  C12_16 
ROOT
HETATM    1  C5  UNL     1       8.485   8.743  43.013  1.00  0.00     0.129 A 
HETATM    2  C6  UNL     1       8.248   9.518  44.091  1.00  0.00     0.106 A 
HETATM    3  C7  UNL     1       7.946   8.928  45.335  1.00  0.00     0.147 A 
HETATM    4  N4  UNL     1       7.917   7.598  45.347  1.00  0.00    -0.321 N 
ATOM      5  H4  UNL     1       7.701   7.146  46.236  1.00  0.00     0.169 HD
HETATM    6  C17 UNL     1       8.145   6.801  44.301  1.00  0.00     0.132 A 
HETATM    7  C18 UNL     1       8.158   5.421  44.131  1.00  0.00     0.069 A 
HETATM    8  C19 UNL     1       8.464   5.207  42.804  1.00  0.00     0.111 A 
HETATM    9  N5  UNL     1       8.616   6.424  42.258  1.00  0.00    -0.302 N 
ATOM     10  H5  UNL     1       8.848   6.575  41.277  1.00  0.00     0.186 HD
HETATM   11  N6  UNL     1       8.435   7.397  43.116  1.00  0.00    -0.224 N 
ENDROOT
BRANCH   3  12
HETATM   12  O1  UNL     1       7.729   9.787  46.345  1.00  0.00    -0.335 OA
BRANCH  12  13
HETATM   13  C8  UNL     1       6.680  10.350  46.984  1.00  0.00     0.182 C 
BRANCH  13  14
HETATM   14  C9  UNL     1       6.412  11.761  46.629  1.00  0.00     0.020 A 
HETATM   15  C10 UNL     1       6.896  12.516  45.487  1.00  0.00     0.018 A 
HETATM   16  C11 UNL     1       5.444  12.163  45.541  1.00  0.00     0.042 A 
BRANCH  16  17
HETATM   17  C12 UNL     1       4.453  13.188  45.934  1.00  0.00     0.013 A 
HETATM   18  C13 UNL     1       4.199  14.251  45.101  1.00  0.00     0.025 A 
HETATM   19  C14 UNL     1       3.270  15.240  45.434  1.00  0.00     0.003 A 
HETATM   20  C15 UNL     1       2.589  15.147  46.630  1.00  0.00     0.017 A 
HETATM   21  C16 UNL     1       2.868  14.069  47.440  1.00  0.00     0.088 A 
HETATM   22  N3  UNL     1       3.772  13.128  47.091  1.00  0.00    -0.369 N 
ATOM     23  H3  UNL     1       3.944  12.348  47.725  1.00  0.00     0.165 HD
ENDBRANCH  16  17
ENDBRANCH  13  14
ENDBRANCH  12  13
ENDBRANCH   3  12
BRANCH   1  24
HETATM   24  N2  UNL     1       8.791   9.325  41.752  1.00  0.00    -0.370 N 
ATOM     25  H2  UNL     1       8.112   9.947  41.312  1.00  0.00     0.161 HD
BRANCH  24  26
HETATM   26  C4  UNL     1      10.045   9.056  41.076  1.00  0.00     0.162 C 
BRANCH  26  27
HETATM   27  C3  UNL     1      11.148   9.856  41.624  1.00  0.00    -0.007 A 
HETATM   28  C2  UNL     1      11.577  11.071  41.139  1.00  0.00     0.119 A 
HETATM   29  N1  UNL     1      12.598  11.467  41.914  1.00  0.00    -0.308 N 
HETATM   30  C1  UNL     1      13.324  12.713  41.720  1.00  0.00     0.177 C 
HETATM   31  N7  UNL     1      12.825  10.553  42.863  1.00  0.00    -0.310 N 
HETATM   32  C20 UNL     1      11.935   9.555  42.694  1.00  0.00     0.117 A 
ATOM     33  H7  UNL     1      13.543  10.603  43.587  1.00  0.00     0.186 HD
ENDBRANCH  26  27
ENDBRANCH  24  26
ENDBRANCH   1  24
TORSDOF 7
ENDMDL
