MODEL 1
REMARK VINA RESULT: -8.933412892      0.000      0.000
REMARK  7 active torsions:
REMARK  status: ('A' for Active; 'I' for Inactive)
REMARK    1  A    between atoms: C3_4  and  C4_5 
REMARK    2  A    between atoms: C4_5  and  N2_6 
REMARK    3  A    between atoms: N2_6  and  C5_8 
REMARK    4  A    between atoms: C7_10  and  O1_11 
REMARK    5  A    between atoms: O1_11  and  C8_12 
REMARK    6  A    between atoms: C8_12  and  C9_13 
REMARK    7  A    between atoms: C11_15  and  C12_16 
ROOT
HETATM    1  C5  UNL     1       8.391  10.695  44.071  1.00  0.00     0.129 A 
HETATM    2  C6  UNL     1       7.217  10.813  44.723  1.00  0.00     0.106 A 
HETATM    3  C7  UNL     1       6.954  11.956  45.506  1.00  0.00     0.147 A 
HETATM    4  N4  UNL     1       7.925  12.864  45.541  1.00  0.00    -0.321 N 
ATOM      5  H4  UNL     1       7.760  13.700  46.101  1.00  0.00     0.169 HD
HETATM    6  C17 UNL     1       9.097  12.779  44.909  1.00  0.00     0.132 A 
HETATM    7  C18 UNL     1      10.208  13.613  44.831  1.00  0.00     0.069 A 
HETATM    8  C19 UNL     1      11.109  12.966  44.012  1.00  0.00     0.111 A 
HETATM    9  N5  UNL     1      10.519  11.816  43.649  1.00  0.00    -0.302 N 
ATOM     10  H5  UNL     1      10.958  11.129  43.037  1.00  0.00     0.186 HD
HETATM   11  N6  UNL     1       9.323  11.669  44.161  1.00  0.00    -0.224 N 
ENDROOT
BRANCH   3  12
HETATM   12  O1  UNL     1       5.755  11.977  46.113  1.00  0.00    -0.335 OA
BRANCH  12  13
HETATM   13  C8  UNL     1       4.828  12.887  46.486  1.00  0.00     0.182 C 
BRANCH  13  14
HETATM   14  C9  UNL     1       4.007  13.436  45.385  1.00  0.00     0.020 A 
HETATM   15  C10 UNL     1       3.412  14.755  45.267  1.00  0.00     0.018 A 
HETATM   16  C11 UNL     1       4.548  14.405  44.362  1.00  0.00     0.042 A 
BRANCH  16  17
HETATM   17  C12 UNL     1       4.282  14.042  42.953  1.00  0.00     0.013 A 
HETATM   18  C13 UNL     1       3.643  14.933  42.125  1.00  0.00     0.025 A 
HETATM   19  C14 UNL     1       3.373  14.630  40.789  1.00  0.00     0.003 A 
HETATM   20  C15 UNL     1       3.757  13.404  40.287  1.00  0.00     0.017 A 
HETATM   21  C16 UNL     1       4.395  12.536  41.143  1.00  0.00     0.088 A 
HETATM   22  N3  UNL     1       4.643  12.858  42.432  1.00  0.00    -0.369 N 
ATOM     23  H3  UNL     1       5.119  12.180  43.028  1.00  0.00     0.165 HD
ENDBRANCH  16  17
ENDBRANCH  13  14
ENDBRANCH  12  13
ENDBRANCH   3  12
BRANCH   1  24
HETATM   24  N2  UNL     1       8.669   9.548  43.276  1.00  0.00    -0.370 N 
ATOM     25  H2  UNL     1       9.149   9.665  42.384  1.00  0.00     0.161 HD
BRANCH  24  26
HETATM   26  C4  UNL     1       8.287   8.217  43.705  1.00  0.00     0.162 C 
BRANCH  26  27
HETATM   27  C3  UNL     1       9.435   7.304  43.755  1.00  0.00    -0.007 A 
HETATM   28  C2  UNL     1      10.400   7.173  42.781  1.00  0.00     0.119 A 
HETATM   29  N1  UNL     1      11.267   6.242  43.207  1.00  0.00    -0.308 N 
HETATM   30  C1  UNL     1      12.436   5.820  42.450  1.00  0.00     0.177 C 
HETATM   31  N7  UNL     1      10.887   5.786  44.405  1.00  0.00    -0.310 N 
HETATM   32  C20 UNL     1       9.758   6.435  44.752  1.00  0.00     0.117 A 
ATOM     33  H7  UNL     1      11.367   5.075  44.957  1.00  0.00     0.186 HD
ENDBRANCH  26  27
ENDBRANCH  24  26
ENDBRANCH   1  24
TORSDOF 7
ENDMDL
