MODEL 19
REMARK VINA RESULT: -8.204645812      2.826      5.400
REMARK  7 active torsions:
REMARK  status: ('A' for Active; 'I' for Inactive)
REMARK    1  A    between atoms: C3_4  and  C4_5 
REMARK    2  A    between atoms: C4_5  and  N2_6 
REMARK    3  A    between atoms: N2_6  and  C5_8 
REMARK    4  A    between atoms: C7_10  and  O1_11 
REMARK    5  A    between atoms: O1_11  and  C8_12 
REMARK    6  A    between atoms: C8_12  and  C9_13 
REMARK    7  A    between atoms: C11_15  and  C12_16 
ROOT
HETATM    1  C5  UNL     1       5.920  12.723  45.056  1.00  0.00     0.129 A 
HETATM    2  C6  UNL     1       5.418  13.291  43.941  1.00  0.00     0.106 A 
HETATM    3  C7  UNL     1       4.153  13.914  43.973  1.00  0.00     0.147 A 
HETATM    4  N4  UNL     1       3.531  13.891  45.149  1.00  0.00    -0.321 N 
ATOM      5  H4  UNL     1       2.615  14.336  45.198  1.00  0.00     0.169 HD
HETATM    6  C17 UNL     1       3.999  13.338  46.269  1.00  0.00     0.132 A 
HETATM    7  C18 UNL     1       3.500  13.221  47.562  1.00  0.00     0.069 A 
HETATM    8  C19 UNL     1       4.460  12.538  48.278  1.00  0.00     0.111 A 
HETATM    9  N5  UNL     1       5.455  12.286  47.413  1.00  0.00    -0.302 N 
ATOM     10  H5  UNL     1       6.308  11.788  47.667  1.00  0.00     0.186 HD
HETATM   11  N6  UNL     1       5.219  12.746  46.210  1.00  0.00    -0.224 N 
ENDROOT
BRANCH   3  12
HETATM   12  O1  UNL     1       3.745  14.452  42.811  1.00  0.00    -0.335 OA
BRANCH  12  13
HETATM   13  C8  UNL     1       4.071  15.489  42.008  1.00  0.00     0.182 C 
BRANCH  13  14
HETATM   14  C9  UNL     1       3.889  15.245  40.561  1.00  0.00     0.020 A 
HETATM   15  C10 UNL     1       3.154  14.177  39.907  1.00  0.00     0.018 A 
HETATM   16  C11 UNL     1       2.608  15.566  39.829  1.00  0.00     0.042 A 
BRANCH  16  17
HETATM   17  C12 UNL     1       2.777  16.354  38.589  1.00  0.00     0.013 A 
HETATM   18  C13 UNL     1       2.309  15.861  37.394  1.00  0.00     0.025 A 
HETATM   19  C14 UNL     1       2.448  16.573  36.201  1.00  0.00     0.003 A 
HETATM   20  C15 UNL     1       3.070  17.805  36.222  1.00  0.00     0.017 A 
HETATM   21  C16 UNL     1       3.526  18.268  37.435  1.00  0.00     0.088 A 
HETATM   22  N3  UNL     1       3.377  17.556  38.574  1.00  0.00    -0.369 N 
ATOM     23  H3  UNL     1       3.732  17.942  39.448  1.00  0.00     0.165 HD
ENDBRANCH  16  17
ENDBRANCH  13  14
ENDBRANCH  12  13
ENDBRANCH   3  12
BRANCH   1  24
HETATM   24  N2  UNL     1       7.195  12.091  45.038  1.00  0.00    -0.370 N 
ATOM     25  H2  UNL     1       7.269  11.129  44.708  1.00  0.00     0.161 HD
BRANCH  24  26
HETATM   26  C4  UNL     1       8.391  12.782  45.479  1.00  0.00     0.162 C 
BRANCH  26  27
HETATM   27  C3  UNL     1       9.550  12.468  44.634  1.00  0.00    -0.007 A 
HETATM   28  C2  UNL     1       9.700  11.336  43.864  1.00  0.00     0.119 A 
HETATM   29  N1  UNL     1      10.888  11.432  43.249  1.00  0.00    -0.308 N 
HETATM   30  C1  UNL     1      11.412  10.423  42.341  1.00  0.00     0.177 C 
HETATM   31  N7  UNL     1      11.487  12.575  43.600  1.00  0.00    -0.310 N 
HETATM   32  C20 UNL     1      10.670  13.222  44.454  1.00  0.00     0.117 A 
ATOM     33  H7  UNL     1      12.400  12.899  43.278  1.00  0.00     0.186 HD
ENDBRANCH  26  27
ENDBRANCH  24  26
ENDBRANCH   1  24
TORSDOF 7
ENDMDL
