MODEL 2
REMARK VINA RESULT: -9.342522573      2.604      3.567
REMARK  13 active torsions:
REMARK  status: ('A' for Active; 'I' for Inactive)
REMARK    1  A    between atoms: N1_1  and  N2_4 
REMARK    2  A    between atoms: N2_4  and  N3_5 
REMARK    3  A    between atoms: N3_5  and  C1_7 
REMARK    4  A    between atoms: C1_7  and  C2_8 
REMARK    5  A    between atoms: C3_10  and  N4_11 
REMARK    6  A    between atoms: C4_12  and  S1_13 
REMARK    7  A    between atoms: S1_13  and  C5_14 
REMARK    8  A    between atoms: C5_14  and  C6_15 
REMARK       I    between atoms: C6_15  and  N5_17 
REMARK    9  A    between atoms: N5_17  and  C7_19 
REMARK   10  A    between atoms: C7_19  and  C8_20 
REMARK   11  A    between atoms: C8_20  and  C9_21 
REMARK   12  A    between atoms: C21_42  and  O3_43 
REMARK   13  A    between atoms: C22_45  and  O4_46 
ROOT
HETATM    1  N4  UNL     1       5.560 -15.521 -50.133  1.00  0.00    -0.281 N 
HETATM    2  C4  UNL     1       6.001 -16.123 -51.231  1.00  0.00     0.151 A 
HETATM    3  N7  UNL     1       4.990 -16.557 -52.010  1.00  0.00    -0.331 N 
ATOM      4  H7  UNL     1       5.071 -17.047 -52.901  1.00  0.00     0.168 HD
HETATM    5  C17 UNL     1       3.857 -16.215 -51.378  1.00  0.00     0.120 A 
HETATM    6  C18 UNL     1       2.537 -16.426 -51.753  1.00  0.00     0.148 A 
HETATM    7  N8  UNL     1       2.200 -17.094 -52.963  1.00  0.00    -0.080 NA
HETATM    8  N9  UNL     1       1.598 -15.965 -50.907  1.00  0.00    -0.339 N 
ATOM      9  H9  UNL     1       0.617 -16.101 -51.149  1.00  0.00     0.167 HD
HETATM   10  C19 UNL     1       1.896 -15.331 -49.757  1.00  0.00     0.183 A 
HETATM   11  N10 UNL     1       3.198 -15.143 -49.426  1.00  0.00    -0.336 N 
ATOM     12  H10 UNL     1       3.420 -14.662 -48.555  1.00  0.00     0.168 HD
HETATM   13  C20 UNL     1       4.210 -15.571 -50.211  1.00  0.00     0.143 A 
ENDROOT
BRANCH   2  14
HETATM   14  S1  UNL     1       7.708 -16.339 -51.634  1.00  0.00    -0.084 SA
BRANCH  14  15
HETATM   15  C5  UNL     1       8.048 -18.141 -51.608  1.00  0.00     0.185 C 
BRANCH  15  16
HETATM   16  C6  UNL     1       8.312 -18.518 -50.195  1.00  0.00     0.227 C 
HETATM   17  O2  UNL     1       7.437 -18.419 -49.297  1.00  0.00    -0.273 OA
HETATM   18  N5  UNL     1       9.595 -19.008 -49.833  1.00  0.00    -0.360 N 
ATOM     19  H5  UNL     1      10.320 -19.096 -50.546  1.00  0.00     0.162 HD
BRANCH  18  20
HETATM   20  C7  UNL     1       9.888 -19.385 -48.470  1.00  0.00     0.127 C 
BRANCH  20  21
HETATM   21  C8  UNL     1      10.529 -18.283 -47.670  1.00  0.00     0.060 C 
BRANCH  21  22
HETATM   22  C9  UNL     1       9.798 -17.937 -46.444  1.00  0.00    -0.029 A 
HETATM   23  C10 UNL     1       8.651 -17.209 -46.231  1.00  0.00     0.096 A 
HETATM   24  N6  UNL     1       8.378 -17.176 -44.920  1.00  0.00    -0.365 N 
HETATM   25  C11 UNL     1       9.330 -17.872 -44.268  1.00  0.00     0.042 A 
ATOM     26  H6  UNL     1       7.584 -16.704 -44.488  1.00  0.00     0.165 HD
HETATM   27  C12 UNL     1       9.522 -18.147 -42.922  1.00  0.00     0.030 A 
HETATM   28  C16 UNL     1      10.234 -18.363 -45.186  1.00  0.00    -0.002 A 
HETATM   29  C13 UNL     1      10.595 -18.900 -42.478  1.00  0.00     0.002 A 
HETATM   30  C14 UNL     1      11.494 -19.386 -43.418  1.00  0.00     0.001 A 
HETATM   31  C15 UNL     1      11.302 -19.112 -44.751  1.00  0.00     0.014 A 
ENDBRANCH  21  22
ENDBRANCH  20  21
ENDBRANCH  18  20
ENDBRANCH  15  16
ENDBRANCH  14  15
ENDBRANCH   2  14
BRANCH   1  32
HETATM   32  C3  UNL     1       6.260 -14.934 -49.072  1.00  0.00     0.263 C 
HETATM   33  O1  UNL     1       5.750 -15.460 -47.861  1.00  0.00    -0.354 OA
HETATM   34  C2  UNL     1       6.340 -14.626 -46.894  1.00  0.00     0.175 C 
HETATM   35  C22 UNL     1       5.977 -13.269 -47.458  1.00  0.00     0.181 C 
HETATM   36  C21 UNL     1       6.330 -13.502 -48.916  1.00  0.00     0.198 C 
BRANCH  34  37
HETATM   37  C1  UNL     1       5.727 -14.840 -45.538  1.00  0.00     0.190 C 
BRANCH  37  38
HETATM   38  N3  UNL     1       6.625 -14.191 -44.573  1.00  0.00    -0.250 N 
ATOM     39  H3  UNL     1       7.440 -13.681 -44.913  1.00  0.00     0.197 HD
BRANCH  38  40
HETATM   40  N2  UNL     1       6.415 -14.252 -43.369  1.00  0.00    -0.248 NA
BRANCH  40  41
HETATM   41  N1  UNL     1       6.265 -14.058 -42.144  1.00  0.00    -0.261 N 
ATOM     42  H12 UNL     1       7.182 -14.462 -41.955  1.00  0.00     0.193 HD
ATOM     43  H11 UNL     1       5.952 -13.818 -41.203  1.00  0.00     0.193 HD
ENDBRANCH  40  41
ENDBRANCH  38  40
ENDBRANCH  37  38
ENDBRANCH  34  37
BRANCH  35  44
HETATM   44  O4  UNL     1       6.722 -12.240 -46.898  1.00  0.00    -0.390 OA
ATOM     45  H4  UNL     1       6.834 -11.504 -47.488  1.00  0.00     0.210 HD
ENDBRANCH  35  44
BRANCH  36  46
HETATM   46  O3  UNL     1       7.647 -12.999 -49.067  1.00  0.00    -0.388 OA
ATOM     47  H3  UNL     1       7.674 -12.051 -49.114  1.00  0.00     0.210 HD
ENDBRANCH  36  46
ENDBRANCH   1  32
TORSDOF 13
ENDMDL
