MODEL 3
REMARK VINA RESULT: -9.293246594      3.152      6.807
REMARK  13 active torsions:
REMARK  status: ('A' for Active; 'I' for Inactive)
REMARK    1  A    between atoms: N1_1  and  N2_4 
REMARK    2  A    between atoms: N2_4  and  N3_5 
REMARK    3  A    between atoms: N3_5  and  C1_7 
REMARK    4  A    between atoms: C1_7  and  C2_8 
REMARK    5  A    between atoms: C3_10  and  N4_11 
REMARK    6  A    between atoms: C4_12  and  S1_13 
REMARK    7  A    between atoms: S1_13  and  C5_14 
REMARK    8  A    between atoms: C5_14  and  C6_15 
REMARK       I    between atoms: C6_15  and  N5_17 
REMARK    9  A    between atoms: N5_17  and  C7_19 
REMARK   10  A    between atoms: C7_19  and  C8_20 
REMARK   11  A    between atoms: C8_20  and  C9_21 
REMARK   12  A    between atoms: C21_42  and  O3_43 
REMARK   13  A    between atoms: C22_45  and  O4_46 
ROOT
HETATM    1  N4  UNL     1       8.649 -18.128 -45.964  1.00  0.00    -0.281 N 
HETATM    2  C4  UNL     1       7.988 -18.091 -44.813  1.00  0.00     0.151 A 
HETATM    3  N7  UNL     1       7.087 -17.091 -44.780  1.00  0.00    -0.331 N 
ATOM      4  H7  UNL     1       6.459 -16.857 -44.011  1.00  0.00     0.168 HD
HETATM    5  C17 UNL     1       7.180 -16.463 -45.963  1.00  0.00     0.120 A 
HETATM    6  C18 UNL     1       6.474 -15.368 -46.441  1.00  0.00     0.148 A 
HETATM    7  N8  UNL     1       5.476 -14.721 -45.660  1.00  0.00    -0.080 NA
HETATM    8  N9  UNL     1       6.787 -14.954 -47.682  1.00  0.00    -0.339 N 
ATOM      9  H9  UNL     1       6.289 -14.153 -48.068  1.00  0.00     0.167 HD
HETATM   10  C19 UNL     1       7.728 -15.551 -48.437  1.00  0.00     0.183 A 
HETATM   11  N10 UNL     1       8.397 -16.619 -47.935  1.00  0.00    -0.336 N 
ATOM     12  H10 UNL     1       9.109 -17.070 -48.509  1.00  0.00     0.168 HD
HETATM   13  C20 UNL     1       8.151 -17.107 -46.699  1.00  0.00     0.143 A 
ENDROOT
BRANCH   2  14
HETATM   14  S1  UNL     1       8.251 -19.215 -43.475  1.00  0.00    -0.084 SA
BRANCH  14  15
HETATM   15  C5  UNL     1       9.768 -18.673 -42.600  1.00  0.00     0.185 C 
BRANCH  15  16
HETATM   16  C6  UNL     1      10.868 -19.578 -43.027  1.00  0.00     0.227 C 
HETATM   17  O2  UNL     1      11.953 -19.145 -43.495  1.00  0.00    -0.273 OA
HETATM   18  N5  UNL     1      10.700 -20.983 -42.907  1.00  0.00    -0.360 N 
ATOM     19  H5  UNL     1       9.828 -21.355 -42.530  1.00  0.00     0.162 HD
BRANCH  18  20
HETATM   20  C7  UNL     1      11.746 -21.893 -43.310  1.00  0.00     0.127 C 
BRANCH  20  21
HETATM   21  C8  UNL     1      12.084 -22.919 -42.262  1.00  0.00     0.060 C 
BRANCH  21  22
HETATM   22  C9  UNL     1      13.196 -22.529 -41.386  1.00  0.00    -0.029 A 
HETATM   23  C10 UNL     1      14.540 -22.360 -41.625  1.00  0.00     0.096 A 
HETATM   24  N6  UNL     1      15.153 -21.991 -40.492  1.00  0.00    -0.365 N 
HETATM   25  C11 UNL     1      14.232 -21.915 -39.512  1.00  0.00     0.042 A 
ATOM     26  H6  UNL     1      16.150 -21.800 -40.389  1.00  0.00     0.165 HD
HETATM   27  C12 UNL     1      14.328 -21.584 -38.168  1.00  0.00     0.030 A 
HETATM   28  C16 UNL     1      12.998 -22.244 -40.032  1.00  0.00    -0.002 A 
HETATM   29  C13 UNL     1      13.222 -21.574 -37.339  1.00  0.00     0.002 A 
HETATM   30  C14 UNL     1      11.987 -21.907 -37.881  1.00  0.00     0.001 A 
HETATM   31  C15 UNL     1      11.893 -22.236 -39.212  1.00  0.00     0.014 A 
ENDBRANCH  21  22
ENDBRANCH  20  21
ENDBRANCH  18  20
ENDBRANCH  15  16
ENDBRANCH  14  15
ENDBRANCH   2  14
BRANCH   1  32
HETATM   32  C3  UNL     1       9.657 -18.992 -46.409  1.00  0.00     0.263 C 
HETATM   33  O1  UNL     1      10.824 -18.227 -46.645  1.00  0.00    -0.354 OA
HETATM   34  C2  UNL     1      11.658 -19.142 -47.313  1.00  0.00     0.175 C 
HETATM   35  C22 UNL     1      10.714 -19.620 -48.396  1.00  0.00     0.181 C 
HETATM   36  C21 UNL     1       9.467 -19.842 -47.559  1.00  0.00     0.198 C 
BRANCH  34  37
HETATM   37  C1  UNL     1      12.864 -18.458 -47.897  1.00  0.00     0.190 C 
BRANCH  37  38
HETATM   38  N3  UNL     1      14.034 -19.200 -47.406  1.00  0.00    -0.250 N 
ATOM     39  H3  UNL     1      14.725 -19.544 -48.073  1.00  0.00     0.197 HD
BRANCH  38  40
HETATM   40  N2  UNL     1      14.196 -19.413 -46.212  1.00  0.00    -0.248 NA
BRANCH  40  41
HETATM   41  N1  UNL     1      14.531 -19.428 -45.008  1.00  0.00    -0.261 N 
ATOM     42  H12 UNL     1      13.821 -18.731 -44.788  1.00  0.00     0.193 HD
ATOM     43  H11 UNL     1      14.949 -19.587 -44.091  1.00  0.00     0.193 HD
ENDBRANCH  40  41
ENDBRANCH  38  40
ENDBRANCH  37  38
ENDBRANCH  34  37
BRANCH  35  44
HETATM   44  O4  UNL     1      11.148 -20.788 -49.007  1.00  0.00    -0.390 OA
ATOM     45  H4  UNL     1      10.440 -21.278 -49.408  1.00  0.00     0.210 HD
ENDBRANCH  35  44
BRANCH  36  46
HETATM   46  O3  UNL     1       9.479 -21.220 -47.228  1.00  0.00    -0.388 OA
ATOM     47  H3  UNL     1       9.547 -21.780 -47.992  1.00  0.00     0.210 HD
ENDBRANCH  36  46
ENDBRANCH   1  32
TORSDOF 13
ENDMDL
