MODEL 1
REMARK VINA RESULT: -9.377947877      0.000      0.000
REMARK  13 active torsions:
REMARK  status: ('A' for Active; 'I' for Inactive)
REMARK    1  A    between atoms: N1_1  and  N2_4 
REMARK    2  A    between atoms: N2_4  and  N3_5 
REMARK    3  A    between atoms: N3_5  and  C1_7 
REMARK    4  A    between atoms: C1_7  and  C2_8 
REMARK    5  A    between atoms: C3_10  and  N4_11 
REMARK    6  A    between atoms: C4_12  and  S1_13 
REMARK    7  A    between atoms: S1_13  and  C5_14 
REMARK    8  A    between atoms: C5_14  and  C6_15 
REMARK       I    between atoms: C6_15  and  N5_17 
REMARK    9  A    between atoms: N5_17  and  C7_19 
REMARK   10  A    between atoms: C7_19  and  C8_20 
REMARK   11  A    between atoms: C8_20  and  C9_21 
REMARK   12  A    between atoms: C21_42  and  O3_43 
REMARK   13  A    between atoms: C22_45  and  O4_46 
ROOT
HETATM    1  N4  UNL     1       6.613 -17.137 -48.790  1.00  0.00    -0.281 N 
HETATM    2  C4  UNL     1       7.444 -18.156 -48.969  1.00  0.00     0.151 A 
HETATM    3  N7  UNL     1       7.615 -18.446 -50.273  1.00  0.00    -0.331 N 
ATOM      4  H7  UNL     1       8.202 -19.182 -50.666  1.00  0.00     0.168 HD
HETATM    5  C17 UNL     1       6.857 -17.571 -50.953  1.00  0.00     0.120 A 
HETATM    6  C18 UNL     1       6.675 -17.437 -52.323  1.00  0.00     0.148 A 
HETATM    7  N8  UNL     1       7.331 -18.292 -53.253  1.00  0.00    -0.080 NA
HETATM    8  N9  UNL     1       5.845 -16.456 -52.719  1.00  0.00    -0.339 N 
ATOM      9  H9  UNL     1       5.687 -16.325 -53.718  1.00  0.00     0.167 HD
HETATM   10  C19 UNL     1       5.214 -15.637 -51.856  1.00  0.00     0.183 A 
HETATM   11  N10 UNL     1       5.418 -15.800 -50.525  1.00  0.00    -0.336 N 
ATOM     12  H10 UNL     1       4.940 -15.178 -49.873  1.00  0.00     0.168 HD
HETATM   13  C20 UNL     1       6.234 -16.757 -50.032  1.00  0.00     0.143 A 
ENDROOT
BRANCH   2  14
HETATM   14  S1  UNL     1       8.239 -19.038 -47.659  1.00  0.00    -0.084 SA
BRANCH  14  15
HETATM   15  C5  UNL     1       8.966 -20.555 -48.389  1.00  0.00     0.185 C 
BRANCH  15  16
HETATM   16  C6  UNL     1      10.429 -20.509 -48.129  1.00  0.00     0.227 C 
HETATM   17  O2  UNL     1      11.041 -21.450 -47.562  1.00  0.00    -0.273 OA
HETATM   18  N5  UNL     1      11.173 -19.368 -48.531  1.00  0.00    -0.360 N 
ATOM     19  H5  UNL     1      10.695 -18.593 -48.992  1.00  0.00     0.162 HD
BRANCH  18  20
HETATM   20  C7  UNL     1      12.595 -19.288 -48.295  1.00  0.00     0.127 C 
BRANCH  20  21
HETATM   21  C8  UNL     1      12.961 -18.403 -47.134  1.00  0.00     0.060 C 
BRANCH  21  22
HETATM   22  C9  UNL     1      13.014 -19.105 -45.846  1.00  0.00    -0.029 A 
HETATM   23  C10 UNL     1      13.977 -19.899 -45.269  1.00  0.00     0.096 A 
HETATM   24  N6  UNL     1      13.556 -20.313 -44.066  1.00  0.00    -0.365 N 
HETATM   25  C11 UNL     1      12.329 -19.802 -43.844  1.00  0.00     0.042 A 
ATOM     26  H6  UNL     1      14.077 -20.913 -43.426  1.00  0.00     0.165 HD
HETATM   27  C12 UNL     1      11.455 -19.917 -42.773  1.00  0.00     0.030 A 
HETATM   28  C16 UNL     1      11.957 -19.043 -44.933  1.00  0.00    -0.002 A 
HETATM   29  C13 UNL     1      10.222 -19.290 -42.769  1.00  0.00     0.002 A 
HETATM   30  C14 UNL     1       9.865 -18.529 -43.875  1.00  0.00     0.001 A 
HETATM   31  C15 UNL     1      10.732 -18.417 -44.935  1.00  0.00     0.014 A 
ENDBRANCH  21  22
ENDBRANCH  20  21
ENDBRANCH  18  20
ENDBRANCH  15  16
ENDBRANCH  14  15
ENDBRANCH   2  14
BRANCH   1  32
HETATM   32  C3  UNL     1       6.165 -16.521 -47.614  1.00  0.00     0.263 C 
HETATM   33  O1  UNL     1       4.980 -15.808 -47.912  1.00  0.00    -0.354 OA
HETATM   34  C2  UNL     1       4.780 -15.048 -46.745  1.00  0.00     0.175 C 
HETATM   35  C22 UNL     1       6.147 -14.413 -46.605  1.00  0.00     0.181 C 
HETATM   36  C21 UNL     1       7.015 -15.633 -46.859  1.00  0.00     0.198 C 
BRANCH  34  37
HETATM   37  C1  UNL     1       3.710 -14.011 -46.944  1.00  0.00     0.190 C 
BRANCH  37  38
HETATM   38  N3  UNL     1       4.408 -12.748 -47.226  1.00  0.00    -0.250 N 
ATOM     39  H3  UNL     1       5.127 -12.724 -47.949  1.00  0.00     0.197 HD
BRANCH  38  40
HETATM   40  N2  UNL     1       4.144 -11.725 -46.609  1.00  0.00    -0.248 NA
BRANCH  40  41
HETATM   41  N1  UNL     1       3.941 -10.561 -46.204  1.00  0.00    -0.261 N 
ATOM     42  H12 UNL     1       4.934 -10.444 -46.003  1.00  0.00     0.193 HD
ATOM     43  H11 UNL     1       3.569  -9.653 -45.923  1.00  0.00     0.193 HD
ENDBRANCH  40  41
ENDBRANCH  38  40
ENDBRANCH  37  38
ENDBRANCH  34  37
BRANCH  35  44
HETATM   44  O4  UNL     1       6.360 -13.873 -45.344  1.00  0.00    -0.390 OA
ATOM     45  H4  UNL     1       6.289 -12.925 -45.334  1.00  0.00     0.210 HD
ENDBRANCH  35  44
BRANCH  36  46
HETATM   46  O3  UNL     1       7.332 -16.141 -45.574  1.00  0.00    -0.388 OA
ATOM     47  H3  UNL     1       8.228 -15.959 -45.318  1.00  0.00     0.210 HD
ENDBRANCH  36  46
ENDBRANCH   1  32
TORSDOF 13
ENDMDL
