MODEL 16
REMARK VINA RESULT: -7.332908288      2.268      7.104
REMARK  17 active torsions:
REMARK  status: ('A' for Active; 'I' for Inactive)
REMARK    1  A    between atoms: O1_2  and  C2_3 
REMARK    2  A    between atoms: C5_6  and  C6_7 
REMARK    3  A    between atoms: C6_7  and  C7_8 
REMARK    4  A    between atoms: C7_8  and  C8_9 
REMARK    5  A    between atoms: C8_9  and  O2_10 
REMARK    6  A    between atoms: C8_9  and  C25_32 
REMARK    7  A    between atoms: O2_10  and  C9_11 
REMARK    8  A    between atoms: C9_11  and  C10_13 
REMARK       I    between atoms: N1_18  and  C15_19 
REMARK    9  A    between atoms: C15_19  and  C16_21 
REMARK   10  A    between atoms: C16_21  and  C17_22 
REMARK   11  A    between atoms: C16_21  and  C23_28 
REMARK   12  A    between atoms: C23_28  and  O5_30 
REMARK   13  A    between atoms: C29_36  and  O6_37 
REMARK   14  A    between atoms: O6_37  and  C30_38 
REMARK   15  A    between atoms: C30_38  and  C31_39 
REMARK   16  A    between atoms: C31_39  and  N2_40 
REMARK   17  A    between atoms: C38_48  and  O8_49 
ROOT
HETATM    1  C8  UNL     1      -8.681   3.461 -28.358  1.00  0.00     0.165 C 
ENDROOT
BRANCH   1   2
HETATM    2  C7  UNL     1      -9.780   4.079 -29.182  1.00  0.00     0.042 C 
BRANCH   2   3
HETATM    3  C6  UNL     1      -9.590   5.559 -29.424  1.00  0.00     0.041 C 
BRANCH   3   4
HETATM    4  C5  UNL     1     -10.493   6.347 -28.532  1.00  0.00    -0.055 A 
HETATM    5  C4  UNL     1     -10.006   7.465 -27.846  1.00  0.00     0.010 A 
HETATM    6  C3  UNL     1     -10.838   8.192 -27.014  1.00  0.00     0.040 A 
HETATM    7  C2  UNL     1     -12.158   7.859 -26.822  1.00  0.00     0.101 A 
HETATM    8  C38 UNL     1     -12.654   6.757 -27.492  1.00  0.00     0.102 A 
HETATM    9  C37 UNL     1     -11.814   6.033 -28.324  1.00  0.00     0.046 A 
BRANCH   7  10
HETATM   10  O1  UNL     1     -12.994   8.596 -25.980  1.00  0.00    -0.353 OA
HETATM   11  C1  UNL     1     -12.405   9.287 -24.869  1.00  0.00     0.210 C 
ENDBRANCH   7  10
BRANCH   8  12
HETATM   12  O8  UNL     1     -13.996   6.427 -27.290  1.00  0.00    -0.353 OA
HETATM   13  C39 UNL     1     -14.996   6.789 -28.226  1.00  0.00     0.210 C 
ENDBRANCH   8  12
ENDBRANCH   3   4
ENDBRANCH   2   3
ENDBRANCH   1   2
BRANCH   1  14
HETATM   14  O2  UNL     1      -9.187   2.863 -27.178  1.00  0.00    -0.310 OA
BRANCH  14  15
HETATM   15  C9  UNL     1      -8.400   2.742 -26.070  1.00  0.00     0.282 C 
HETATM   16  O3  UNL     1      -7.585   3.665 -25.809  1.00  0.00    -0.263 OA
BRANCH  15  17
HETATM   17  C10 UNL     1      -8.451   1.579 -25.140  1.00  0.00     0.186 C 
HETATM   18  C11 UNL     1      -7.450   1.807 -24.048  1.00  0.00     0.035 C 
HETATM   19  C12 UNL     1      -6.358   0.797 -23.947  1.00  0.00     0.004 C 
HETATM   20  C13 UNL     1      -5.782   0.307 -25.223  1.00  0.00     0.020 C 
HETATM   21  C14 UNL     1      -6.775   0.260 -26.362  1.00  0.00     0.127 C 
HETATM   22  N1  UNL     1      -8.110   0.338 -25.808  1.00  0.00    -0.338 N 
HETATM   23  C15 UNL     1      -9.086  -0.678 -25.861  1.00  0.00     0.227 C 
HETATM   24  O4  UNL     1     -10.229  -0.467 -25.350  1.00  0.00    -0.273 OA
BRANCH  23  25
HETATM   25  C16 UNL     1      -8.896  -2.024 -26.481  1.00  0.00     0.110 C 
BRANCH  25  26
HETATM   26  C17 UNL     1      -9.474  -3.112 -25.654  1.00  0.00     0.001 C 
HETATM   27  C18 UNL     1     -10.967  -2.852 -25.451  1.00  0.00     0.005 C 
HETATM   28  C19 UNL     1     -11.510  -4.239 -25.051  1.00  0.00     0.000 C 
HETATM   29  C20 UNL     1     -10.964  -4.522 -23.692  1.00  0.00     0.000 C 
HETATM   30  C21 UNL     1      -9.815  -3.699 -23.245  1.00  0.00     0.000 C 
HETATM   31  C22 UNL     1      -8.814  -3.329 -24.313  1.00  0.00     0.005 C 
ENDBRANCH  25  26
BRANCH  25  32
HETATM   32  C23 UNL     1      -9.385  -1.999 -27.925  1.00  0.00     0.127 C 
HETATM   33  C24 UNL     1      -9.355  -3.398 -28.513  1.00  0.00     0.040 C 
BRANCH  32  34
HETATM   34  O5  UNL     1     -10.685  -1.512 -27.990  1.00  0.00    -0.395 OA
ATOM     35  H5  UNL     1     -11.307  -2.229 -28.029  1.00  0.00     0.210 HD
ENDBRANCH  32  34
ENDBRANCH  25  32
ENDBRANCH  23  25
ENDBRANCH  15  17
ENDBRANCH  14  15
ENDBRANCH   1  14
BRANCH   1  36
HETATM   36  C25 UNL     1      -7.925   2.401 -29.056  1.00  0.00    -0.026 A 
HETATM   37  C26 UNL     1      -8.543   1.312 -29.566  1.00  0.00     0.010 A 
HETATM   38  C27 UNL     1      -7.860   0.308 -30.252  1.00  0.00     0.003 A 
HETATM   39  C28 UNL     1      -6.506   0.445 -30.407  1.00  0.00     0.037 A 
HETATM   40  C29 UNL     1      -5.831   1.532 -29.906  1.00  0.00     0.069 A 
HETATM   41  C36 UNL     1      -6.542   2.497 -29.238  1.00  0.00     0.046 A 
BRANCH  40  42
HETATM   42  O6  UNL     1      -4.442   1.700 -30.048  1.00  0.00    -0.349 OA
BRANCH  42  43
HETATM   43  C30 UNL     1      -4.020   2.121 -31.355  1.00  0.00     0.206 C 
BRANCH  43  44
HETATM   44  C31 UNL     1      -2.723   2.852 -31.269  1.00  0.00     0.299 C 
BRANCH  44  45
HETATM   45  N2  UNL     1      -2.883   3.942 -30.339  1.00  0.00     0.094 N 
HETATM   46  C32 UNL     1      -1.596   4.320 -29.831  1.00  0.00     0.298 C 
HETATM   47  C33 UNL     1      -1.166   5.600 -30.483  1.00  0.00     0.198 C 
HETATM   48  O7  UNL     1      -1.463   5.646 -31.846  1.00  0.00    -0.388 OA
HETATM   49  C34 UNL     1      -2.815   5.643 -32.085  1.00  0.00     0.198 C 
HETATM   50  C35 UNL     1      -3.556   5.071 -30.898  1.00  0.00     0.298 C 
ENDBRANCH  44  45
ENDBRANCH  43  44
ENDBRANCH  42  43
ENDBRANCH  40  42
ENDBRANCH   1  36
TORSDOF 17
ENDMDL
