MODEL 3
REMARK VINA RESULT: -7.660951264      1.924      5.689
REMARK  17 active torsions:
REMARK  status: ('A' for Active; 'I' for Inactive)
REMARK    1  A    between atoms: O1_2  and  C2_3 
REMARK    2  A    between atoms: C5_6  and  C6_7 
REMARK    3  A    between atoms: C6_7  and  C7_8 
REMARK    4  A    between atoms: C7_8  and  C8_9 
REMARK    5  A    between atoms: C8_9  and  O2_10 
REMARK    6  A    between atoms: C8_9  and  C25_32 
REMARK    7  A    between atoms: O2_10  and  C9_11 
REMARK    8  A    between atoms: C9_11  and  C10_13 
REMARK       I    between atoms: N1_18  and  C15_19 
REMARK    9  A    between atoms: C15_19  and  C16_21 
REMARK   10  A    between atoms: C16_21  and  C17_22 
REMARK   11  A    between atoms: C16_21  and  C23_28 
REMARK   12  A    between atoms: C23_28  and  O5_30 
REMARK   13  A    between atoms: C29_36  and  O6_37 
REMARK   14  A    between atoms: O6_37  and  C30_38 
REMARK   15  A    between atoms: C30_38  and  C31_39 
REMARK   16  A    between atoms: C31_39  and  N2_40 
REMARK   17  A    between atoms: C38_48  and  O8_49 
ROOT
HETATM    1  C8  UNL     1      -8.484   3.503 -28.969  1.00  0.00     0.165 C 
ENDROOT
BRANCH   1   2
HETATM    2  C7  UNL     1      -9.659   4.441 -28.893  1.00  0.00     0.042 C 
BRANCH   2   3
HETATM    3  C6  UNL     1      -9.357   5.725 -28.155  1.00  0.00     0.041 C 
BRANCH   3   4
HETATM    4  C5  UNL     1     -10.628   6.420 -27.789  1.00  0.00    -0.055 A 
HETATM    5  C4  UNL     1     -11.858   5.774 -27.958  1.00  0.00     0.010 A 
HETATM    6  C3  UNL     1     -13.037   6.416 -27.627  1.00  0.00     0.040 A 
HETATM    7  C2  UNL     1     -13.059   7.696 -27.125  1.00  0.00     0.101 A 
HETATM    8  C38 UNL     1     -11.853   8.347 -26.951  1.00  0.00     0.102 A 
HETATM    9  C37 UNL     1     -10.675   7.697 -27.286  1.00  0.00     0.046 A 
BRANCH   7  10
HETATM   10  O1  UNL     1     -14.253   8.341 -26.792  1.00  0.00    -0.353 OA
HETATM   11  C1  UNL     1     -15.488   7.762 -27.235  1.00  0.00     0.210 C 
ENDBRANCH   7  10
BRANCH   8  12
HETATM   12  O8  UNL     1     -11.887   9.647 -26.441  1.00  0.00    -0.353 OA
HETATM   13  C39 UNL     1     -11.212   9.989 -25.244  1.00  0.00     0.210 C 
ENDBRANCH   8  12
ENDBRANCH   3   4
ENDBRANCH   2   3
ENDBRANCH   1   2
BRANCH   1  14
HETATM   14  O2  UNL     1      -8.545   2.507 -27.964  1.00  0.00    -0.310 OA
BRANCH  14  15
HETATM   15  C9  UNL     1      -7.730   2.572 -26.872  1.00  0.00     0.282 C 
HETATM   16  O3  UNL     1      -6.690   3.276 -26.940  1.00  0.00    -0.263 OA
BRANCH  15  17
HETATM   17  C10 UNL     1      -8.003   1.861 -25.591  1.00  0.00     0.186 C 
HETATM   18  C11 UNL     1      -6.998   2.319 -24.578  1.00  0.00     0.035 C 
HETATM   19  C12 UNL     1      -6.103   1.260 -24.027  1.00  0.00     0.004 C 
HETATM   20  C13 UNL     1      -5.599   0.248 -24.987  1.00  0.00     0.020 C 
HETATM   21  C14 UNL     1      -6.564  -0.063 -26.109  1.00  0.00     0.127 C 
HETATM   22  N1  UNL     1      -7.874   0.424 -25.733  1.00  0.00    -0.338 N 
HETATM   23  C15 UNL     1      -9.013  -0.372 -25.494  1.00  0.00     0.227 C 
HETATM   24  O4  UNL     1     -10.110   0.190 -25.190  1.00  0.00    -0.273 OA
BRANCH  23  25
HETATM   25  C16 UNL     1      -9.051  -1.864 -25.566  1.00  0.00     0.110 C 
BRANCH  25  26
HETATM   26  C17 UNL     1     -10.194  -2.435 -24.811  1.00  0.00     0.001 C 
HETATM   27  C18 UNL     1      -9.664  -3.362 -23.718  1.00  0.00     0.005 C 
HETATM   28  C19 UNL     1     -10.853  -3.462 -22.740  1.00  0.00     0.000 C 
HETATM   29  C20 UNL     1     -11.909  -4.241 -23.449  1.00  0.00     0.000 C 
HETATM   30  C21 UNL     1     -11.772  -4.376 -24.920  1.00  0.00     0.000 C 
HETATM   31  C22 UNL     1     -11.219  -3.170 -25.642  1.00  0.00     0.005 C 
ENDBRANCH  25  26
BRANCH  25  32
HETATM   32  C23 UNL     1      -8.967  -2.312 -27.021  1.00  0.00     0.127 C 
HETATM   33  C24 UNL     1      -9.384  -1.180 -27.942  1.00  0.00     0.040 C 
BRANCH  32  34
HETATM   34  O5  UNL     1      -7.670  -2.694 -27.338  1.00  0.00    -0.395 OA
ATOM     35  H5  UNL     1      -7.137  -1.933 -27.534  1.00  0.00     0.210 HD
ENDBRANCH  32  34
ENDBRANCH  25  32
ENDBRANCH  23  25
ENDBRANCH  15  17
ENDBRANCH  14  15
ENDBRANCH   1  14
BRANCH   1  36
HETATM   36  C25 UNL     1      -8.369   2.778 -30.251  1.00  0.00    -0.026 A 
HETATM   37  C26 UNL     1      -7.853   3.369 -31.352  1.00  0.00     0.010 A 
HETATM   38  C27 UNL     1      -7.709   2.702 -32.569  1.00  0.00     0.003 A 
HETATM   39  C28 UNL     1      -8.111   1.395 -32.635  1.00  0.00     0.037 A 
HETATM   40  C29 UNL     1      -8.644   0.750 -31.545  1.00  0.00     0.069 A 
HETATM   41  C36 UNL     1      -8.768   1.443 -30.367  1.00  0.00     0.046 A 
BRANCH  40  42
HETATM   42  O6  UNL     1      -9.067  -0.590 -31.582  1.00  0.00    -0.349 OA
BRANCH  42  43
HETATM   43  C30 UNL     1      -8.059  -1.526 -31.998  1.00  0.00     0.206 C 
BRANCH  43  44
HETATM   44  C31 UNL     1      -7.309  -2.036 -30.815  1.00  0.00     0.299 C 
BRANCH  44  45
HETATM   45  N2  UNL     1      -5.919  -1.697 -30.984  1.00  0.00     0.094 N 
HETATM   46  C32 UNL     1      -5.522  -0.797 -29.940  1.00  0.00     0.298 C 
HETATM   47  C33 UNL     1      -4.699  -1.542 -28.934  1.00  0.00     0.198 C 
HETATM   48  O7  UNL     1      -5.195  -2.818 -28.658  1.00  0.00    -0.388 OA
HETATM   49  C34 UNL     1      -5.133  -3.648 -29.750  1.00  0.00     0.198 C 
HETATM   50  C35 UNL     1      -5.056  -2.836 -31.023  1.00  0.00     0.298 C 
ENDBRANCH  44  45
ENDBRANCH  43  44
ENDBRANCH  42  43
ENDBRANCH  40  42
ENDBRANCH   1  36
TORSDOF 17
ENDMDL
