MODEL 1
REMARK VINA RESULT: -7.739517890      0.000      0.000
REMARK  17 active torsions:
REMARK  status: ('A' for Active; 'I' for Inactive)
REMARK    1  A    between atoms: O1_2  and  C2_3 
REMARK    2  A    between atoms: C5_6  and  C6_7 
REMARK    3  A    between atoms: C6_7  and  C7_8 
REMARK    4  A    between atoms: C7_8  and  C8_9 
REMARK    5  A    between atoms: C8_9  and  O2_10 
REMARK    6  A    between atoms: C8_9  and  C25_32 
REMARK    7  A    between atoms: O2_10  and  C9_11 
REMARK    8  A    between atoms: C9_11  and  C10_13 
REMARK       I    between atoms: N1_18  and  C15_19 
REMARK    9  A    between atoms: C15_19  and  C16_21 
REMARK   10  A    between atoms: C16_21  and  C17_22 
REMARK   11  A    between atoms: C16_21  and  C23_28 
REMARK   12  A    between atoms: C23_28  and  O5_30 
REMARK   13  A    between atoms: C29_36  and  O6_37 
REMARK   14  A    between atoms: O6_37  and  C30_38 
REMARK   15  A    between atoms: C30_38  and  C31_39 
REMARK   16  A    between atoms: C31_39  and  N2_40 
REMARK   17  A    between atoms: C38_48  and  O8_49 
ROOT
HETATM    1  C8  UNL     1      -8.244   3.392 -27.559  1.00  0.00     0.165 C 
ENDROOT
BRANCH   1   2
HETATM    2  C7  UNL     1      -9.378   4.363 -27.357  1.00  0.00     0.042 C 
BRANCH   2   3
HETATM    3  C6  UNL     1     -10.031   4.802 -28.647  1.00  0.00     0.041 C 
BRANCH   3   4
HETATM    4  C5  UNL     1     -11.182   5.709 -28.358  1.00  0.00    -0.055 A 
HETATM    5  C4  UNL     1     -12.289   5.739 -29.215  1.00  0.00     0.010 A 
HETATM    6  C3  UNL     1     -13.353   6.582 -28.953  1.00  0.00     0.040 A 
HETATM    7  C2  UNL     1     -13.377   7.418 -27.861  1.00  0.00     0.101 A 
HETATM    8  C38 UNL     1     -12.292   7.399 -27.005  1.00  0.00     0.102 A 
HETATM    9  C37 UNL     1     -11.229   6.552 -27.274  1.00  0.00     0.046 A 
BRANCH   7  10
HETATM   10  O1  UNL     1     -14.454   8.268 -27.602  1.00  0.00    -0.353 OA
HETATM   11  C1  UNL     1     -15.727   7.681 -27.293  1.00  0.00     0.210 C 
ENDBRANCH   7  10
BRANCH   8  12
HETATM   12  O8  UNL     1     -12.327   8.252 -25.899  1.00  0.00    -0.353 OA
HETATM   13  C39 UNL     1     -11.387   9.300 -25.744  1.00  0.00     0.210 C 
ENDBRANCH   8  12
ENDBRANCH   3   4
ENDBRANCH   2   3
ENDBRANCH   1   2
BRANCH   1  14
HETATM   14  O2  UNL     1      -7.060   4.051 -27.971  1.00  0.00    -0.310 OA
BRANCH  14  15
HETATM   15  C9  UNL     1      -6.400   3.652 -29.096  1.00  0.00     0.282 C 
HETATM   16  O3  UNL     1      -6.620   4.267 -30.172  1.00  0.00    -0.263 OA
BRANCH  15  17
HETATM   17  C10 UNL     1      -5.422   2.528 -29.128  1.00  0.00     0.186 C 
HETATM   18  C11 UNL     1      -4.341   2.875 -30.108  1.00  0.00     0.035 C 
HETATM   19  C12 UNL     1      -4.198   1.952 -31.271  1.00  0.00     0.004 C 
HETATM   20  C13 UNL     1      -5.454   1.453 -31.883  1.00  0.00     0.020 C 
HETATM   21  C14 UNL     1      -6.588   1.285 -30.899  1.00  0.00     0.127 C 
HETATM   22  N1  UNL     1      -6.037   1.289 -29.561  1.00  0.00    -0.338 N 
HETATM   23  C15 UNL     1      -6.046   0.203 -28.661  1.00  0.00     0.227 C 
HETATM   24  O4  UNL     1      -5.543   0.351 -27.505  1.00  0.00    -0.273 OA
BRANCH  23  25
HETATM   25  C16 UNL     1      -6.609  -1.151 -28.951  1.00  0.00     0.110 C 
BRANCH  25  26
HETATM   26  C17 UNL     1      -5.549  -2.164 -29.182  1.00  0.00     0.001 C 
HETATM   27  C18 UNL     1      -4.296  -1.470 -29.717  1.00  0.00     0.005 C 
HETATM   28  C19 UNL     1      -3.181  -2.495 -29.428  1.00  0.00     0.000 C 
HETATM   29  C20 UNL     1      -3.425  -3.645 -30.347  1.00  0.00     0.000 C 
HETATM   30  C21 UNL     1      -4.769  -3.733 -30.970  1.00  0.00     0.000 C 
HETATM   31  C22 UNL     1      -5.927  -3.301 -30.102  1.00  0.00     0.005 C 
ENDBRANCH  25  26
BRANCH  25  32
HETATM   32  C23 UNL     1      -7.620  -1.529 -27.875  1.00  0.00     0.127 C 
HETATM   33  C24 UNL     1      -8.697  -2.425 -28.459  1.00  0.00     0.040 C 
BRANCH  32  34
HETATM   34  O5  UNL     1      -6.994  -2.201 -26.833  1.00  0.00    -0.395 OA
ATOM     35  H5  UNL     1      -7.143  -3.136 -26.903  1.00  0.00     0.210 HD
ENDBRANCH  32  34
ENDBRANCH  25  32
ENDBRANCH  23  25
ENDBRANCH  15  17
ENDBRANCH  14  15
ENDBRANCH   1  14
BRANCH   1  36
HETATM   36  C25 UNL     1      -7.881   2.624 -26.351  1.00  0.00    -0.026 A 
HETATM   37  C26 UNL     1      -7.000   3.107 -25.447  1.00  0.00     0.010 A 
HETATM   38  C27 UNL     1      -6.657   2.417 -24.283  1.00  0.00     0.003 A 
HETATM   39  C28 UNL     1      -7.246   1.200 -24.064  1.00  0.00     0.037 A 
HETATM   40  C29 UNL     1      -8.146   0.665 -24.954  1.00  0.00     0.069 A 
HETATM   41  C36 UNL     1      -8.456   1.378 -26.084  1.00  0.00     0.046 A 
BRANCH  40  42
HETATM   42  O6  UNL     1      -8.765  -0.582 -24.756  1.00  0.00    -0.349 OA
BRANCH  42  43
HETATM   43  C30 UNL     1     -10.199  -0.558 -24.839  1.00  0.00     0.206 C 
BRANCH  43  44
HETATM   44  C31 UNL     1     -10.705  -1.839 -25.411  1.00  0.00     0.299 C 
BRANCH  44  45
HETATM   45  N2  UNL     1     -10.080  -2.926 -24.700  1.00  0.00     0.094 N 
HETATM   46  C32 UNL     1     -10.768  -3.134 -23.459  1.00  0.00     0.298 C 
HETATM   47  C33 UNL     1     -11.622  -4.361 -23.570  1.00  0.00     0.198 C 
HETATM   48  O7  UNL     1     -12.273  -4.465 -24.801  1.00  0.00    -0.388 OA
HETATM   49  C34 UNL     1     -11.395  -4.633 -25.842  1.00  0.00     0.198 C 
HETATM   50  C35 UNL     1     -10.020  -4.138 -25.454  1.00  0.00     0.298 C 
ENDBRANCH  44  45
ENDBRANCH  43  44
ENDBRANCH  42  43
ENDBRANCH  40  42
ENDBRANCH   1  36
TORSDOF 17
ENDMDL
