MODEL 2
REMARK VINA RESULT: -7.713424624      2.730      6.786
REMARK  17 active torsions:
REMARK  status: ('A' for Active; 'I' for Inactive)
REMARK    1  A    between atoms: O1_2  and  C2_3 
REMARK    2  A    between atoms: C5_6  and  C6_7 
REMARK    3  A    between atoms: C6_7  and  C7_8 
REMARK    4  A    between atoms: C7_8  and  C8_9 
REMARK    5  A    between atoms: C8_9  and  O2_10 
REMARK    6  A    between atoms: C8_9  and  C25_32 
REMARK    7  A    between atoms: O2_10  and  C9_11 
REMARK    8  A    between atoms: C9_11  and  C10_13 
REMARK       I    between atoms: N1_18  and  C15_19 
REMARK    9  A    between atoms: C15_19  and  C16_21 
REMARK   10  A    between atoms: C16_21  and  C17_22 
REMARK   11  A    between atoms: C16_21  and  C23_28 
REMARK   12  A    between atoms: C23_28  and  O5_30 
REMARK   13  A    between atoms: C29_36  and  O6_37 
REMARK   14  A    between atoms: O6_37  and  C30_38 
REMARK   15  A    between atoms: C30_38  and  C31_39 
REMARK   16  A    between atoms: C31_39  and  N2_40 
REMARK   17  A    between atoms: C38_48  and  O8_49 
ROOT
HETATM    1  C8  UNL     1      -8.659   3.290 -29.079  1.00  0.00     0.165 C 
ENDROOT
BRANCH   1   2
HETATM    2  C7  UNL     1      -9.482   4.087 -28.101  1.00  0.00     0.042 C 
BRANCH   2   3
HETATM    3  C6  UNL     1      -9.226   5.575 -28.172  1.00  0.00     0.041 C 
BRANCH   3   4
HETATM    4  C5  UNL     1     -10.449   6.328 -27.762  1.00  0.00    -0.055 A 
HETATM    5  C4  UNL     1     -11.700   5.701 -27.776  1.00  0.00     0.010 A 
HETATM    6  C3  UNL     1     -12.835   6.397 -27.403  1.00  0.00     0.040 A 
HETATM    7  C2  UNL     1     -12.793   7.714 -27.010  1.00  0.00     0.101 A 
HETATM    8  C38 UNL     1     -11.565   8.348 -26.991  1.00  0.00     0.102 A 
HETATM    9  C37 UNL     1     -10.431   7.643 -27.366  1.00  0.00     0.046 A 
BRANCH   7  10
HETATM   10  O1  UNL     1     -13.943   8.413 -26.635  1.00  0.00    -0.353 OA
HETATM   11  C1  UNL     1     -15.195   8.033 -27.224  1.00  0.00     0.210 C 
ENDBRANCH   7  10
BRANCH   8  12
HETATM   12  O8  UNL     1     -11.534   9.685 -26.590  1.00  0.00    -0.353 OA
HETATM   13  C39 UNL     1     -11.196  10.052 -25.264  1.00  0.00     0.210 C 
ENDBRANCH   8  12
ENDBRANCH   3   4
ENDBRANCH   2   3
ENDBRANCH   1   2
BRANCH   1  14
HETATM   14  O2  UNL     1      -7.934   2.260 -28.432  1.00  0.00    -0.310 OA
BRANCH  14  15
HETATM   15  C9  UNL     1      -7.280   2.503 -27.259  1.00  0.00     0.282 C 
HETATM   16  O3  UNL     1      -6.368   3.369 -27.248  1.00  0.00    -0.263 OA
BRANCH  15  17
HETATM   17  C10 UNL     1      -7.589   1.805 -25.979  1.00  0.00     0.186 C 
HETATM   18  C11 UNL     1      -6.582   2.236 -24.956  1.00  0.00     0.035 C 
HETATM   19  C12 UNL     1      -5.726   1.153 -24.391  1.00  0.00     0.004 C 
HETATM   20  C13 UNL     1      -5.241   0.122 -25.342  1.00  0.00     0.020 C 
HETATM   21  C14 UNL     1      -6.203  -0.164 -26.474  1.00  0.00     0.127 C 
HETATM   22  N1  UNL     1      -7.501   0.364 -26.115  1.00  0.00    -0.338 N 
HETATM   23  C15 UNL     1      -8.666  -0.397 -25.886  1.00  0.00     0.227 C 
HETATM   24  O4  UNL     1      -9.749   0.200 -25.597  1.00  0.00    -0.273 OA
BRANCH  23  25
HETATM   25  C16 UNL     1      -8.749  -1.887 -25.953  1.00  0.00     0.110 C 
BRANCH  25  26
HETATM   26  C17 UNL     1      -9.823  -2.431 -25.086  1.00  0.00     0.001 C 
HETATM   27  C18 UNL     1      -9.218  -3.434 -24.103  1.00  0.00     0.005 C 
HETATM   28  C19 UNL     1     -10.283  -3.516 -22.990  1.00  0.00     0.000 C 
HETATM   29  C20 UNL     1     -11.460  -4.206 -23.593  1.00  0.00     0.000 C 
HETATM   30  C21 UNL     1     -11.510  -4.280 -25.073  1.00  0.00     0.000 C 
HETATM   31  C22 UNL     1     -10.982  -3.074 -25.812  1.00  0.00     0.005 C 
ENDBRANCH  25  26
BRANCH  25  32
HETATM   32  C23 UNL     1      -8.825  -2.333 -27.409  1.00  0.00     0.127 C 
HETATM   33  C24 UNL     1      -9.140  -1.148 -28.305  1.00  0.00     0.040 C 
BRANCH  32  34
HETATM   34  O5  UNL     1      -7.618  -2.891 -27.811  1.00  0.00    -0.395 OA
ATOM     35  H5  UNL     1      -7.769  -3.624 -28.396  1.00  0.00     0.210 HD
ENDBRANCH  32  34
ENDBRANCH  25  32
ENDBRANCH  23  25
ENDBRANCH  15  17
ENDBRANCH  14  15
ENDBRANCH   1  14
BRANCH   1  36
HETATM   36  C25 UNL     1      -9.449   2.626 -30.135  1.00  0.00    -0.026 A 
HETATM   37  C26 UNL     1      -8.941   1.604 -30.859  1.00  0.00     0.010 A 
HETATM   38  C27 UNL     1      -9.671   0.941 -31.846  1.00  0.00     0.003 A 
HETATM   39  C28 UNL     1     -10.956   1.355 -32.079  1.00  0.00     0.037 A 
HETATM   40  C29 UNL     1     -11.517   2.390 -31.372  1.00  0.00     0.069 A 
HETATM   41  C36 UNL     1     -10.764   3.015 -30.410  1.00  0.00     0.046 A 
BRANCH  40  42
HETATM   42  O6  UNL     1     -12.832   2.839 -31.590  1.00  0.00    -0.349 OA
BRANCH  42  43
HETATM   43  C30 UNL     1     -13.072   4.203 -31.207  1.00  0.00     0.206 C 
BRANCH  43  44
HETATM   44  C31 UNL     1     -14.535   4.488 -31.200  1.00  0.00     0.299 C 
BRANCH  44  45
HETATM   45  N2  UNL     1     -14.771   5.597 -30.310  1.00  0.00     0.094 N 
HETATM   46  C32 UNL     1     -14.170   6.778 -30.859  1.00  0.00     0.298 C 
HETATM   47  C33 UNL     1     -15.243   7.656 -31.429  1.00  0.00     0.198 C 
HETATM   48  O7  UNL     1     -16.228   6.943 -32.115  1.00  0.00    -0.388 OA
HETATM   49  C34 UNL     1     -16.945   6.117 -31.286  1.00  0.00     0.198 C 
HETATM   50  C35 UNL     1     -16.155   5.818 -30.032  1.00  0.00     0.298 C 
ENDBRANCH  44  45
ENDBRANCH  43  44
ENDBRANCH  42  43
ENDBRANCH  40  42
ENDBRANCH   1  36
TORSDOF 17
ENDMDL
