MODEL 8
REMARK VINA RESULT: -6.311540851      4.803      7.275
REMARK  12 active torsions:
REMARK  status: ('A' for Active; 'I' for Inactive)
REMARK    1  A    between atoms: C3_5  and  C4_6 
REMARK    2  A    between atoms: C7_9  and  O1_10 
REMARK    3  A    between atoms: O1_10  and  C8_11 
REMARK    4  A    between atoms: C8_11  and  C9_12 
REMARK    5  A    between atoms: C9_12  and  C10_13 
REMARK    6  A    between atoms: C10_13  and  C11_14 
REMARK    7  A    between atoms: C11_14  and  C12_15 
REMARK    8  A    between atoms: C12_15  and  C13_16 
REMARK    9  A    between atoms: C13_16  and  C14_17 
REMARK   10  A    between atoms: C14_17  and  O2_18 
REMARK   11  A    between atoms: O2_18  and  C15_19 
REMARK   12  A    between atoms: C18_22  and  C19_23 
ROOT
HETATM    1  C11 UNL     1      61.698  -5.877  43.854  1.00  0.00     0.000 C 
ENDROOT
BRANCH   1   2
HETATM    2  C10 UNL     1      60.304  -6.407  43.682  1.00  0.00     0.002 C 
BRANCH   2   3
HETATM    3  C9  UNL     1      60.036  -7.626  44.528  1.00  0.00     0.027 C 
BRANCH   3   4
HETATM    4  C8  UNL     1      58.584  -7.980  44.442  1.00  0.00     0.175 C 
BRANCH   4   5
HETATM    5  O1  UNL     1      58.105  -8.891  45.349  1.00  0.00    -0.351 OA
BRANCH   5   6
HETATM    6  C7  UNL     1      58.450 -10.169  45.659  1.00  0.00     0.068 A 
HETATM    7  C6  UNL     1      58.566 -10.479  47.025  1.00  0.00     0.037 A 
HETATM    8  C5  UNL     1      58.906 -11.736  47.439  1.00  0.00     0.018 A 
HETATM    9  C4  UNL     1      59.146 -12.736  46.517  1.00  0.00     0.008 A 
HETATM   10  C25 UNL     1      59.031 -12.427  45.186  1.00  0.00     0.018 A 
HETATM   11  C24 UNL     1      58.691 -11.174  44.764  1.00  0.00     0.037 A 
BRANCH   9  12
HETATM   12  C3  UNL     1      59.509 -14.073  46.962  1.00  0.00     0.115 A 
HETATM   13  N1  UNL     1      58.822 -14.906  47.747  1.00  0.00    -0.350 N 
HETATM   14  C2  UNL     1      59.487 -16.060  47.936  1.00  0.00     0.106 A 
ATOM     15  H1  UNL     1      57.910 -14.695  48.152  1.00  0.00     0.166 HD
HETATM   16  C1  UNL     1      60.674 -15.941  47.219  1.00  0.00     0.106 A 
HETATM   17  N4  UNL     1      60.643 -14.724  46.649  1.00  0.00    -0.350 N 
ATOM     18  H4  UNL     1      61.382 -14.344  46.057  1.00  0.00     0.166 HD
ENDBRANCH   9  12
ENDBRANCH   5   6
ENDBRANCH   4   5
ENDBRANCH   3   4
ENDBRANCH   2   3
ENDBRANCH   1   2
BRANCH   1  19
HETATM   19  C12 UNL     1      62.448  -6.481  44.988  1.00  0.00     0.002 C 
BRANCH  19  20
HETATM   20  C13 UNL     1      63.049  -5.410  45.863  1.00  0.00     0.027 C 
BRANCH  20  21
HETATM   21  C14 UNL     1      62.176  -4.204  45.988  1.00  0.00     0.175 C 
BRANCH  21  22
HETATM   22  O2  UNL     1      61.284  -4.329  47.020  1.00  0.00    -0.351 OA
BRANCH  22  23
HETATM   23  C15 UNL     1      60.037  -4.869  47.126  1.00  0.00     0.068 A 
HETATM   24  C16 UNL     1      58.886  -4.359  46.574  1.00  0.00     0.037 A 
HETATM   25  C17 UNL     1      57.653  -5.002  46.754  1.00  0.00     0.018 A 
HETATM   26  C18 UNL     1      57.537  -6.162  47.482  1.00  0.00     0.008 A 
HETATM   27  C22 UNL     1      58.682  -6.684  48.039  1.00  0.00     0.018 A 
HETATM   28  C23 UNL     1      59.888  -6.057  47.865  1.00  0.00     0.037 A 
BRANCH  26  29
HETATM   29  C19 UNL     1      56.254  -6.822  47.664  1.00  0.00     0.115 A 
HETATM   30  N2  UNL     1      55.970  -8.121  47.464  1.00  0.00    -0.350 N 
HETATM   31  C20 UNL     1      54.677  -8.363  47.735  1.00  0.00     0.106 A 
ATOM     32  H2  UNL     1      56.641  -8.823  47.151  1.00  0.00     0.166 HD
HETATM   33  C21 UNL     1      54.112  -7.171  48.124  1.00  0.00     0.106 A 
HETATM   34  N3  UNL     1      55.103  -6.260  48.068  1.00  0.00    -0.350 N 
ATOM     35  H3  UNL     1      54.994  -5.273  48.301  1.00  0.00     0.166 HD
ENDBRANCH  26  29
ENDBRANCH  22  23
ENDBRANCH  21  22
ENDBRANCH  20  21
ENDBRANCH  19  20
ENDBRANCH   1  19
TORSDOF 12
ENDMDL
