MODEL 3
REMARK VINA RESULT: -6.417177073      3.849      5.261
REMARK  12 active torsions:
REMARK  status: ('A' for Active; 'I' for Inactive)
REMARK    1  A    between atoms: C3_5  and  C4_6 
REMARK    2  A    between atoms: C7_9  and  O1_10 
REMARK    3  A    between atoms: O1_10  and  C8_11 
REMARK    4  A    between atoms: C8_11  and  C9_12 
REMARK    5  A    between atoms: C9_12  and  C10_13 
REMARK    6  A    between atoms: C10_13  and  C11_14 
REMARK    7  A    between atoms: C11_14  and  C12_15 
REMARK    8  A    between atoms: C12_15  and  C13_16 
REMARK    9  A    between atoms: C13_16  and  C14_17 
REMARK   10  A    between atoms: C14_17  and  O2_18 
REMARK   11  A    between atoms: O2_18  and  C15_19 
REMARK   12  A    between atoms: C18_22  and  C19_23 
ROOT
HETATM    1  C11 UNL     1      59.661  -4.934  48.199  1.00  0.00     0.000 C 
ENDROOT
BRANCH   1   2
HETATM    2  C10 UNL     1      59.526  -6.148  47.325  1.00  0.00     0.002 C 
BRANCH   2   3
HETATM    3  C9  UNL     1      58.901  -5.838  45.989  1.00  0.00     0.027 C 
BRANCH   3   4
HETATM    4  C8  UNL     1      57.957  -6.938  45.615  1.00  0.00     0.175 C 
BRANCH   4   5
HETATM    5  O1  UNL     1      58.494  -8.054  45.026  1.00  0.00    -0.351 OA
BRANCH   5   6
HETATM    6  C7  UNL     1      58.634  -9.345  45.428  1.00  0.00     0.068 A 
HETATM    7  C6  UNL     1      58.990 -10.279  44.441  1.00  0.00     0.037 A 
HETATM    8  C5  UNL     1      59.157 -11.602  44.743  1.00  0.00     0.018 A 
HETATM    9  C4  UNL     1      58.976 -12.052  46.037  1.00  0.00     0.008 A 
HETATM   10  C25 UNL     1      58.629 -11.135  46.996  1.00  0.00     0.018 A 
HETATM   11  C24 UNL     1      58.462  -9.812  46.702  1.00  0.00     0.037 A 
BRANCH   9  12
HETATM   12  C3  UNL     1      59.153 -13.460  46.355  1.00  0.00     0.115 A 
HETATM   13  N1  UNL     1      58.622 -14.525  45.750  1.00  0.00    -0.350 N 
HETATM   14  C2  UNL     1      59.022 -15.669  46.334  1.00  0.00     0.106 A 
ATOM     15  H1  UNL     1      57.994 -14.478  44.948  1.00  0.00     0.166 HD
HETATM   16  C1  UNL     1      59.863 -15.294  47.378  1.00  0.00     0.106 A 
HETATM   17  N4  UNL     1      59.911 -13.951  47.351  1.00  0.00    -0.350 N 
ATOM     18  H4  UNL     1      60.450 -13.379  48.002  1.00  0.00     0.166 HD
ENDBRANCH   9  12
ENDBRANCH   5   6
ENDBRANCH   4   5
ENDBRANCH   3   4
ENDBRANCH   2   3
ENDBRANCH   1   2
BRANCH   1  19
HETATM   19  C12 UNL     1      61.062  -4.601  48.573  1.00  0.00     0.002 C 
BRANCH  19  20
HETATM   20  C13 UNL     1      61.543  -3.389  47.817  1.00  0.00     0.027 C 
BRANCH  20  21
HETATM   21  C14 UNL     1      63.017  -3.400  47.577  1.00  0.00     0.175 C 
BRANCH  21  22
HETATM   22  O2  UNL     1      63.317  -3.729  46.282  1.00  0.00    -0.351 OA
BRANCH  22  23
HETATM   23  C15 UNL     1      62.721  -4.525  45.350  1.00  0.00     0.068 A 
HETATM   24  C16 UNL     1      62.026  -4.093  44.245  1.00  0.00     0.037 A 
HETATM   25  C17 UNL     1      61.449  -5.008  43.353  1.00  0.00     0.018 A 
HETATM   26  C18 UNL     1      61.549  -6.366  43.537  1.00  0.00     0.008 A 
HETATM   27  C22 UNL     1      62.244  -6.812  44.639  1.00  0.00     0.018 A 
HETATM   28  C23 UNL     1      62.808  -5.919  45.513  1.00  0.00     0.037 A 
BRANCH  26  29
HETATM   29  C19 UNL     1      60.947  -7.308  42.606  1.00  0.00     0.115 A 
HETATM   30  N2  UNL     1      61.560  -8.306  41.946  1.00  0.00    -0.350 N 
HETATM   31  C20 UNL     1      60.679  -8.965  41.175  1.00  0.00     0.106 A 
ATOM     32  H2  UNL     1      62.552  -8.530  42.020  1.00  0.00     0.166 HD
HETATM   33  C21 UNL     1      59.455  -8.365  41.351  1.00  0.00     0.106 A 
HETATM   34  N3  UNL     1      59.660  -7.362  42.228  1.00  0.00    -0.350 N 
ATOM     35  H3  UNL     1      58.933  -6.728  42.561  1.00  0.00     0.166 HD
ENDBRANCH  26  29
ENDBRANCH  22  23
ENDBRANCH  21  22
ENDBRANCH  20  21
ENDBRANCH  19  20
ENDBRANCH   1  19
TORSDOF 12
ENDMDL
