MODEL 11
REMARK VINA RESULT: -6.216048717      3.896     10.099
REMARK  12 active torsions:
REMARK  status: ('A' for Active; 'I' for Inactive)
REMARK    1  A    between atoms: C3_5  and  C4_6 
REMARK    2  A    between atoms: C7_9  and  O1_10 
REMARK    3  A    between atoms: O1_10  and  C8_11 
REMARK    4  A    between atoms: C8_11  and  C9_12 
REMARK    5  A    between atoms: C9_12  and  C10_13 
REMARK    6  A    between atoms: C10_13  and  C11_14 
REMARK    7  A    between atoms: C11_14  and  C12_15 
REMARK    8  A    between atoms: C12_15  and  C13_16 
REMARK    9  A    between atoms: C13_16  and  C14_17 
REMARK   10  A    between atoms: C14_17  and  O2_18 
REMARK   11  A    between atoms: O2_18  and  C15_19 
REMARK   12  A    between atoms: C18_22  and  C19_23 
ROOT
HETATM    1  C11 UNL     1      59.330  -5.617  48.051  1.00  0.00     0.000 C 
ENDROOT
BRANCH   1   2
HETATM    2  C10 UNL     1      60.566  -4.936  48.564  1.00  0.00     0.002 C 
BRANCH   2   3
HETATM    3  C9  UNL     1      60.754  -3.556  47.986  1.00  0.00     0.027 C 
BRANCH   3   4
HETATM    4  C8  UNL     1      62.215  -3.287  47.806  1.00  0.00     0.175 C 
BRANCH   4   5
HETATM    5  O1  UNL     1      62.767  -3.610  46.592  1.00  0.00    -0.351 OA
BRANCH   5   6
HETATM    6  C7  UNL     1      62.401  -4.461  45.597  1.00  0.00     0.068 A 
HETATM    7  C6  UNL     1      62.873  -5.782  45.690  1.00  0.00     0.037 A 
HETATM    8  C5  UNL     1      62.560  -6.714  44.741  1.00  0.00     0.018 A 
HETATM    9  C4  UNL     1      61.766  -6.376  43.662  1.00  0.00     0.008 A 
HETATM   10  C25 UNL     1      61.308  -5.085  43.578  1.00  0.00     0.018 A 
HETATM   11  C24 UNL     1      61.616  -4.148  44.522  1.00  0.00     0.037 A 
BRANCH   9  12
HETATM   12  C3  UNL     1      61.435  -7.371  42.654  1.00  0.00     0.115 A 
HETATM   13  N1  UNL     1      61.762  -7.386  41.359  1.00  0.00    -0.350 N 
HETATM   14  C2  UNL     1      61.271  -8.477  40.745  1.00  0.00     0.106 A 
ATOM     15  H1  UNL     1      62.312  -6.664  40.895  1.00  0.00     0.166 HD
HETATM   16  C1  UNL     1      60.590  -9.196  41.723  1.00  0.00     0.106 A 
HETATM   17  N4  UNL     1      60.716  -8.487  42.859  1.00  0.00    -0.350 N 
ATOM     18  H4  UNL     1      60.318  -8.761  43.758  1.00  0.00     0.166 HD
ENDBRANCH   9  12
ENDBRANCH   5   6
ENDBRANCH   4   5
ENDBRANCH   3   4
ENDBRANCH   2   3
ENDBRANCH   1   2
BRANCH   1  19
HETATM   19  C12 UNL     1      59.568  -6.540  46.908  1.00  0.00     0.002 C 
BRANCH  19  20
HETATM   20  C13 UNL     1      58.530  -6.338  45.833  1.00  0.00     0.027 C 
BRANCH  20  21
HETATM   21  C14 UNL     1      57.889  -7.614  45.396  1.00  0.00     0.175 C 
BRANCH  21  22
HETATM   22  O2  UNL     1      58.808  -8.618  45.248  1.00  0.00    -0.351 OA
BRANCH  22  23
HETATM   23  C15 UNL     1      58.824  -9.938  45.586  1.00  0.00     0.068 A 
HETATM   24  C16 UNL     1      58.938 -10.994  44.713  1.00  0.00     0.037 A 
HETATM   25  C17 UNL     1      58.939 -12.317  45.179  1.00  0.00     0.018 A 
HETATM   26  C18 UNL     1      58.828 -12.619  46.515  1.00  0.00     0.008 A 
HETATM   27  C22 UNL     1      58.714 -11.571  47.399  1.00  0.00     0.018 A 
HETATM   28  C23 UNL     1      58.712 -10.277  46.947  1.00  0.00     0.037 A 
BRANCH  26  29
HETATM   29  C19 UNL     1      58.829 -13.994  46.989  1.00  0.00     0.115 A 
HETATM   30  N2  UNL     1      57.802 -14.861  46.977  1.00  0.00    -0.350 N 
HETATM   31  C20 UNL     1      58.181 -16.040  47.497  1.00  0.00     0.106 A 
ATOM     32  H2  UNL     1      56.868 -14.654  46.623  1.00  0.00     0.166 HD
HETATM   33  C21 UNL     1      59.503 -15.921  47.856  1.00  0.00     0.106 A 
HETATM   34  N3  UNL     1      59.860 -14.663  47.530  1.00  0.00    -0.350 N 
ATOM     35  H3  UNL     1      60.790 -14.271  47.676  1.00  0.00     0.166 HD
ENDBRANCH  26  29
ENDBRANCH  22  23
ENDBRANCH  21  22
ENDBRANCH  20  21
ENDBRANCH  19  20
ENDBRANCH   1  19
TORSDOF 12
ENDMDL
