MODEL 12
REMARK VINA RESULT: -6.178513022      1.103      1.810
REMARK  12 active torsions:
REMARK  status: ('A' for Active; 'I' for Inactive)
REMARK    1  A    between atoms: C3_5  and  C4_6 
REMARK    2  A    between atoms: C7_9  and  O1_10 
REMARK    3  A    between atoms: O1_10  and  C8_11 
REMARK    4  A    between atoms: C8_11  and  C9_12 
REMARK    5  A    between atoms: C9_12  and  C10_13 
REMARK    6  A    between atoms: C10_13  and  C11_14 
REMARK    7  A    between atoms: C11_14  and  C12_15 
REMARK    8  A    between atoms: C12_15  and  C13_16 
REMARK    9  A    between atoms: C13_16  and  C14_17 
REMARK   10  A    between atoms: C14_17  and  O2_18 
REMARK   11  A    between atoms: O2_18  and  C15_19 
REMARK   12  A    between atoms: C18_22  and  C19_23 
ROOT
HETATM    1  C11 UNL     1      59.716  -5.747  47.124  1.00  0.00     0.000 C 
ENDROOT
BRANCH   1   2
HETATM    2  C10 UNL     1      58.678  -6.517  47.889  1.00  0.00     0.002 C 
BRANCH   2   3
HETATM    3  C9  UNL     1      57.923  -7.495  47.024  1.00  0.00     0.027 C 
BRANCH   3   4
HETATM    4  C8  UNL     1      58.779  -7.893  45.862  1.00  0.00     0.175 C 
BRANCH   4   5
HETATM    5  O1  UNL     1      58.547  -9.125  45.304  1.00  0.00    -0.351 OA
BRANCH   5   6
HETATM    6  C7  UNL     1      58.722 -10.398  45.749  1.00  0.00     0.068 A 
HETATM    7  C6  UNL     1      58.918 -11.387  44.770  1.00  0.00     0.037 A 
HETATM    8  C5  UNL     1      59.105 -12.697  45.114  1.00  0.00     0.018 A 
HETATM    9  C4  UNL     1      59.106 -13.078  46.441  1.00  0.00     0.008 A 
HETATM   10  C25 UNL     1      58.915 -12.107  47.392  1.00  0.00     0.018 A 
HETATM   11  C24 UNL     1      58.728 -10.797  47.056  1.00  0.00     0.037 A 
BRANCH   9  12
HETATM   12  C3  UNL     1      59.305 -14.473  46.804  1.00  0.00     0.115 A 
HETATM   13  N1  UNL     1      58.880 -15.121  47.892  1.00  0.00    -0.350 N 
HETATM   14  C2  UNL     1      59.263 -16.410  47.873  1.00  0.00     0.106 A 
ATOM     15  H1  UNL     1      58.335 -14.693  48.640  1.00  0.00     0.166 HD
HETATM   16  C1  UNL     1      59.977 -16.582  46.691  1.00  0.00     0.106 A 
HETATM   17  N4  UNL     1      59.977 -15.384  46.080  1.00  0.00    -0.350 N 
ATOM     18  H4  UNL     1      60.427 -15.193  45.184  1.00  0.00     0.166 HD
ENDBRANCH   9  12
ENDBRANCH   5   6
ENDBRANCH   4   5
ENDBRANCH   3   4
ENDBRANCH   2   3
ENDBRANCH   1   2
BRANCH   1  19
HETATM   19  C12 UNL     1      60.784  -5.151  47.971  1.00  0.00     0.002 C 
BRANCH  19  20
HETATM   20  C13 UNL     1      61.917  -4.637  47.120  1.00  0.00     0.027 C 
BRANCH  20  21
HETATM   21  C14 UNL     1      62.284  -3.223  47.431  1.00  0.00     0.175 C 
BRANCH  21  22
HETATM   22  O2  UNL     1      63.605  -3.106  47.774  1.00  0.00    -0.351 OA
BRANCH  22  23
HETATM   23  C15 UNL     1      64.747  -2.889  47.063  1.00  0.00     0.068 A 
HETATM   24  C16 UNL     1      65.201  -1.671  46.616  1.00  0.00     0.037 A 
HETATM   25  C17 UNL     1      66.395  -1.569  45.887  1.00  0.00     0.018 A 
HETATM   26  C18 UNL     1      67.160  -2.670  45.588  1.00  0.00     0.008 A 
HETATM   27  C22 UNL     1      66.717  -3.896  46.030  1.00  0.00     0.018 A 
HETATM   28  C23 UNL     1      65.550  -3.998  46.742  1.00  0.00     0.037 A 
BRANCH  26  29
HETATM   29  C19 UNL     1      68.397  -2.556  44.830  1.00  0.00     0.115 A 
HETATM   30  N2  UNL     1      69.258  -3.541  44.522  1.00  0.00    -0.350 N 
HETATM   31  C20 UNL     1      70.288  -3.054  43.811  1.00  0.00     0.106 A 
ATOM     32  H2  UNL     1      69.145  -4.519  44.791  1.00  0.00     0.166 HD
HETATM   33  C21 UNL     1      70.076  -1.705  43.657  1.00  0.00     0.106 A 
HETATM   34  N3  UNL     1      68.916  -1.441  44.291  1.00  0.00    -0.350 N 
ATOM     35  H3  UNL     1      68.489  -0.517  44.352  1.00  0.00     0.166 HD
ENDBRANCH  26  29
ENDBRANCH  22  23
ENDBRANCH  21  22
ENDBRANCH  20  21
ENDBRANCH  19  20
ENDBRANCH   1  19
TORSDOF 12
ENDMDL
