MODEL 2
REMARK VINA RESULT: -9.195677521      1.147      1.914
REMARK  7 active torsions:
REMARK  status: ('A' for Active; 'I' for Inactive)
REMARK    1  A    between atoms: C6_10  and  N3_11 
REMARK    2  A    between atoms: C9_14  and  C10_15 
REMARK       I    between atoms: C10_15  and  N4_17 
REMARK    3  A    between atoms: N4_17  and  C11_19 
REMARK    4  A    between atoms: C11_19  and  C12_20 
REMARK    5  A    between atoms: C12_20  and  C13_21 
REMARK    6  A    between atoms: C13_21  and  N5_22 
REMARK    7  A    between atoms: N6_25  and  C16_26 
ROOT
HETATM    1  C10 UNL     1     -15.871   9.107  -4.669  1.00  0.00     0.221 C 
HETATM    2  O1  UNL     1     -16.890   9.194  -3.925  1.00  0.00    -0.273 OA
HETATM    3  N4  UNL     1     -14.722   8.527  -4.067  1.00  0.00    -0.361 N 
ATOM      4  H4  UNL     1     -13.872   8.434  -4.624  1.00  0.00     0.162 HD
ENDROOT
BRANCH   1   5
HETATM    5  C9  UNL     1     -15.917   9.589  -6.055  1.00  0.00     0.081 C 
HETATM    6  C8  UNL     1     -15.672  11.082  -6.129  1.00  0.00     0.034 C 
HETATM    7  C7  UNL     1     -15.482  11.562  -7.526  1.00  0.00     0.125 C 
HETATM    8  N3  UNL     1     -14.642  10.739  -8.350  1.00  0.00    -0.366 N 
HETATM    9  C25 UNL     1     -14.703   9.316  -8.257  1.00  0.00     0.125 C 
HETATM   10  C24 UNL     1     -14.956   8.810  -6.881  1.00  0.00     0.034 C 
BRANCH   8  11
HETATM   11  C6  UNL     1     -13.745  11.365  -9.262  1.00  0.00     0.118 A 
HETATM   12  C5  UNL     1     -13.290  12.663  -9.104  1.00  0.00     0.053 A 
HETATM   13  C4  UNL     1     -12.416  13.184 -10.060  1.00  0.00     0.056 A 
HETATM   14  C3  UNL     1     -12.024  12.416 -11.127  1.00  0.00     0.143 A 
HETATM   15  N2  UNL     1     -11.199  12.678 -12.176  1.00  0.00    -0.283 N 
HETATM   16  N8  UNL     1     -12.480  11.168 -11.252  1.00  0.00    -0.224 N 
HETATM   17  N1  UNL     1     -11.170  11.585 -12.915  1.00  0.00    -0.286 N 
ATOM     18  H2  UNL     1     -10.699  13.549 -12.356  1.00  0.00     0.188 HD
HETATM   19  C2  UNL     1     -11.943  10.654 -12.369  1.00  0.00     0.116 A 
ATOM     20  H1  UNL     1     -10.635  11.472 -13.775  1.00  0.00     0.188 HD
HETATM   21  C1  UNL     1     -12.182   9.297 -12.884  1.00  0.00     0.092 C 
HETATM   22  N7  UNL     1     -13.308  10.699 -10.330  1.00  0.00    -0.276 N 
ATOM     23  H7  UNL     1     -13.641   9.743 -10.449  1.00  0.00     0.189 HD
ENDBRANCH   8  11
ENDBRANCH   1   5
BRANCH   3  24
HETATM   24  C11 UNL     1     -14.707   8.067  -2.711  1.00  0.00     0.124 C 
BRANCH  24  25
HETATM   25  C12 UNL     1     -13.919   8.958  -1.779  1.00  0.00     0.050 C 
BRANCH  25  26
HETATM   26  C13 UNL     1     -14.928   9.525  -0.775  1.00  0.00     0.274 C 
BRANCH  26  27
HETATM   27  N5  UNL     1     -15.546  10.725  -1.228  1.00  0.00     0.091 N 
HETATM   28  C14 UNL     1     -16.890  10.911  -0.730  1.00  0.00     0.292 C 
HETATM   29  C15 UNL     1     -17.573  11.901  -1.664  1.00  0.00     0.153 C 
HETATM   30  N6  UNL     1     -16.747  13.046  -1.899  1.00  0.00    -0.377 N 
HETATM   31  C22 UNL     1     -15.323  13.111  -1.627  1.00  0.00     0.153 C 
HETATM   32  C23 UNL     1     -14.797  11.904  -0.920  1.00  0.00     0.292 C 
BRANCH  30  33
HETATM   33  C16 UNL     1     -17.351  14.220  -2.442  1.00  0.00     0.031 A 
HETATM   34  C17 UNL     1     -18.700  14.265  -2.754  1.00  0.00     0.029 A 
HETATM   35  C18 UNL     1     -19.279  15.402  -3.278  1.00  0.00     0.004 A 
HETATM   36  C19 UNL     1     -18.531  16.541  -3.509  1.00  0.00     0.024 A 
HETATM   37  C20 UNL     1     -17.195  16.522  -3.210  1.00  0.00     0.036 A 
HETATM   38 CL1  UNL     1     -16.260  17.971  -3.509  1.00  0.00    -0.084 Cl
HETATM   39  C21 UNL     1     -16.638  15.383  -2.690  1.00  0.00     0.053 A 
ENDBRANCH  30  33
ENDBRANCH  26  27
ENDBRANCH  25  26
ENDBRANCH  24  25
ENDBRANCH   3  24
TORSDOF 7
ENDMDL
