MODEL 3
REMARK VINA RESULT: -9.138555448      0.734      1.183
REMARK  7 active torsions:
REMARK  status: ('A' for Active; 'I' for Inactive)
REMARK    1  A    between atoms: C6_10  and  N3_11 
REMARK    2  A    between atoms: C9_14  and  C10_15 
REMARK       I    between atoms: C10_15  and  N4_17 
REMARK    3  A    between atoms: N4_17  and  C11_19 
REMARK    4  A    between atoms: C11_19  and  C12_20 
REMARK    5  A    between atoms: C12_20  and  C13_21 
REMARK    6  A    between atoms: C13_21  and  N5_22 
REMARK    7  A    between atoms: N6_25  and  C16_26 
ROOT
HETATM    1  C10 UNL     1     -16.032   8.854  -4.729  1.00  0.00     0.221 C 
HETATM    2  O1  UNL     1     -17.024   8.222  -4.268  1.00  0.00    -0.273 OA
HETATM    3  N4  UNL     1     -14.941   9.020  -3.833  1.00  0.00    -0.361 N 
ATOM      4  H4  UNL     1     -14.115   9.523  -4.156  1.00  0.00     0.162 HD
ENDROOT
BRANCH   1   5
HETATM    5  C9  UNL     1     -16.049   9.367  -6.106  1.00  0.00     0.081 C 
HETATM    6  C8  UNL     1     -15.827  10.864  -6.140  1.00  0.00     0.034 C 
HETATM    7  C7  UNL     1     -15.607  11.379  -7.520  1.00  0.00     0.125 C 
HETATM    8  N3  UNL     1     -14.733  10.589  -8.339  1.00  0.00    -0.366 N 
HETATM    9  C25 UNL     1     -14.773   9.162  -8.280  1.00  0.00     0.125 C 
HETATM   10  C24 UNL     1     -15.054   8.622  -6.923  1.00  0.00     0.034 C 
BRANCH   8  11
HETATM   11  C6  UNL     1     -13.822  11.249  -9.212  1.00  0.00     0.118 A 
HETATM   12  C5  UNL     1     -13.404  12.555  -9.021  1.00  0.00     0.053 A 
HETATM   13  C4  UNL     1     -12.512  13.110  -9.941  1.00  0.00     0.056 A 
HETATM   14  C3  UNL     1     -12.068  12.368 -11.005  1.00  0.00     0.143 A 
HETATM   15  N2  UNL     1     -11.216  12.666 -12.023  1.00  0.00    -0.283 N 
HETATM   16  N8  UNL     1     -12.490  11.112 -11.163  1.00  0.00    -0.224 N 
HETATM   17  N1  UNL     1     -11.139  11.585 -12.777  1.00  0.00    -0.286 N 
ATOM     18  H2  UNL     1     -10.732  13.551 -12.175  1.00  0.00     0.188 HD
HETATM   19  C2  UNL     1     -11.906  10.628 -12.270  1.00  0.00     0.116 A 
ATOM     20  H1  UNL     1     -10.574  11.498 -13.621  1.00  0.00     0.188 HD
HETATM   21  C1  UNL     1     -12.095   9.274 -12.811  1.00  0.00     0.092 C 
HETATM   22  N7  UNL     1     -13.336  10.610 -10.276  1.00  0.00    -0.276 N 
ATOM     23  H7  UNL     1     -13.642   9.648 -10.419  1.00  0.00     0.189 HD
ENDBRANCH   8  11
ENDBRANCH   1   5
BRANCH   3  24
HETATM   24  C11 UNL     1     -14.954   8.509  -2.495  1.00  0.00     0.124 C 
BRANCH  24  25
HETATM   25  C12 UNL     1     -15.496   9.489  -1.480  1.00  0.00     0.050 C 
BRANCH  25  26
HETATM   26  C13 UNL     1     -14.617  10.740  -1.583  1.00  0.00     0.274 C 
BRANCH  26  27
HETATM   27  N5  UNL     1     -15.352  11.904  -1.947  1.00  0.00     0.091 N 
HETATM   28  C14 UNL     1     -16.769  11.670  -2.109  1.00  0.00     0.292 C 
HETATM   29  C15 UNL     1     -17.309  12.809  -2.965  1.00  0.00     0.153 C 
HETATM   30  N6  UNL     1     -16.857  14.079  -2.482  1.00  0.00    -0.377 N 
HETATM   31  C22 UNL     1     -15.748  14.271  -1.568  1.00  0.00     0.153 C 
HETATM   32  C23 UNL     1     -15.189  12.992  -1.033  1.00  0.00     0.292 C 
BRANCH  30  33
HETATM   33  C16 UNL     1     -17.537  15.254  -2.922  1.00  0.00     0.031 A 
HETATM   34  C17 UNL     1     -16.896  16.481  -2.991  1.00  0.00     0.029 A 
HETATM   35  C18 UNL     1     -17.557  17.614  -3.418  1.00  0.00     0.004 A 
HETATM   36  C19 UNL     1     -18.886  17.565  -3.795  1.00  0.00     0.024 A 
HETATM   37  C20 UNL     1     -19.542  16.364  -3.735  1.00  0.00     0.036 A 
HETATM   38 CL1  UNL     1     -21.224  16.316  -4.215  1.00  0.00    -0.084 Cl
HETATM   39  C21 UNL     1     -18.868  15.250  -3.309  1.00  0.00     0.053 A 
ENDBRANCH  30  33
ENDBRANCH  26  27
ENDBRANCH  25  26
ENDBRANCH  24  25
ENDBRANCH   3  24
TORSDOF 7
ENDMDL
