MODEL 1
REMARK VINA RESULT: -9.253901214      0.000      0.000
REMARK  7 active torsions:
REMARK  status: ('A' for Active; 'I' for Inactive)
REMARK    1  A    between atoms: C6_10  and  N3_11 
REMARK    2  A    between atoms: C9_14  and  C10_15 
REMARK       I    between atoms: C10_15  and  N4_17 
REMARK    3  A    between atoms: N4_17  and  C11_19 
REMARK    4  A    between atoms: C11_19  and  C12_20 
REMARK    5  A    between atoms: C12_20  and  C13_21 
REMARK    6  A    between atoms: C13_21  and  N5_22 
REMARK    7  A    between atoms: N6_25  and  C16_26 
ROOT
HETATM    1  C10 UNL     1     -16.001   9.377  -4.573  1.00  0.00     0.221 C 
HETATM    2  O1  UNL     1     -16.968   8.737  -4.070  1.00  0.00    -0.273 OA
HETATM    3  N4  UNL     1     -14.956   9.716  -3.670  1.00  0.00    -0.361 N 
ATOM      4  H4  UNL     1     -14.152  10.233  -4.025  1.00  0.00     0.162 HD
ENDROOT
BRANCH   1   5
HETATM    5  C9  UNL     1     -16.000   9.728  -5.999  1.00  0.00     0.081 C 
HETATM    6  C8  UNL     1     -15.848  11.221  -6.200  1.00  0.00     0.034 C 
HETATM    7  C7  UNL     1     -15.611  11.585  -7.625  1.00  0.00     0.125 C 
HETATM    8  N3  UNL     1     -14.675  10.752  -8.325  1.00  0.00    -0.366 N 
HETATM    9  C25 UNL     1     -14.650   9.341  -8.102  1.00  0.00     0.125 C 
HETATM   10  C24 UNL     1     -14.946   8.946  -6.699  1.00  0.00     0.034 C 
BRANCH   8  11
HETATM   11  C6  UNL     1     -13.770  11.353  -9.246  1.00  0.00     0.118 A 
HETATM   12  C5  UNL     1     -13.331  12.661  -9.128  1.00  0.00     0.053 A 
HETATM   13  C4  UNL     1     -12.447  13.155 -10.090  1.00  0.00     0.056 A 
HETATM   14  C3  UNL     1     -12.032  12.353 -11.122  1.00  0.00     0.143 A 
HETATM   15  N2  UNL     1     -11.193  12.586 -12.168  1.00  0.00    -0.283 N 
HETATM   16  N8  UNL     1     -12.474  11.097 -11.209  1.00  0.00    -0.224 N 
HETATM   17  N1  UNL     1     -11.144  11.467 -12.866  1.00  0.00    -0.286 N 
ATOM     18  H2  UNL     1     -10.700  13.455 -12.372  1.00  0.00     0.188 HD
HETATM   19  C2  UNL     1     -11.915  10.549 -12.299  1.00  0.00     0.116 A 
ATOM     20  H1  UNL     1     -10.594  11.329 -13.714  1.00  0.00     0.188 HD
HETATM   21  C1  UNL     1     -12.133   9.172 -12.767  1.00  0.00     0.092 C 
HETATM   22  N7  UNL     1     -13.311  10.654 -10.283  1.00  0.00    -0.276 N 
ATOM     23  H7  UNL     1     -13.633   9.690 -10.372  1.00  0.00     0.189 HD
ENDBRANCH   8  11
ENDBRANCH   1   5
BRANCH   3  24
HETATM   24  C11 UNL     1     -14.985   9.361  -2.284  1.00  0.00     0.124 C 
BRANCH  24  25
HETATM   25  C12 UNL     1     -15.009  10.553  -1.355  1.00  0.00     0.050 C 
BRANCH  25  26
HETATM   26  C13 UNL     1     -16.481  10.953  -1.211  1.00  0.00     0.274 C 
BRANCH  26  27
HETATM   27  N5  UNL     1     -16.746  12.270  -1.683  1.00  0.00     0.091 N 
HETATM   28  C14 UNL     1     -15.557  13.011  -2.036  1.00  0.00     0.292 C 
HETATM   29  C15 UNL     1     -15.936  14.487  -2.016  1.00  0.00     0.153 C 
HETATM   30  N6  UNL     1     -17.149  14.720  -2.739  1.00  0.00    -0.377 N 
HETATM   31  C22 UNL     1     -18.103  13.693  -3.110  1.00  0.00     0.153 C 
HETATM   32  C23 UNL     1     -17.635  12.307  -2.803  1.00  0.00     0.292 C 
BRANCH  30  33
HETATM   33  C16 UNL     1     -17.460  16.057  -3.130  1.00  0.00     0.031 A 
HETATM   34  C17 UNL     1     -16.478  17.029  -3.242  1.00  0.00     0.029 A 
HETATM   35  C18 UNL     1     -16.784  18.319  -3.621  1.00  0.00     0.004 A 
HETATM   36  C19 UNL     1     -18.084  18.689  -3.906  1.00  0.00     0.024 A 
HETATM   37  C20 UNL     1     -19.073  17.748  -3.802  1.00  0.00     0.036 A 
HETATM   38 CL1  UNL     1     -20.716  18.231  -4.164  1.00  0.00    -0.084 Cl
HETATM   39  C21 UNL     1     -18.750  16.471  -3.424  1.00  0.00     0.053 A 
ENDBRANCH  30  33
ENDBRANCH  26  27
ENDBRANCH  25  26
ENDBRANCH  24  25
ENDBRANCH   3  24
TORSDOF 7
ENDMDL
