MODEL 2
REMARK VINA RESULT: -6.395935882      0.944      3.674
REMARK  0 active torsions:
REMARK  status: ('A' for Active; 'I' for Inactive)
ROOT
HETATM    1  C1  UNL     1      14.564 -15.610   6.365  1.00  0.00     0.025 C 
HETATM    2  C2  UNL     1      15.580 -16.252   5.442  1.00  0.00     0.117 A 
HETATM    3  C3  UNL     1      14.932 -17.414   4.823  1.00  0.00     0.272 A 
HETATM    4  O1  UNL     1      14.575 -18.473   5.458  1.00  0.00    -0.264 OA
HETATM    5  O2  UNL     1      14.786 -17.158   3.481  1.00  0.00    -0.276 OA
HETATM    6  C4  UNL     1      15.275 -15.929   3.125  1.00  0.00     0.107 A 
HETATM    7  C5  UNL     1      15.313 -15.330   1.925  1.00  0.00     0.172 A 
HETATM    8  O3  UNL     1      15.876 -14.070   1.884  1.00  0.00    -0.357 OA
HETATM    9  C6  UNL     1      16.405 -13.371   2.968  1.00  0.00     0.202 A 
HETATM   10  C7  UNL     1      16.326 -14.089   4.240  1.00  0.00     0.010 A 
HETATM   11  C8  UNL     1      15.788 -15.315   4.329  1.00  0.00    -0.011 A 
ENDROOT
TORSDOF 0
ENDMDL
