MODEL 3
REMARK VINA RESULT: -6.146282040      1.278      3.639
REMARK  0 active torsions:
REMARK  status: ('A' for Active; 'I' for Inactive)
ROOT
HETATM    1  C1  UNL     1      14.633 -16.514   5.781  1.00  0.00     0.025 C 
HETATM    2  C2  UNL     1      15.392 -16.990   4.560  1.00  0.00     0.117 A 
HETATM    3  C3  UNL     1      14.414 -17.592   3.647  1.00  0.00     0.272 A 
HETATM    4  O1  UNL     1      13.764 -18.675   3.886  1.00  0.00    -0.264 OA
HETATM    5  O2  UNL     1      14.330 -16.800   2.527  1.00  0.00    -0.276 OA
HETATM    6  C4  UNL     1      15.161 -15.713   2.590  1.00  0.00     0.107 A 
HETATM    7  C5  UNL     1      15.359 -14.725   1.703  1.00  0.00     0.172 A 
HETATM    8  O3  UNL     1      16.276 -13.756   2.058  1.00  0.00    -0.357 OA
HETATM    9  C6  UNL     1      17.008 -13.711   3.243  1.00  0.00     0.202 A 
HETATM   10  C7  UNL     1      16.737 -14.821   4.157  1.00  0.00     0.010 A 
HETATM   11  C8  UNL     1      15.855 -15.787   3.856  1.00  0.00    -0.011 A 
ENDROOT
TORSDOF 0
ENDMDL
