MODEL 10
REMARK VINA RESULT: -6.406876671      2.776      5.085
REMARK  1 active torsions:
REMARK  status: ('A' for Active; 'I' for Inactive)
REMARK    1  A    between atoms: C7_7  and  C8_8 
ROOT
HETATM    1  C8  UNL     1      14.262  29.965  29.657  1.00  0.00     0.133 A 
HETATM    2  N1  UNL     1      13.918  30.438  28.445  1.00  0.00    -0.283 N 
ATOM      3  H1  UNL     1      12.973  30.665  28.137  1.00  0.00     0.188 HD
HETATM    4  N2  UNL     1      15.018  30.557  27.725  1.00  0.00    -0.278 N 
ATOM      5  H2  UNL     1      15.058  30.895  26.764  1.00  0.00     0.189 HD
HETATM    6  C9  UNL     1      16.065  30.171  28.444  1.00  0.00     0.172 A 
HETATM    7  S1  UNL     1      17.797  30.133  27.942  1.00  0.00    -0.012 SA
HETATM    8  N3  UNL     1      15.592  29.803  29.645  1.00  0.00    -0.319 N 
ATOM      9  H3  UNL     1      16.153  29.456  30.422  1.00  0.00     0.169 HD
ENDROOT
BRANCH   1  10
HETATM   10  C7  UNL     1      13.408  29.666  30.795  1.00  0.00     0.015 A 
HETATM   11  C2  UNL     1      12.837  28.437  30.970  1.00  0.00    -0.048 A 
HETATM   12  C1  UNL     1      13.084  27.357  29.980  1.00  0.00     0.049 C 
HETATM   13  C3  UNL     1      12.014  28.154  32.071  1.00  0.00     0.007 A 
HETATM   14  C4  UNL     1      11.755  29.120  33.013  1.00  0.00     0.001 A 
HETATM   15  C5  UNL     1      12.330  30.363  32.839  1.00  0.00     0.001 A 
HETATM   16  C6  UNL     1      13.147  30.635  31.742  1.00  0.00     0.016 A 
ENDBRANCH   1  10
TORSDOF 1
ENDMDL
