MODEL 12
REMARK VINA RESULT: -6.223861879      2.592      5.387
REMARK  1 active torsions:
REMARK  status: ('A' for Active; 'I' for Inactive)
REMARK    1  A    between atoms: C7_7  and  C8_8 
ROOT
HETATM    1  C8  UNL     1      13.716  29.784  30.527  1.00  0.00     0.133 A 
HETATM    2  N1  UNL     1      13.171  29.839  29.298  1.00  0.00    -0.283 N 
ATOM      3  H1  UNL     1      12.174  29.807  29.083  1.00  0.00     0.188 HD
HETATM    4  N2  UNL     1      14.150  29.943  28.420  1.00  0.00    -0.278 N 
ATOM      5  H2  UNL     1      14.030  30.004  27.409  1.00  0.00     0.189 HD
HETATM    6  C9  UNL     1      15.317  29.955  29.052  1.00  0.00     0.172 A 
HETATM    7  S1  UNL     1      16.965  30.079  28.330  1.00  0.00    -0.012 SA
HETATM    8  N3  UNL     1      15.044  29.856  30.363  1.00  0.00    -0.319 N 
ATOM      9  H3  UNL     1      15.735  29.838  31.112  1.00  0.00     0.169 HD
ENDROOT
BRANCH   1  10
HETATM   10  C7  UNL     1      13.052  29.668  31.815  1.00  0.00     0.015 A 
HETATM   11  C2  UNL     1      12.784  28.456  32.386  1.00  0.00    -0.048 A 
HETATM   12  C1  UNL     1      13.174  27.204  31.687  1.00  0.00     0.049 C 
HETATM   13  C3  UNL     1      12.142  28.350  33.629  1.00  0.00     0.007 A 
HETATM   14  C4  UNL     1      11.761  29.479  34.314  1.00  0.00     0.001 A 
HETATM   15  C5  UNL     1      12.031  30.704  33.741  1.00  0.00     0.001 A 
HETATM   16  C6  UNL     1      12.669  30.800  32.505  1.00  0.00     0.016 A 
ENDBRANCH   1  10
TORSDOF 1
ENDMDL
