MODEL 6
REMARK VINA RESULT: -7.337436002      1.212      2.311
REMARK  1 active torsions:
REMARK  status: ('A' for Active; 'I' for Inactive)
REMARK    1  A    between atoms: C7_7  and  C8_8 
ROOT
HETATM    1  C8  UNL     1      14.002  29.750  30.409  1.00  0.00     0.133 A 
HETATM    2  N1  UNL     1      13.315  30.727  31.028  1.00  0.00    -0.283 N 
ATOM      3  H1  UNL     1      13.551  31.719  31.027  1.00  0.00     0.188 HD
HETATM    4  N2  UNL     1      12.281  30.177  31.638  1.00  0.00    -0.278 N 
ATOM      5  H2  UNL     1      11.586  30.682  32.187  1.00  0.00     0.189 HD
HETATM    6  C9  UNL     1      12.285  28.867  31.428  1.00  0.00     0.172 A 
HETATM    7  S1  UNL     1      11.102  27.647  32.033  1.00  0.00    -0.012 SA
HETATM    8  N3  UNL     1      13.356  28.604  30.663  1.00  0.00    -0.319 N 
ATOM      9  H3  UNL     1      13.634  27.681  30.329  1.00  0.00     0.169 HD
ENDROOT
BRANCH   1  10
HETATM   10  C7  UNL     1      15.212  29.852  29.609  1.00  0.00     0.015 A 
HETATM   11  C2  UNL     1      16.421  29.406  30.063  1.00  0.00    -0.048 A 
HETATM   12  C1  UNL     1      16.526  28.794  31.413  1.00  0.00     0.049 C 
HETATM   13  C3  UNL     1      17.585  29.507  29.287  1.00  0.00     0.007 A 
HETATM   14  C4  UNL     1      17.539  30.067  28.032  1.00  0.00     0.001 A 
HETATM   15  C5  UNL     1      16.320  30.518  27.570  1.00  0.00     0.001 A 
HETATM   16  C6  UNL     1      15.167  30.413  28.349  1.00  0.00     0.016 A 
ENDBRANCH   1  10
TORSDOF 1
ENDMDL
