MODEL 11
REMARK VINA RESULT: -6.302057112      3.411      5.296
REMARK  1 active torsions:
REMARK  status: ('A' for Active; 'I' for Inactive)
REMARK    1  A    between atoms: C7_7  and  C8_8 
ROOT
HETATM    1  C8  UNL     1      16.411  29.452  30.443  1.00  0.00     0.133 A 
HETATM    2  N1  UNL     1      17.639  29.517  30.990  1.00  0.00    -0.283 N 
ATOM      3  H1  UNL     1      17.867  29.357  31.971  1.00  0.00     0.188 HD
HETATM    4  N2  UNL     1      18.496  29.825  30.035  1.00  0.00    -0.278 N 
ATOM      5  H2  UNL     1      19.502  29.941  30.162  1.00  0.00     0.189 HD
HETATM    6  C9  UNL     1      17.852  29.960  28.883  1.00  0.00     0.172 A 
HETATM    7  S1  UNL     1      18.544  30.374  27.270  1.00  0.00    -0.012 SA
HETATM    8  N3  UNL     1      16.555  29.728  29.140  1.00  0.00    -0.319 N 
ATOM      9  H3  UNL     1      15.800  29.757  28.455  1.00  0.00     0.169 HD
ENDROOT
BRANCH   1  10
HETATM   10  C7  UNL     1      15.143  29.147  31.085  1.00  0.00     0.015 A 
HETATM   11  C2  UNL     1      14.626  27.882  31.106  1.00  0.00    -0.048 A 
HETATM   12  C1  UNL     1      15.368  26.768  30.462  1.00  0.00     0.049 C 
HETATM   13  C3  UNL     1      13.401  27.594  31.727  1.00  0.00     0.007 A 
HETATM   14  C4  UNL     1      12.678  28.592  32.336  1.00  0.00     0.001 A 
HETATM   15  C5  UNL     1      13.197  29.870  32.316  1.00  0.00     0.001 A 
HETATM   16  C6  UNL     1      14.415  30.147  31.697  1.00  0.00     0.016 A 
ENDBRANCH   1  10
TORSDOF 1
ENDMDL
