MODEL 7
REMARK VINA RESULT: -7.130973204      0.853      2.001
REMARK  1 active torsions:
REMARK  status: ('A' for Active; 'I' for Inactive)
REMARK    1  A    between atoms: C7_7  and  C8_8 
ROOT
HETATM    1  C8  UNL     1      13.744  29.334  30.273  1.00  0.00     0.133 A 
HETATM    2  N1  UNL     1      12.753  28.453  30.044  1.00  0.00    -0.283 N 
ATOM      3  H1  UNL     1      12.675  27.838  29.234  1.00  0.00     0.188 HD
HETATM    4  N2  UNL     1      11.901  28.524  31.049  1.00  0.00    -0.278 N 
ATOM      5  H2  UNL     1      11.052  27.967  31.141  1.00  0.00     0.189 HD
HETATM    6  C9  UNL     1      12.318  29.431  31.924  1.00  0.00     0.172 A 
HETATM    7  S1  UNL     1      11.528  29.921  33.470  1.00  0.00    -0.012 SA
HETATM    8  N3  UNL     1      13.464  29.934  31.438  1.00  0.00    -0.319 N 
ATOM      9  H3  UNL     1      14.030  30.655  31.884  1.00  0.00     0.169 HD
ENDROOT
BRANCH   1  10
HETATM   10  C7  UNL     1      14.912  29.626  29.458  1.00  0.00     0.015 A 
HETATM   11  C2  UNL     1      16.153  29.148  29.774  1.00  0.00    -0.048 A 
HETATM   12  C1  UNL     1      16.338  28.303  30.982  1.00  0.00     0.049 C 
HETATM   13  C3  UNL     1      17.278  29.432  28.984  1.00  0.00     0.007 A 
HETATM   14  C4  UNL     1      17.158  30.210  27.857  1.00  0.00     0.001 A 
HETATM   15  C5  UNL     1      15.906  30.694  27.536  1.00  0.00     0.001 A 
HETATM   16  C6  UNL     1      14.794  30.406  28.327  1.00  0.00     0.016 A 
ENDBRANCH   1  10
TORSDOF 1
ENDMDL
