MODEL 2
REMARK VINA RESULT: -7.946497153      0.571      1.889
REMARK  1 active torsions:
REMARK  status: ('A' for Active; 'I' for Inactive)
REMARK    1  A    between atoms: C7_7  and  C8_8 
ROOT
HETATM    1  C8  UNL     1      14.507  29.821  29.709  1.00  0.00     0.133 A 
HETATM    2  N1  UNL     1      13.414  29.124  29.347  1.00  0.00    -0.283 N 
ATOM      3  H1  UNL     1      13.292  28.613  28.473  1.00  0.00     0.188 HD
HETATM    4  N2  UNL     1      12.528  29.218  30.320  1.00  0.00    -0.278 N 
ATOM      5  H2  UNL     1      11.604  28.787  30.318  1.00  0.00     0.189 HD
HETATM    6  C9  UNL     1      13.022  29.960  31.303  1.00  0.00     0.172 A 
HETATM    7  S1  UNL     1      12.229  30.403  32.861  1.00  0.00    -0.012 SA
HETATM    8  N3  UNL     1      14.254  30.334  30.920  1.00  0.00    -0.319 N 
ATOM      9  H3  UNL     1      14.893  30.914  31.463  1.00  0.00     0.169 HD
ENDROOT
BRANCH   1  10
HETATM   10  C7  UNL     1      15.748  30.016  28.976  1.00  0.00     0.015 A 
HETATM   11  C2  UNL     1      16.950  29.581  29.458  1.00  0.00    -0.048 A 
HETATM   12  C1  UNL     1      17.016  28.884  30.768  1.00  0.00     0.049 C 
HETATM   13  C3  UNL     1      18.145  29.773  28.747  1.00  0.00     0.007 A 
HETATM   14  C4  UNL     1      18.136  30.413  27.531  1.00  0.00     0.001 A 
HETATM   15  C5  UNL     1      16.923  30.854  27.041  1.00  0.00     0.001 A 
HETATM   16  C6  UNL     1      15.741  30.659  27.755  1.00  0.00     0.016 A 
ENDBRANCH   1  10
TORSDOF 1
ENDMDL
