MODEL 1
REMARK VINA RESULT: -9.705114232      0.000      0.000
REMARK  4 active torsions:
REMARK  status: ('A' for Active; 'I' for Inactive)
REMARK    1  A    between atoms: C1_2  and  C2_4 
REMARK    2  A    between atoms: C7_9  and  N1_10 
REMARK    3  A    between atoms: N1_10  and  C8_12 
REMARK    4  A    between atoms: C12_16  and  C13_17 
ROOT
HETATM    1  N1  UNL     1      47.892  48.494 -17.463  1.00  0.00    -0.355 N 
ATOM      2  H1  UNL     1      48.722  48.984 -17.129  1.00  0.00     0.166 HD
ENDROOT
BRANCH   1   3
HETATM    3  C7  UNL     1      47.615  48.366 -18.851  1.00  0.00     0.049 A 
HETATM    4  C2  UNL     1      48.122  49.258 -19.798  1.00  0.00     0.067 A 
HETATM    5  C3  UNL     1      47.931  49.070 -21.139  1.00  0.00     0.021 A 
HETATM    6  C4  UNL     1      47.207  47.937 -21.554  1.00  0.00     0.001 A 
HETATM    7  C5  UNL     1      46.702  47.038 -20.647  1.00  0.00     0.002 A 
HETATM    8  C6  UNL     1      46.898  47.247 -19.291  1.00  0.00     0.030 A 
BRANCH   4   9
HETATM    9  C1  UNL     1      48.877  50.420 -19.340  1.00  0.00     0.211 C 
HETATM   10  O1  UNL     1      48.421  51.130 -18.368  1.00  0.00    -0.644 OA
HETATM   11  O2  UNL     1      50.076  50.822 -19.911  1.00  0.00    -0.644 OA
ENDBRANCH   4   9
ENDBRANCH   1   3
BRANCH   1  12
HETATM   12  C8  UNL     1      46.935  47.892 -16.537  1.00  0.00     0.033 A 
HETATM   13  C9  UNL     1      47.188  46.799 -15.792  1.00  0.00     0.029 A 
HETATM   14  C10 UNL     1      46.126  46.249 -15.056  1.00  0.00     0.003 A 
HETATM   15  C11 UNL     1      44.860  46.844 -15.120  1.00  0.00     0.016 A 
HETATM   16  C12 UNL     1      44.635  47.960 -15.885  1.00  0.00     0.050 A 
HETATM   17  C14 UNL     1      45.656  48.491 -16.591  1.00  0.00     0.045 A 
BRANCH  16  18
HETATM   18  C13 UNL     1      43.276  48.536 -15.907  1.00  0.00     0.417 C 
HETATM   19  F1  UNL     1      43.416  49.913 -15.809  1.00  0.00    -0.166 F 
HETATM   20  F2  UNL     1      42.513  48.068 -14.829  1.00  0.00    -0.166 F 
HETATM   21  F3  UNL     1      42.719  48.196 -17.100  1.00  0.00    -0.166 F 
ENDBRANCH  16  18
ENDBRANCH   1  12
TORSDOF 4
ENDMDL
