MODEL 2
REMARK VINA RESULT: -9.526010963      3.375      5.831
REMARK  4 active torsions:
REMARK  status: ('A' for Active; 'I' for Inactive)
REMARK    1  A    between atoms: C1_2  and  C2_4 
REMARK    2  A    between atoms: C7_9  and  N1_10 
REMARK    3  A    between atoms: N1_10  and  C8_12 
REMARK    4  A    between atoms: C12_16  and  C13_17 
ROOT
HETATM    1  N1  UNL     1      47.099  48.615 -15.898  1.00  0.00    -0.355 N 
ATOM      2  H1  UNL     1      47.691  48.455 -15.083  1.00  0.00     0.166 HD
ENDROOT
BRANCH   1   3
HETATM    3  C7  UNL     1      45.700  48.374 -15.859  1.00  0.00     0.049 A 
HETATM    4  C2  UNL     1      45.163  47.168 -15.402  1.00  0.00     0.067 A 
HETATM    5  C3  UNL     1      43.815  46.982 -15.275  1.00  0.00     0.021 A 
HETATM    6  C4  UNL     1      42.963  48.050 -15.613  1.00  0.00     0.001 A 
HETATM    7  C5  UNL     1      43.460  49.250 -16.059  1.00  0.00     0.002 A 
HETATM    8  C6  UNL     1      44.829  49.419 -16.189  1.00  0.00     0.030 A 
BRANCH   4   9
HETATM    9  C1  UNL     1      46.071  46.081 -15.049  1.00  0.00     0.211 C 
HETATM   10  O1  UNL     1      45.636  45.091 -14.352  1.00  0.00    -0.644 OA
HETATM   11  O2  UNL     1      47.409  46.058 -15.418  1.00  0.00    -0.644 OA
ENDBRANCH   4   9
ENDBRANCH   1   3
BRANCH   1  12
HETATM   12  C8  UNL     1      47.653  49.103 -17.160  1.00  0.00     0.033 A 
HETATM   13  C9  UNL     1      48.307  50.272 -17.298  1.00  0.00     0.029 A 
HETATM   14  C10 UNL     1      48.656  50.678 -18.597  1.00  0.00     0.003 A 
HETATM   15  C11 UNL     1      48.319  49.866 -19.687  1.00  0.00     0.016 A 
HETATM   16  C12 UNL     1      47.657  48.678 -19.514  1.00  0.00     0.050 A 
HETATM   17  C14 UNL     1      47.322  48.287 -18.266  1.00  0.00     0.045 A 
BRANCH  16  18
HETATM   18  C13 UNL     1      47.332  47.873 -20.707  1.00  0.00     0.417 C 
HETATM   19  F1  UNL     1      47.199  48.755 -21.770  1.00  0.00    -0.166 F 
HETATM   20  F2  UNL     1      46.132  47.171 -20.531  1.00  0.00    -0.166 F 
HETATM   21  F3  UNL     1      48.379  47.030 -20.915  1.00  0.00    -0.166 F 
ENDBRANCH  16  18
ENDBRANCH   1  12
TORSDOF 4
ENDMDL
