MODEL 9
REMARK VINA RESULT: -8.839677635      4.641      6.743
REMARK  4 active torsions:
REMARK  status: ('A' for Active; 'I' for Inactive)
REMARK    1  A    between atoms: C1_2  and  C2_4 
REMARK    2  A    between atoms: C7_9  and  N1_10 
REMARK    3  A    between atoms: N1_10  and  C8_12 
REMARK    4  A    between atoms: C12_16  and  C13_17 
ROOT
HETATM    1  N1  UNL     1      44.196  45.086 -13.683  1.00  0.00    -0.355 N 
ATOM      2  H1  UNL     1      44.205  45.083 -12.663  1.00  0.00     0.166 HD
ENDROOT
BRANCH   1   3
HETATM    3  C7  UNL     1      44.360  43.889 -14.431  1.00  0.00     0.049 A 
HETATM    4  C2  UNL     1      45.218  42.866 -14.021  1.00  0.00     0.067 A 
HETATM    5  C3  UNL     1      45.295  41.678 -14.694  1.00  0.00     0.021 A 
HETATM    6  C4  UNL     1      44.474  41.501 -15.824  1.00  0.00     0.001 A 
HETATM    7  C5  UNL     1      43.616  42.485 -16.247  1.00  0.00     0.002 A 
HETATM    8  C6  UNL     1      43.556  43.686 -15.558  1.00  0.00     0.030 A 
BRANCH   4   9
HETATM    9  C1  UNL     1      46.051  43.074 -12.841  1.00  0.00     0.211 C 
HETATM   10  O1  UNL     1      45.512  43.490 -11.749  1.00  0.00    -0.644 OA
HETATM   11  O2  UNL     1      47.422  42.859 -12.830  1.00  0.00    -0.644 OA
ENDBRANCH   4   9
ENDBRANCH   1   3
BRANCH   1  12
HETATM   12  C8  UNL     1      44.014  46.322 -14.442  1.00  0.00     0.033 A 
HETATM   13  C9  UNL     1      42.817  46.884 -14.696  1.00  0.00     0.029 A 
HETATM   14  C10 UNL     1      42.784  47.992 -15.559  1.00  0.00     0.003 A 
HETATM   15  C11 UNL     1      43.977  48.468 -16.118  1.00  0.00     0.016 A 
HETATM   16  C12 UNL     1      45.182  47.876 -15.835  1.00  0.00     0.050 A 
HETATM   17  C14 UNL     1      45.214  46.812 -15.004  1.00  0.00     0.045 A 
BRANCH  16  18
HETATM   18  C13 UNL     1      46.401  48.428 -16.458  1.00  0.00     0.417 C 
HETATM   19  F1  UNL     1      46.375  48.063 -17.796  1.00  0.00    -0.166 F 
HETATM   20  F2  UNL     1      47.554  47.909 -15.856  1.00  0.00    -0.166 F 
HETATM   21  F3  UNL     1      46.334  49.781 -16.330  1.00  0.00    -0.166 F 
ENDBRANCH  16  18
ENDBRANCH   1  12
TORSDOF 4
ENDMDL
