MODEL 3
REMARK VINA RESULT: -9.349838138      3.168      5.379
REMARK  4 active torsions:
REMARK  status: ('A' for Active; 'I' for Inactive)
REMARK    1  A    between atoms: C1_2  and  C2_4 
REMARK    2  A    between atoms: C7_9  and  N1_10 
REMARK    3  A    between atoms: N1_10  and  C8_12 
REMARK    4  A    between atoms: C12_16  and  C13_17 
ROOT
HETATM    1  N1  UNL     1      48.435  47.491 -19.122  1.00  0.00    -0.355 N 
ATOM      2  H1  UNL     1      49.346  47.063 -18.958  1.00  0.00     0.166 HD
ENDROOT
BRANCH   1   3
HETATM    3  C7  UNL     1      47.710  48.119 -18.073  1.00  0.00     0.049 A 
HETATM    4  C2  UNL     1      47.905  49.459 -17.731  1.00  0.00     0.067 A 
HETATM    5  C3  UNL     1      47.135  50.081 -16.788  1.00  0.00     0.021 A 
HETATM    6  C4  UNL     1      46.120  49.333 -16.162  1.00  0.00     0.001 A 
HETATM    7  C5  UNL     1      45.899  48.016 -16.482  1.00  0.00     0.002 A 
HETATM    8  C6  UNL     1      46.694  47.399 -17.435  1.00  0.00     0.030 A 
BRANCH   4   9
HETATM    9  C1  UNL     1      48.960  50.213 -18.402  1.00  0.00     0.211 C 
HETATM   10  O1  UNL     1      48.665  51.299 -19.025  1.00  0.00    -0.644 OA
HETATM   11  O2  UNL     1      50.288  49.810 -18.420  1.00  0.00    -0.644 OA
ENDBRANCH   4   9
ENDBRANCH   1   3
BRANCH   1  12
HETATM   12  C8  UNL     1      47.815  47.487 -20.446  1.00  0.00     0.033 A 
HETATM   13  C9  UNL     1      47.865  48.521 -21.307  1.00  0.00     0.029 A 
HETATM   14  C10 UNL     1      47.103  48.430 -22.484  1.00  0.00     0.003 A 
HETATM   15  C11 UNL     1      46.330  47.286 -22.719  1.00  0.00     0.016 A 
HETATM   16  C12 UNL     1      46.303  46.248 -21.823  1.00  0.00     0.050 A 
HETATM   17  C14 UNL     1      47.037  46.334 -20.694  1.00  0.00     0.045 A 
BRANCH  16  18
HETATM   18  C13 UNL     1      45.466  45.073 -22.134  1.00  0.00     0.417 C 
HETATM   19  F1  UNL     1      46.091  44.389 -23.166  1.00  0.00    -0.166 F 
HETATM   20  F2  UNL     1      44.183  45.461 -22.541  1.00  0.00    -0.166 F 
HETATM   21  F3  UNL     1      45.423  44.307 -21.010  1.00  0.00    -0.166 F 
ENDBRANCH  16  18
ENDBRANCH   1  12
TORSDOF 4
ENDMDL
