MODEL 1
REMARK VINA RESULT: -8.703445969      0.000      0.000
REMARK  3 active torsions:
REMARK  status: ('A' for Active; 'I' for Inactive)
REMARK    1  A    between atoms: C1_2  and  C2_4 
REMARK    2  A    between atoms: C7_9  and  N1_10 
REMARK    3  A    between atoms: N1_10  and  C8_12 
ROOT
HETATM    1  C2  UNL     1      45.604  47.284 -15.391  1.00  0.00     0.067 A 
HETATM    2  C3  UNL     1      44.223  47.044 -15.229  1.00  0.00     0.021 A 
HETATM    3  C4  UNL     1      43.298  48.021 -15.444  1.00  0.00     0.001 A 
HETATM    4  C5  UNL     1      43.721  49.271 -15.828  1.00  0.00     0.002 A 
HETATM    5  C6  UNL     1      45.054  49.529 -15.993  1.00  0.00     0.030 A 
HETATM    6  C7  UNL     1      45.994  48.542 -15.776  1.00  0.00     0.049 A 
ENDROOT
BRANCH   6   7
HETATM    7  N1  UNL     1      47.372  48.813 -16.018  1.00  0.00    -0.355 N 
ATOM      8  H1  UNL     1      48.021  48.737 -15.234  1.00  0.00     0.166 HD
BRANCH   7   9
HETATM    9  C8  UNL     1      47.901  49.184 -17.296  1.00  0.00     0.033 A 
HETATM   10  C9  UNL     1      48.614  50.330 -17.521  1.00  0.00     0.029 A 
HETATM   11  C10 UNL     1      49.087  50.668 -18.794  1.00  0.00     0.004 A 
HETATM   12  C11 UNL     1      48.849  49.848 -19.872  1.00  0.00     0.019 A 
HETATM   13  C12 UNL     1      48.133  48.694 -19.649  1.00  0.00     0.013 A 
HETATM   14 BR1  UNL     1      47.809  47.561 -21.155  1.00  0.00    -0.051 Br
HETATM   15  C13 UNL     1      47.666  48.360 -18.397  1.00  0.00     0.048 A 
ENDBRANCH   7   9
ENDBRANCH   6   7
BRANCH   1  16
HETATM   16  C1  UNL     1      46.495  46.177 -15.104  1.00  0.00     0.211 C 
HETATM   17  O1  UNL     1      47.718  46.223 -15.258  1.00  0.00    -0.644 OA
HETATM   18  O2  UNL     1      45.978  44.969 -14.626  1.00  0.00    -0.644 OA
ENDBRANCH   1  16
TORSDOF 3
ENDMDL
