MODEL 3
REMARK VINA RESULT: -8.425014444      1.238      1.699
REMARK  3 active torsions:
REMARK  status: ('A' for Active; 'I' for Inactive)
REMARK    1  A    between atoms: C1_2  and  C2_4 
REMARK    2  A    between atoms: C7_9  and  N1_10 
REMARK    3  A    between atoms: N1_10  and  C8_12 
ROOT
HETATM    1  C2  UNL     1      45.403  46.977 -15.281  1.00  0.00     0.067 A 
HETATM    2  C3  UNL     1      44.037  46.775 -14.988  1.00  0.00     0.021 A 
HETATM    3  C4  UNL     1      43.112  47.754 -15.192  1.00  0.00     0.001 A 
HETATM    4  C5  UNL     1      43.518  48.967 -15.693  1.00  0.00     0.002 A 
HETATM    5  C6  UNL     1      44.836  49.187 -15.986  1.00  0.00     0.030 A 
HETATM    6  C7  UNL     1      45.776  48.199 -15.782  1.00  0.00     0.049 A 
ENDROOT
BRANCH   6   7
HETATM    7  N1  UNL     1      47.133  48.426 -16.155  1.00  0.00    -0.355 N 
ATOM      8  H1  UNL     1      47.825  48.524 -15.412  1.00  0.00     0.166 HD
BRANCH   7   9
HETATM    9  C8  UNL     1      47.582  48.524 -17.511  1.00  0.00     0.033 A 
HETATM   10  C9  UNL     1      47.173  47.685 -18.511  1.00  0.00     0.029 A 
HETATM   11  C10 UNL     1      47.660  47.799 -19.818  1.00  0.00     0.004 A 
HETATM   12  C11 UNL     1      48.577  48.770 -20.143  1.00  0.00     0.019 A 
HETATM   13  C12 UNL     1      48.991  49.616 -19.139  1.00  0.00     0.013 A 
HETATM   14 BR1  UNL     1      50.266  50.964 -19.604  1.00  0.00    -0.051 Br
HETATM   15  C13 UNL     1      48.513  49.506 -17.853  1.00  0.00     0.048 A 
ENDBRANCH   7   9
ENDBRANCH   6   7
BRANCH   1  16
HETATM   16  C1  UNL     1      46.299  45.874 -14.995  1.00  0.00     0.211 C 
HETATM   17  O1  UNL     1      47.529  45.956 -15.052  1.00  0.00    -0.644 OA
HETATM   18  O2  UNL     1      45.781  44.627 -14.632  1.00  0.00    -0.644 OA
ENDBRANCH   1  16
TORSDOF 3
ENDMDL
