MODEL 4
REMARK VINA RESULT: -8.387863437      1.573      1.781
REMARK  3 active torsions:
REMARK  status: ('A' for Active; 'I' for Inactive)
REMARK    1  A    between atoms: C1_2  and  C2_4 
REMARK    2  A    between atoms: C7_9  and  N1_10 
REMARK    3  A    between atoms: N1_10  and  C8_12 
ROOT
HETATM    1  C2  UNL     1      45.241  46.986 -15.403  1.00  0.00     0.067 A 
HETATM    2  C3  UNL     1      43.844  47.150 -15.291  1.00  0.00     0.021 A 
HETATM    3  C4  UNL     1      43.246  48.352 -15.520  1.00  0.00     0.001 A 
HETATM    4  C5  UNL     1      44.021  49.431 -15.868  1.00  0.00     0.002 A 
HETATM    5  C6  UNL     1      45.378  49.298 -15.984  1.00  0.00     0.030 A 
HETATM    6  C7  UNL     1      45.988  48.083 -15.753  1.00  0.00     0.049 A 
ENDROOT
BRANCH   6   7
HETATM    7  N1  UNL     1      47.394  47.949 -15.944  1.00  0.00    -0.355 N 
ATOM      8  H1  UNL     1      48.010  48.212 -15.174  1.00  0.00     0.166 HD
BRANCH   7   9
HETATM    9  C8  UNL     1      47.993  47.468 -17.153  1.00  0.00     0.033 A 
HETATM   10  C9  UNL     1      49.239  46.905 -17.213  1.00  0.00     0.029 A 
HETATM   11  C10 UNL     1      49.798  46.474 -18.422  1.00  0.00     0.004 A 
HETATM   12  C11 UNL     1      49.104  46.605 -19.601  1.00  0.00     0.019 A 
HETATM   13  C12 UNL     1      47.851  47.170 -19.544  1.00  0.00     0.013 A 
HETATM   14 BR1  UNL     1      46.896  47.346 -21.192  1.00  0.00    -0.051 Br
HETATM   15  C13 UNL     1      47.299  47.595 -18.356  1.00  0.00     0.048 A 
ENDBRANCH   7   9
ENDBRANCH   6   7
BRANCH   1  16
HETATM   16  C1  UNL     1      45.767  45.668 -15.106  1.00  0.00     0.211 C 
HETATM   17  O1  UNL     1      46.892  45.467 -14.641  1.00  0.00    -0.644 OA
HETATM   18  O2  UNL     1      44.988  44.533 -15.347  1.00  0.00    -0.644 OA
ENDBRANCH   1  16
TORSDOF 3
ENDMDL
