MODEL 3
REMARK VINA RESULT: -7.332486678      2.522      3.485
REMARK  8 active torsions:
REMARK  status: ('A' for Active; 'I' for Inactive)
REMARK    1  A    between atoms: C1_2  and  C2_4 
REMARK    2  A    between atoms: C2_4  and  O3_5 
REMARK    3  A    between atoms: O3_5  and  C3_6 
REMARK    4  A    between atoms: C3_6  and  C4_7 
REMARK    5  A    between atoms: C4_7  and  N1_8 
REMARK    6  A    between atoms: N2_11  and  C7_12 
REMARK    7  A    between atoms: C7_12  and  C8_13 
REMARK    8  A    between atoms: C7_12  and  C14_19 
ROOT
HETATM    1  C7  UNL     1     -30.450  11.700 -16.976  1.00  0.00     0.289 C 
ENDROOT
BRANCH   1   2
HETATM    2  N2  UNL     1     -30.741  12.025 -15.633  1.00  0.00     0.105 N 
HETATM    3  C6  UNL     1     -30.964  13.370 -15.249  1.00  0.00     0.304 C 
HETATM    4  C5  UNL     1     -30.930  13.470 -13.716  1.00  0.00     0.302 C 
HETATM    5  N1  UNL     1     -30.843  12.232 -13.040  1.00  0.00     0.093 N 
HETATM    6  C21 UNL     1     -31.553  11.123 -13.554  1.00  0.00     0.302 C 
HETATM    7  C20 UNL     1     -31.841  11.252 -15.059  1.00  0.00     0.304 C 
BRANCH   5   8
HETATM    8  C4  UNL     1     -31.136  12.396 -11.635  1.00  0.00     0.298 C 
BRANCH   8   9
HETATM    9  C3  UNL     1     -30.349  13.400 -10.887  1.00  0.00     0.198 C 
BRANCH   9  10
HETATM   10  O3  UNL     1     -29.076  12.895 -10.677  1.00  0.00    -0.379 OA
BRANCH  10  11
HETATM   11  C2  UNL     1     -28.040  13.775 -10.641  1.00  0.00     0.280 C 
BRANCH  11  12
HETATM   12  C1  UNL     1     -27.946  14.710 -11.763  1.00  0.00     0.197 C 
HETATM   13  O1  UNL     1     -28.123  15.958 -11.627  1.00  0.00    -0.646 OA
HETATM   14  O2  UNL     1     -27.660  14.251 -13.035  1.00  0.00    -0.646 OA
ENDBRANCH  11  12
ENDBRANCH  10  11
ENDBRANCH   9  10
ENDBRANCH   8   9
ENDBRANCH   5   8
ENDBRANCH   1   2
BRANCH   1  15
HETATM   15  C8  UNL     1     -31.635  11.689 -17.899  1.00  0.00    -0.021 A 
HETATM   16  C9  UNL     1     -31.990  10.588 -18.630  1.00  0.00     0.010 A 
HETATM   17  C10 UNL     1     -33.061  10.539 -19.495  1.00  0.00     0.001 A 
HETATM   18  C11 UNL     1     -33.833  11.657 -19.648  1.00  0.00     0.000 A 
HETATM   19  C12 UNL     1     -33.526  12.785 -18.944  1.00  0.00     0.001 A 
HETATM   20  C13 UNL     1     -32.450  12.809 -18.085  1.00  0.00     0.010 A 
ENDBRANCH   1  15
BRANCH   1  21
HETATM   21  C14 UNL     1     -29.301  12.377 -17.609  1.00  0.00    -0.021 A 
HETATM   22  C15 UNL     1     -27.989  12.172 -17.144  1.00  0.00     0.011 A 
HETATM   23  C16 UNL     1     -26.886  12.742 -17.688  1.00  0.00     0.024 A 
HETATM   24  C17 UNL     1     -27.008  13.578 -18.761  1.00  0.00     0.034 A 
HETATM   25 CL1  UNL     1     -25.546  14.282 -19.418  1.00  0.00    -0.084 Cl
HETATM   26  C18 UNL     1     -28.246  13.819 -19.261  1.00  0.00     0.024 A 
HETATM   27  C19 UNL     1     -29.366  13.227 -18.691  1.00  0.00     0.011 A 
ENDBRANCH   1  21
TORSDOF 8
ENDMDL
