MODEL 2
REMARK VINA RESULT: -7.341862379      0.361      1.042
REMARK  8 active torsions:
REMARK  status: ('A' for Active; 'I' for Inactive)
REMARK    1  A    between atoms: C1_2  and  C2_4 
REMARK    2  A    between atoms: C2_4  and  O3_5 
REMARK    3  A    between atoms: O3_5  and  C3_6 
REMARK    4  A    between atoms: C3_6  and  C4_7 
REMARK    5  A    between atoms: C4_7  and  N1_8 
REMARK    6  A    between atoms: N2_11  and  C7_12 
REMARK    7  A    between atoms: C7_12  and  C8_13 
REMARK    8  A    between atoms: C7_12  and  C14_19 
ROOT
HETATM    1  C7  UNL     1     -31.166  12.748 -17.755  1.00  0.00     0.289 C 
ENDROOT
BRANCH   1   2
HETATM    2  N2  UNL     1     -31.271  12.629 -16.352  1.00  0.00     0.105 N 
HETATM    3  C6  UNL     1     -31.478  11.363 -15.750  1.00  0.00     0.304 C 
HETATM    4  C5  UNL     1     -31.877  11.563 -14.280  1.00  0.00     0.302 C 
HETATM    5  N1  UNL     1     -31.805  12.897 -13.818  1.00  0.00     0.093 N 
HETATM    6  C21 UNL     1     -30.746  13.717 -14.270  1.00  0.00     0.302 C 
HETATM    7  C20 UNL     1     -30.171  13.252 -15.618  1.00  0.00     0.304 C 
BRANCH   5   8
HETATM    8  C4  UNL     1     -31.882  12.943 -12.376  1.00  0.00     0.298 C 
BRANCH   8   9
HETATM    9  C3  UNL     1     -31.452  11.740 -11.632  1.00  0.00     0.198 C 
BRANCH   9  10
HETATM   10  O3  UNL     1     -30.528  12.121 -10.673  1.00  0.00    -0.379 OA
BRANCH  10  11
HETATM   11  C2  UNL     1     -29.209  12.032 -10.989  1.00  0.00     0.280 C 
BRANCH  11  12
HETATM   12  C1  UNL     1     -28.452  13.285 -10.966  1.00  0.00     0.197 C 
HETATM   13  O1  UNL     1     -28.162  13.887  -9.889  1.00  0.00    -0.646 OA
HETATM   14  O2  UNL     1     -28.024  13.865 -12.146  1.00  0.00    -0.646 OA
ENDBRANCH  11  12
ENDBRANCH  10  11
ENDBRANCH   9  10
ENDBRANCH   8   9
ENDBRANCH   5   8
ENDBRANCH   1   2
BRANCH   1  15
HETATM   15  C8  UNL     1     -31.454  11.491 -18.524  1.00  0.00    -0.021 A 
HETATM   16  C9  UNL     1     -32.717  11.138 -18.913  1.00  0.00     0.010 A 
HETATM   17  C10 UNL     1     -33.026   9.989 -19.608  1.00  0.00     0.001 A 
HETATM   18  C11 UNL     1     -32.016   9.131 -19.941  1.00  0.00     0.000 A 
HETATM   19  C12 UNL     1     -30.735   9.432 -19.578  1.00  0.00     0.001 A 
HETATM   20  C13 UNL     1     -30.452  10.587 -18.884  1.00  0.00     0.010 A 
ENDBRANCH   1  15
BRANCH   1  21
HETATM   21  C14 UNL     1     -31.814  13.912 -18.392  1.00  0.00    -0.021 A 
HETATM   22  C15 UNL     1     -31.402  14.373 -19.655  1.00  0.00     0.011 A 
HETATM   23  C16 UNL     1     -31.964  15.419 -20.309  1.00  0.00     0.024 A 
HETATM   24  C17 UNL     1     -33.004  16.101 -19.742  1.00  0.00     0.034 A 
HETATM   25 CL1  UNL     1     -33.686  17.441 -20.636  1.00  0.00    -0.084 Cl
HETATM   26  C18 UNL     1     -33.452  15.706 -18.523  1.00  0.00     0.024 A 
HETATM   27  C19 UNL     1     -32.864  14.632 -17.867  1.00  0.00     0.011 A 
ENDBRANCH   1  21
TORSDOF 8
ENDMDL
