MODEL 4
REMARK VINA RESULT: -7.242162628      3.404      5.340
REMARK  8 active torsions:
REMARK  status: ('A' for Active; 'I' for Inactive)
REMARK    1  A    between atoms: C1_2  and  C2_4 
REMARK    2  A    between atoms: C2_4  and  O3_5 
REMARK    3  A    between atoms: O3_5  and  C3_6 
REMARK    4  A    between atoms: C3_6  and  C4_7 
REMARK    5  A    between atoms: C4_7  and  N1_8 
REMARK    6  A    between atoms: N2_11  and  C7_12 
REMARK    7  A    between atoms: C7_12  and  C8_13 
REMARK    8  A    between atoms: C7_12  and  C14_19 
ROOT
HETATM    1  C7  UNL     1     -31.014  12.164 -17.592  1.00  0.00     0.289 C 
ENDROOT
BRANCH   1   2
HETATM    2  N2  UNL     1     -29.703  12.520 -17.978  1.00  0.00     0.105 N 
HETATM    3  C6  UNL     1     -28.582  11.903 -17.370  1.00  0.00     0.304 C 
HETATM    4  C5  UNL     1     -27.315  12.694 -17.731  1.00  0.00     0.302 C 
HETATM    5  N1  UNL     1     -27.505  13.729 -18.674  1.00  0.00     0.093 N 
HETATM    6  C21 UNL     1     -28.406  13.519 -19.743  1.00  0.00     0.302 C 
HETATM    7  C20 UNL     1     -29.469  12.456 -19.420  1.00  0.00     0.304 C 
BRANCH   5   8
HETATM    8  C4  UNL     1     -26.236  14.195 -19.184  1.00  0.00     0.298 C 
BRANCH   8   9
HETATM    9  C3  UNL     1     -25.011  13.677 -18.539  1.00  0.00     0.198 C 
BRANCH   9  10
HETATM   10  O3  UNL     1     -24.606  14.580 -17.570  1.00  0.00    -0.379 OA
BRANCH  10  11
HETATM   11  C2  UNL     1     -23.899  14.103 -16.512  1.00  0.00     0.280 C 
BRANCH  11  12
HETATM   12  C1  UNL     1     -24.674  13.441 -15.461  1.00  0.00     0.197 C 
HETATM   13  O1  UNL     1     -25.557  14.045 -14.781  1.00  0.00    -0.646 OA
HETATM   14  O2  UNL     1     -24.460  12.106 -15.169  1.00  0.00    -0.646 OA
ENDBRANCH  11  12
ENDBRANCH  10  11
ENDBRANCH   9  10
ENDBRANCH   8   9
ENDBRANCH   5   8
ENDBRANCH   1   2
BRANCH   1  15
HETATM   15  C8  UNL     1     -31.203  11.929 -16.121  1.00  0.00    -0.021 A 
HETATM   16  C9  UNL     1     -30.995  12.906 -15.186  1.00  0.00     0.010 A 
HETATM   17  C10 UNL     1     -31.146  12.729 -13.828  1.00  0.00     0.001 A 
HETATM   18  C11 UNL     1     -31.527  11.501 -13.363  1.00  0.00     0.000 A 
HETATM   19  C12 UNL     1     -31.748  10.489 -14.252  1.00  0.00     0.001 A 
HETATM   20  C13 UNL     1     -31.591  10.690 -15.604  1.00  0.00     0.010 A 
ENDBRANCH   1  15
BRANCH   1  21
HETATM   21  C14 UNL     1     -32.128  12.963 -18.142  1.00  0.00    -0.021 A 
HETATM   22  C15 UNL     1     -33.264  12.345 -18.694  1.00  0.00     0.011 A 
HETATM   23  C16 UNL     1     -34.331  13.013 -19.197  1.00  0.00     0.024 A 
HETATM   24  C17 UNL     1     -34.349  14.379 -19.186  1.00  0.00     0.034 A 
HETATM   25 CL1  UNL     1     -35.755  15.183 -19.848  1.00  0.00    -0.084 Cl
HETATM   26  C18 UNL     1     -33.283  15.039 -18.666  1.00  0.00     0.024 A 
HETATM   27  C19 UNL     1     -32.198  14.338 -18.155  1.00  0.00     0.011 A 
ENDBRANCH   1  21
TORSDOF 8
ENDMDL
