MODEL 1
REMARK VINA RESULT: -7.372656624      0.000      0.000
REMARK  8 active torsions:
REMARK  status: ('A' for Active; 'I' for Inactive)
REMARK    1  A    between atoms: C1_2  and  C2_4 
REMARK    2  A    between atoms: C2_4  and  O3_5 
REMARK    3  A    between atoms: O3_5  and  C3_6 
REMARK    4  A    between atoms: C3_6  and  C4_7 
REMARK    5  A    between atoms: C4_7  and  N1_8 
REMARK    6  A    between atoms: N2_11  and  C7_12 
REMARK    7  A    between atoms: C7_12  and  C8_13 
REMARK    8  A    between atoms: C7_12  and  C14_19 
ROOT
HETATM    1  C7  UNL     1     -31.163  12.718 -17.726  1.00  0.00     0.289 C 
ENDROOT
BRANCH   1   2
HETATM    2  N2  UNL     1     -31.261  12.601 -16.323  1.00  0.00     0.105 N 
HETATM    3  C6  UNL     1     -31.483  11.338 -15.719  1.00  0.00     0.304 C 
HETATM    4  C5  UNL     1     -31.870  11.544 -14.247  1.00  0.00     0.302 C 
HETATM    5  N1  UNL     1     -31.776  12.877 -13.785  1.00  0.00     0.093 N 
HETATM    6  C21 UNL     1     -30.708  13.682 -14.244  1.00  0.00     0.302 C 
HETATM    7  C20 UNL     1     -30.148  13.208 -15.595  1.00  0.00     0.304 C 
BRANCH   5   8
HETATM    8  C4  UNL     1     -31.844  12.924 -12.343  1.00  0.00     0.298 C 
BRANCH   8   9
HETATM    9  C3  UNL     1     -31.387  11.730 -11.600  1.00  0.00     0.198 C 
BRANCH   9  10
HETATM   10  O3  UNL     1     -30.489  12.134 -10.625  1.00  0.00    -0.379 OA
BRANCH  10  11
HETATM   11  C2  UNL     1     -29.168  12.148 -10.944  1.00  0.00     0.280 C 
BRANCH  11  12
HETATM   12  C1  UNL     1     -28.505  13.452 -10.899  1.00  0.00     0.197 C 
HETATM   13  O1  UNL     1     -27.287  13.609 -11.213  1.00  0.00    -0.646 OA
HETATM   14  O2  UNL     1     -29.201  14.578 -10.500  1.00  0.00    -0.646 OA
ENDBRANCH  11  12
ENDBRANCH  10  11
ENDBRANCH   9  10
ENDBRANCH   8   9
ENDBRANCH   5   8
ENDBRANCH   1   2
BRANCH   1  15
HETATM   15  C8  UNL     1     -31.466  11.463 -18.493  1.00  0.00    -0.021 A 
HETATM   16  C9  UNL     1     -30.493  10.581 -18.878  1.00  0.00     0.010 A 
HETATM   17  C10 UNL     1     -30.726   9.426 -19.591  1.00  0.00     0.001 A 
HETATM   18  C11 UNL     1     -32.011   9.122 -19.948  1.00  0.00     0.000 A 
HETATM   19  C12 UNL     1     -33.022   9.965 -19.590  1.00  0.00     0.001 A 
HETATM   20  C13 UNL     1     -32.763  11.115 -18.877  1.00  0.00     0.010 A 
ENDBRANCH   1  15
BRANCH   1  21
HETATM   21  C14 UNL     1     -31.805  13.886 -18.361  1.00  0.00    -0.021 A 
HETATM   22  C15 UNL     1     -31.420  14.323 -19.641  1.00  0.00     0.011 A 
HETATM   23  C16 UNL     1     -31.979  15.371 -20.293  1.00  0.00     0.024 A 
HETATM   24  C17 UNL     1     -32.987  16.082 -19.706  1.00  0.00     0.034 A 
HETATM   25 CL1  UNL     1     -33.667  17.425 -20.599  1.00  0.00    -0.084 Cl
HETATM   26  C18 UNL     1     -33.408  15.714 -18.469  1.00  0.00     0.024 A 
HETATM   27  C19 UNL     1     -32.824  14.635 -17.816  1.00  0.00     0.011 A 
ENDBRANCH   1  21
TORSDOF 8
ENDMDL
