MODEL 1
REMARK VINA RESULT: -10.029058610      0.000      0.000
REMARK  10 active torsions:
REMARK  status: ('A' for Active; 'I' for Inactive)
REMARK    1  A    between atoms: C2_2  and  O1_3 
REMARK    2  A    between atoms: C2_2  and  C3_5 
REMARK    3  A    between atoms: C2_2  and  C4_8 
REMARK    4  A    between atoms: C4_8  and  N1_9 
REMARK    5  A    between atoms: C4_8  and  C22_30 
REMARK       I    between atoms: N1_9  and  C5_11 
REMARK    6  A    between atoms: C5_11  and  C6_13 
REMARK    7  A    between atoms: C9_16  and  C10_17 
REMARK    8  A    between atoms: C11_18  and  C12_19 
REMARK    9  A    between atoms: C13_20  and  C14_21 
REMARK       I    between atoms: C22_30  and  N3_32 
REMARK   10  A    between atoms: N3_32  and  O4_34 
ROOT
HETATM    1  N1  UNL     1     -24.805  11.378  -7.222  1.00  0.00    -0.341 N 
ATOM      2  H1  UNL     1     -24.188  12.166  -7.424  1.00  0.00     0.163 HD
HETATM    3  C5  UNL     1     -25.867  11.598  -6.314  1.00  0.00     0.252 C 
HETATM    4  O2  UNL     1     -26.648  10.618  -6.042  1.00  0.00    -0.268 OA
ENDROOT
BRANCH   3   5
HETATM    5  C6  UNL     1     -26.115  12.886  -5.674  1.00  0.00     0.032 A 
HETATM    6  C7  UNL     1     -25.212  13.937  -5.807  1.00  0.00     0.018 A 
HETATM    7  C8  UNL     1     -25.408  15.167  -5.220  1.00  0.00     0.022 A 
HETATM    8  C9  UNL     1     -26.536  15.407  -4.462  1.00  0.00     0.018 A 
HETATM    9  C20 UNL     1     -27.435  14.374  -4.324  1.00  0.00     0.022 A 
HETATM   10  C21 UNL     1     -27.236  13.121  -4.920  1.00  0.00     0.018 A 
BRANCH   8  11
HETATM   11  C10 UNL     1     -26.768  16.685  -3.835  1.00  0.00    -0.053 C 
HETATM   12  C11 UNL     1     -26.963  17.763  -3.329  1.00  0.00    -0.009 C 
BRANCH  12  13
HETATM   13  C12 UNL     1     -27.191  19.045  -2.757  1.00  0.00    -0.009 C 
HETATM   14  C13 UNL     1     -27.403  20.141  -2.279  1.00  0.00    -0.053 C 
BRANCH  14  15
HETATM   15  C14 UNL     1     -27.679  21.430  -1.709  1.00  0.00     0.018 A 
HETATM   16  C15 UNL     1     -26.964  22.543  -2.103  1.00  0.00     0.022 A 
HETATM   17  C16 UNL     1     -27.228  23.791  -1.554  1.00  0.00     0.028 A 
HETATM   18  C17 UNL     1     -28.208  23.975  -0.600  1.00  0.00     0.046 A 
HETATM   19  N2  UNL     1     -28.468  25.271  -0.043  1.00  0.00    -0.102 NA
HETATM   20  C18 UNL     1     -28.923  22.863  -0.207  1.00  0.00     0.028 A 
HETATM   21  C19 UNL     1     -28.657  21.613  -0.756  1.00  0.00     0.022 A 
ENDBRANCH  14  15
ENDBRANCH  12  13
ENDBRANCH   8  11
ENDBRANCH   3   5
BRANCH   1  22
HETATM   22  C4  UNL     1     -24.524  10.124  -7.888  1.00  0.00     0.218 C 
BRANCH  22  23
HETATM   23  C2  UNL     1     -23.899  10.288  -9.222  1.00  0.00     0.142 C 
HETATM   24  C1  UNL     1     -24.243   9.111 -10.100  1.00  0.00     0.054 C 
BRANCH  23  25
HETATM   25  O1  UNL     1     -22.502  10.373  -9.165  1.00  0.00    -0.382 OA
ATOM     26  H1  UNL     1     -22.249  11.184  -9.588  1.00  0.00     0.210 HD
ENDBRANCH  23  25
BRANCH  23  27
HETATM   27  C3  UNL     1     -24.421  11.520  -9.954  1.00  0.00     0.389 C 
HETATM   28  F1  UNL     1     -25.194  11.159 -11.041  1.00  0.00    -0.211 F 
HETATM   29  F2  UNL     1     -23.404  12.331 -10.364  1.00  0.00    -0.211 F 
ENDBRANCH  23  27
ENDBRANCH  22  23
BRANCH  22  30
HETATM   30  C22 UNL     1     -23.766   9.190  -7.027  1.00  0.00     0.267 C 
HETATM   31  O3  UNL     1     -22.513   9.099  -7.127  1.00  0.00    -0.269 OA
HETATM   32  N3  UNL     1     -24.358   8.348  -6.049  1.00  0.00    -0.236 N 
ATOM     33  H3  UNL     1     -25.187   7.793  -6.261  1.00  0.00     0.197 HD
BRANCH  32  34
HETATM   34  O4  UNL     1     -23.829   8.311  -4.922  1.00  0.00    -0.287 OA
ATOM     35  H4  UNL     1     -24.342   7.956  -4.205  1.00  0.00     0.244 HD
ENDBRANCH  32  34
ENDBRANCH  22  30
ENDBRANCH   1  22
TORSDOF 10
ENDMDL
