MODEL 3
REMARK VINA RESULT: -9.494309644      1.201      1.440
REMARK  10 active torsions:
REMARK  status: ('A' for Active; 'I' for Inactive)
REMARK    1  A    between atoms: C2_2  and  O1_3 
REMARK    2  A    between atoms: C2_2  and  C3_5 
REMARK    3  A    between atoms: C2_2  and  C4_8 
REMARK    4  A    between atoms: C4_8  and  N1_9 
REMARK    5  A    between atoms: C4_8  and  C22_30 
REMARK       I    between atoms: N1_9  and  C5_11 
REMARK    6  A    between atoms: C5_11  and  C6_13 
REMARK    7  A    between atoms: C9_16  and  C10_17 
REMARK    8  A    between atoms: C11_18  and  C12_19 
REMARK    9  A    between atoms: C13_20  and  C14_21 
REMARK       I    between atoms: C22_30  and  N3_32 
REMARK   10  A    between atoms: N3_32  and  O4_34 
ROOT
HETATM    1  N1  UNL     1     -25.629  11.343  -6.816  1.00  0.00    -0.341 N 
ATOM      2  H1  UNL     1     -25.179  12.103  -7.326  1.00  0.00     0.163 HD
HETATM    3  C5  UNL     1     -26.345  11.680  -5.644  1.00  0.00     0.252 C 
HETATM    4  O2  UNL     1     -26.911  10.737  -4.984  1.00  0.00    -0.268 OA
ENDROOT
BRANCH   3   5
HETATM    5  C6  UNL     1     -26.470  13.048  -5.151  1.00  0.00     0.032 A 
HETATM    6  C7  UNL     1     -25.423  13.955  -5.286  1.00  0.00     0.018 A 
HETATM    7  C8  UNL     1     -25.500  15.255  -4.837  1.00  0.00     0.022 A 
HETATM    8  C9  UNL     1     -26.648  15.714  -4.222  1.00  0.00     0.018 A 
HETATM    9  C20 UNL     1     -27.689  14.825  -4.085  1.00  0.00     0.022 A 
HETATM   10  C21 UNL     1     -27.611  13.501  -4.541  1.00  0.00     0.018 A 
BRANCH   8  11
HETATM   11  C10 UNL     1     -26.757  17.070  -3.741  1.00  0.00    -0.053 C 
HETATM   12  C11 UNL     1     -26.856  18.208  -3.356  1.00  0.00    -0.009 C 
BRANCH  12  13
HETATM   13  C12 UNL     1     -26.980  19.559  -2.927  1.00  0.00    -0.009 C 
HETATM   14  C13 UNL     1     -27.087  20.718  -2.580  1.00  0.00    -0.053 C 
BRANCH  14  15
HETATM   15  C14 UNL     1     -27.233  22.091  -2.187  1.00  0.00     0.018 A 
HETATM   16  C15 UNL     1     -27.479  23.072  -3.128  1.00  0.00     0.022 A 
HETATM   17  C16 UNL     1     -27.621  24.401  -2.751  1.00  0.00     0.028 A 
HETATM   18  C17 UNL     1     -27.526  24.799  -1.433  1.00  0.00     0.046 A 
HETATM   19  N2  UNL     1     -27.675  26.176  -1.061  1.00  0.00    -0.102 NA
HETATM   20  C18 UNL     1     -27.281  23.820  -0.493  1.00  0.00     0.028 A 
HETATM   21  C19 UNL     1     -27.138  22.489  -0.872  1.00  0.00     0.022 A 
ENDBRANCH  14  15
ENDBRANCH  12  13
ENDBRANCH   8  11
ENDBRANCH   3   5
BRANCH   1  22
HETATM   22  C4  UNL     1     -25.484  10.004  -7.348  1.00  0.00     0.218 C 
BRANCH  22  23
HETATM   23  C2  UNL     1     -25.488   9.952  -8.830  1.00  0.00     0.142 C 
HETATM   24  C1  UNL     1     -26.905   9.839  -9.336  1.00  0.00     0.054 C 
BRANCH  23  25
HETATM   25  O1  UNL     1     -24.774   8.861  -9.341  1.00  0.00    -0.382 OA
ATOM     26  H1  UNL     1     -23.850   9.073  -9.280  1.00  0.00     0.210 HD
ENDBRANCH  23  25
BRANCH  23  27
HETATM   27  C3  UNL     1     -24.924  11.225  -9.452  1.00  0.00     0.389 C 
HETATM   28  F1  UNL     1     -25.845  11.814 -10.295  1.00  0.00    -0.211 F 
HETATM   29  F2  UNL     1     -23.767  10.982 -10.133  1.00  0.00    -0.211 F 
ENDBRANCH  23  27
ENDBRANCH  22  23
BRANCH  22  30
HETATM   30  C22 UNL     1     -24.324   9.294  -6.767  1.00  0.00     0.267 C 
HETATM   31  O3  UNL     1     -24.475   8.507  -5.794  1.00  0.00    -0.269 OA
HETATM   32  N3  UNL     1     -22.990   9.428  -7.236  1.00  0.00    -0.236 N 
ATOM     33  H3  UNL     1     -22.587  10.344  -7.426  1.00  0.00     0.197 HD
BRANCH  32  34
HETATM   34  O4  UNL     1     -22.331   8.384  -7.408  1.00  0.00    -0.287 OA
ATOM     35  H4  UNL     1     -22.251   8.055  -8.295  1.00  0.00     0.244 HD
ENDBRANCH  32  34
ENDBRANCH  22  30
ENDBRANCH   1  22
TORSDOF 10
ENDMDL
