MODEL 16
REMARK VINA RESULT: -7.838729840      6.660     13.308
REMARK  10 active torsions:
REMARK  status: ('A' for Active; 'I' for Inactive)
REMARK    1  A    between atoms: C2_2  and  O1_3 
REMARK    2  A    between atoms: C2_2  and  C3_5 
REMARK    3  A    between atoms: C2_2  and  C4_8 
REMARK    4  A    between atoms: C4_8  and  N1_9 
REMARK    5  A    between atoms: C4_8  and  C22_30 
REMARK       I    between atoms: N1_9  and  C5_11 
REMARK    6  A    between atoms: C5_11  and  C6_13 
REMARK    7  A    between atoms: C9_16  and  C10_17 
REMARK    8  A    between atoms: C11_18  and  C12_19 
REMARK    9  A    between atoms: C13_20  and  C14_21 
REMARK       I    between atoms: C22_30  and  N3_32 
REMARK   10  A    between atoms: N3_32  and  O4_34 
ROOT
HETATM    1  N1  UNL     1     -29.031  22.280  -1.595  1.00  0.00    -0.341 N 
ATOM      2  H1  UNL     1     -29.132  22.231  -2.609  1.00  0.00     0.163 HD
HETATM    3  C5  UNL     1     -28.538  21.132  -0.933  1.00  0.00     0.252 C 
HETATM    4  O2  UNL     1     -28.412  21.172   0.343  1.00  0.00    -0.268 OA
ENDROOT
BRANCH   3   5
HETATM    5  C6  UNL     1     -28.166  19.906  -1.633  1.00  0.00     0.032 A 
HETATM    6  C7  UNL     1     -27.197  19.918  -2.631  1.00  0.00     0.018 A 
HETATM    7  C8  UNL     1     -26.816  18.785  -3.315  1.00  0.00     0.022 A 
HETATM    8  C9  UNL     1     -27.397  17.567  -3.025  1.00  0.00     0.018 A 
HETATM    9  C20 UNL     1     -28.356  17.544  -2.039  1.00  0.00     0.022 A 
HETATM   10  C21 UNL     1     -28.745  18.698  -1.343  1.00  0.00     0.018 A 
BRANCH   8  11
HETATM   11  C10 UNL     1     -27.019  16.363  -3.725  1.00  0.00    -0.053 C 
HETATM   12  C11 UNL     1     -26.696  15.369  -4.326  1.00  0.00    -0.009 C 
BRANCH  12  13
HETATM   13  C12 UNL     1     -26.310  14.211  -5.055  1.00  0.00    -0.009 C 
HETATM   14  C13 UNL     1     -25.968  13.233  -5.690  1.00  0.00    -0.053 C 
BRANCH  14  15
HETATM   15  C14 UNL     1     -25.537  12.085  -6.437  1.00  0.00     0.018 A 
HETATM   16  C15 UNL     1     -25.748  12.010  -7.800  1.00  0.00     0.022 A 
HETATM   17  C16 UNL     1     -25.333  10.901  -8.525  1.00  0.00     0.028 A 
HETATM   18  C17 UNL     1     -24.697   9.833  -7.925  1.00  0.00     0.046 A 
HETATM   19  N2  UNL     1     -24.276   8.696  -8.689  1.00  0.00    -0.102 NA
HETATM   20  C18 UNL     1     -24.487   9.908  -6.564  1.00  0.00     0.028 A 
HETATM   21  C19 UNL     1     -24.904  11.018  -5.838  1.00  0.00     0.022 A 
ENDBRANCH  14  15
ENDBRANCH  12  13
ENDBRANCH   8  11
ENDBRANCH   3   5
BRANCH   1  22
HETATM   22  C4  UNL     1     -29.405  23.520  -0.947  1.00  0.00     0.218 C 
BRANCH  22  23
HETATM   23  C2  UNL     1     -29.098  24.726  -1.753  1.00  0.00     0.142 C 
HETATM   24  C1  UNL     1     -27.922  25.458  -1.157  1.00  0.00     0.054 C 
BRANCH  23  25
HETATM   25  O1  UNL     1     -30.167  25.630  -1.813  1.00  0.00    -0.382 OA
ATOM     26  H1  UNL     1     -29.994  26.228  -2.529  1.00  0.00     0.210 HD
ENDBRANCH  23  25
BRANCH  23  27
HETATM   27  C3  UNL     1     -28.691  24.375  -3.180  1.00  0.00     0.389 C 
HETATM   28  F1  UNL     1     -27.317  24.382  -3.318  1.00  0.00    -0.211 F 
HETATM   29  F2  UNL     1     -29.247  25.229  -4.087  1.00  0.00    -0.211 F 
ENDBRANCH  23  27
ENDBRANCH  22  23
BRANCH  22  30
HETATM   30  C22 UNL     1     -30.806  23.504  -0.475  1.00  0.00     0.267 C 
HETATM   31  O3  UNL     1     -31.711  22.967  -1.169  1.00  0.00    -0.269 OA
HETATM   32  N3  UNL     1     -31.241  24.070   0.753  1.00  0.00    -0.236 N 
ATOM     33  H3  UNL     1     -30.946  25.003   1.038  1.00  0.00     0.197 HD
BRANCH  32  34
HETATM   34  O4  UNL     1     -31.996  23.384   1.469  1.00  0.00    -0.287 OA
ATOM     35  H4  UNL     1     -32.619  22.815   1.033  1.00  0.00     0.244 HD
ENDBRANCH  32  34
ENDBRANCH  22  30
ENDBRANCH   1  22
TORSDOF 10
ENDMDL
