MODEL 4
REMARK VINA RESULT: -9.490915563      1.137      1.391
REMARK  10 active torsions:
REMARK  status: ('A' for Active; 'I' for Inactive)
REMARK    1  A    between atoms: C2_2  and  O1_3 
REMARK    2  A    between atoms: C2_2  and  C3_5 
REMARK    3  A    between atoms: C2_2  and  C4_8 
REMARK    4  A    between atoms: C4_8  and  N1_9 
REMARK    5  A    between atoms: C4_8  and  C22_30 
REMARK       I    between atoms: N1_9  and  C5_11 
REMARK    6  A    between atoms: C5_11  and  C6_13 
REMARK    7  A    between atoms: C9_16  and  C10_17 
REMARK    8  A    between atoms: C11_18  and  C12_19 
REMARK    9  A    between atoms: C13_20  and  C14_21 
REMARK       I    between atoms: C22_30  and  N3_32 
REMARK   10  A    between atoms: N3_32  and  O4_34 
ROOT
HETATM    1  N1  UNL     1     -25.200  11.438  -7.438  1.00  0.00    -0.341 N 
ATOM      2  H1  UNL     1     -24.808  12.284  -7.853  1.00  0.00     0.163 HD
HETATM    3  C5  UNL     1     -25.954  11.584  -6.250  1.00  0.00     0.252 C 
HETATM    4  O2  UNL     1     -26.447  10.530  -5.710  1.00  0.00    -0.268 OA
ENDROOT
BRANCH   3   5
HETATM    5  C6  UNL     1     -26.196  12.874  -5.613  1.00  0.00     0.032 A 
HETATM    6  C7  UNL     1     -25.242  13.886  -5.660  1.00  0.00     0.018 A 
HETATM    7  C8  UNL     1     -25.431  15.117  -5.074  1.00  0.00     0.022 A 
HETATM    8  C9  UNL     1     -26.604  15.397  -4.402  1.00  0.00     0.018 A 
HETATM    9  C20 UNL     1     -27.555  14.404  -4.351  1.00  0.00     0.022 A 
HETATM   10  C21 UNL     1     -27.363  13.149  -4.947  1.00  0.00     0.018 A 
BRANCH   8  11
HETATM   11  C10 UNL     1     -26.830  16.678  -3.777  1.00  0.00    -0.053 C 
HETATM   12  C11 UNL     1     -27.019  17.758  -3.273  1.00  0.00    -0.009 C 
BRANCH  12  13
HETATM   13  C12 UNL     1     -27.237  19.042  -2.703  1.00  0.00    -0.009 C 
HETATM   14  C13 UNL     1     -27.424  20.147  -2.234  1.00  0.00    -0.053 C 
BRANCH  14  15
HETATM   15  C14 UNL     1     -27.664  21.457  -1.697  1.00  0.00     0.018 A 
HETATM   16  C15 UNL     1     -26.993  22.557  -2.195  1.00  0.00     0.022 A 
HETATM   17  C16 UNL     1     -27.223  23.825  -1.678  1.00  0.00     0.028 A 
HETATM   18  C17 UNL     1     -28.123  24.043  -0.655  1.00  0.00     0.046 A 
HETATM   19  N2  UNL     1     -28.348  25.360  -0.133  1.00  0.00    -0.102 NA
HETATM   20  C18 UNL     1     -28.793  22.946  -0.158  1.00  0.00     0.028 A 
HETATM   21  C19 UNL     1     -28.562  21.675  -0.675  1.00  0.00     0.022 A 
ENDBRANCH  14  15
ENDBRANCH  12  13
ENDBRANCH   8  11
ENDBRANCH   3   5
BRANCH   1  22
HETATM   22  C4  UNL     1     -24.939  10.183  -8.111  1.00  0.00     0.218 C 
BRANCH  22  23
HETATM   23  C2  UNL     1     -25.323  10.188  -9.543  1.00  0.00     0.142 C 
HETATM   24  C1  UNL     1     -25.047   8.836 -10.154  1.00  0.00     0.054 C 
BRANCH  23  25
HETATM   25  O1  UNL     1     -24.620  11.138 -10.295  1.00  0.00    -0.382 OA
ATOM     26  H1  UNL     1     -24.350  11.827  -9.700  1.00  0.00     0.210 HD
ENDBRANCH  23  25
BRANCH  23  27
HETATM   27  C3  UNL     1     -26.816  10.436  -9.738  1.00  0.00     0.389 C 
HETATM   28  F1  UNL     1     -27.089  11.788  -9.794  1.00  0.00    -0.211 F 
HETATM   29  F2  UNL     1     -27.555   9.859  -8.747  1.00  0.00    -0.211 F 
ENDBRANCH  23  27
ENDBRANCH  22  23
BRANCH  22  30
HETATM   30  C22 UNL     1     -23.551   9.716  -7.906  1.00  0.00     0.267 C 
HETATM   31  O3  UNL     1     -22.586  10.313  -8.454  1.00  0.00    -0.269 OA
HETATM   32  N3  UNL     1     -23.195   8.597  -7.106  1.00  0.00    -0.236 N 
ATOM     33  H3  UNL     1     -23.693   7.711  -7.186  1.00  0.00     0.197 HD
BRANCH  32  34
HETATM   34  O4  UNL     1     -22.254   8.738  -6.303  1.00  0.00    -0.287 OA
ATOM     35  H4  UNL     1     -22.032   7.999  -5.750  1.00  0.00     0.244 HD
ENDBRANCH  32  34
ENDBRANCH  22  30
ENDBRANCH   1  22
TORSDOF 10
ENDMDL
