MODEL 2
REMARK VINA RESULT: -10.019196485      0.048      1.197
REMARK  10 active torsions:
REMARK  status: ('A' for Active; 'I' for Inactive)
REMARK    1  A    between atoms: C2_2  and  O1_3 
REMARK    2  A    between atoms: C2_2  and  C3_5 
REMARK    3  A    between atoms: C2_2  and  C4_8 
REMARK    4  A    between atoms: C4_8  and  N1_9 
REMARK    5  A    between atoms: C4_8  and  C22_30 
REMARK       I    between atoms: N1_9  and  C5_11 
REMARK    6  A    between atoms: C5_11  and  C6_13 
REMARK    7  A    between atoms: C9_16  and  C10_17 
REMARK    8  A    between atoms: C11_18  and  C12_19 
REMARK    9  A    between atoms: C13_20  and  C14_21 
REMARK       I    between atoms: C22_30  and  N3_32 
REMARK   10  A    between atoms: N3_32  and  O4_34 
ROOT
HETATM    1  N1  UNL     1     -24.778  11.403  -7.242  1.00  0.00    -0.341 N 
ATOM      2  H1  UNL     1     -24.147  12.178  -7.447  1.00  0.00     0.163 HD
HETATM    3  C5  UNL     1     -25.838  11.646  -6.339  1.00  0.00     0.252 C 
HETATM    4  O2  UNL     1     -26.637  10.681  -6.064  1.00  0.00    -0.268 OA
ENDROOT
BRANCH   3   5
HETATM    5  C6  UNL     1     -26.065  12.942  -5.707  1.00  0.00     0.032 A 
HETATM    6  C7  UNL     1     -27.175  13.157  -4.895  1.00  0.00     0.018 A 
HETATM    7  C8  UNL     1     -27.426  14.363  -4.279  1.00  0.00     0.022 A 
HETATM    8  C9  UNL     1     -26.563  15.427  -4.450  1.00  0.00     0.018 A 
HETATM    9  C20 UNL     1     -25.462  15.224  -5.251  1.00  0.00     0.022 A 
HETATM   10  C21 UNL     1     -25.206  13.997  -5.879  1.00  0.00     0.018 A 
BRANCH   8  11
HETATM   11  C10 UNL     1     -26.800  16.703  -3.819  1.00  0.00    -0.053 C 
HETATM   12  C11 UNL     1     -26.996  17.778  -3.310  1.00  0.00    -0.009 C 
BRANCH  12  13
HETATM   13  C12 UNL     1     -27.221  19.058  -2.731  1.00  0.00    -0.009 C 
HETATM   14  C13 UNL     1     -27.418  20.158  -2.256  1.00  0.00    -0.053 C 
BRANCH  14  15
HETATM   15  C14 UNL     1     -27.675  21.460  -1.706  1.00  0.00     0.018 A 
HETATM   16  C15 UNL     1     -28.648  21.640  -0.744  1.00  0.00     0.022 A 
HETATM   17  C16 UNL     1     -28.898  22.898  -0.211  1.00  0.00     0.028 A 
HETATM   18  C17 UNL     1     -28.194  24.014  -0.614  1.00  0.00     0.046 A 
HETATM   19  N2  UNL     1     -28.466  25.305  -0.053  1.00  0.00    -0.102 NA
HETATM   20  C18 UNL     1     -27.222  23.834  -1.575  1.00  0.00     0.028 A 
HETATM   21  C19 UNL     1     -26.972  22.574  -2.109  1.00  0.00     0.022 A 
ENDBRANCH  14  15
ENDBRANCH  12  13
ENDBRANCH   8  11
ENDBRANCH   3   5
BRANCH   1  22
HETATM   22  C4  UNL     1     -24.517  10.140  -7.900  1.00  0.00     0.218 C 
BRANCH  22  23
HETATM   23  C2  UNL     1     -23.890  10.286  -9.236  1.00  0.00     0.142 C 
HETATM   24  C1  UNL     1     -24.236   9.098 -10.099  1.00  0.00     0.054 C 
BRANCH  23  25
HETATM   25  O1  UNL     1     -22.493  10.368  -9.178  1.00  0.00    -0.382 OA
ATOM     26  H1  UNL     1     -22.238  11.175  -9.609  1.00  0.00     0.210 HD
ENDBRANCH  23  25
BRANCH  23  27
HETATM   27  C3  UNL     1     -24.409  11.509  -9.984  1.00  0.00     0.389 C 
HETATM   28  F1  UNL     1     -25.141  11.136 -11.095  1.00  0.00    -0.211 F 
HETATM   29  F2  UNL     1     -23.394  12.338 -10.360  1.00  0.00    -0.211 F 
ENDBRANCH  23  27
ENDBRANCH  22  23
BRANCH  22  30
HETATM   30  C22 UNL     1     -23.772   9.201  -7.033  1.00  0.00     0.267 C 
HETATM   31  O3  UNL     1     -22.521   9.087  -7.136  1.00  0.00    -0.269 OA
HETATM   32  N3  UNL     1     -24.376   8.376  -6.047  1.00  0.00    -0.236 N 
ATOM     33  H3  UNL     1     -25.214   7.834  -6.253  1.00  0.00     0.197 HD
BRANCH  32  34
HETATM   34  O4  UNL     1     -23.844   8.340  -4.921  1.00  0.00    -0.287 OA
ATOM     35  H4  UNL     1     -23.934   9.106  -4.366  1.00  0.00     0.244 HD
ENDBRANCH  32  34
ENDBRANCH  22  30
ENDBRANCH   1  22
TORSDOF 10
ENDMDL
