MODEL 6
REMARK VINA RESULT: -9.307446711      1.090      1.729
REMARK  10 active torsions:
REMARK  status: ('A' for Active; 'I' for Inactive)
REMARK    1  A    between atoms: C2_2  and  O1_3 
REMARK    2  A    between atoms: C2_2  and  C3_5 
REMARK    3  A    between atoms: C2_2  and  C4_8 
REMARK    4  A    between atoms: C4_8  and  N1_9 
REMARK    5  A    between atoms: C4_8  and  C22_30 
REMARK       I    between atoms: N1_9  and  C5_11 
REMARK    6  A    between atoms: C5_11  and  C6_13 
REMARK    7  A    between atoms: C9_16  and  C10_17 
REMARK    8  A    between atoms: C11_18  and  C12_19 
REMARK    9  A    between atoms: C13_20  and  C14_21 
REMARK       I    between atoms: C22_30  and  N3_32 
REMARK   10  A    between atoms: N3_32  and  O4_34 
ROOT
HETATM    1  N1  UNL     1     -25.129  11.485  -7.505  1.00  0.00    -0.341 N 
ATOM      2  H1  UNL     1     -24.717  12.321  -7.922  1.00  0.00     0.163 HD
HETATM    3  C5  UNL     1     -25.893  11.655  -6.327  1.00  0.00     0.252 C 
HETATM    4  O2  UNL     1     -26.413  10.615  -5.784  1.00  0.00    -0.268 OA
ENDROOT
BRANCH   3   5
HETATM    5  C6  UNL     1     -26.118  12.954  -5.702  1.00  0.00     0.032 A 
HETATM    6  C7  UNL     1     -25.234  14.009  -5.907  1.00  0.00     0.018 A 
HETATM    7  C8  UNL     1     -25.409  15.251  -5.338  1.00  0.00     0.022 A 
HETATM    8  C9  UNL     1     -26.496  15.498  -4.523  1.00  0.00     0.018 A 
HETATM    9  C20 UNL     1     -27.377  14.461  -4.314  1.00  0.00     0.022 A 
HETATM   10  C21 UNL     1     -27.199  13.196  -4.893  1.00  0.00     0.018 A 
BRANCH   8  11
HETATM   11  C10 UNL     1     -26.706  16.788  -3.912  1.00  0.00    -0.053 C 
HETATM   12  C11 UNL     1     -26.901  17.862  -3.401  1.00  0.00    -0.009 C 
BRANCH  12  13
HETATM   13  C12 UNL     1     -27.158  19.126  -2.799  1.00  0.00    -0.009 C 
HETATM   14  C13 UNL     1     -27.394  20.197  -2.279  1.00  0.00    -0.053 C 
BRANCH  14  15
HETATM   15  C14 UNL     1     -27.679  21.452  -1.640  1.00  0.00     0.018 A 
HETATM   16  C15 UNL     1     -28.672  21.547  -0.685  1.00  0.00     0.022 A 
HETATM   17  C16 UNL     1     -28.950  22.759  -0.066  1.00  0.00     0.028 A 
HETATM   18  C17 UNL     1     -28.255  23.911  -0.373  1.00  0.00     0.046 A 
HETATM   19  N2  UNL     1     -28.556  25.154   0.276  1.00  0.00    -0.102 NA
HETATM   20  C18 UNL     1     -27.264  23.816  -1.326  1.00  0.00     0.028 A 
HETATM   21  C19 UNL     1     -26.986  22.602  -1.947  1.00  0.00     0.022 A 
ENDBRANCH  14  15
ENDBRANCH  12  13
ENDBRANCH   8  11
ENDBRANCH   3   5
BRANCH   1  22
HETATM   22  C4  UNL     1     -24.886  10.221  -8.166  1.00  0.00     0.218 C 
BRANCH  22  23
HETATM   23  C2  UNL     1     -25.258  10.221  -9.601  1.00  0.00     0.142 C 
HETATM   24  C1  UNL     1     -24.852  11.526 -10.238  1.00  0.00     0.054 C 
BRANCH  23  25
HETATM   25  O1  UNL     1     -26.635  10.064  -9.809  1.00  0.00    -0.382 OA
ATOM     26  H1  UNL     1     -27.023   9.831  -8.974  1.00  0.00     0.210 HD
ENDBRANCH  23  25
BRANCH  23  27
HETATM   27  C3  UNL     1     -24.531   9.132 -10.384  1.00  0.00     0.389 C 
HETATM   28  F1  UNL     1     -24.039   9.625 -11.576  1.00  0.00    -0.211 F 
HETATM   29  F2  UNL     1     -25.341   8.062 -10.629  1.00  0.00    -0.211 F 
ENDBRANCH  23  27
ENDBRANCH  22  23
BRANCH  22  30
HETATM   30  C22 UNL     1     -23.507   9.731  -7.946  1.00  0.00     0.267 C 
HETATM   31  O3  UNL     1     -22.526  10.319  -8.476  1.00  0.00    -0.269 OA
HETATM   32  N3  UNL     1     -23.179   8.601  -7.152  1.00  0.00    -0.236 N 
ATOM     33  H3  UNL     1     -23.689   7.723  -7.246  1.00  0.00     0.197 HD
BRANCH  32  34
HETATM   34  O4  UNL     1     -22.247   8.721  -6.335  1.00  0.00    -0.287 OA
ATOM     35  H4  UNL     1     -21.874   7.926  -5.972  1.00  0.00     0.244 HD
ENDBRANCH  32  34
ENDBRANCH  22  30
ENDBRANCH   1  22
TORSDOF 10
ENDMDL
