MODEL 3
REMARK VINA RESULT: -8.378686294      3.139      6.413
REMARK  4 active torsions:
REMARK  status: ('A' for Active; 'I' for Inactive)
REMARK    1  A    between atoms: C2_2  and  C3_3 
REMARK    2  A    between atoms: C6_6  and  C7_7 
REMARK    3  A    between atoms: C9_9  and  C10_10 
REMARK    4  A    between atoms: C12_18  and  C13_19 
ROOT
HETATM    1  C7  UNL     1     -45.474  12.919   8.044  1.00  0.00     0.118 C 
HETATM    2  C8  UNL     1     -44.739  13.898   7.187  1.00  0.00     0.066 C 
HETATM    3  C9  UNL     1     -44.048  14.887   8.141  1.00  0.00     0.219 C 
HETATM    4  N1  UNL     1     -45.037  15.501   8.993  1.00  0.00    -0.263 N 
HETATM    5  N2  UNL     1     -44.974  16.673   9.612  1.00  0.00    -0.306 N 
ATOM      6  H2  UNL     1     -44.184  17.316   9.560  1.00  0.00     0.186 HD
HETATM    7  C11 UNL     1     -46.093  16.895  10.314  1.00  0.00     0.129 A 
HETATM    8  C12 UNL     1     -46.884  15.785  10.106  1.00  0.00     0.102 A 
HETATM    9  C14 UNL     1     -46.219  14.897   9.268  1.00  0.00     0.138 A 
HETATM   10  N3  UNL     1     -46.539  13.625   8.726  1.00  0.00    -0.365 N 
ATOM     11  H3  UNL     1     -47.474  13.228   8.813  1.00  0.00     0.161 HD
ENDROOT
BRANCH   1  12
HETATM   12  C6  UNL     1     -45.905  11.689   7.407  1.00  0.00    -0.035 A 
HETATM   13  C5  UNL     1     -46.804  10.866   8.043  1.00  0.00     0.010 A 
HETATM   14  C4  UNL     1     -47.252   9.684   7.481  1.00  0.00     0.007 A 
HETATM   15  C3  UNL     1     -46.809   9.294   6.260  1.00  0.00    -0.059 A 
HETATM   16  C16 UNL     1     -45.907  10.099   5.598  1.00  0.00     0.007 A 
HETATM   17  C15 UNL     1     -45.463  11.274   6.161  1.00  0.00     0.010 A 
BRANCH  15  18
HETATM   18  C2  UNL     1     -47.287   8.013   5.637  1.00  0.00     0.034 C 
HETATM   19  C1  UNL     1     -47.177   6.865   6.631  1.00  0.00     0.010 C 
ENDBRANCH  15  18
ENDBRANCH   1  12
BRANCH   3  20
HETATM   20  C10 UNL     1     -43.243  15.899   7.359  1.00  0.00     0.409 C 
HETATM   21  F1  UNL     1     -43.666  17.179   7.618  1.00  0.00    -0.169 F 
HETATM   22  F2  UNL     1     -43.403  15.580   6.015  1.00  0.00    -0.169 F 
HETATM   23  F3  UNL     1     -41.922  15.720   7.715  1.00  0.00    -0.169 F 
ENDBRANCH   3  20
BRANCH   8  24
HETATM   24  C13 UNL     1     -48.216  15.529  10.654  1.00  0.00     0.214 C 
HETATM   25  O1  UNL     1     -48.394  15.245  11.854  1.00  0.00    -0.644 OA
HETATM   26  O2  UNL     1     -49.327  15.604   9.812  1.00  0.00    -0.644 OA
ENDBRANCH   8  24
TORSDOF 4
ENDMDL
