MODEL 6
REMARK VINA RESULT: -7.797502838      3.981      6.709
REMARK  4 active torsions:
REMARK  status: ('A' for Active; 'I' for Inactive)
REMARK    1  A    between atoms: C2_2  and  C3_3 
REMARK    2  A    between atoms: C6_6  and  C7_7 
REMARK    3  A    between atoms: C9_9  and  C10_10 
REMARK    4  A    between atoms: C12_18  and  C13_19 
ROOT
HETATM    1  C7  UNL     1     -43.979  13.422   8.712  1.00  0.00     0.118 C 
HETATM    2  C8  UNL     1     -44.189  14.788   8.145  1.00  0.00     0.066 C 
HETATM    3  C9  UNL     1     -43.086  15.684   8.734  1.00  0.00     0.219 C 
HETATM    4  N1  UNL     1     -43.156  15.645  10.174  1.00  0.00    -0.263 N 
HETATM    5  N2  UNL     1     -42.732  16.556  11.042  1.00  0.00    -0.306 N 
ATOM      6  H2  UNL     1     -42.286  17.437  10.788  1.00  0.00     0.186 HD
HETATM    7  C11 UNL     1     -42.974  16.157  12.298  1.00  0.00     0.129 A 
HETATM    8  C12 UNL     1     -43.582  14.924  12.182  1.00  0.00     0.102 A 
HETATM    9  C14 UNL     1     -43.700  14.595  10.836  1.00  0.00     0.138 A 
HETATM   10  N3  UNL     1     -44.231  13.480  10.137  1.00  0.00    -0.365 N 
ATOM     11  H3  UNL     1     -44.765  12.755  10.616  1.00  0.00     0.161 HD
ENDROOT
BRANCH   1  12
HETATM   12  C6  UNL     1     -44.657  12.327   8.044  1.00  0.00    -0.035 A 
HETATM   13  C5  UNL     1     -45.965  12.039   8.355  1.00  0.00     0.010 A 
HETATM   14  C4  UNL     1     -46.661  11.010   7.748  1.00  0.00     0.007 A 
HETATM   15  C3  UNL     1     -46.062  10.238   6.807  1.00  0.00    -0.059 A 
HETATM   16  C16 UNL     1     -44.751  10.503   6.475  1.00  0.00     0.007 A 
HETATM   17  C15 UNL     1     -44.061  11.528   7.082  1.00  0.00     0.010 A 
BRANCH  15  18
HETATM   18  C2  UNL     1     -46.806   9.116   6.138  1.00  0.00     0.034 C 
HETATM   19  C1  UNL     1     -46.709   7.845   6.970  1.00  0.00     0.010 C 
ENDBRANCH  15  18
ENDBRANCH   1  12
BRANCH   3  20
HETATM   20  C10 UNL     1     -43.195  17.086   8.183  1.00  0.00     0.409 C 
HETATM   21  F1  UNL     1     -42.127  17.859   8.568  1.00  0.00    -0.169 F 
HETATM   22  F2  UNL     1     -44.391  17.610   8.664  1.00  0.00    -0.169 F 
HETATM   23  F3  UNL     1     -43.269  16.973   6.809  1.00  0.00    -0.169 F 
ENDBRANCH   3  20
BRANCH   8  24
HETATM   24  C13 UNL     1     -44.048  14.060  13.266  1.00  0.00     0.214 C 
HETATM   25  O1  UNL     1     -44.996  13.265  13.116  1.00  0.00    -0.644 OA
HETATM   26  O2  UNL     1     -43.416  14.122  14.509  1.00  0.00    -0.644 OA
ENDBRANCH   8  24
TORSDOF 4
ENDMDL
