MODEL 7
REMARK VINA RESULT: -7.791170957      3.852      5.142
REMARK  4 active torsions:
REMARK  status: ('A' for Active; 'I' for Inactive)
REMARK    1  A    between atoms: C2_2  and  C3_3 
REMARK    2  A    between atoms: C6_6  and  C7_7 
REMARK    3  A    between atoms: C9_9  and  C10_10 
REMARK    4  A    between atoms: C12_18  and  C13_19 
ROOT
HETATM    1  C7  UNL     1     -47.073  10.165   7.781  1.00  0.00     0.118 C 
HETATM    2  C8  UNL     1     -47.792  10.196   9.091  1.00  0.00     0.066 C 
HETATM    3  C9  UNL     1     -48.178   8.743   9.417  1.00  0.00     0.219 C 
HETATM    4  N1  UNL     1     -48.973   8.206   8.339  1.00  0.00    -0.263 N 
HETATM    5  N2  UNL     1     -49.855   7.216   8.384  1.00  0.00    -0.306 N 
ATOM      6  H2  UNL     1     -50.094   6.688   9.224  1.00  0.00     0.186 HD
HETATM    7  C11 UNL     1     -50.390   7.007   7.174  1.00  0.00     0.129 A 
HETATM    8  C12 UNL     1     -49.791   7.930   6.343  1.00  0.00     0.102 A 
HETATM    9  C14 UNL     1     -48.891   8.694   7.077  1.00  0.00     0.138 A 
HETATM   10  N3  UNL     1     -48.016   9.764   6.757  1.00  0.00    -0.365 N 
ATOM     11  H3  UNL     1     -48.048  10.227   5.850  1.00  0.00     0.161 HD
ENDROOT
BRANCH   1  12
HETATM   12  C6  UNL     1     -46.300  11.343   7.433  1.00  0.00    -0.035 A 
HETATM   13  C5  UNL     1     -45.930  12.234   8.411  1.00  0.00     0.010 A 
HETATM   14  C4  UNL     1     -45.190  13.370   8.136  1.00  0.00     0.007 A 
HETATM   15  C3  UNL     1     -44.800  13.644   6.867  1.00  0.00    -0.059 A 
HETATM   16  C16 UNL     1     -45.157  12.768   5.864  1.00  0.00     0.007 A 
HETATM   17  C15 UNL     1     -45.894  11.639   6.142  1.00  0.00     0.010 A 
BRANCH  15  18
HETATM   18  C2  UNL     1     -43.996  14.874   6.553  1.00  0.00     0.034 C 
HETATM   19  C1  UNL     1     -43.993  15.825   7.743  1.00  0.00     0.010 C 
ENDBRANCH  15  18
ENDBRANCH   1  12
BRANCH   3  20
HETATM   20  C10 UNL     1     -48.880   8.671  10.751  1.00  0.00     0.409 C 
HETATM   21  F1  UNL     1     -50.202   9.025  10.639  1.00  0.00    -0.169 F 
HETATM   22  F2  UNL     1     -48.202   9.534  11.605  1.00  0.00    -0.169 F 
HETATM   23  F3  UNL     1     -48.740   7.376  11.209  1.00  0.00    -0.169 F 
ENDBRANCH   3  20
BRANCH   8  24
HETATM   24  C13 UNL     1     -50.028   8.120   4.912  1.00  0.00     0.214 C 
HETATM   25  O1  UNL     1     -49.100   8.351   4.114  1.00  0.00    -0.644 OA
HETATM   26  O2  UNL     1     -51.331   8.040   4.418  1.00  0.00    -0.644 OA
ENDBRANCH   8  24
TORSDOF 4
ENDMDL
