MODEL 1
REMARK VINA RESULT: -8.549834777      0.000      0.000
REMARK  4 active torsions:
REMARK  status: ('A' for Active; 'I' for Inactive)
REMARK    1  A    between atoms: C2_2  and  C3_3 
REMARK    2  A    between atoms: C6_6  and  C7_7 
REMARK    3  A    between atoms: C9_9  and  C10_10 
REMARK    4  A    between atoms: C12_18  and  C13_19 
ROOT
HETATM    1  C7  UNL     1     -45.760  13.171   7.704  1.00  0.00     0.118 C 
HETATM    2  C8  UNL     1     -45.156  11.960   7.070  1.00  0.00     0.066 C 
HETATM    3  C9  UNL     1     -46.310  10.979   6.806  1.00  0.00     0.219 C 
HETATM    4  N1  UNL     1     -46.992  10.697   8.045  1.00  0.00    -0.263 N 
HETATM    5  N2  UNL     1     -47.708   9.625   8.364  1.00  0.00    -0.306 N 
ATOM      6  H2  UNL     1     -47.872   8.831   7.745  1.00  0.00     0.186 HD
HETATM    7  C11 UNL     1     -48.183   9.731   9.611  1.00  0.00     0.129 A 
HETATM    8  C12 UNL     1     -47.726  10.946  10.078  1.00  0.00     0.102 A 
HETATM    9  C14 UNL     1     -46.969  11.563   9.088  1.00  0.00     0.138 A 
HETATM   10  N3  UNL     1     -46.268  12.794   9.007  1.00  0.00    -0.365 N 
ATOM     11  H3  UNL     1     -46.129  13.384   9.827  1.00  0.00     0.161 HD
ENDROOT
BRANCH   1  12
HETATM   12  C6  UNL     1     -44.947  14.373   7.722  1.00  0.00    -0.035 A 
HETATM   13  C5  UNL     1     -44.079  14.629   6.687  1.00  0.00     0.010 A 
HETATM   14  C4  UNL     1     -43.284  15.760   6.651  1.00  0.00     0.007 A 
HETATM   15  C3  UNL     1     -43.338  16.669   7.655  1.00  0.00    -0.059 A 
HETATM   16  C16 UNL     1     -44.199  16.440   8.706  1.00  0.00     0.007 A 
HETATM   17  C15 UNL     1     -44.989  15.313   8.739  1.00  0.00     0.010 A 
BRANCH  15  18
HETATM   18  C2  UNL     1     -42.480  17.904   7.628  1.00  0.00     0.034 C 
HETATM   19  C1  UNL     1     -41.286  17.740   8.558  1.00  0.00     0.010 C 
ENDBRANCH  15  18
ENDBRANCH   1  12
BRANCH   3  20
HETATM   20  C10 UNL     1     -45.797   9.732   6.126  1.00  0.00     0.409 C 
HETATM   21  F1  UNL     1     -45.157   8.905   7.016  1.00  0.00    -0.169 F 
HETATM   22  F2  UNL     1     -44.930  10.154   5.123  1.00  0.00    -0.169 F 
HETATM   23  F3  UNL     1     -46.887   9.111   5.551  1.00  0.00    -0.169 F 
ENDBRANCH   3  20
BRANCH   8  24
HETATM   24  C13 UNL     1     -47.968  11.539  11.393  1.00  0.00     0.214 C 
HETATM   25  O1  UNL     1     -47.982  10.855  12.434  1.00  0.00    -0.644 OA
HETATM   26  O2  UNL     1     -48.192  12.913  11.491  1.00  0.00    -0.644 OA
ENDBRANCH   8  24
TORSDOF 4
ENDMDL
