MODEL 2
REMARK VINA RESULT: -8.492024996      0.995      1.321
REMARK  4 active torsions:
REMARK  status: ('A' for Active; 'I' for Inactive)
REMARK    1  A    between atoms: C2_2  and  C3_3 
REMARK    2  A    between atoms: C6_6  and  C7_7 
REMARK    3  A    between atoms: C9_9  and  C10_10 
REMARK    4  A    between atoms: C12_18  and  C13_19 
ROOT
HETATM    1  C7  UNL     1     -45.074  13.265   7.862  1.00  0.00     0.118 C 
HETATM    2  C8  UNL     1     -44.635  12.022   7.158  1.00  0.00     0.066 C 
HETATM    3  C9  UNL     1     -45.913  11.277   6.740  1.00  0.00     0.219 C 
HETATM    4  N1  UNL     1     -46.721  11.019   7.907  1.00  0.00    -0.263 N 
HETATM    5  N2  UNL     1     -47.625  10.064   8.085  1.00  0.00    -0.306 N 
ATOM      6  H2  UNL     1     -47.873   9.362   7.389  1.00  0.00     0.186 HD
HETATM    7  C11 UNL     1     -48.167  10.152   9.307  1.00  0.00     0.129 A 
HETATM    8  C12 UNL     1     -47.550  11.230   9.907  1.00  0.00     0.102 A 
HETATM    9  C14 UNL     1     -46.631  11.784   9.023  1.00  0.00     0.138 A 
HETATM   10  N3  UNL     1     -45.731  12.879   9.094  1.00  0.00    -0.365 N 
ATOM     11  H3  UNL     1     -45.556  13.370   9.969  1.00  0.00     0.161 HD
ENDROOT
BRANCH   1  12
HETATM   12  C6  UNL     1     -44.076  14.304   8.035  1.00  0.00    -0.035 A 
HETATM   13  C5  UNL     1     -44.124  15.436   7.256  1.00  0.00     0.010 A 
HETATM   14  C4  UNL     1     -43.202  16.460   7.381  1.00  0.00     0.007 A 
HETATM   15  C3  UNL     1     -42.204  16.376   8.294  1.00  0.00    -0.059 A 
HETATM   16  C16 UNL     1     -42.130  15.252   9.089  1.00  0.00     0.007 A 
HETATM   17  C15 UNL     1     -43.049  14.235   8.962  1.00  0.00     0.010 A 
BRANCH  15  18
HETATM   18  C2  UNL     1     -41.195  17.481   8.442  1.00  0.00     0.034 C 
HETATM   19  C1  UNL     1     -40.814  17.660   9.905  1.00  0.00     0.010 C 
ENDBRANCH  15  18
ENDBRANCH   1  12
BRANCH   3  20
HETATM   20  C10 UNL     1     -45.565  10.017   5.982  1.00  0.00     0.409 C 
HETATM   21  F1  UNL     1     -46.695   9.356   5.569  1.00  0.00    -0.169 F 
HETATM   22  F2  UNL     1     -44.811   9.230   6.845  1.00  0.00    -0.169 F 
HETATM   23  F3  UNL     1     -44.781  10.397   4.911  1.00  0.00    -0.169 F 
ENDBRANCH   3  20
BRANCH   8  24
HETATM   24  C13 UNL     1     -47.785  11.751  11.253  1.00  0.00     0.214 C 
HETATM   25  O1  UNL     1     -48.882  11.620  11.830  1.00  0.00    -0.644 OA
HETATM   26  O2  UNL     1     -46.754  12.416  11.918  1.00  0.00    -0.644 OA
ENDBRANCH   8  24
TORSDOF 4
ENDMDL
