MODEL 2
REMARK VINA RESULT: -9.235269983      4.220      8.656
REMARK  14 active torsions:
REMARK  status: ('A' for Active; 'I' for Inactive)
REMARK    1  A    between atoms: N5_13  and  C6_14 
REMARK    2  A    between atoms: C7_16  and  C8_17 
REMARK    3  A    between atoms: C8_17  and  O2_18 
REMARK    4  A    between atoms: O2_18  and  P1_19 
REMARK    5  A    between atoms: P1_19  and  O5_22 
REMARK    6  A    between atoms: O5_22  and  P2_23 
REMARK    7  A    between atoms: P2_23  and  O8_26 
REMARK    8  A    between atoms: O8_26  and  C9_27 
REMARK    9  A    between atoms: C9_27  and  C10_28 
REMARK   10  A    between atoms: C11_30  and  O10_31 
REMARK   11  A    between atoms: C12_33  and  O11_34 
REMARK   12  A    between atoms: C13_36  and  O12_37 
REMARK   13  A    between atoms: C14_39  and  O13_40 
REMARK   14  A    between atoms: C15_42  and  O14_43 
ROOT
HETATM    1  C6  UNL     1       0.967  20.517  67.099  1.00  0.00     0.262 C 
HETATM    2  O1  UNL     1       0.212  21.074  68.100  1.00  0.00    -0.353 OA
HETATM    3  C7  UNL     1       0.440  20.415  69.275  1.00  0.00     0.180 C 
HETATM    4  C14 UNL     1       1.345  19.233  68.993  1.00  0.00     0.182 C 
HETATM    5  C15 UNL     1       2.128  19.799  67.799  1.00  0.00     0.198 C 
ENDROOT
BRANCH   3   6
HETATM    6  C8  UNL     1       1.064  21.320  70.320  1.00  0.00     0.216 C 
BRANCH   6   7
HETATM    7  O2  UNL     1       0.520  21.236  71.530  1.00  0.00    -0.287 OA
BRANCH   7   8
HETATM    8  P1  UNL     1       1.153  20.416  72.760  1.00  0.00     0.417 P 
HETATM    9  O3  UNL     1      -0.035  19.436  72.742  1.00  0.00    -0.624 OA
HETATM   10  O4  UNL     1       2.147  21.528  73.074  1.00  0.00    -0.624 OA
BRANCH   8  11
HETATM   11  O5  UNL     1       2.251  19.222  72.594  1.00  0.00    -0.180 OA
BRANCH  11  12
HETATM   12  P2  UNL     1       2.509  18.069  73.576  1.00  0.00     0.417 P 
HETATM   13  O6  UNL     1       2.836  17.199  74.813  1.00  0.00    -0.624 OA
HETATM   14  O7  UNL     1       3.968  18.908  73.909  1.00  0.00    -0.624 OA
BRANCH  12  15
HETATM   15  O8  UNL     1       2.572  16.894  72.486  1.00  0.00    -0.287 OA
BRANCH  15  16
HETATM   16  C9  UNL     1       1.688  15.861  72.548  1.00  0.00     0.216 C 
BRANCH  16  17
HETATM   17  C10 UNL     1       0.255  16.230  72.407  1.00  0.00     0.180 C 
HETATM   18  O9  UNL     1      -0.005  16.565  71.079  1.00  0.00    -0.349 OA
HETATM   19  C11 UNL     1      -1.400  16.769  71.127  1.00  0.00     0.288 C 
HETATM   20  C12 UNL     1      -1.955  15.618  71.944  1.00  0.00     0.204 C 
HETATM   21  C13 UNL     1      -0.703  15.103  72.643  1.00  0.00     0.182 C 
BRANCH  19  22
HETATM   22  O10 UNL     1      -1.961  16.835  69.869  1.00  0.00    -0.369 OA
ATOM     23  H10 UNL     1      -2.291  17.703  69.668  1.00  0.00     0.212 HD
ENDBRANCH  19  22
BRANCH  20  24
HETATM   24  O11 UNL     1      -2.761  16.170  72.934  1.00  0.00    -0.388 OA
ATOM     25  H11 UNL     1      -2.759  15.564  73.666  1.00  0.00     0.210 HD
ENDBRANCH  20  24
BRANCH  21  26
HETATM   26  O12 UNL     1      -0.961  14.886  73.993  1.00  0.00    -0.390 OA
ATOM     27  H12 UNL     1      -1.635  15.460  74.337  1.00  0.00     0.210 HD
ENDBRANCH  21  26
ENDBRANCH  16  17
ENDBRANCH  15  16
ENDBRANCH  12  15
ENDBRANCH  11  12
ENDBRANCH   8  11
ENDBRANCH   7   8
ENDBRANCH   6   7
ENDBRANCH   3   6
BRANCH   4  28
HETATM   28  O13 UNL     1       0.655  18.116  68.592  1.00  0.00    -0.390 OA
ATOM     29  H13 UNL     1       0.326  17.603  69.322  1.00  0.00     0.210 HD
ENDBRANCH   4  28
BRANCH   1  30
HETATM   30  N5  UNL     1       1.420  21.436  66.103  1.00  0.00    -0.297 N 
HETATM   31  C3  UNL     1       1.862  22.694  66.319  1.00  0.00     0.142 A 
HETATM   32  N3  UNL     1       2.029  23.470  67.410  1.00  0.00    -0.336 N 
HETATM   33  C4  UNL     1       2.207  23.259  65.109  1.00  0.00     0.119 A 
HETATM   34  C2  UNL     1       2.499  24.721  67.367  1.00  0.00     0.183 A 
ATOM     35  H3  UNL     1       1.783  23.080  68.320  1.00  0.00     0.168 HD
HETATM   36  N2  UNL     1       2.830  25.251  66.159  1.00  0.00    -0.339 N 
HETATM   37  C1  UNL     1       2.695  24.547  65.022  1.00  0.00     0.148 A 
ATOM     38  H2  UNL     1       3.189  26.205  66.115  1.00  0.00     0.167 HD
HETATM   39  N1  UNL     1       3.065  25.175  63.804  1.00  0.00    -0.080 NA
HETATM   40  N4  UNL     1       1.973  22.345  64.170  1.00  0.00    -0.346 N 
HETATM   41  C5  UNL     1       1.496  21.247  64.783  1.00  0.00     0.188 A 
ATOM     42  H4  UNL     1       2.127  22.457  63.167  1.00  0.00     0.167 HD
ENDBRANCH   1  30
BRANCH   5  43
HETATM   43  O14 UNL     1       2.671  18.816  67.017  1.00  0.00    -0.388 OA
ATOM     44  H14 UNL     1       3.313  19.161  66.406  1.00  0.00     0.210 HD
ENDBRANCH   5  43
TORSDOF 14
ENDMDL
