MODEL 4
REMARK VINA RESULT: -8.665385758      2.939      4.504
REMARK  14 active torsions:
REMARK  status: ('A' for Active; 'I' for Inactive)
REMARK    1  A    between atoms: N5_13  and  C6_14 
REMARK    2  A    between atoms: C7_16  and  C8_17 
REMARK    3  A    between atoms: C8_17  and  O2_18 
REMARK    4  A    between atoms: O2_18  and  P1_19 
REMARK    5  A    between atoms: P1_19  and  O5_22 
REMARK    6  A    between atoms: O5_22  and  P2_23 
REMARK    7  A    between atoms: P2_23  and  O8_26 
REMARK    8  A    between atoms: O8_26  and  C9_27 
REMARK    9  A    between atoms: C9_27  and  C10_28 
REMARK   10  A    between atoms: C11_30  and  O10_31 
REMARK   11  A    between atoms: C12_33  and  O11_34 
REMARK   12  A    between atoms: C13_36  and  O12_37 
REMARK   13  A    between atoms: C14_39  and  O13_40 
REMARK   14  A    between atoms: C15_42  and  O14_43 
ROOT
HETATM    1  C6  UNL     1       0.492  17.065  72.405  1.00  0.00     0.262 C 
HETATM    2  O1  UNL     1       0.594  18.420  72.596  1.00  0.00    -0.353 OA
HETATM    3  C7  UNL     1       1.905  18.768  72.761  1.00  0.00     0.180 C 
HETATM    4  C14 UNL     1       2.735  17.502  72.800  1.00  0.00     0.182 C 
HETATM    5  C15 UNL     1       1.868  16.607  71.902  1.00  0.00     0.198 C 
ENDROOT
BRANCH   3   6
HETATM    6  C8  UNL     1       2.391  19.683  71.653  1.00  0.00     0.216 C 
BRANCH   6   7
HETATM    7  O2  UNL     1       1.492  19.946  70.709  1.00  0.00    -0.287 OA
BRANCH   7   8
HETATM    8  P1  UNL     1       1.669  19.581  69.153  1.00  0.00     0.417 P 
HETATM    9  O3  UNL     1       0.148  19.678  68.938  1.00  0.00    -0.624 OA
HETATM   10  O4  UNL     1       3.106  19.116  69.360  1.00  0.00    -0.624 OA
BRANCH   8  11
HETATM   11  O5  UNL     1       1.991  20.675  67.988  1.00  0.00    -0.180 OA
BRANCH  11  12
HETATM   12  P2  UNL     1       1.317  20.774  66.611  1.00  0.00     0.417 P 
HETATM   13  O6  UNL     1       0.501  20.523  65.320  1.00  0.00    -0.624 OA
HETATM   14  O7  UNL     1       2.004  19.223  66.356  1.00  0.00    -0.624 OA
BRANCH  12  15
HETATM   15  O8  UNL     1       2.147  22.039  66.078  1.00  0.00    -0.287 OA
BRANCH  15  16
HETATM   16  C9  UNL     1       1.707  22.731  64.990  1.00  0.00     0.216 C 
BRANCH  16  17
HETATM   17  C10 UNL     1       2.298  24.081  64.803  1.00  0.00     0.180 C 
HETATM   18  O9  UNL     1       1.669  24.715  63.732  1.00  0.00    -0.349 OA
HETATM   19  C11 UNL     1       2.275  25.988  63.786  1.00  0.00     0.288 C 
HETATM   20  C12 UNL     1       2.281  26.377  65.253  1.00  0.00     0.204 C 
HETATM   21  C13 UNL     1       2.042  25.034  65.930  1.00  0.00     0.182 C 
BRANCH  19  22
HETATM   22  O10 UNL     1       1.617  26.912  63.003  1.00  0.00    -0.369 OA
ATOM     23  H10 UNL     1       2.071  27.078  62.185  1.00  0.00     0.212 HD
ENDBRANCH  19  22
BRANCH  20  24
HETATM   24  O11 UNL     1       3.581  26.754  65.571  1.00  0.00    -0.388 OA
ATOM     25  H11 UNL     1       3.842  27.416  64.941  1.00  0.00     0.210 HD
ENDBRANCH  20  24
BRANCH  21  26
HETATM   26  O12 UNL     1       2.926  24.866  66.991  1.00  0.00    -0.390 OA
ATOM     27  H12 UNL     1       2.719  24.112  67.529  1.00  0.00     0.210 HD
ENDBRANCH  21  26
ENDBRANCH  16  17
ENDBRANCH  15  16
ENDBRANCH  12  15
ENDBRANCH  11  12
ENDBRANCH   8  11
ENDBRANCH   7   8
ENDBRANCH   6   7
ENDBRANCH   3   6
BRANCH   4  28
HETATM   28  O13 UNL     1       2.807  16.949  74.055  1.00  0.00    -0.390 OA
ATOM     29  H13 UNL     1       3.358  16.176  74.087  1.00  0.00     0.210 HD
ENDBRANCH   4  28
BRANCH   1  30
HETATM   30  N5  UNL     1      -0.566  16.656  71.535  1.00  0.00    -0.297 N 
HETATM   31  C3  UNL     1      -1.864  16.504  71.875  1.00  0.00     0.142 A 
HETATM   32  N3  UNL     1      -2.576  16.658  73.010  1.00  0.00    -0.336 N 
HETATM   33  C4  UNL     1      -2.571  16.098  70.762  1.00  0.00     0.119 A 
HETATM   34  C2  UNL     1      -3.892  16.441  73.097  1.00  0.00     0.183 A 
ATOM     35  H3  UNL     1      -2.082  16.958  73.850  1.00  0.00     0.168 HD
HETATM   36  N2  UNL     1      -4.562  16.041  71.983  1.00  0.00    -0.339 N 
HETATM   37  C1  UNL     1      -3.929  15.863  70.809  1.00  0.00     0.148 A 
ATOM     38  H2  UNL     1      -5.566  15.872  72.038  1.00  0.00     0.167 HD
HETATM   39  N1  UNL     1      -4.703  15.445  69.695  1.00  0.00    -0.080 NA
HETATM   40  N4  UNL     1      -1.700  16.006  69.758  1.00  0.00    -0.346 N 
HETATM   41  C5  UNL     1      -0.490  16.345  70.239  1.00  0.00     0.188 A 
ATOM     42  H4  UNL     1      -1.912  15.729  68.799  1.00  0.00     0.167 HD
ENDBRANCH   1  30
BRANCH   5  43
HETATM   43  O14 UNL     1       2.080  15.275  72.129  1.00  0.00    -0.388 OA
ATOM     44  H14 UNL     1       2.994  15.085  72.306  1.00  0.00     0.210 HD
ENDBRANCH   5  43
TORSDOF 14
ENDMDL
