MODEL 3
REMARK VINA RESULT: -8.806583658      4.078      8.381
REMARK  14 active torsions:
REMARK  status: ('A' for Active; 'I' for Inactive)
REMARK    1  A    between atoms: N5_13  and  C6_14 
REMARK    2  A    between atoms: C7_16  and  C8_17 
REMARK    3  A    between atoms: C8_17  and  O2_18 
REMARK    4  A    between atoms: O2_18  and  P1_19 
REMARK    5  A    between atoms: P1_19  and  O5_22 
REMARK    6  A    between atoms: O5_22  and  P2_23 
REMARK    7  A    between atoms: P2_23  and  O8_26 
REMARK    8  A    between atoms: O8_26  and  C9_27 
REMARK    9  A    between atoms: C9_27  and  C10_28 
REMARK   10  A    between atoms: C11_30  and  O10_31 
REMARK   11  A    between atoms: C12_33  and  O11_34 
REMARK   12  A    between atoms: C13_36  and  O12_37 
REMARK   13  A    between atoms: C14_39  and  O13_40 
REMARK   14  A    between atoms: C15_42  and  O14_43 
ROOT
HETATM    1  C6  UNL     1       0.999  20.457  67.059  1.00  0.00     0.262 C 
HETATM    2  O1  UNL     1       0.262  20.968  68.097  1.00  0.00    -0.353 OA
HETATM    3  C7  UNL     1       0.524  20.269  69.241  1.00  0.00     0.180 C 
HETATM    4  C14 UNL     1       1.435  19.109  68.894  1.00  0.00     0.182 C 
HETATM    5  C15 UNL     1       2.184  19.727  67.704  1.00  0.00     0.198 C 
ENDROOT
BRANCH   3   6
HETATM    6  C8  UNL     1       1.164  21.142  70.304  1.00  0.00     0.216 C 
BRANCH   6   7
HETATM    7  O2  UNL     1       0.360  22.060  70.833  1.00  0.00    -0.287 OA
BRANCH   7   8
HETATM    8  P1  UNL     1      -0.244  21.995  72.322  1.00  0.00     0.417 P 
HETATM    9  O3  UNL     1      -1.598  22.525  71.815  1.00  0.00    -0.624 OA
HETATM   10  O4  UNL     1       1.137  21.823  72.943  1.00  0.00    -0.624 OA
BRANCH   8  11
HETATM   11  O5  UNL     1      -0.915  20.662  72.979  1.00  0.00    -0.180 OA
BRANCH  11  12
HETATM   12  P2  UNL     1      -2.323  20.113  72.703  1.00  0.00     0.417 P 
HETATM   13  O6  UNL     1      -3.850  19.909  72.553  1.00  0.00    -0.624 OA
HETATM   14  O7  UNL     1      -2.654  20.640  74.301  1.00  0.00    -0.624 OA
BRANCH  12  15
HETATM   15  O8  UNL     1      -1.900  18.577  72.512  1.00  0.00    -0.287 OA
BRANCH  15  16
HETATM   16  C9  UNL     1      -0.813  18.261  71.754  1.00  0.00     0.216 C 
BRANCH  16  17
HETATM   17  C10 UNL     1       0.256  17.497  72.449  1.00  0.00     0.180 C 
HETATM   18  O9  UNL     1       0.611  16.394  71.675  1.00  0.00    -0.349 OA
HETATM   19  C11 UNL     1       1.686  15.877  72.429  1.00  0.00     0.288 C 
HETATM   20  C12 UNL     1       2.528  17.077  72.817  1.00  0.00     0.204 C 
HETATM   21  C13 UNL     1       1.558  18.227  72.575  1.00  0.00     0.182 C 
BRANCH  19  22
HETATM   22  O10 UNL     1       2.409  14.935  71.728  1.00  0.00    -0.369 OA
ATOM     23  H10 UNL     1       3.242  15.275  71.424  1.00  0.00     0.212 HD
ENDBRANCH  19  22
BRANCH  20  24
HETATM   24  O11 UNL     1       2.727  17.011  74.192  1.00  0.00    -0.388 OA
ATOM     25  H11 UNL     1       3.121  17.833  74.457  1.00  0.00     0.210 HD
ENDBRANCH  20  24
BRANCH  21  26
HETATM   26  O12 UNL     1       1.581  19.109  73.651  1.00  0.00    -0.390 OA
ATOM     27  H12 UNL     1       2.462  19.329  73.929  1.00  0.00     0.210 HD
ENDBRANCH  21  26
ENDBRANCH  16  17
ENDBRANCH  15  16
ENDBRANCH  12  15
ENDBRANCH  11  12
ENDBRANCH   8  11
ENDBRANCH   7   8
ENDBRANCH   6   7
ENDBRANCH   3   6
BRANCH   4  28
HETATM   28  O13 UNL     1       0.748  18.000  68.468  1.00  0.00    -0.390 OA
ATOM     29  H13 UNL     1       0.802  17.869  67.528  1.00  0.00     0.210 HD
ENDBRANCH   4  28
BRANCH   1  30
HETATM   30  N5  UNL     1       1.419  21.419  66.087  1.00  0.00    -0.297 N 
HETATM   31  C3  UNL     1       1.882  22.661  66.342  1.00  0.00     0.142 A 
HETATM   32  N3  UNL     1       2.102  23.384  67.460  1.00  0.00    -0.336 N 
HETATM   33  C4  UNL     1       2.181  23.279  65.146  1.00  0.00     0.119 A 
HETATM   34  C2  UNL     1       2.581  24.633  67.454  1.00  0.00     0.183 A 
ATOM     35  H3  UNL     1       1.890  22.955  68.360  1.00  0.00     0.168 HD
HETATM   36  N2  UNL     1       2.867  25.216  66.258  1.00  0.00    -0.339 N 
HETATM   37  C1  UNL     1       2.678  24.565  65.097  1.00  0.00     0.148 A 
ATOM     38  H2  UNL     1       3.233  26.167  66.243  1.00  0.00     0.167 HD
HETATM   39  N1  UNL     1       3.002  25.246  63.894  1.00  0.00    -0.080 NA
HETATM   40  N4  UNL     1       1.899  22.411  64.176  1.00  0.00    -0.346 N 
HETATM   41  C5  UNL     1       1.438  21.290  64.759  1.00  0.00     0.188 A 
ATOM     42  H4  UNL     1       2.012  22.568  63.174  1.00  0.00     0.167 HD
ENDBRANCH   1  30
BRANCH   5  43
HETATM   43  O14 UNL     1       2.719  18.781  66.874  1.00  0.00    -0.388 OA
ATOM     44  H14 UNL     1       3.107  18.061  67.357  1.00  0.00     0.210 HD
ENDBRANCH   5  43
TORSDOF 14
ENDMDL
