MODEL 15
REMARK VINA RESULT: -8.275831223      1.210      1.844
REMARK  14 active torsions:
REMARK  status: ('A' for Active; 'I' for Inactive)
REMARK    1  A    between atoms: N5_13  and  C6_14 
REMARK    2  A    between atoms: C7_16  and  C8_17 
REMARK    3  A    between atoms: C8_17  and  O2_18 
REMARK    4  A    between atoms: O2_18  and  P1_19 
REMARK    5  A    between atoms: P1_19  and  O5_22 
REMARK    6  A    between atoms: O5_22  and  P2_23 
REMARK    7  A    between atoms: P2_23  and  O8_26 
REMARK    8  A    between atoms: O8_26  and  C9_27 
REMARK    9  A    between atoms: C9_27  and  C10_28 
REMARK   10  A    between atoms: C11_30  and  O10_31 
REMARK   11  A    between atoms: C12_33  and  O11_34 
REMARK   12  A    between atoms: C13_36  and  O12_37 
REMARK   13  A    between atoms: C14_39  and  O13_40 
REMARK   14  A    between atoms: C15_42  and  O14_43 
ROOT
HETATM    1  C6  UNL     1       0.683  18.210  72.528  1.00  0.00     0.262 C 
HETATM    2  O1  UNL     1       1.375  17.589  71.518  1.00  0.00    -0.353 OA
HETATM    3  C7  UNL     1       0.499  17.003  70.648  1.00  0.00     0.180 C 
HETATM    4  C14 UNL     1      -0.902  17.153  71.206  1.00  0.00     0.182 C 
HETATM    5  C15 UNL     1      -0.724  18.470  71.975  1.00  0.00     0.198 C 
ENDROOT
BRANCH   3   6
HETATM    6  C8  UNL     1       0.582  17.614  69.262  1.00  0.00     0.216 C 
BRANCH   6   7
HETATM    7  O2  UNL     1       1.674  18.339  69.035  1.00  0.00    -0.287 OA
BRANCH   7   8
HETATM    8  P1  UNL     1       1.711  19.947  69.002  1.00  0.00     0.417 P 
HETATM    9  O3  UNL     1       3.153  19.943  69.542  1.00  0.00    -0.624 OA
HETATM   10  O4  UNL     1       0.201  20.042  68.821  1.00  0.00    -0.624 OA
BRANCH   8  11
HETATM   11  O5  UNL     1       2.115  20.824  67.688  1.00  0.00    -0.180 OA
BRANCH  11  12
HETATM   12  P2  UNL     1       1.390  20.832  66.333  1.00  0.00     0.417 P 
HETATM   13  O6  UNL     1       0.516  20.504  65.099  1.00  0.00    -0.624 OA
HETATM   14  O7  UNL     1       2.013  19.240  66.186  1.00  0.00    -0.624 OA
BRANCH  12  15
HETATM   15  O8  UNL     1       2.242  22.016  65.663  1.00  0.00    -0.287 OA
BRANCH  15  16
HETATM   16  C9  UNL     1       1.691  22.773  64.675  1.00  0.00     0.216 C 
BRANCH  16  17
HETATM   17  C10 UNL     1       2.049  24.215  64.693  1.00  0.00     0.180 C 
HETATM   18  O9  UNL     1       1.122  24.929  63.935  1.00  0.00    -0.349 OA
HETATM   19  C11 UNL     1       1.557  26.252  64.163  1.00  0.00     0.288 C 
HETATM   20  C12 UNL     1       1.841  26.339  65.651  1.00  0.00     0.204 C 
HETATM   21  C13 UNL     1       1.931  24.868  66.035  1.00  0.00     0.182 C 
BRANCH  19  22
HETATM   22  O10 UNL     1       0.629  27.185  63.751  1.00  0.00    -0.369 OA
ATOM     23  H10 UNL     1       0.029  27.425  64.447  1.00  0.00     0.212 HD
ENDBRANCH  19  22
BRANCH  20  24
HETATM   24  O11 UNL     1       3.121  26.864  65.794  1.00  0.00    -0.388 OA
ATOM     25  H11 UNL     1       3.040  27.662  66.304  1.00  0.00     0.210 HD
ENDBRANCH  20  24
BRANCH  21  26
HETATM   26  O12 UNL     1       3.044  24.650  66.842  1.00  0.00    -0.390 OA
ATOM     27  H12 UNL     1       2.914  24.941  67.736  1.00  0.00     0.210 HD
ENDBRANCH  21  26
ENDBRANCH  16  17
ENDBRANCH  15  16
ENDBRANCH  12  15
ENDBRANCH  11  12
ENDBRANCH   8  11
ENDBRANCH   7   8
ENDBRANCH   6   7
ENDBRANCH   3   6
BRANCH   4  28
HETATM   28  O13 UNL     1      -1.234  16.156  72.089  1.00  0.00    -0.390 OA
ATOM     29  H13 UNL     1      -2.168  16.110  72.261  1.00  0.00     0.210 HD
ENDBRANCH   4  28
BRANCH   1  30
HETATM   30  N5  UNL     1       1.295  19.399  73.035  1.00  0.00    -0.297 N 
HETATM   31  C3  UNL     1       2.252  19.460  73.985  1.00  0.00     0.142 A 
HETATM   32  N3  UNL     1       2.918  18.551  74.726  1.00  0.00    -0.336 N 
HETATM   33  C4  UNL     1       2.581  20.783  74.200  1.00  0.00     0.119 A 
HETATM   34  C2  UNL     1       3.852  18.869  75.629  1.00  0.00     0.183 A 
ATOM     35  H3  UNL     1       2.697  17.565  74.591  1.00  0.00     0.168 HD
HETATM   36  N2  UNL     1       4.155  20.182  75.820  1.00  0.00    -0.339 N 
HETATM   37  C1  UNL     1       3.539  21.153  75.122  1.00  0.00     0.148 A 
ATOM     38  H2  UNL     1       4.865  20.435  76.506  1.00  0.00     0.167 HD
HETATM   39  N1  UNL     1       3.914  22.497  75.382  1.00  0.00    -0.080 NA
HETATM   40  N4  UNL     1       1.824  21.512  73.383  1.00  0.00    -0.346 N 
HETATM   41  C5  UNL     1       1.049  20.663  72.684  1.00  0.00     0.188 A 
ATOM     42  H4  UNL     1       1.830  22.529  73.301  1.00  0.00     0.167 HD
ENDBRANCH   1  30
BRANCH   5  43
HETATM   43  O14 UNL     1      -1.647  18.623  72.974  1.00  0.00    -0.388 OA
ATOM     44  H14 UNL     1      -1.238  18.761  73.820  1.00  0.00     0.210 HD
ENDBRANCH   5  43
TORSDOF 14
ENDMDL
