MODEL 2
REMARK VINA RESULT: -4.816949171      2.610      4.348
REMARK  13 active torsions:
REMARK  status: ('A' for Active; 'I' for Inactive)
REMARK    1  A    between atoms: O1_1  and  C1_3 
REMARK    2  A    between atoms: C1_3  and  C2_4 
REMARK    3  A    between atoms: C3_6  and  O3_7 
REMARK    4  A    between atoms: O3_7  and  C4_8 
REMARK    5  A    between atoms: C5_9  and  C6_10 
REMARK    6  A    between atoms: C6_10  and  O4_11 
REMARK    7  A    between atoms: C7_14  and  O6_15 
REMARK    8  A    between atoms: C8_17  and  O7_18 
REMARK    9  A    between atoms: C9_20  and  O8_21 
REMARK   10  A    between atoms: C10_23  and  O9_24 
REMARK   11  A    between atoms: C11_26  and  O10_27 
REMARK   12  A    between atoms: O10_27  and  S1_28 
REMARK   13  A    between atoms: C12_32  and  O14_33 
ROOT
HETATM    1  C2  UNL     1      79.302  -9.705 -56.648  1.00  0.00     0.179 C 
HETATM    2  O2  UNL     1      79.214 -10.295 -55.403  1.00  0.00    -0.348 OA
HETATM    3  C3  UNL     1      80.270  -9.861 -54.552  1.00  0.00     0.292 C 
HETATM    4  C10 UNL     1      81.487 -10.564 -55.018  1.00  0.00     0.206 C 
HETATM    5  C11 UNL     1      81.311 -11.169 -56.418  1.00  0.00     0.210 C 
HETATM    6  C12 UNL     1      80.559 -10.216 -57.317  1.00  0.00     0.182 C 
ENDROOT
BRANCH   3   7
HETATM    7  O3  UNL     1      79.813 -10.164 -53.288  1.00  0.00    -0.348 OA
BRANCH   7   8
HETATM    8  C4  UNL     1      78.668 -10.876 -53.211  1.00  0.00     0.187 C 
HETATM    9  C5  UNL     1      77.781 -10.280 -52.151  1.00  0.00     0.180 C 
HETATM   10  O5  UNL     1      76.481 -10.777 -52.225  1.00  0.00    -0.349 OA
HETATM   11  C7  UNL     1      76.473 -12.151 -52.455  1.00  0.00     0.288 C 
HETATM   12  C8  UNL     1      77.719 -12.845 -51.990  1.00  0.00     0.204 C 
HETATM   13  C9  UNL     1      78.873 -12.338 -52.840  1.00  0.00     0.183 C 
BRANCH   9  14
HETATM   14  C6  UNL     1      77.715  -8.786 -52.359  1.00  0.00     0.198 C 
BRANCH  14  15
HETATM   15  O4  UNL     1      77.414  -8.488 -53.711  1.00  0.00    -0.398 OA
ATOM     16  H4  UNL     1      78.186  -8.595 -54.254  1.00  0.00     0.209 HD
ENDBRANCH  14  15
ENDBRANCH   9  14
BRANCH  11  17
HETATM   17  O6  UNL     1      76.384 -12.328 -53.837  1.00  0.00    -0.369 OA
ATOM     18  H6  UNL     1      75.581 -12.808 -54.001  1.00  0.00     0.212 HD
ENDBRANCH  11  17
BRANCH  12  19
HETATM   19  O7  UNL     1      77.962 -12.695 -50.637  1.00  0.00    -0.388 OA
ATOM     20  H7  UNL     1      78.668 -13.244 -50.316  1.00  0.00     0.210 HD
ENDBRANCH  12  19
BRANCH  13  21
HETATM   21  O8  UNL     1      78.802 -13.060 -54.033  1.00  0.00    -0.390 OA
ATOM     22  H8  UNL     1      79.699 -13.228 -54.297  1.00  0.00     0.210 HD
ENDBRANCH  13  21
ENDBRANCH   7   8
ENDBRANCH   3   7
BRANCH   4  23
HETATM   23  O9  UNL     1      82.501  -9.590 -55.177  1.00  0.00    -0.388 OA
ATOM     24  H9  UNL     1      83.332 -10.049 -55.206  1.00  0.00     0.210 HD
ENDBRANCH   4  23
BRANCH   1  25
HETATM   25  C1  UNL     1      78.112 -10.244 -57.450  1.00  0.00     0.198 C 
BRANCH  25  26
HETATM   26  O1  UNL     1      77.346 -11.015 -56.586  1.00  0.00    -0.398 OA
ATOM     27  H1  UNL     1      76.574 -11.294 -57.064  1.00  0.00     0.209 HD
ENDBRANCH  25  26
ENDBRANCH   1  25
BRANCH   5  28
HETATM   28  O10 UNL     1      80.748 -12.422 -56.372  1.00  0.00    -0.246 OA
BRANCH  28  29
HETATM   29  S1  UNL     1      81.801 -13.601 -57.001  1.00  0.00     0.252 S 
HETATM   30  O11 UNL     1      81.431 -13.804 -58.576  1.00  0.00    -0.572 OA
HETATM   31  O12 UNL     1      83.327 -12.871 -57.019  1.00  0.00    -0.572 OA
HETATM   32  O13 UNL     1      81.806 -14.896 -56.217  1.00  0.00    -0.572 OA
ENDBRANCH  28  29
ENDBRANCH   5  28
BRANCH   6  33
HETATM   33  O14 UNL     1      80.320 -10.852 -58.516  1.00  0.00    -0.390 OA
ATOM     34  H14 UNL     1      79.843 -11.668 -58.421  1.00  0.00     0.210 HD
ENDBRANCH   6  33
TORSDOF 13
ENDMDL
