MODEL 3
REMARK VINA RESULT: -4.778979186      2.353      6.499
REMARK  13 active torsions:
REMARK  status: ('A' for Active; 'I' for Inactive)
REMARK    1  A    between atoms: O1_1  and  C1_3 
REMARK    2  A    between atoms: C1_3  and  C2_4 
REMARK    3  A    between atoms: C3_6  and  O3_7 
REMARK    4  A    between atoms: O3_7  and  C4_8 
REMARK    5  A    between atoms: C5_9  and  C6_10 
REMARK    6  A    between atoms: C6_10  and  O4_11 
REMARK    7  A    between atoms: C7_14  and  O6_15 
REMARK    8  A    between atoms: C8_17  and  O7_18 
REMARK    9  A    between atoms: C9_20  and  O8_21 
REMARK   10  A    between atoms: C10_23  and  O9_24 
REMARK   11  A    between atoms: C11_26  and  O10_27 
REMARK   12  A    between atoms: O10_27  and  S1_28 
REMARK   13  A    between atoms: C12_32  and  O14_33 
ROOT
HETATM    1  C2  UNL     1      77.762 -15.416 -48.693  1.00  0.00     0.179 C 
HETATM    2  O2  UNL     1      78.442 -14.696 -49.654  1.00  0.00    -0.348 OA
HETATM    3  C3  UNL     1      77.544 -13.957 -50.475  1.00  0.00     0.292 C 
HETATM    4  C10 UNL     1      76.910 -14.943 -51.380  1.00  0.00     0.206 C 
HETATM    5  C11 UNL     1      77.106 -16.387 -50.898  1.00  0.00     0.210 C 
HETATM    6  C12 UNL     1      76.941 -16.473 -49.398  1.00  0.00     0.182 C 
ENDROOT
BRANCH   3   7
HETATM    7  O3  UNL     1      78.347 -12.998 -51.053  1.00  0.00    -0.348 OA
BRANCH   7   8
HETATM    8  C4  UNL     1      78.048 -12.640 -52.322  1.00  0.00     0.187 C 
HETATM    9  C5  UNL     1      79.319 -12.329 -53.064  1.00  0.00     0.180 C 
HETATM   10  O5  UNL     1      79.108 -12.243 -54.439  1.00  0.00    -0.349 OA
HETATM   11  C7  UNL     1      77.935 -11.549 -54.732  1.00  0.00     0.288 C 
HETATM   12  C8  UNL     1      77.521 -10.589 -53.656  1.00  0.00     0.204 C 
HETATM   13  C9  UNL     1      77.165 -11.404 -52.423  1.00  0.00     0.183 C 
BRANCH   9  14
HETATM   14  C6  UNL     1      80.309 -13.442 -52.819  1.00  0.00     0.198 C 
BRANCH  14  15
HETATM   15  O4  UNL     1      79.752 -14.690 -53.191  1.00  0.00    -0.398 OA
ATOM     16  H4  UNL     1      80.433 -15.282 -53.487  1.00  0.00     0.209 HD
ENDBRANCH  14  15
ENDBRANCH   9  14
BRANCH  11  17
HETATM   17  O6  UNL     1      76.924 -12.502 -54.857  1.00  0.00    -0.369 OA
ATOM     18  H6  UNL     1      77.194 -13.099 -55.545  1.00  0.00     0.212 HD
ENDBRANCH  11  17
BRANCH  12  19
HETATM   19  O7  UNL     1      78.470  -9.620 -53.385  1.00  0.00    -0.388 OA
ATOM     20  H7  UNL     1      78.347  -9.194 -52.545  1.00  0.00     0.210 HD
ENDBRANCH  12  19
BRANCH  13  21
HETATM   21  O8  UNL     1      75.866 -11.866 -52.644  1.00  0.00    -0.390 OA
ATOM     22  H8  UNL     1      75.714 -11.796 -53.579  1.00  0.00     0.210 HD
ENDBRANCH  13  21
ENDBRANCH   7   8
ENDBRANCH   3   7
BRANCH   4  23
HETATM   23  O9  UNL     1      75.512 -14.735 -51.317  1.00  0.00    -0.388 OA
ATOM     24  H9  UNL     1      75.132 -15.494 -50.890  1.00  0.00     0.210 HD
ENDBRANCH   4  23
BRANCH   1  25
HETATM   25  C1  UNL     1      78.838 -16.147 -47.881  1.00  0.00     0.198 C 
BRANCH  25  26
HETATM   26  O1  UNL     1      79.874 -16.456 -48.752  1.00  0.00    -0.398 OA
ATOM     27  H1  UNL     1      80.297 -17.239 -48.420  1.00  0.00     0.209 HD
ENDBRANCH  25  26
ENDBRANCH   1  25
BRANCH   5  28
HETATM   28  O10 UNL     1      78.293 -16.921 -51.339  1.00  0.00    -0.246 OA
BRANCH  28  29
HETATM   29  S1  UNL     1      78.059 -17.918 -52.699  1.00  0.00     0.252 S 
HETATM   30  O11 UNL     1      76.480 -18.321 -52.749  1.00  0.00    -0.572 OA
HETATM   31  O12 UNL     1      78.277 -16.905 -54.036  1.00  0.00    -0.572 OA
HETATM   32  O13 UNL     1      78.983 -19.116 -52.743  1.00  0.00    -0.572 OA
ENDBRANCH  28  29
ENDBRANCH   5  28
BRANCH   6  33
HETATM   33  O14 UNL     1      77.248 -17.757 -49.004  1.00  0.00    -0.390 OA
ATOM     34  H14 UNL     1      77.067 -18.410 -49.670  1.00  0.00     0.210 HD
ENDBRANCH   6  33
TORSDOF 13
ENDMDL
