MODEL 1
REMARK VINA RESULT: -4.842014885      0.000      0.000
REMARK  13 active torsions:
REMARK  status: ('A' for Active; 'I' for Inactive)
REMARK    1  A    between atoms: O1_1  and  C1_3 
REMARK    2  A    between atoms: C1_3  and  C2_4 
REMARK    3  A    between atoms: C3_6  and  O3_7 
REMARK    4  A    between atoms: O3_7  and  C4_8 
REMARK    5  A    between atoms: C5_9  and  C6_10 
REMARK    6  A    between atoms: C6_10  and  O4_11 
REMARK    7  A    between atoms: C7_14  and  O6_15 
REMARK    8  A    between atoms: C8_17  and  O7_18 
REMARK    9  A    between atoms: C9_20  and  O8_21 
REMARK   10  A    between atoms: C10_23  and  O9_24 
REMARK   11  A    between atoms: C11_26  and  O10_27 
REMARK   12  A    between atoms: O10_27  and  S1_28 
REMARK   13  A    between atoms: C12_32  and  O14_33 
ROOT
HETATM    1  C2  UNL     1      79.055  -8.783 -51.750  1.00  0.00     0.179 C 
HETATM    2  O2  UNL     1      78.164  -9.807 -51.499  1.00  0.00    -0.348 OA
HETATM    3  C3  UNL     1      78.842 -11.043 -51.302  1.00  0.00     0.292 C 
HETATM    4  C10 UNL     1      79.279 -11.489 -52.645  1.00  0.00     0.206 C 
HETATM    5  C11 UNL     1      79.224 -10.357 -53.681  1.00  0.00     0.210 C 
HETATM    6  C12 UNL     1      79.720  -9.063 -53.080  1.00  0.00     0.182 C 
ENDROOT
BRANCH   3   7
HETATM    7  O3  UNL     1      77.912 -11.824 -50.652  1.00  0.00    -0.348 OA
BRANCH   7   8
HETATM    8  C4  UNL     1      77.816 -13.112 -51.051  1.00  0.00     0.187 C 
HETATM    9  C5  UNL     1      76.384 -13.562 -50.938  1.00  0.00     0.180 C 
HETATM   10  O5  UNL     1      76.167 -14.767 -51.604  1.00  0.00    -0.349 OA
HETATM   11  C7  UNL     1      77.207 -15.668 -51.380  1.00  0.00     0.288 C 
HETATM   12  C8  UNL     1      77.947 -15.423 -50.098  1.00  0.00     0.204 C 
HETATM   13  C9  UNL     1      78.647 -14.079 -50.220  1.00  0.00     0.183 C 
BRANCH   9  14
HETATM   14  C6  UNL     1      75.496 -12.519 -51.573  1.00  0.00     0.198 C 
BRANCH  14  15
HETATM   15  O4  UNL     1      75.881 -12.294 -52.917  1.00  0.00    -0.398 OA
ATOM     16  H4  UNL     1      76.338 -13.052 -53.263  1.00  0.00     0.209 HD
ENDBRANCH  14  15
ENDBRANCH   9  14
BRANCH  11  17
HETATM   17  O6  UNL     1      78.114 -15.505 -52.427  1.00  0.00    -0.369 OA
ATOM     18  H6  UNL     1      77.631 -15.122 -53.151  1.00  0.00     0.212 HD
ENDBRANCH  11  17
BRANCH  12  19
HETATM   19  O7  UNL     1      77.144 -15.493 -48.974  1.00  0.00    -0.388 OA
ATOM     20  H7  UNL     1      76.216 -15.440 -49.169  1.00  0.00     0.210 HD
ENDBRANCH  12  19
BRANCH  13  21
HETATM   21  O8  UNL     1      79.808 -14.329 -50.955  1.00  0.00    -0.390 OA
ATOM     22  H8  UNL     1      80.135 -15.170 -50.657  1.00  0.00     0.210 HD
ENDBRANCH  13  21
ENDBRANCH   7   8
ENDBRANCH   3   7
BRANCH   4  23
HETATM   23  O9  UNL     1      80.652 -11.819 -52.553  1.00  0.00    -0.388 OA
ATOM     24  H9  UNL     1      81.144 -11.013 -52.657  1.00  0.00     0.210 HD
ENDBRANCH   4  23
BRANCH   1  25
HETATM   25  C1  UNL     1      78.202  -7.522 -51.928  1.00  0.00     0.198 C 
BRANCH  25  26
HETATM   26  O1  UNL     1      77.034  -7.901 -52.577  1.00  0.00    -0.398 OA
ATOM     27  H1  UNL     1      76.980  -7.396 -53.380  1.00  0.00     0.209 HD
ENDBRANCH  25  26
ENDBRANCH   1  25
BRANCH   5  28
HETATM   28  O10 UNL     1      77.980 -10.242 -54.253  1.00  0.00    -0.246 OA
BRANCH  28  29
HETATM   29  S1  UNL     1      77.882 -11.117 -55.710  1.00  0.00     0.252 S 
HETATM   30  O11 UNL     1      79.395 -11.564 -56.121  1.00  0.00    -0.572 OA
HETATM   31  O12 UNL     1      77.110 -12.567 -55.307  1.00  0.00    -0.572 OA
HETATM   32  O13 UNL     1      77.156 -10.382 -56.816  1.00  0.00    -0.572 OA
ENDBRANCH  28  29
ENDBRANCH   5  28
BRANCH   6  33
HETATM   33  O14 UNL     1      79.535  -8.058 -54.005  1.00  0.00    -0.390 OA
ATOM     34  H14 UNL     1      79.256  -8.377 -54.856  1.00  0.00     0.210 HD
ENDBRANCH   6  33
TORSDOF 13
ENDMDL
