MODEL 1
REMARK VINA RESULT: -8.057600344      0.000      0.000
REMARK  16 active torsions:
REMARK  status: ('A' for Active; 'I' for Inactive)
REMARK    1  A    between atoms: C3_4  and  O2_5 
REMARK    2  A    between atoms: O2_5  and  C4_6 
REMARK    3  A    between atoms: C5_7  and  O3_8 
REMARK    4  A    between atoms: O3_8  and  C6_9 
REMARK    5  A    between atoms: C7_10  and  C8_11 
REMARK    6  A    between atoms: C8_11  and  O4_12 
REMARK    7  A    between atoms: C9_15  and  O6_16 
REMARK    8  A    between atoms: C10_18  and  O7_19 
REMARK    9  A    between atoms: C11_21  and  O8_22 
REMARK   10  A    between atoms: C12_25  and  C13_26 
REMARK   11  A    between atoms: C13_26  and  O10_27 
REMARK   12  A    between atoms: C14_29  and  O11_30 
REMARK   13  A    between atoms: C15_32  and  O12_33 
REMARK   14  A    between atoms: C16_35  and  O13_36 
REMARK   15  A    between atoms: C17_38  and  O14_39 
REMARK   16  A    between atoms: C18_41  and  O15_42 
ROOT
HETATM    1  C4  UNL     1      78.893 -16.928 -52.036  1.00  0.00     0.211 C 
HETATM    2  C5  UNL     1      79.161 -18.230 -51.321  1.00  0.00     0.292 C 
HETATM    3  O9  UNL     1      80.260 -18.882 -51.951  1.00  0.00    -0.348 OA
HETATM    4  C12 UNL     1      79.956 -19.353 -53.200  1.00  0.00     0.179 C 
HETATM    5  C14 UNL     1      78.951 -18.525 -53.961  1.00  0.00     0.180 C 
HETATM    6  C15 UNL     1      79.071 -17.099 -53.502  1.00  0.00     0.183 C 
ENDROOT
BRANCH   2   7
HETATM    7  O3  UNL     1      78.174 -19.127 -51.271  1.00  0.00    -0.348 OA
BRANCH   7   8
HETATM    8  C6  UNL     1      77.992 -19.967 -50.238  1.00  0.00     0.187 C 
HETATM    9  C7  UNL     1      77.943 -19.169 -48.952  1.00  0.00     0.180 C 
HETATM   10  O5  UNL     1      76.748 -19.256 -48.280  1.00  0.00    -0.349 OA
HETATM   11  C9  UNL     1      75.632 -19.014 -49.031  1.00  0.00     0.288 C 
HETATM   12  C10 UNL     1      75.491 -20.070 -50.102  1.00  0.00     0.204 C 
HETATM   13  C11 UNL     1      76.777 -20.843 -50.265  1.00  0.00     0.183 C 
BRANCH   9  14
HETATM   14  C8  UNL     1      79.018 -19.658 -47.971  1.00  0.00     0.198 C 
BRANCH  14  15
HETATM   15  O4  UNL     1      79.722 -20.666 -48.620  1.00  0.00    -0.398 OA
ATOM     16  H4  UNL     1      80.153 -21.176 -47.944  1.00  0.00     0.209 HD
ENDBRANCH  14  15
ENDBRANCH   9  14
BRANCH  11  17
HETATM   17  O6  UNL     1      75.613 -17.746 -49.617  1.00  0.00    -0.369 OA
ATOM     18  H6  UNL     1      76.373 -17.563 -50.157  1.00  0.00     0.212 HD
ENDBRANCH  11  17
BRANCH  12  19
HETATM   19  O7  UNL     1      74.978 -19.547 -51.254  1.00  0.00    -0.388 OA
ATOM     20  H7  UNL     1      74.038 -19.428 -51.192  1.00  0.00     0.210 HD
ENDBRANCH  12  19
BRANCH  13  21
HETATM   21  O8  UNL     1      76.845 -21.677 -49.142  1.00  0.00    -0.390 OA
ATOM     22  H8  UNL     1      76.333 -21.265 -48.456  1.00  0.00     0.210 HD
ENDBRANCH  13  21
ENDBRANCH   7   8
ENDBRANCH   2   7
BRANCH   1  23
HETATM   23  O2  UNL     1      77.664 -16.391 -51.681  1.00  0.00    -0.346 OA
BRANCH  23  24
HETATM   24  C3  UNL     1      77.752 -15.174 -51.058  1.00  0.00     0.292 C 
HETATM   25  O1  UNL     1      79.117 -14.853 -50.974  1.00  0.00    -0.351 OA
HETATM   26  C2  UNL     1      79.342 -13.806 -50.104  1.00  0.00     0.152 C 
HETATM   27  C1  UNL     1      78.697 -13.971 -48.756  1.00  0.00     0.042 C 
HETATM   28  C18 UNL     1      78.799 -12.552 -50.760  1.00  0.00     0.178 C 
HETATM   29  C17 UNL     1      77.381 -12.702 -51.166  1.00  0.00     0.183 C 
HETATM   30  C16 UNL     1      77.023 -14.052 -51.714  1.00  0.00     0.204 C 
BRANCH  28  31
HETATM   31  O15 UNL     1      78.866 -11.524 -49.800  1.00  0.00    -0.390 OA
ATOM     32  H15 UNL     1      78.191 -10.893 -50.023  1.00  0.00     0.210 HD
ENDBRANCH  28  31
BRANCH  29  33
HETATM   33  O14 UNL     1      77.053 -11.756 -52.152  1.00  0.00    -0.390 OA
ATOM     34  H14 UNL     1      76.186 -11.975 -52.473  1.00  0.00     0.210 HD
ENDBRANCH  29  33
BRANCH  30  35
HETATM   35  O13 UNL     1      77.333 -14.017 -53.092  1.00  0.00    -0.388 OA
ATOM     36  H13 UNL     1      76.607 -14.367 -53.596  1.00  0.00     0.210 HD
ENDBRANCH  30  35
ENDBRANCH  23  24
ENDBRANCH   1  23
BRANCH   6  37
HETATM   37  O12 UNL     1      78.266 -16.261 -54.266  1.00  0.00    -0.390 OA
ATOM     38  H12 UNL     1      78.738 -15.786 -54.940  1.00  0.00     0.210 HD
ENDBRANCH   6  37
BRANCH   4  39
HETATM   39  C13 UNL     1      81.264 -19.296 -54.004  1.00  0.00     0.198 C 
BRANCH  39  40
HETATM   40  O10 UNL     1      82.369 -19.636 -53.269  1.00  0.00    -0.398 OA
ATOM     41  H10 UNL     1      83.187 -19.399 -53.689  1.00  0.00     0.209 HD
ENDBRANCH  39  40
ENDBRANCH   4  39
BRANCH   5  42
HETATM   42  O11 UNL     1      77.641 -18.963 -53.816  1.00  0.00    -0.390 OA
ATOM     43  H11 UNL     1      77.181 -19.076 -54.640  1.00  0.00     0.210 HD
ENDBRANCH   5  42
TORSDOF 16
ENDMDL
