MODEL 3
REMARK VINA RESULT: -7.509806603      2.325      6.198
REMARK  16 active torsions:
REMARK  status: ('A' for Active; 'I' for Inactive)
REMARK    1  A    between atoms: C3_4  and  O2_5 
REMARK    2  A    between atoms: O2_5  and  C4_6 
REMARK    3  A    between atoms: C5_7  and  O3_8 
REMARK    4  A    between atoms: O3_8  and  C6_9 
REMARK    5  A    between atoms: C7_10  and  C8_11 
REMARK    6  A    between atoms: C8_11  and  O4_12 
REMARK    7  A    between atoms: C9_15  and  O6_16 
REMARK    8  A    between atoms: C10_18  and  O7_19 
REMARK    9  A    between atoms: C11_21  and  O8_22 
REMARK   10  A    between atoms: C12_25  and  C13_26 
REMARK   11  A    between atoms: C13_26  and  O10_27 
REMARK   12  A    between atoms: C14_29  and  O11_30 
REMARK   13  A    between atoms: C15_32  and  O12_33 
REMARK   14  A    between atoms: C16_35  and  O13_36 
REMARK   15  A    between atoms: C17_38  and  O14_39 
REMARK   16  A    between atoms: C18_41  and  O15_42 
ROOT
HETATM    1  C4  UNL     1      76.378 -16.506 -48.960  1.00  0.00     0.211 C 
HETATM    2  C5  UNL     1      77.655 -16.835 -49.693  1.00  0.00     0.292 C 
HETATM    3  O9  UNL     1      78.516 -15.701 -49.648  1.00  0.00    -0.348 OA
HETATM    4  C12 UNL     1      78.065 -14.658 -50.411  1.00  0.00     0.179 C 
HETATM    5  C14 UNL     1      76.564 -14.542 -50.500  1.00  0.00     0.180 C 
HETATM    6  C15 UNL     1      75.972 -15.102 -49.237  1.00  0.00     0.183 C 
ENDROOT
BRANCH   2   7
HETATM    7  O3  UNL     1      77.564 -17.183 -50.979  1.00  0.00    -0.348 OA
BRANCH   7   8
HETATM    8  C6  UNL     1      77.802 -18.427 -51.426  1.00  0.00     0.187 C 
HETATM    9  C7  UNL     1      76.998 -18.663 -52.687  1.00  0.00     0.180 C 
HETATM   10  O5  UNL     1      77.760 -18.907 -53.804  1.00  0.00    -0.349 OA
HETATM   11  C9  UNL     1      78.761 -18.006 -54.042  1.00  0.00     0.288 C 
HETATM   12  C10 UNL     1      79.777 -18.058 -52.925  1.00  0.00     0.204 C 
HETATM   13  C11 UNL     1      79.223 -18.792 -51.729  1.00  0.00     0.183 C 
BRANCH   9  14
HETATM   14  C8  UNL     1      76.082 -19.885 -52.523  1.00  0.00     0.198 C 
BRANCH  14  15
HETATM   15  O4  UNL     1      75.144 -19.554 -51.552  1.00  0.00    -0.398 OA
ATOM     16  H4  UNL     1      74.489 -20.241 -51.560  1.00  0.00     0.209 HD
ENDBRANCH  14  15
ENDBRANCH   9  14
BRANCH  11  17
HETATM   17  O6  UNL     1      78.308 -16.695 -54.205  1.00  0.00    -0.369 OA
ATOM     18  H6  UNL     1      77.363 -16.621 -54.265  1.00  0.00     0.212 HD
ENDBRANCH  11  17
BRANCH  12  19
HETATM   19  O7  UNL     1      80.290 -16.820 -52.661  1.00  0.00    -0.388 OA
ATOM     20  H7  UNL     1      80.995 -16.866 -52.026  1.00  0.00     0.210 HD
ENDBRANCH  12  19
BRANCH  13  21
HETATM   21  O8  UNL     1      79.232 -20.144 -52.096  1.00  0.00    -0.390 OA
ATOM     22  H8  UNL     1      80.112 -20.349 -52.389  1.00  0.00     0.210 HD
ENDBRANCH  13  21
ENDBRANCH   7   8
ENDBRANCH   2   7
BRANCH   1  23
HETATM   23  O2  UNL     1      75.382 -17.436 -49.220  1.00  0.00    -0.346 OA
BRANCH  23  24
HETATM   24  C3  UNL     1      75.112 -18.266 -48.166  1.00  0.00     0.292 C 
HETATM   25  O1  UNL     1      75.999 -17.921 -47.133  1.00  0.00    -0.351 OA
HETATM   26  C2  UNL     1      76.026 -18.880 -46.141  1.00  0.00     0.152 C 
HETATM   27  C1  UNL     1      76.230 -20.282 -46.640  1.00  0.00     0.042 C 
HETATM   28  C18 UNL     1      74.700 -18.805 -45.408  1.00  0.00     0.178 C 
HETATM   29  C17 UNL     1      73.544 -18.925 -46.329  1.00  0.00     0.183 C 
HETATM   30  C16 UNL     1      73.715 -18.228 -47.647  1.00  0.00     0.204 C 
BRANCH  28  31
HETATM   31  O15 UNL     1      74.660 -19.898 -44.521  1.00  0.00    -0.390 OA
ATOM     32  H15 UNL     1      74.791 -19.549 -43.647  1.00  0.00     0.210 HD
ENDBRANCH  28  31
BRANCH  29  33
HETATM   33  O14 UNL     1      72.388 -18.400 -45.730  1.00  0.00    -0.390 OA
ATOM     34  H14 UNL     1      72.357 -17.475 -45.945  1.00  0.00     0.210 HD
ENDBRANCH  29  33
BRANCH  30  35
HETATM   35  O13 UNL     1      73.315 -16.889 -47.443  1.00  0.00    -0.388 OA
ATOM     36  H13 UNL     1      74.080 -16.331 -47.360  1.00  0.00     0.210 HD
ENDBRANCH  30  35
ENDBRANCH  23  24
ENDBRANCH   1  23
BRANCH   6  37
HETATM   37  O12 UNL     1      74.597 -14.898 -49.197  1.00  0.00    -0.390 OA
ATOM     38  H12 UNL     1      74.339 -14.120 -48.716  1.00  0.00     0.210 HD
ENDBRANCH   6  37
BRANCH   4  39
HETATM   39  C13 UNL     1      78.560 -13.379 -49.715  1.00  0.00     0.198 C 
BRANCH  39  40
HETATM   40  O10 UNL     1      79.310 -13.626 -48.597  1.00  0.00    -0.398 OA
ATOM     41  H10 UNL     1      79.020 -13.140 -47.834  1.00  0.00     0.209 HD
ENDBRANCH  39  40
ENDBRANCH   4  39
BRANCH   5  42
HETATM   42  O11 UNL     1      76.018 -15.181 -51.605  1.00  0.00    -0.390 OA
ATOM     43  H11 UNL     1      75.181 -14.824 -51.879  1.00  0.00     0.210 HD
ENDBRANCH   5  42
TORSDOF 16
ENDMDL
