MODEL 2
REMARK VINA RESULT: -7.679155779      2.149      6.486
REMARK  16 active torsions:
REMARK  status: ('A' for Active; 'I' for Inactive)
REMARK    1  A    between atoms: C3_4  and  O2_5 
REMARK    2  A    between atoms: O2_5  and  C4_6 
REMARK    3  A    between atoms: C5_7  and  O3_8 
REMARK    4  A    between atoms: O3_8  and  C6_9 
REMARK    5  A    between atoms: C7_10  and  C8_11 
REMARK    6  A    between atoms: C8_11  and  O4_12 
REMARK    7  A    between atoms: C9_15  and  O6_16 
REMARK    8  A    between atoms: C10_18  and  O7_19 
REMARK    9  A    between atoms: C11_21  and  O8_22 
REMARK   10  A    between atoms: C12_25  and  C13_26 
REMARK   11  A    between atoms: C13_26  and  O10_27 
REMARK   12  A    between atoms: C14_29  and  O11_30 
REMARK   13  A    between atoms: C15_32  and  O12_33 
REMARK   14  A    between atoms: C16_35  and  O13_36 
REMARK   15  A    between atoms: C17_38  and  O14_39 
REMARK   16  A    between atoms: C18_41  and  O15_42 
ROOT
HETATM    1  C4  UNL     1      76.234 -16.505 -49.009  1.00  0.00     0.211 C 
HETATM    2  C5  UNL     1      77.478 -16.915 -49.759  1.00  0.00     0.292 C 
HETATM    3  O9  UNL     1      78.401 -15.830 -49.746  1.00  0.00    -0.348 OA
HETATM    4  C12 UNL     1      77.994 -14.775 -50.516  1.00  0.00     0.179 C 
HETATM    5  C14 UNL     1      76.500 -14.577 -50.581  1.00  0.00     0.180 C 
HETATM    6  C15 UNL     1      75.902 -15.086 -49.299  1.00  0.00     0.183 C 
ENDROOT
BRANCH   2   7
HETATM    7  O3  UNL     1      77.344 -17.275 -51.037  1.00  0.00    -0.348 OA
BRANCH   7   8
HETATM    8  C6  UNL     1      77.733 -18.470 -51.513  1.00  0.00     0.187 C 
HETATM    9  C7  UNL     1      77.077 -18.707 -52.857  1.00  0.00     0.180 C 
HETATM   10  O5  UNL     1      77.961 -18.828 -53.902  1.00  0.00    -0.349 OA
HETATM   11  C9  UNL     1      78.895 -17.835 -53.999  1.00  0.00     0.288 C 
HETATM   12  C10 UNL     1      79.801 -17.859 -52.791  1.00  0.00     0.204 C 
HETATM   13  C11 UNL     1      79.204 -18.698 -51.689  1.00  0.00     0.183 C 
BRANCH   9  14
HETATM   14  C8  UNL     1      76.262 -20.009 -52.838  1.00  0.00     0.198 C 
BRANCH  14  15
HETATM   15  O4  UNL     1      74.963 -19.661 -52.484  1.00  0.00    -0.398 OA
ATOM     16  H4  UNL     1      74.444 -20.455 -52.539  1.00  0.00     0.209 HD
ENDBRANCH  14  15
ENDBRANCH   9  14
BRANCH  11  17
HETATM   17  O6  UNL     1      78.346 -16.559 -54.149  1.00  0.00    -0.369 OA
ATOM     18  H6  UNL     1      78.889 -15.865 -53.794  1.00  0.00     0.212 HD
ENDBRANCH  11  17
BRANCH  12  19
HETATM   19  O7  UNL     1      80.174 -16.598 -52.423  1.00  0.00    -0.388 OA
ATOM     20  H7  UNL     1      80.402 -16.559 -51.502  1.00  0.00     0.210 HD
ENDBRANCH  12  19
BRANCH  13  21
HETATM   21  O8  UNL     1      79.367 -20.023 -52.112  1.00  0.00    -0.390 OA
ATOM     22  H8  UNL     1      80.284 -20.245 -51.991  1.00  0.00     0.210 HD
ENDBRANCH  13  21
ENDBRANCH   7   8
ENDBRANCH   2   7
BRANCH   1  23
HETATM   23  O2  UNL     1      75.184 -17.383 -49.238  1.00  0.00    -0.346 OA
BRANCH  23  24
HETATM   24  C3  UNL     1      74.954 -18.251 -48.204  1.00  0.00     0.292 C 
HETATM   25  O1  UNL     1      73.615 -18.079 -47.814  1.00  0.00    -0.351 OA
HETATM   26  C2  UNL     1      73.358 -18.675 -46.596  1.00  0.00     0.152 C 
HETATM   27  C1  UNL     1      74.333 -18.312 -45.511  1.00  0.00     0.042 C 
HETATM   28  C18 UNL     1      73.397 -20.175 -46.813  1.00  0.00     0.178 C 
HETATM   29  C17 UNL     1      74.664 -20.617 -47.442  1.00  0.00     0.183 C 
HETATM   30  C16 UNL     1      75.200 -19.691 -48.495  1.00  0.00     0.204 C 
BRANCH  28  31
HETATM   31  O15 UNL     1      73.315 -20.775 -45.542  1.00  0.00    -0.390 OA
ATOM     32  H15 UNL     1      73.673 -21.651 -45.626  1.00  0.00     0.210 HD
ENDBRANCH  28  31
BRANCH  29  33
HETATM   33  O14 UNL     1      74.497 -21.875 -48.044  1.00  0.00    -0.390 OA
ATOM     34  H14 UNL     1      74.538 -22.524 -47.352  1.00  0.00     0.210 HD
ENDBRANCH  29  33
BRANCH  30  35
HETATM   35  O13 UNL     1      74.564 -20.053 -49.703  1.00  0.00    -0.388 OA
ATOM     36  H13 UNL     1      74.939 -20.859 -50.038  1.00  0.00     0.210 HD
ENDBRANCH  30  35
ENDBRANCH  23  24
ENDBRANCH   1  23
BRANCH   6  37
HETATM   37  O12 UNL     1      74.541 -14.804 -49.239  1.00  0.00    -0.390 OA
ATOM     38  H12 UNL     1      74.345 -13.878 -49.164  1.00  0.00     0.210 HD
ENDBRANCH   6  37
BRANCH   4  39
HETATM   39  C13 UNL     1      78.571 -13.516 -49.849  1.00  0.00     0.198 C 
BRANCH  39  40
HETATM   40  O10 UNL     1      78.085 -12.350 -50.378  1.00  0.00    -0.398 OA
ATOM     41  H10 UNL     1      77.605 -11.824 -49.750  1.00  0.00     0.209 HD
ENDBRANCH  39  40
ENDBRANCH   4  39
BRANCH   5  42
HETATM   42  O11 UNL     1      75.900 -15.200 -51.666  1.00  0.00    -0.390 OA
ATOM     43  H11 UNL     1      75.264 -14.656 -52.117  1.00  0.00     0.210 HD
ENDBRANCH   5  42
TORSDOF 16
ENDMDL
