MODEL 1
REMARK VINA RESULT: -7.802469269      0.000      0.000
REMARK  6 active torsions:
REMARK  status: ('A' for Active; 'I' for Inactive)
REMARK    1  A    between atoms: N2_5  and  C4_6 
REMARK    2  A    between atoms: C5_8  and  C6_9 
REMARK    3  A    between atoms: C6_9  and  O2_10 
REMARK    4  A    between atoms: O2_10  and  P1_11 
REMARK    5  A    between atoms: C7_15  and  O6_16 
REMARK    6  A    between atoms: C8_18  and  O7_19 
ROOT
HETATM    1  C4  UNL     1     -31.611  13.582  11.115  1.00  0.00     0.263 C 
HETATM    2  O1  UNL     1     -31.113  13.720  12.471  1.00  0.00    -0.353 OA
HETATM    3  C5  UNL     1     -32.033  13.093  13.196  1.00  0.00     0.180 C 
HETATM    4  C7  UNL     1     -32.792  12.079  12.404  1.00  0.00     0.182 C 
HETATM    5  C8  UNL     1     -31.916  12.128  11.122  1.00  0.00     0.198 C 
ENDROOT
BRANCH   1   6
HETATM    6  N2  UNL     1     -30.537  14.058  10.276  1.00  0.00    -0.280 N 
HETATM    7  C3  UNL     1     -29.303  13.588  10.483  1.00  0.00     0.102 A 
HETATM    8  C2  UNL     1     -28.237  14.139   9.770  1.00  0.00     0.062 A 
HETATM    9  C1  UNL     1     -28.520  15.155   8.855  1.00  0.00     0.121 A 
HETATM   10  N1  UNL     1     -27.444  15.743   8.146  1.00  0.00    -0.083 NA
HETATM   11  N3  UNL     1     -29.758  15.569   8.671  1.00  0.00    -0.297 N 
HETATM   12  C9  UNL     1     -30.787  15.025   9.397  1.00  0.00     0.329 A 
ATOM     13  H3  UNL     1     -29.952  16.298   7.985  1.00  0.00     0.171 HD
HETATM   14  O8  UNL     1     -31.923  15.452   9.217  1.00  0.00    -0.246 OA
ENDBRANCH   1   6
BRANCH   5  15
HETATM   15  O7  UNL     1     -32.640  11.641  10.067  1.00  0.00    -0.388 OA
ATOM     16  H7  UNL     1     -33.437  11.168  10.275  1.00  0.00     0.210 HD
ENDBRANCH   5  15
BRANCH   3  17
HETATM   17  C6  UNL     1     -31.680  12.518  14.541  1.00  0.00     0.217 C 
BRANCH  17  18
HETATM   18  O2  UNL     1     -31.327  11.150  14.296  1.00  0.00    -0.280 OA
BRANCH  18  19
HETATM   19  P1  UNL     1     -29.624  11.079  14.561  1.00  0.00     0.422 P 
HETATM   20  O3  UNL     1     -29.245   9.930  15.356  1.00  0.00    -0.617 OA
HETATM   21  O4  UNL     1     -29.022  10.957  12.950  1.00  0.00    -0.617 OA
HETATM   22  O5  UNL     1     -29.058  12.525  15.218  1.00  0.00    -0.617 OA
ENDBRANCH  18  19
ENDBRANCH  17  18
ENDBRANCH   3  17
BRANCH   4  23
HETATM   23  O6  UNL     1     -34.063  12.600  12.153  1.00  0.00    -0.390 OA
ATOM     24  H6  UNL     1     -34.362  12.246  11.324  1.00  0.00     0.210 HD
ENDBRANCH   4  23
TORSDOF 6
ENDMDL
