MODEL 3
REMARK VINA RESULT: -7.592227826      0.996      1.157
REMARK  6 active torsions:
REMARK  status: ('A' for Active; 'I' for Inactive)
REMARK    1  A    between atoms: N2_5  and  C4_6 
REMARK    2  A    between atoms: C5_8  and  C6_9 
REMARK    3  A    between atoms: C6_9  and  O2_10 
REMARK    4  A    between atoms: O2_10  and  P1_11 
REMARK    5  A    between atoms: C7_15  and  O6_16 
REMARK    6  A    between atoms: C8_18  and  O7_19 
ROOT
HETATM    1  C4  UNL     1     -31.173  13.393  11.321  1.00  0.00     0.263 C 
HETATM    2  O1  UNL     1     -30.406  12.987  12.484  1.00  0.00    -0.353 OA
HETATM    3  C5  UNL     1     -31.289  12.304  13.204  1.00  0.00     0.180 C 
HETATM    4  C7  UNL     1     -32.397  11.746  12.371  1.00  0.00     0.182 C 
HETATM    5  C8  UNL     1     -31.795  12.087  10.981  1.00  0.00     0.198 C 
ENDROOT
BRANCH   1   6
HETATM    6  N2  UNL     1     -30.200  13.952  10.413  1.00  0.00    -0.280 N 
HETATM    7  C3  UNL     1     -28.910  13.646  10.587  1.00  0.00     0.102 A 
HETATM    8  C2  UNL     1     -27.948  14.285   9.802  1.00  0.00     0.062 A 
HETATM    9  C1  UNL     1     -28.390  15.210   8.853  1.00  0.00     0.121 A 
HETATM   10  N1  UNL     1     -27.423  15.886   8.069  1.00  0.00    -0.083 NA
HETATM   11  N3  UNL     1     -29.676  15.459   8.706  1.00  0.00    -0.297 N 
HETATM   12  C9  UNL     1     -30.600  14.833   9.501  1.00  0.00     0.329 A 
ATOM     13  H3  UNL     1     -29.984  16.123   7.995  1.00  0.00     0.171 HD
HETATM   14  O8  UNL     1     -31.786  15.109   9.352  1.00  0.00    -0.246 OA
ENDBRANCH   1   6
BRANCH   5  15
HETATM   15  O7  UNL     1     -32.799  12.102  10.050  1.00  0.00    -0.388 OA
ATOM     16  H7  UNL     1     -33.254  11.283   9.896  1.00  0.00     0.210 HD
ENDBRANCH   5  15
BRANCH   3  17
HETATM   17  C6  UNL     1     -30.827  11.262  14.186  1.00  0.00     0.217 C 
BRANCH  17  18
HETATM   18  O2  UNL     1     -30.917  11.880  15.477  1.00  0.00    -0.280 OA
BRANCH  18  19
HETATM   19  P1  UNL     1     -29.565  11.269  16.356  1.00  0.00     0.422 P 
HETATM   20  O3  UNL     1     -29.916  10.911  17.714  1.00  0.00    -0.617 OA
HETATM   21  O4  UNL     1     -29.142   9.878  15.427  1.00  0.00    -0.617 OA
HETATM   22  O5  UNL     1     -28.271  12.347  16.294  1.00  0.00    -0.617 OA
ENDBRANCH  18  19
ENDBRANCH  17  18
ENDBRANCH   3  17
BRANCH   4  23
HETATM   23  O6  UNL     1     -33.539  12.511  12.615  1.00  0.00    -0.390 OA
ATOM     24  H6  UNL     1     -34.140  11.980  13.124  1.00  0.00     0.210 HD
ENDBRANCH   4  23
TORSDOF 6
ENDMDL
