MODEL 13
REMARK VINA RESULT: -7.109528624      4.509      6.912
REMARK  6 active torsions:
REMARK  status: ('A' for Active; 'I' for Inactive)
REMARK    1  A    between atoms: N2_5  and  C4_6 
REMARK    2  A    between atoms: C5_8  and  C6_9 
REMARK    3  A    between atoms: C6_9  and  O2_10 
REMARK    4  A    between atoms: O2_10  and  P1_11 
REMARK    5  A    between atoms: C7_15  and  O6_16 
REMARK    6  A    between atoms: C8_18  and  O7_19 
ROOT
HETATM    1  C4  UNL     1     -31.832  14.262  16.028  1.00  0.00     0.263 C 
HETATM    2  O1  UNL     1     -32.421  13.710  14.821  1.00  0.00    -0.353 OA
HETATM    3  C5  UNL     1     -31.570  12.749  14.482  1.00  0.00     0.180 C 
HETATM    4  C7  UNL     1     -30.782  12.245  15.646  1.00  0.00     0.182 C 
HETATM    5  C8  UNL     1     -31.563  12.996  16.758  1.00  0.00     0.198 C 
ENDROOT
BRANCH   1   6
HETATM    6  N2  UNL     1     -32.831  15.162  16.550  1.00  0.00    -0.280 N 
HETATM    7  C3  UNL     1     -34.078  15.082  16.075  1.00  0.00     0.102 A 
HETATM    8  C2  UNL     1     -35.019  16.034  16.472  1.00  0.00     0.062 A 
HETATM    9  C1  UNL     1     -34.609  17.023  17.368  1.00  0.00     0.121 A 
HETATM   10  N1  UNL     1     -35.545  18.011  17.758  1.00  0.00    -0.083 NA
HETATM   11  N3  UNL     1     -33.372  17.045  17.825  1.00  0.00    -0.297 N 
HETATM   12  C9  UNL     1     -32.461  16.110  17.406  1.00  0.00     0.329 A 
ATOM     13  H3  UNL     1     -33.092  17.762  18.495  1.00  0.00     0.171 HD
HETATM   14  O8  UNL     1     -31.312  16.177  17.833  1.00  0.00    -0.246 OA
ENDBRANCH   1   6
BRANCH   5  15
HETATM   15  O7  UNL     1     -30.778  13.081  17.877  1.00  0.00    -0.388 OA
ATOM     16  H7  UNL     1     -31.203  12.929  18.713  1.00  0.00     0.210 HD
ENDBRANCH   5  15
BRANCH   3  17
HETATM   17  C6  UNL     1     -32.030  11.585  13.647  1.00  0.00     0.217 C 
BRANCH  17  18
HETATM   18  O2  UNL     1     -33.007  12.119  12.742  1.00  0.00    -0.280 OA
BRANCH  18  19
HETATM   19  P1  UNL     1     -32.240  12.092  11.198  1.00  0.00     0.422 P 
HETATM   20  O3  UNL     1     -32.554  10.890  10.456  1.00  0.00    -0.617 OA
HETATM   21  O4  UNL     1     -32.914  13.491  10.446  1.00  0.00    -0.617 OA
HETATM   22  O5  UNL     1     -30.579  12.335  11.348  1.00  0.00    -0.617 OA
ENDBRANCH  18  19
ENDBRANCH  17  18
ENDBRANCH   3  17
BRANCH   4  23
HETATM   23  O6  UNL     1     -29.484  12.747  15.531  1.00  0.00    -0.390 OA
ATOM     24  H6  UNL     1     -29.402  13.143  14.671  1.00  0.00     0.210 HD
ENDBRANCH   4  23
TORSDOF 6
ENDMDL
