MODEL 2
REMARK VINA RESULT: -7.593334249      3.578      6.237
REMARK  6 active torsions:
REMARK  status: ('A' for Active; 'I' for Inactive)
REMARK    1  A    between atoms: N2_5  and  C4_6 
REMARK    2  A    between atoms: C5_8  and  C6_9 
REMARK    3  A    between atoms: C6_9  and  O2_10 
REMARK    4  A    between atoms: O2_10  and  P1_11 
REMARK    5  A    between atoms: C7_15  and  O6_16 
REMARK    6  A    between atoms: C8_18  and  O7_19 
ROOT
HETATM    1  C4  UNL     1     -30.711  12.102  11.933  1.00  0.00     0.263 C 
HETATM    2  O1  UNL     1     -29.768  12.756  11.044  1.00  0.00    -0.353 OA
HETATM    3  C5  UNL     1     -30.551  13.289  10.113  1.00  0.00     0.180 C 
HETATM    4  C7  UNL     1     -31.942  13.526  10.601  1.00  0.00     0.182 C 
HETATM    5  C8  UNL     1     -31.685  13.212  12.100  1.00  0.00     0.198 C 
ENDROOT
BRANCH   1   6
HETATM    6  N2  UNL     1     -29.925  11.695  13.072  1.00  0.00    -0.280 N 
HETATM    7  C3  UNL     1     -28.628  12.019  13.106  1.00  0.00     0.102 A 
HETATM    8  C2  UNL     1     -27.829  11.517  14.135  1.00  0.00     0.062 A 
HETATM    9  C1  UNL     1     -28.436  10.705  15.096  1.00  0.00     0.121 A 
HETATM   10  N1  UNL     1     -27.631  10.166  16.129  1.00  0.00    -0.083 NA
HETATM   11  N3  UNL     1     -29.724  10.434  15.030  1.00  0.00    -0.297 N 
HETATM   12  C9  UNL     1     -30.485  10.924  14.000  1.00  0.00     0.329 A 
ATOM     13  H3  UNL     1     -30.157   9.856  15.750  1.00  0.00     0.171 HD
HETATM   14  O8  UNL     1     -31.675  10.629  13.958  1.00  0.00    -0.246 OA
ENDBRANCH   1   6
BRANCH   5  15
HETATM   15  O7  UNL     1     -32.876  12.906  12.704  1.00  0.00    -0.388 OA
ATOM     16  H7  UNL     1     -33.667  13.183  12.258  1.00  0.00     0.210 HD
ENDBRANCH   5  15
BRANCH   3  17
HETATM   17  C6  UNL     1     -30.087  14.480   9.320  1.00  0.00     0.217 C 
BRANCH  17  18
HETATM   18  O2  UNL     1     -31.281  15.172   8.927  1.00  0.00    -0.280 OA
BRANCH  18  19
HETATM   19  P1  UNL     1     -30.752  16.354   7.788  1.00  0.00     0.422 P 
HETATM   20  O3  UNL     1     -31.131  17.695   8.180  1.00  0.00    -0.617 OA
HETATM   21  O4  UNL     1     -29.041  16.144   7.831  1.00  0.00    -0.617 OA
HETATM   22  O5  UNL     1     -31.282  15.969   6.234  1.00  0.00    -0.617 OA
ENDBRANCH  18  19
ENDBRANCH  17  18
ENDBRANCH   3  17
BRANCH   4  23
HETATM   23  O6  UNL     1     -32.766  12.555  10.029  1.00  0.00    -0.390 OA
ATOM     24  H6  UNL     1     -33.241  12.963   9.315  1.00  0.00     0.210 HD
ENDBRANCH   4  23
TORSDOF 6
ENDMDL
