MODEL 10
REMARK VINA RESULT: -7.251969012      4.114      6.606
REMARK  6 active torsions:
REMARK  status: ('A' for Active; 'I' for Inactive)
REMARK    1  A    between atoms: N2_5  and  C4_6 
REMARK    2  A    between atoms: C5_8  and  C6_9 
REMARK    3  A    between atoms: C6_9  and  O2_10 
REMARK    4  A    between atoms: O2_10  and  P1_11 
REMARK    5  A    between atoms: C7_15  and  O6_16 
REMARK    6  A    between atoms: C8_18  and  O7_19 
ROOT
HETATM    1  C4  UNL     1     -31.364  14.266  15.752  1.00  0.00     0.263 C 
HETATM    2  O1  UNL     1     -31.230  14.677  14.366  1.00  0.00    -0.353 OA
HETATM    3  C5  UNL     1     -30.392  13.778  13.864  1.00  0.00     0.180 C 
HETATM    4  C7  UNL     1     -30.400  12.497  14.631  1.00  0.00     0.182 C 
HETATM    5  C8  UNL     1     -31.615  12.816  15.544  1.00  0.00     0.198 C 
ENDROOT
BRANCH   1   6
HETATM    6  N2  UNL     1     -32.430  15.083  16.279  1.00  0.00    -0.280 N 
HETATM    7  C3  UNL     1     -33.691  14.786  15.949  1.00  0.00     0.102 A 
HETATM    8  C2  UNL     1     -34.718  15.646  16.342  1.00  0.00     0.062 A 
HETATM    9  C1  UNL     1     -34.372  16.779  17.081  1.00  0.00     0.121 A 
HETATM   10  N1  UNL     1     -35.401  17.675  17.462  1.00  0.00    -0.083 NA
HETATM   11  N3  UNL     1     -33.116  17.016  17.400  1.00  0.00    -0.297 N 
HETATM   12  C9  UNL     1     -32.122  16.166  16.988  1.00  0.00     0.329 A 
ATOM     13  H3  UNL     1     -32.881  17.838  17.958  1.00  0.00     0.171 HD
HETATM   14  O8  UNL     1     -30.961  16.433  17.282  1.00  0.00    -0.246 OA
ENDBRANCH   1   6
BRANCH   5  15
HETATM   15  O7  UNL     1     -31.566  12.013  16.652  1.00  0.00    -0.388 OA
ATOM     16  H7  UNL     1     -31.545  11.076  16.503  1.00  0.00     0.210 HD
ENDBRANCH   5  15
BRANCH   3  17
HETATM   17  C6  UNL     1     -30.389  13.480  12.389  1.00  0.00     0.217 C 
BRANCH  17  18
HETATM   18  O2  UNL     1     -30.848  12.126  12.268  1.00  0.00    -0.280 OA
BRANCH  18  19
HETATM   19  P1  UNL     1     -32.350  12.242  11.429  1.00  0.00     0.422 P 
HETATM   20  O3  UNL     1     -32.560  11.124  10.533  1.00  0.00    -0.617 OA
HETATM   21  O4  UNL     1     -33.482  12.226  12.730  1.00  0.00    -0.617 OA
HETATM   22  O5  UNL     1     -32.486  13.726  10.642  1.00  0.00    -0.617 OA
ENDBRANCH  18  19
ENDBRANCH  17  18
ENDBRANCH   3  17
BRANCH   4  23
HETATM   23  O6  UNL     1     -29.222  12.442  15.380  1.00  0.00    -0.390 OA
ATOM     24  H6  UNL     1     -29.252  11.653  15.909  1.00  0.00     0.210 HD
ENDBRANCH   4  23
TORSDOF 6
ENDMDL
