MODEL 8
REMARK VINA RESULT: -4.618354608      4.144      6.193
REMARK  3 active torsions:
REMARK  status: ('A' for Active; 'I' for Inactive)
REMARK    1  A    between atoms: O1_2  and  C2_3 
REMARK    2  A    between atoms: C5_7  and  C6_8 
REMARK    3  A    between atoms: C7_11  and  O3_12 
ROOT
HETATM    1  C2  UNL     1      10.942   5.965  -0.253  1.00  0.00     0.072 A 
HETATM    2  C3  UNL     1      10.675   6.164  -1.588  1.00  0.00     0.064 A 
HETATM    3  C4  UNL     1       9.427   6.587  -1.989  1.00  0.00     0.067 A 
HETATM    4  N1  UNL     1       9.107   6.805  -3.343  1.00  0.00    -0.101 NA
HETATM    5  C5  UNL     1       8.401   6.828  -1.066  1.00  0.00     0.086 A 
HETATM    6  C7  UNL     1       8.665   6.630   0.269  1.00  0.00     0.088 A 
HETATM    7  C9  UNL     1       9.931   6.202   0.655  1.00  0.00     0.074 A 
ENDROOT
BRANCH   5   8
HETATM    8  C6  UNL     1       7.095   7.274  -1.512  1.00  0.00     0.269 C 
HETATM    9  N2  UNL     1       6.809   8.657  -1.496  1.00  0.00    -0.057 NA
HETATM   10  O2  UNL     1       6.263   6.433  -1.894  1.00  0.00    -0.271 OA
ENDBRANCH   5   8
BRANCH   6  11
HETATM   11  O3  UNL     1       7.696   6.847   1.254  1.00  0.00    -0.355 OA
HETATM   12  C8  UNL     1       8.013   7.609   2.403  1.00  0.00     0.210 C 
ENDBRANCH   6  11
BRANCH   1  13
HETATM   13  O1  UNL     1      12.188   5.536   0.205  1.00  0.00    -0.356 OA
HETATM   14  C1  UNL     1      13.339   6.331  -0.122  1.00  0.00     0.210 C 
ENDBRANCH   1  13
TORSDOF 3
ENDMDL
