MODEL 11
REMARK VINA RESULT: -4.549631165      2.360      4.747
REMARK  3 active torsions:
REMARK  status: ('A' for Active; 'I' for Inactive)
REMARK    1  A    between atoms: O1_2  and  C2_3 
REMARK    2  A    between atoms: C5_7  and  C6_8 
REMARK    3  A    between atoms: C7_11  and  O3_12 
ROOT
HETATM    1  C2  UNL     1       9.474   6.458   0.519  1.00  0.00     0.072 A 
HETATM    2  C3  UNL     1      10.267   7.133   1.418  1.00  0.00     0.064 A 
HETATM    3  C4  UNL     1      11.635   6.982   1.385  1.00  0.00     0.067 A 
HETATM    4  N1  UNL     1      12.487   7.652   2.284  1.00  0.00    -0.101 NA
HETATM    5  C5  UNL     1      12.260   6.149   0.448  1.00  0.00     0.086 A 
HETATM    6  C7  UNL     1      11.470   5.472  -0.452  1.00  0.00     0.088 A 
HETATM    7  C9  UNL     1      10.090   5.637  -0.403  1.00  0.00     0.074 A 
ENDROOT
BRANCH   5   8
HETATM    8  C6  UNL     1      13.703   6.005   0.431  1.00  0.00     0.269 C 
HETATM    9  N2  UNL     1      14.288   4.954   1.172  1.00  0.00    -0.057 NA
HETATM   10  O2  UNL     1      14.386   6.804  -0.230  1.00  0.00    -0.271 OA
ENDBRANCH   5   8
BRANCH   6  11
HETATM   11  O3  UNL     1      12.014   4.620  -1.419  1.00  0.00    -0.355 OA
HETATM   12  C8  UNL     1      11.792   3.226  -1.340  1.00  0.00     0.210 C 
ENDBRANCH   6  11
BRANCH   1  13
HETATM   13  O1  UNL     1       8.084   6.576   0.511  1.00  0.00    -0.356 OA
HETATM   14  C1  UNL     1       7.436   6.850  -0.741  1.00  0.00     0.210 C 
ENDBRANCH   1  13
TORSDOF 3
ENDMDL
