MODEL 12
REMARK VINA RESULT: -4.538911478      2.399      4.741
REMARK  3 active torsions:
REMARK  status: ('A' for Active; 'I' for Inactive)
REMARK    1  A    between atoms: O1_2  and  C2_3 
REMARK    2  A    between atoms: C5_7  and  C6_8 
REMARK    3  A    between atoms: C7_11  and  O3_12 
ROOT
HETATM    1  C2  UNL     1      12.409   4.635  -0.430  1.00  0.00     0.072 A 
HETATM    2  C3  UNL     1      11.641   4.044  -1.407  1.00  0.00     0.064 A 
HETATM    3  C4  UNL     1      12.219   3.195  -2.324  1.00  0.00     0.067 A 
HETATM    4  N1  UNL     1      11.473   2.568  -3.341  1.00  0.00    -0.101 NA
HETATM    5  C5  UNL     1      13.589   2.905  -2.295  1.00  0.00     0.086 A 
HETATM    6  C7  UNL     1      14.360   3.494  -1.321  1.00  0.00     0.088 A 
HETATM    7  C9  UNL     1      13.759   4.349  -0.403  1.00  0.00     0.074 A 
ENDROOT
BRANCH   5   8
HETATM    8  C6  UNL     1      14.176   2.007  -3.272  1.00  0.00     0.269 C 
HETATM    9  N2  UNL     1      14.666   2.547  -4.481  1.00  0.00    -0.057 NA
HETATM   10  O2  UNL     1      14.232   0.791  -3.023  1.00  0.00    -0.271 OA
ENDBRANCH   5   8
BRANCH   6  11
HETATM   11  O3  UNL     1      15.736   3.257  -1.223  1.00  0.00    -0.355 OA
HETATM   12  C8  UNL     1      16.525   4.028  -0.339  1.00  0.00     0.210 C 
ENDBRANCH   6  11
BRANCH   1  13
HETATM   13  O1  UNL     1      11.874   5.502   0.521  1.00  0.00    -0.356 OA
HETATM   14  C1  UNL     1      10.538   5.990   0.316  1.00  0.00     0.210 C 
ENDBRANCH   1  13
TORSDOF 3
ENDMDL
