MODEL 5
REMARK VINA RESULT: -4.812740636      3.051      4.570
REMARK  3 active torsions:
REMARK  status: ('A' for Active; 'I' for Inactive)
REMARK    1  A    between atoms: O1_2  and  C2_3 
REMARK    2  A    between atoms: C5_7  and  C6_8 
REMARK    3  A    between atoms: C7_11  and  O3_12 
ROOT
HETATM    1  C2  UNL     1      13.641   5.060  -0.032  1.00  0.00     0.072 A 
HETATM    2  C3  UNL     1      12.345   5.193  -0.475  1.00  0.00     0.064 A 
HETATM    3  C4  UNL     1      11.398   5.790   0.326  1.00  0.00     0.067 A 
HETATM    4  N1  UNL     1      10.059   5.949  -0.084  1.00  0.00    -0.101 NA
HETATM    5  C5  UNL     1      11.714   6.275   1.601  1.00  0.00     0.086 A 
HETATM    6  C7  UNL     1      13.008   6.143   2.048  1.00  0.00     0.088 A 
HETATM    7  C9  UNL     1      13.951   5.538   1.224  1.00  0.00     0.074 A 
ENDROOT
BRANCH   5   8
HETATM    8  C6  UNL     1      10.698   6.901   2.428  1.00  0.00     0.269 C 
HETATM    9  N2  UNL     1       9.959   6.093   3.320  1.00  0.00    -0.057 NA
HETATM   10  O2  UNL     1      10.505   8.124   2.332  1.00  0.00    -0.271 OA
ENDBRANCH   5   8
BRANCH   6  11
HETATM   11  O3  UNL     1      13.405   6.601   3.309  1.00  0.00    -0.355 OA
HETATM   12  C8  UNL     1      14.156   7.794   3.424  1.00  0.00     0.210 C 
ENDBRANCH   6  11
BRANCH   1  13
HETATM   13  O1  UNL     1      14.638   4.463  -0.803  1.00  0.00    -0.356 OA
HETATM   14  C1  UNL     1      14.501   3.070  -1.125  1.00  0.00     0.210 C 
ENDBRANCH   1  13
TORSDOF 3
ENDMDL
