MODEL 5
REMARK VINA RESULT: -9.731306743      3.545      6.789
REMARK  5 active torsions:
REMARK  status: ('A' for Active; 'I' for Inactive)
REMARK    1  A    between atoms: C4_4  and  N1_5 
REMARK    2  A    between atoms: C6_10  and  C7_11 
REMARK    3  A    between atoms: C11_17  and  N3_18 
REMARK       I    between atoms: N3_18  and  C12_20 
REMARK    4  A    between atoms: C12_20  and  C13_22 
REMARK    5  A    between atoms: C17_27  and  C18_28 
ROOT
HETATM    1  N3  UNL     1     -40.913  -2.544   3.191  1.00  0.00    -0.320 N 
ATOM      2  H3  UNL     1     -39.992  -2.114   3.109  1.00  0.00     0.169 HD
HETATM    3  C12 UNL     1     -41.027  -3.642   4.057  1.00  0.00     0.272 C 
HETATM    4  O1  UNL     1     -42.125  -4.210   4.203  1.00  0.00    -0.266 OA
ENDROOT
BRANCH   1   5
HETATM    5  C11 UNL     1     -41.932  -1.989   2.438  1.00  0.00     0.057 A 
HETATM    6  C7  UNL     1     -41.782  -2.170   1.044  1.00  0.00    -0.024 A 
HETATM    7  C8  UNL     1     -42.796  -1.664   0.265  1.00  0.00     0.027 A 
HETATM    8  C9  UNL     1     -43.890  -1.023   0.754  1.00  0.00     0.088 A 
HETATM    9  N2  UNL     1     -44.018  -0.859   2.073  1.00  0.00    -0.373 N 
HETATM   10  C10 UNL     1     -43.046  -1.339   2.906  1.00  0.00     0.117 A 
ATOM     11  H2  UNL     1     -44.833  -0.379   2.455  1.00  0.00     0.164 HD
BRANCH   6  12
HETATM   12  C6  UNL     1     -40.651  -2.789   0.460  1.00  0.00     0.023 C 
HETATM   13  C5  UNL     1     -40.707  -2.522  -1.068  1.00  0.00     0.042 C 
HETATM   14  C4  UNL     1     -39.869  -3.594  -1.711  1.00  0.00     0.184 C 
HETATM   15  C3  UNL     1     -38.442  -3.328  -1.338  1.00  0.00     0.037 C 
HETATM   16  C2  UNL     1     -38.332  -3.416   0.163  1.00  0.00    -0.016 C 
HETATM   17  C1  UNL     1     -36.917  -3.015   0.525  1.00  0.00     0.010 C 
HETATM   18  C24 UNL     1     -39.275  -2.441   0.858  1.00  0.00     0.013 C 
BRANCH  14  19
HETATM   19  N1  UNL     1     -40.069  -3.725  -3.121  1.00  0.00    -0.075 N 
ATOM     20  H13 UNL     1     -39.588  -2.981  -3.626  1.00  0.00     0.274 HD
ATOM     21  H12 UNL     1     -39.562  -4.531  -3.486  1.00  0.00     0.274 HD
ATOM     22  H11 UNL     1     -41.053  -3.765  -3.387  1.00  0.00     0.274 HD
ENDBRANCH  14  19
ENDBRANCH   6  12
ENDBRANCH   1   5
BRANCH   3  23
HETATM   23  C13 UNL     1     -39.904  -4.200   4.839  1.00  0.00     0.101 A 
HETATM   24  C14 UNL     1     -38.823  -4.832   4.300  1.00  0.00     0.038 A 
HETATM   25  C15 UNL     1     -37.780  -5.347   5.079  1.00  0.00     0.047 A 
HETATM   26  C16 UNL     1     -37.849  -5.210   6.444  1.00  0.00     0.144 A 
HETATM   27  F1  UNL     1     -36.855  -5.699   7.208  1.00  0.00    -0.204 F 
HETATM   28  C17 UNL     1     -38.949  -4.568   6.971  1.00  0.00     0.088 A 
HETATM   29  N4  UNL     1     -39.937  -4.085   6.177  1.00  0.00    -0.348 N 
ATOM     30  H4  UNL     1     -40.734  -3.618   6.610  1.00  0.00     0.166 HD
BRANCH  28  31
HETATM   31  C18 UNL     1     -39.109  -4.375   8.414  1.00  0.00     0.071 A 
HETATM   32  C19 UNL     1     -39.869  -5.275   9.144  1.00  0.00     0.132 A 
HETATM   33  F2  UNL     1     -40.435  -6.305   8.474  1.00  0.00    -0.205 F 
HETATM   34  C20 UNL     1     -40.042  -5.121  10.518  1.00  0.00     0.043 A 
HETATM   35  C21 UNL     1     -39.447  -4.054  11.164  1.00  0.00     0.006 A 
HETATM   36  C22 UNL     1     -38.687  -3.146  10.457  1.00  0.00     0.043 A 
HETATM   37  C23 UNL     1     -38.527  -3.319   9.081  1.00  0.00     0.132 A 
HETATM   38  F3  UNL     1     -37.789  -2.451   8.343  1.00  0.00    -0.205 F 
ENDBRANCH  28  31
ENDBRANCH   3  23
TORSDOF 5
ENDMDL
