MODEL 7
REMARK VINA RESULT: -9.680046535      2.842      6.524
REMARK  5 active torsions:
REMARK  status: ('A' for Active; 'I' for Inactive)
REMARK    1  A    between atoms: C4_4  and  N1_5 
REMARK    2  A    between atoms: C6_10  and  C7_11 
REMARK    3  A    between atoms: C11_17  and  N3_18 
REMARK       I    between atoms: N3_18  and  C12_20 
REMARK    4  A    between atoms: C12_20  and  C13_22 
REMARK    5  A    between atoms: C17_27  and  C18_28 
ROOT
HETATM    1  N3  UNL     1     -42.345  -2.616   0.077  1.00  0.00    -0.320 N 
ATOM      2  H3  UNL     1     -42.272  -3.405   0.720  1.00  0.00     0.169 HD
HETATM    3  C12 UNL     1     -41.143  -2.018  -0.332  1.00  0.00     0.272 C 
HETATM    4  O1  UNL     1     -41.164  -1.052  -1.118  1.00  0.00    -0.266 OA
ENDROOT
BRANCH   1   5
HETATM    5  C11 UNL     1     -43.618  -2.238  -0.307  1.00  0.00     0.057 A 
HETATM    6  C7  UNL     1     -44.423  -1.766   0.755  1.00  0.00    -0.024 A 
HETATM    7  C8  UNL     1     -45.685  -1.345   0.404  1.00  0.00     0.027 A 
HETATM    8  C9  UNL     1     -46.172  -1.361  -0.864  1.00  0.00     0.088 A 
HETATM    9  N2  UNL     1     -45.400  -1.810  -1.858  1.00  0.00    -0.373 N 
HETATM   10  C10 UNL     1     -44.134  -2.243  -1.579  1.00  0.00     0.117 A 
ATOM     11  H2  UNL     1     -45.752  -1.829  -2.814  1.00  0.00     0.164 HD
BRANCH   6  12
HETATM   12  C6  UNL     1     -43.999  -1.759   2.105  1.00  0.00     0.023 C 
HETATM   13  C5  UNL     1     -45.228  -1.392   2.981  1.00  0.00     0.042 C 
HETATM   14  C4  UNL     1     -44.675  -0.861   4.275  1.00  0.00     0.184 C 
HETATM   15  C3  UNL     1     -44.036  -2.011   4.993  1.00  0.00     0.037 C 
HETATM   16  C2  UNL     1     -42.916  -2.532   4.128  1.00  0.00    -0.016 C 
HETATM   17  C1  UNL     1     -42.375  -3.771   4.809  1.00  0.00     0.010 C 
HETATM   18  C24 UNL     1     -43.414  -2.949   2.749  1.00  0.00     0.013 C 
BRANCH  14  19
HETATM   19  N1  UNL     1     -45.632  -0.158   5.074  1.00  0.00    -0.075 N 
ATOM     20  H13 UNL     1     -46.553  -0.177   4.636  1.00  0.00     0.274 HD
ATOM     21  H12 UNL     1     -45.840  -0.674   5.929  1.00  0.00     0.274 HD
ATOM     22  H11 UNL     1     -45.353   0.799   5.287  1.00  0.00     0.274 HD
ENDBRANCH  14  19
ENDBRANCH   6  12
ENDBRANCH   1   5
BRANCH   3  23
HETATM   23  C13 UNL     1     -39.804  -2.460   0.111  1.00  0.00     0.101 A 
HETATM   24  C14 UNL     1     -38.701  -2.507  -0.687  1.00  0.00     0.038 A 
HETATM   25  C15 UNL     1     -37.449  -2.934  -0.226  1.00  0.00     0.047 A 
HETATM   26  C16 UNL     1     -37.329  -3.322   1.086  1.00  0.00     0.144 A 
HETATM   27  F1  UNL     1     -36.134  -3.735   1.547  1.00  0.00    -0.204 F 
HETATM   28  C17 UNL     1     -38.456  -3.268   1.878  1.00  0.00     0.088 A 
HETATM   29  N4  UNL     1     -39.650  -2.847   1.388  1.00  0.00    -0.348 N 
ATOM     30  H4  UNL     1     -40.457  -2.825   2.010  1.00  0.00     0.166 HD
BRANCH  28  31
HETATM   31  C18 UNL     1     -38.425  -3.661   3.289  1.00  0.00     0.071 A 
HETATM   32  C19 UNL     1     -38.942  -2.806   4.249  1.00  0.00     0.132 A 
HETATM   33  F2  UNL     1     -39.458  -1.628   3.826  1.00  0.00    -0.205 F 
HETATM   34  C20 UNL     1     -38.929  -3.148   5.599  1.00  0.00     0.043 A 
HETATM   35  C21 UNL     1     -38.391  -4.360   5.989  1.00  0.00     0.006 A 
HETATM   36  C22 UNL     1     -37.870  -5.226   5.051  1.00  0.00     0.043 A 
HETATM   37  C23 UNL     1     -37.894  -4.863   3.702  1.00  0.00     0.132 A 
HETATM   38  F3  UNL     1     -37.393  -5.683   2.743  1.00  0.00    -0.205 F 
ENDBRANCH  28  31
ENDBRANCH   3  23
TORSDOF 5
ENDMDL
