MODEL 4
REMARK VINA RESULT: -9.769784368      3.551      6.639
REMARK  5 active torsions:
REMARK  status: ('A' for Active; 'I' for Inactive)
REMARK    1  A    between atoms: C4_4  and  N1_5 
REMARK    2  A    between atoms: C6_10  and  C7_11 
REMARK    3  A    between atoms: C11_17  and  N3_18 
REMARK       I    between atoms: N3_18  and  C12_20 
REMARK    4  A    between atoms: C12_20  and  C13_22 
REMARK    5  A    between atoms: C17_27  and  C18_28 
ROOT
HETATM    1  N3  UNL     1     -40.910  -2.554   3.199  1.00  0.00    -0.320 N 
ATOM      2  H3  UNL     1     -39.984  -2.134   3.115  1.00  0.00     0.169 HD
HETATM    3  C12 UNL     1     -41.035  -3.646   4.072  1.00  0.00     0.272 C 
HETATM    4  O1  UNL     1     -42.139  -4.201   4.222  1.00  0.00    -0.266 OA
ENDROOT
BRANCH   1   5
HETATM    5  C11 UNL     1     -41.924  -1.992   2.444  1.00  0.00     0.057 A 
HETATM    6  C7  UNL     1     -41.769  -2.172   1.050  1.00  0.00    -0.024 A 
HETATM    7  C8  UNL     1     -42.778  -1.659   0.268  1.00  0.00     0.027 A 
HETATM    8  C9  UNL     1     -43.871  -1.015   0.754  1.00  0.00     0.088 A 
HETATM    9  N2  UNL     1     -44.003  -0.852   2.073  1.00  0.00    -0.373 N 
HETATM   10  C10 UNL     1     -43.037  -1.339   2.909  1.00  0.00     0.117 A 
ATOM     11  H2  UNL     1     -44.817  -0.369   2.453  1.00  0.00     0.164 HD
BRANCH   6  12
HETATM   12  C6  UNL     1     -40.638  -2.794   0.470  1.00  0.00     0.023 C 
HETATM   13  C5  UNL     1     -40.681  -2.514  -1.057  1.00  0.00     0.042 C 
HETATM   14  C4  UNL     1     -39.847  -3.587  -1.703  1.00  0.00     0.184 C 
HETATM   15  C3  UNL     1     -38.421  -3.336  -1.317  1.00  0.00     0.037 C 
HETATM   16  C2  UNL     1     -38.322  -3.438   0.184  1.00  0.00    -0.016 C 
HETATM   17  C1  UNL     1     -36.907  -3.050   0.559  1.00  0.00     0.010 C 
HETATM   18  C24 UNL     1     -39.263  -2.461   0.880  1.00  0.00     0.013 C 
BRANCH  14  19
HETATM   19  N1  UNL     1     -40.038  -3.705  -3.116  1.00  0.00    -0.075 N 
ATOM     20  H13 UNL     1     -39.149  -3.863  -3.589  1.00  0.00     0.274 HD
ATOM     21  H12 UNL     1     -40.510  -4.580  -3.346  1.00  0.00     0.274 HD
ATOM     22  H11 UNL     1     -40.529  -2.910  -3.523  1.00  0.00     0.274 HD
ENDBRANCH  14  19
ENDBRANCH   6  12
ENDBRANCH   1   5
BRANCH   3  23
HETATM   23  C13 UNL     1     -39.917  -4.211   4.857  1.00  0.00     0.101 A 
HETATM   24  C14 UNL     1     -38.834  -4.840   4.320  1.00  0.00     0.038 A 
HETATM   25  C15 UNL     1     -37.796  -5.362   5.101  1.00  0.00     0.047 A 
HETATM   26  C16 UNL     1     -37.873  -5.235   6.467  1.00  0.00     0.144 A 
HETATM   27  F1  UNL     1     -36.885  -5.731   7.234  1.00  0.00    -0.204 F 
HETATM   28  C17 UNL     1     -38.977  -4.596   6.992  1.00  0.00     0.088 A 
HETATM   29  N4  UNL     1     -39.959  -4.106   6.195  1.00  0.00    -0.348 N 
ATOM     30  H4  UNL     1     -40.758  -3.642   6.627  1.00  0.00     0.166 HD
BRANCH  28  31
HETATM   31  C18 UNL     1     -39.146  -4.414   8.435  1.00  0.00     0.071 A 
HETATM   32  C19 UNL     1     -38.544  -3.335   9.064  1.00  0.00     0.132 A 
HETATM   33  F2  UNL     1     -37.815  -2.490   8.297  1.00  0.00    -0.205 F 
HETATM   34  C20 UNL     1     -38.684  -3.131  10.434  1.00  0.00     0.043 A 
HETATM   35  C21 UNL     1     -39.436  -4.019  11.182  1.00  0.00     0.006 A 
HETATM   36  C22 UNL     1     -40.043  -5.099  10.577  1.00  0.00     0.043 A 
HETATM   37  C23 UNL     1     -39.889  -5.284   9.201  1.00  0.00     0.132 A 
HETATM   38  F3  UNL     1     -40.469  -6.333   8.563  1.00  0.00    -0.205 F 
ENDBRANCH  28  31
ENDBRANCH   3  23
TORSDOF 5
ENDMDL
