MODEL 3
REMARK VINA RESULT: -10.204223000      1.673      2.397
REMARK  5 active torsions:
REMARK  status: ('A' for Active; 'I' for Inactive)
REMARK    1  A    between atoms: C4_4  and  N1_5 
REMARK    2  A    between atoms: C6_10  and  C7_11 
REMARK    3  A    between atoms: C11_17  and  N3_18 
REMARK       I    between atoms: N3_18  and  C12_20 
REMARK    4  A    between atoms: C12_20  and  C13_22 
REMARK    5  A    between atoms: C17_27  and  C18_28 
ROOT
HETATM    1  N3  UNL     1     -41.010  -2.843   0.354  1.00  0.00    -0.320 N 
ATOM      2  H3  UNL     1     -41.519  -3.530   0.910  1.00  0.00     0.169 HD
HETATM    3  C12 UNL     1     -41.776  -1.880  -0.321  1.00  0.00     0.272 C 
HETATM    4  O1  UNL     1     -41.214  -1.012  -1.015  1.00  0.00    -0.266 OA
ENDROOT
BRANCH   1   5
HETATM    5  C11 UNL     1     -39.631  -2.950   0.335  1.00  0.00     0.057 A 
HETATM    6  C7  UNL     1     -39.041  -3.006   1.619  1.00  0.00    -0.024 A 
HETATM    7  C8  UNL     1     -37.673  -3.151   1.639  1.00  0.00     0.027 A 
HETATM    8  C9  UNL     1     -36.896  -3.239   0.528  1.00  0.00     0.088 A 
HETATM    9  N2  UNL     1     -37.467  -3.184  -0.678  1.00  0.00    -0.373 N 
HETATM   10  C10 UNL     1     -38.824  -3.042  -0.771  1.00  0.00     0.117 A 
ATOM     11  H2  UNL     1     -36.897  -3.247  -1.521  1.00  0.00     0.164 HD
BRANCH   6  12
HETATM   12  C6  UNL     1     -39.781  -2.879   2.818  1.00  0.00     0.023 C 
HETATM   13  C5  UNL     1     -39.194  -3.889   3.841  1.00  0.00     0.042 C 
HETATM   14  C4  UNL     1     -40.278  -4.137   4.854  1.00  0.00     0.184 C 
HETATM   15  C3  UNL     1     -40.455  -2.873   5.637  1.00  0.00     0.037 C 
HETATM   16  C2  UNL     1     -40.882  -1.789   4.679  1.00  0.00    -0.016 C 
HETATM   17  C1  UNL     1     -40.925  -0.497   5.467  1.00  0.00     0.010 C 
HETATM   18  C24 UNL     1     -39.874  -1.604   3.551  1.00  0.00     0.013 C 
BRANCH  14  19
HETATM   19  N1  UNL     1     -40.057  -5.286   5.677  1.00  0.00    -0.075 N 
ATOM     20  H13 UNL     1     -39.093  -5.313   6.009  1.00  0.00     0.274 HD
ATOM     21  H12 UNL     1     -40.540  -5.191   6.570  1.00  0.00     0.274 HD
ATOM     22  H11 UNL     1     -40.307  -6.163   5.221  1.00  0.00     0.274 HD
ENDBRANCH  14  19
ENDBRANCH   6  12
ENDBRANCH   1   5
BRANCH   3  23
HETATM   23  C13 UNL     1     -43.251  -1.810  -0.270  1.00  0.00     0.101 A 
HETATM   24  C14 UNL     1     -44.071  -1.970  -1.346  1.00  0.00     0.038 A 
HETATM   25  C15 UNL     1     -45.467  -1.895  -1.254  1.00  0.00     0.047 A 
HETATM   26  C16 UNL     1     -46.032  -1.650  -0.027  1.00  0.00     0.144 A 
HETATM   27  F1  UNL     1     -47.371  -1.575   0.081  1.00  0.00    -0.204 F 
HETATM   28  C17 UNL     1     -45.186  -1.491   1.051  1.00  0.00     0.088 A 
HETATM   29  N4  UNL     1     -43.839  -1.571   0.914  1.00  0.00    -0.348 N 
ATOM     30  H4  UNL     1     -43.252  -1.446   1.738  1.00  0.00     0.166 HD
BRANCH  28  31
HETATM   31  C18 UNL     1     -45.698  -1.227   2.397  1.00  0.00     0.071 A 
HETATM   32  C19 UNL     1     -45.453  -2.138   3.413  1.00  0.00     0.132 A 
HETATM   33  F2  UNL     1     -44.741  -3.246   3.102  1.00  0.00    -0.205 F 
HETATM   34  C20 UNL     1     -45.924  -1.919   4.705  1.00  0.00     0.043 A 
HETATM   35  C21 UNL     1     -46.648  -0.774   4.981  1.00  0.00     0.006 A 
HETATM   36  C22 UNL     1     -46.904   0.145   3.985  1.00  0.00     0.043 A 
HETATM   37  C23 UNL     1     -46.422  -0.095   2.697  1.00  0.00     0.132 A 
HETATM   38  F3  UNL     1     -46.650   0.782   1.686  1.00  0.00    -0.205 F 
ENDBRANCH  28  31
ENDBRANCH   3  23
TORSDOF 5
ENDMDL
