MODEL 5
REMARK VINA RESULT: -7.356739926      4.183      7.696
REMARK  5 active torsions:
REMARK  status: ('A' for Active; 'I' for Inactive)
REMARK    1  A    between atoms: C2_2  and  N1_3 
REMARK    2  A    between atoms: C9_11  and  N2_12 
REMARK    3  A    between atoms: N2_12  and  S1_14 
REMARK    4  A    between atoms: S1_14  and  C10_17 
REMARK    5  A    between atoms: C15_23  and  O4_24 
ROOT
HETATM    1  N1  UNL     1      -7.756  13.419  -1.558  1.00  0.00    -0.313 N 
HETATM    2  C3  UNL     1      -6.798  14.036  -0.707  1.00  0.00     0.259 A 
HETATM    3  O1  UNL     1      -6.232  15.142  -0.840  1.00  0.00    -0.267 OA
HETATM    4  C4  UNL     1      -6.584  13.111   0.394  1.00  0.00     0.045 A 
HETATM    5  C5  UNL     1      -5.800  13.090   1.539  1.00  0.00     0.018 A 
HETATM    6  C6  UNL     1      -5.864  12.002   2.377  1.00  0.00     0.002 A 
HETATM    7  C7  UNL     1      -6.702  10.911   2.104  1.00  0.00     0.014 A 
HETATM    8  C8  UNL     1      -7.479  10.934   0.970  1.00  0.00     0.005 A 
HETATM    9  C9  UNL     1      -8.335   9.895   0.625  1.00  0.00     0.053 A 
HETATM   10  C17 UNL     1      -9.063  10.037  -0.546  1.00  0.00     0.033 A 
HETATM   11  C18 UNL     1      -8.973  11.142  -1.363  1.00  0.00     0.033 A 
HETATM   12  C19 UNL     1      -8.113  12.161  -0.994  1.00  0.00     0.049 A 
HETATM   13  C20 UNL     1      -7.383  12.042   0.160  1.00  0.00     0.019 A 
ENDROOT
BRANCH   9  14
HETATM   14  N2  UNL     1      -8.445   8.761   1.455  1.00  0.00    -0.280 N 
ATOM     15  H2  UNL     1      -7.701   8.063   1.459  1.00  0.00     0.179 HD
BRANCH  14  16
HETATM   16  S1  UNL     1      -9.813   8.546   2.452  1.00  0.00     0.266 S 
HETATM   17  O2  UNL     1     -11.012   8.204   1.612  1.00  0.00    -0.200 OA
HETATM   18  O3  UNL     1     -10.138   9.879   3.110  1.00  0.00    -0.200 OA
BRANCH  16  19
HETATM   19  C10 UNL     1      -9.585   7.314   3.653  1.00  0.00     0.114 A 
HETATM   20  C11 UNL     1     -10.594   6.441   3.925  1.00  0.00     0.047 A 
HETATM   21  C12 UNL     1     -10.508   5.430   4.866  1.00  0.00     0.012 A 
HETATM   22 BR1  UNL     1     -11.946   4.228   5.215  1.00  0.00    -0.051 Br
HETATM   23  C13 UNL     1      -9.330   5.303   5.570  1.00  0.00     0.022 A 
HETATM   24  C14 UNL     1      -8.294   6.178   5.311  1.00  0.00     0.040 A 
HETATM   25  C15 UNL     1      -8.407   7.174   4.368  1.00  0.00     0.091 A 
BRANCH  25  26
HETATM   26  O4  UNL     1      -7.379   8.061   4.094  1.00  0.00    -0.354 OA
HETATM   27  C16 UNL     1      -7.003   8.970   5.113  1.00  0.00     0.210 C 
ENDBRANCH  25  26
ENDBRANCH  16  19
ENDBRANCH  14  16
ENDBRANCH   9  14
BRANCH   1  28
HETATM   28  C2  UNL     1      -8.295  13.942  -2.782  1.00  0.00     0.128 C 
HETATM   29  C1  UNL     1      -9.508  14.780  -2.432  1.00  0.00     0.027 C 
ENDBRANCH   1  28
TORSDOF 5
ENDMDL
