MODEL 9
REMARK VINA RESULT: -7.297766988      4.831      6.813
REMARK  5 active torsions:
REMARK  status: ('A' for Active; 'I' for Inactive)
REMARK    1  A    between atoms: C2_2  and  N1_3 
REMARK    2  A    between atoms: C9_11  and  N2_12 
REMARK    3  A    between atoms: N2_12  and  S1_14 
REMARK    4  A    between atoms: S1_14  and  C10_17 
REMARK    5  A    between atoms: C15_23  and  O4_24 
ROOT
HETATM    1  N1  UNL     1      -9.811   7.406   3.595  1.00  0.00    -0.313 N 
HETATM    2  C3  UNL     1     -10.560   7.818   2.458  1.00  0.00     0.259 A 
HETATM    3  O1  UNL     1     -11.664   7.394   2.054  1.00  0.00    -0.267 OA
HETATM    4  C4  UNL     1      -9.780   8.866   1.821  1.00  0.00     0.045 A 
HETATM    5  C5  UNL     1      -9.924   9.674   0.702  1.00  0.00     0.018 A 
HETATM    6  C6  UNL     1      -8.940  10.586   0.401  1.00  0.00     0.002 A 
HETATM    7  C7  UNL     1      -7.793  10.721   1.198  1.00  0.00     0.014 A 
HETATM    8  C8  UNL     1      -7.652   9.920   2.306  1.00  0.00     0.005 A 
HETATM    9  C9  UNL     1      -6.548   9.989   3.147  1.00  0.00     0.053 A 
HETATM   10  C17 UNL     1      -6.524   9.126   4.231  1.00  0.00     0.033 A 
HETATM   11  C18 UNL     1      -7.528   8.223   4.502  1.00  0.00     0.033 A 
HETATM   12  C19 UNL     1      -8.615   8.177   3.647  1.00  0.00     0.049 A 
HETATM   13  C20 UNL     1      -8.661   9.022   2.568  1.00  0.00     0.019 A 
ENDROOT
BRANCH   9  14
HETATM   14  N2  UNL     1      -5.516  10.914   2.889  1.00  0.00    -0.280 N 
ATOM     15  H2  UNL     1      -5.563  11.850   3.293  1.00  0.00     0.179 HD
BRANCH  14  16
HETATM   16  S1  UNL     1      -4.191  10.481   1.906  1.00  0.00     0.266 S 
HETATM   17  O2  UNL     1      -4.088   8.984   1.813  1.00  0.00    -0.200 OA
HETATM   18  O3  UNL     1      -2.915  10.938   2.597  1.00  0.00    -0.200 OA
BRANCH  16  19
HETATM   19  C10 UNL     1      -4.290  11.148   0.307  1.00  0.00     0.114 A 
HETATM   20  C11 UNL     1      -3.906  10.400  -0.763  1.00  0.00     0.047 A 
HETATM   21  C12 UNL     1      -3.944  10.845  -2.073  1.00  0.00     0.012 A 
HETATM   22 BR1  UNL     1      -3.396   9.763  -3.542  1.00  0.00    -0.051 Br
HETATM   23  C13 UNL     1      -4.397  12.126  -2.304  1.00  0.00     0.022 A 
HETATM   24  C14 UNL     1      -4.791  12.904  -1.233  1.00  0.00     0.040 A 
HETATM   25  C15 UNL     1      -4.743  12.433   0.059  1.00  0.00     0.091 A 
BRANCH  25  26
HETATM   26  O4  UNL     1      -5.135  13.198   1.146  1.00  0.00    -0.354 OA
HETATM   27  C16 UNL     1      -4.306  14.284   1.521  1.00  0.00     0.210 C 
ENDBRANCH  25  26
ENDBRANCH  16  19
ENDBRANCH  14  16
ENDBRANCH   9  14
BRANCH   1  28
HETATM   28  C2  UNL     1     -10.166   6.392   4.547  1.00  0.00     0.128 C 
HETATM   29  C1  UNL     1     -10.095   5.051   3.844  1.00  0.00     0.027 C 
ENDBRANCH   1  28
TORSDOF 5
ENDMDL
