MODEL 1
REMARK VINA RESULT: -7.498126616      0.000      0.000
REMARK  5 active torsions:
REMARK  status: ('A' for Active; 'I' for Inactive)
REMARK    1  A    between atoms: C2_2  and  N1_3 
REMARK    2  A    between atoms: C9_11  and  N2_12 
REMARK    3  A    between atoms: N2_12  and  S1_14 
REMARK    4  A    between atoms: S1_14  and  C10_17 
REMARK    5  A    between atoms: C15_23  and  O4_24 
ROOT
HETATM    1  N1  UNL     1      -5.569   9.294   2.218  1.00  0.00    -0.313 N 
HETATM    2  C3  UNL     1      -6.564   9.018   3.196  1.00  0.00     0.259 A 
HETATM    3  O1  UNL     1      -6.414   8.731   4.403  1.00  0.00    -0.267 OA
HETATM    4  C4  UNL     1      -7.842   9.134   2.514  1.00  0.00     0.045 A 
HETATM    5  C5  UNL     1      -9.176   8.996   2.869  1.00  0.00     0.018 A 
HETATM    6  C6  UNL     1     -10.148   9.188   1.916  1.00  0.00     0.002 A 
HETATM    7  C7  UNL     1      -9.826   9.521   0.592  1.00  0.00     0.014 A 
HETATM    8  C8  UNL     1      -8.503   9.659   0.242  1.00  0.00     0.005 A 
HETATM    9  C9  UNL     1      -8.097   9.987  -1.045  1.00  0.00     0.053 A 
HETATM   10  C17 UNL     1      -6.734  10.094  -1.272  1.00  0.00     0.033 A 
HETATM   11  C18 UNL     1      -5.787   9.893  -0.292  1.00  0.00     0.033 A 
HETATM   12  C19 UNL     1      -6.221   9.569   0.981  1.00  0.00     0.049 A 
HETATM   13  C20 UNL     1      -7.565   9.457   1.228  1.00  0.00     0.019 A 
ENDROOT
BRANCH   9  14
HETATM   14  N2  UNL     1      -9.054  10.204  -2.057  1.00  0.00    -0.280 N 
ATOM     15  H2  UNL     1      -9.445   9.409  -2.563  1.00  0.00     0.179 HD
BRANCH  14  16
HETATM   16  S1  UNL     1      -9.563  11.786  -2.445  1.00  0.00     0.266 S 
HETATM   17  O2  UNL     1      -8.482  12.500  -3.210  1.00  0.00    -0.200 OA
HETATM   18  O3  UNL     1      -9.730  12.565  -1.148  1.00  0.00    -0.200 OA
BRANCH  16  19
HETATM   19  C10 UNL     1     -11.031  11.816  -3.367  1.00  0.00     0.114 A 
HETATM   20  C11 UNL     1     -12.137  12.427  -2.859  1.00  0.00     0.047 A 
HETATM   21  C12 UNL     1     -13.353  12.498  -3.517  1.00  0.00     0.012 A 
HETATM   22 BR1  UNL     1     -14.876  13.364  -2.768  1.00  0.00    -0.051 Br
HETATM   23  C13 UNL     1     -13.447  11.913  -4.762  1.00  0.00     0.022 A 
HETATM   24  C14 UNL     1     -12.338  11.287  -5.296  1.00  0.00     0.040 A 
HETATM   25  C15 UNL     1     -11.142  11.233  -4.619  1.00  0.00     0.091 A 
BRANCH  25  26
HETATM   26  O4  UNL     1     -10.018  10.610  -5.139  1.00  0.00    -0.354 OA
HETATM   27  C16 UNL     1      -9.430  11.173  -6.298  1.00  0.00     0.210 C 
ENDBRANCH  25  26
ENDBRANCH  16  19
ENDBRANCH  14  16
ENDBRANCH   9  14
BRANCH   1  28
HETATM   28  C2  UNL     1      -4.145   9.304   2.405  1.00  0.00     0.128 C 
HETATM   29  C1  UNL     1      -3.757  10.672   2.928  1.00  0.00     0.027 C 
ENDBRANCH   1  28
TORSDOF 5
ENDMDL
