MODEL 7
REMARK VINA RESULT: -7.338599645      4.487      7.068
REMARK  5 active torsions:
REMARK  status: ('A' for Active; 'I' for Inactive)
REMARK    1  A    between atoms: C2_2  and  N1_3 
REMARK    2  A    between atoms: C9_11  and  N2_12 
REMARK    3  A    between atoms: N2_12  and  S1_14 
REMARK    4  A    between atoms: S1_14  and  C10_17 
REMARK    5  A    between atoms: C15_23  and  O4_24 
ROOT
HETATM    1  N1  UNL     1      -1.943  11.046   6.812  1.00  0.00    -0.313 N 
HETATM    2  C3  UNL     1      -2.600  10.974   8.072  1.00  0.00     0.259 A 
HETATM    3  O1  UNL     1      -2.208  11.393   9.182  1.00  0.00    -0.267 OA
HETATM    4  C4  UNL     1      -3.862  10.297   7.829  1.00  0.00     0.045 A 
HETATM    5  C5  UNL     1      -4.950   9.911   8.600  1.00  0.00     0.018 A 
HETATM    6  C6  UNL     1      -6.004   9.263   7.998  1.00  0.00     0.002 A 
HETATM    7  C7  UNL     1      -6.008   8.984   6.624  1.00  0.00     0.014 A 
HETATM    8  C8  UNL     1      -4.931   9.368   5.861  1.00  0.00     0.005 A 
HETATM    9  C9  UNL     1      -4.854   9.130   4.494  1.00  0.00     0.053 A 
HETATM   10  C17 UNL     1      -3.714   9.564   3.838  1.00  0.00     0.033 A 
HETATM   11  C18 UNL     1      -2.676  10.209   4.474  1.00  0.00     0.033 A 
HETATM   12  C19 UNL     1      -2.779  10.433   5.835  1.00  0.00     0.049 A 
HETATM   13  C20 UNL     1      -3.899  10.012   6.505  1.00  0.00     0.019 A 
ENDROOT
BRANCH   9  14
HETATM   14  N2  UNL     1      -5.912   8.479   3.828  1.00  0.00    -0.280 N 
ATOM     15  H2  UNL     1      -6.075   7.484   3.987  1.00  0.00     0.179 HD
BRANCH  14  16
HETATM   16  S1  UNL     1      -6.923   9.340   2.757  1.00  0.00     0.266 S 
HETATM   17  O2  UNL     1      -6.321   9.348   1.378  1.00  0.00    -0.200 OA
HETATM   18  O3  UNL     1      -6.957  10.796   3.199  1.00  0.00    -0.200 OA
BRANCH  16  19
HETATM   19  C10 UNL     1      -8.530   8.691   2.676  1.00  0.00     0.114 A 
HETATM   20  C11 UNL     1      -8.823   7.528   3.319  1.00  0.00     0.047 A 
HETATM   21  C12 UNL     1     -10.072   6.931   3.309  1.00  0.00     0.012 A 
HETATM   22 BR1  UNL     1     -10.437   5.300   4.224  1.00  0.00    -0.051 Br
HETATM   23  C13 UNL     1     -11.077   7.554   2.602  1.00  0.00     0.022 A 
HETATM   24  C14 UNL     1     -10.803   8.735   1.941  1.00  0.00     0.040 A 
HETATM   25  C15 UNL     1      -9.551   9.306   1.970  1.00  0.00     0.091 A 
BRANCH  25  26
HETATM   26  O4  UNL     1      -9.257  10.490   1.314  1.00  0.00    -0.354 OA
HETATM   27  C16 UNL     1      -9.411  10.520  -0.094  1.00  0.00     0.210 C 
ENDBRANCH  25  26
ENDBRANCH  16  19
ENDBRANCH  14  16
ENDBRANCH   9  14
BRANCH   1  28
HETATM   28  C2  UNL     1      -0.660  11.628   6.533  1.00  0.00     0.128 C 
HETATM   29  C1  UNL     1       0.361  10.509   6.520  1.00  0.00     0.027 C 
ENDBRANCH   1  28
TORSDOF 5
ENDMDL
