MODEL 4
REMARK VINA RESULT: -7.391648771      4.628      6.301
REMARK  5 active torsions:
REMARK  status: ('A' for Active; 'I' for Inactive)
REMARK    1  A    between atoms: C2_2  and  N1_3 
REMARK    2  A    between atoms: C9_11  and  N2_12 
REMARK    3  A    between atoms: N2_12  and  S1_14 
REMARK    4  A    between atoms: S1_14  and  C10_17 
REMARK    5  A    between atoms: C15_23  and  O4_24 
ROOT
HETATM    1  N1  UNL     1      -9.021   6.973   3.382  1.00  0.00    -0.313 N 
HETATM    2  C3  UNL     1      -9.975   7.285   2.376  1.00  0.00     0.259 A 
HETATM    3  O1  UNL     1     -10.990   6.640   2.035  1.00  0.00    -0.267 OA
HETATM    4  C4  UNL     1      -9.544   8.542   1.788  1.00  0.00     0.045 A 
HETATM    5  C5  UNL     1     -10.006   9.384   0.786  1.00  0.00     0.018 A 
HETATM    6  C6  UNL     1      -9.305  10.531   0.496  1.00  0.00     0.002 A 
HETATM    7  C7  UNL     1      -8.135  10.874   1.189  1.00  0.00     0.014 A 
HETATM    8  C8  UNL     1      -7.679  10.040   2.182  1.00  0.00     0.005 A 
HETATM    9  C9  UNL     1      -6.529  10.304   2.916  1.00  0.00     0.053 A 
HETATM   10  C17 UNL     1      -6.174   9.384   3.889  1.00  0.00     0.033 A 
HETATM   11  C18 UNL     1      -6.899   8.243   4.152  1.00  0.00     0.033 A 
HETATM   12  C19 UNL     1      -8.040   8.006   3.406  1.00  0.00     0.049 A 
HETATM   13  C20 UNL     1      -8.411   8.903   2.438  1.00  0.00     0.019 A 
ENDROOT
BRANCH   9  14
HETATM   14  N2  UNL     1      -5.780  11.471   2.666  1.00  0.00    -0.280 N 
ATOM     15  H2  UNL     1      -6.085  12.363   3.058  1.00  0.00     0.179 HD
BRANCH  14  16
HETATM   16  S1  UNL     1      -4.368  11.407   1.710  1.00  0.00     0.266 S 
HETATM   17  O2  UNL     1      -3.364  10.481   2.339  1.00  0.00    -0.200 OA
HETATM   18  O3  UNL     1      -3.721  12.784   1.722  1.00  0.00    -0.200 OA
BRANCH  16  19
HETATM   19  C10 UNL     1      -4.678  10.894   0.082  1.00  0.00     0.114 A 
HETATM   20  C11 UNL     1      -4.234   9.678  -0.340  1.00  0.00     0.047 A 
HETATM   21  C12 UNL     1      -4.429   9.184  -1.618  1.00  0.00     0.012 A 
HETATM   22 BR1  UNL     1      -3.790   7.475  -2.166  1.00  0.00    -0.051 Br
HETATM   23  C13 UNL     1      -5.111   9.976  -2.517  1.00  0.00     0.022 A 
HETATM   24  C14 UNL     1      -5.569  11.213  -2.112  1.00  0.00     0.040 A 
HETATM   25  C15 UNL     1      -5.363  11.677  -0.833  1.00  0.00     0.091 A 
BRANCH  25  26
HETATM   26  O4  UNL     1      -5.815  12.916  -0.407  1.00  0.00    -0.354 OA
HETATM   27  C16 UNL     1      -6.752  13.592  -1.226  1.00  0.00     0.210 C 
ENDBRANCH  25  26
ENDBRANCH  16  19
ENDBRANCH  14  16
ENDBRANCH   9  14
BRANCH   1  28
HETATM   28  C2  UNL     1      -9.012   5.825   4.245  1.00  0.00     0.128 C 
HETATM   29  C1  UNL     1     -10.166   5.968   5.217  1.00  0.00     0.027 C 
ENDBRANCH   1  28
TORSDOF 5
ENDMDL
