MODEL 1
REMARK VINA RESULT: -8.986661136      0.000      0.000
REMARK  5 active torsions:
REMARK  status: ('A' for Active; 'I' for Inactive)
REMARK    1  A    between atoms: C2_2  and  N1_4 
REMARK    2  A    between atoms: C5_10  and  C6_11 
REMARK    3  A    between atoms: C12_20  and  O1_21 
REMARK    4  A    between atoms: O1_21  and  C13_22 
REMARK    5  A    between atoms: C13_22  and  C15_24 
ROOT
HETATM    1  C6  UNL     1     -16.942  15.720  30.826  1.00  0.00     0.095 A 
HETATM    2  C7  UNL     1     -15.619  15.869  30.552  1.00  0.00     0.126 A 
HETATM    3  N4  UNL     1     -15.221  14.896  29.694  1.00  0.00    -0.338 N 
HETATM    4  C8  UNL     1     -16.302  14.146  29.440  1.00  0.00     0.121 A 
HETATM    5  N5  UNL     1     -17.360  14.612  30.104  1.00  0.00    -0.337 N 
ATOM      6  H5  UNL     1     -18.304  14.226  30.084  1.00  0.00     0.167 HD
HETATM    7  C9  UNL     1     -16.354  12.961  28.553  1.00  0.00     0.042 A 
HETATM    8  C10 UNL     1     -17.513  12.263  28.783  1.00  0.00     0.021 A 
HETATM    9  C11 UNL     1     -17.727  11.125  28.040  1.00  0.00     0.038 A 
HETATM   10  C12 UNL     1     -16.787  10.702  27.084  1.00  0.00     0.072 A 
HETATM   11  C16 UNL     1     -15.632  11.417  26.869  1.00  0.00     0.074 A 
HETATM   12  C17 UNL     1     -15.413  12.578  27.625  1.00  0.00     0.085 A 
HETATM   13  O3  UNL     1     -14.217  13.213  27.321  1.00  0.00    -0.348 OA
HETATM   14  C18 UNL     1     -13.884  14.556  27.667  1.00  0.00     0.196 C 
HETATM   15  C19 UNL     1     -13.873  14.743  29.184  1.00  0.00     0.156 C 
ENDROOT
BRANCH   1  16
HETATM   16  C5  UNL     1     -17.829  16.493  31.677  1.00  0.00     0.152 A 
HETATM   17  N1  UNL     1     -19.099  16.327  31.957  1.00  0.00    -0.270 N 
HETATM   18  N2  UNL     1     -19.525  17.296  32.805  1.00  0.00    -0.292 N 
HETATM   19  C4  UNL     1     -18.493  18.096  33.067  1.00  0.00     0.199 A 
ATOM     20  H2  UNL     1     -20.469  17.395  33.178  1.00  0.00     0.188 HD
HETATM   21  N3  UNL     1     -17.458  17.612  32.384  1.00  0.00    -0.334 N 
ATOM     22  H3  UNL     1     -16.521  18.016  32.385  1.00  0.00     0.168 HD
BRANCH  17  23
HETATM   23  C2  UNL     1     -20.031  15.289  31.488  1.00  0.00     0.102 C 
HETATM   24  C1  UNL     1     -20.833  15.725  30.309  1.00  0.00     0.034 C 
HETATM   25  C3  UNL     1     -20.939  14.864  32.646  1.00  0.00     0.034 C 
ENDBRANCH  17  23
ENDBRANCH   1  16
BRANCH  10  26
HETATM   26  O1  UNL     1     -17.019   9.560  26.351  1.00  0.00    -0.337 OA
BRANCH  26  27
HETATM   27  C13 UNL     1     -16.333   8.351  26.489  1.00  0.00     0.213 C 
HETATM   28  C14 UNL     1     -16.750   7.560  27.707  1.00  0.00     0.050 C 
BRANCH  27  29
HETATM   29  C15 UNL     1     -16.445   7.488  25.274  1.00  0.00     0.260 C 
HETATM   30  N6  UNL     1     -15.302   7.078  24.552  1.00  0.00    -0.060 NA
HETATM   31  O2  UNL     1     -17.575   7.112  24.877  1.00  0.00    -0.274 OA
ENDBRANCH  27  29
ENDBRANCH  26  27
ENDBRANCH  10  26
TORSDOF 5
ENDMDL
