MODEL 3
REMARK VINA RESULT: -8.531058254      1.346      1.473
REMARK  5 active torsions:
REMARK  status: ('A' for Active; 'I' for Inactive)
REMARK    1  A    between atoms: C2_2  and  N1_4 
REMARK    2  A    between atoms: C5_10  and  C6_11 
REMARK    3  A    between atoms: C12_20  and  O1_21 
REMARK    4  A    between atoms: O1_21  and  C13_22 
REMARK    5  A    between atoms: C13_22  and  C15_24 
ROOT
HETATM    1  C6  UNL     1     -17.472  14.878  30.590  1.00  0.00     0.095 A 
HETATM    2  C7  UNL     1     -16.145  15.164  30.629  1.00  0.00     0.126 A 
HETATM    3  N4  UNL     1     -15.489  14.395  29.724  1.00  0.00    -0.338 N 
HETATM    4  C8  UNL     1     -16.417  13.634  29.127  1.00  0.00     0.121 A 
HETATM    5  N5  UNL     1     -17.626  13.898  29.622  1.00  0.00    -0.337 N 
ATOM      6  H5  UNL     1     -18.503  13.459  29.341  1.00  0.00     0.167 HD
HETATM    7  C9  UNL     1     -16.172  12.632  28.064  1.00  0.00     0.042 A 
HETATM    8  C10 UNL     1     -17.275  11.827  27.926  1.00  0.00     0.021 A 
HETATM    9  C11 UNL     1     -17.221  10.834  26.976  1.00  0.00     0.038 A 
HETATM   10  C12 UNL     1     -16.076  10.659  26.181  1.00  0.00     0.072 A 
HETATM   11  C16 UNL     1     -14.981  11.477  26.335  1.00  0.00     0.074 A 
HETATM   12  C17 UNL     1     -15.034  12.490  27.304  1.00  0.00     0.085 A 
HETATM   13  O3  UNL     1     -13.873  13.250  27.367  1.00  0.00    -0.348 OA
HETATM   14  C18 UNL     1     -13.755  14.525  27.994  1.00  0.00     0.196 C 
HETATM   15  C19 UNL     1     -14.059  14.430  29.489  1.00  0.00     0.156 C 
ENDROOT
BRANCH   1  16
HETATM   16  C5  UNL     1     -18.583  15.421  31.353  1.00  0.00     0.152 A 
HETATM   17  N1  UNL     1     -19.816  14.992  31.485  1.00  0.00    -0.270 N 
HETATM   18  N2  UNL     1     -20.517  15.817  32.301  1.00  0.00    -0.292 N 
HETATM   19  C4  UNL     1     -19.703  16.795  32.695  1.00  0.00     0.199 A 
ATOM     20  H2  UNL     1     -21.495  15.709  32.567  1.00  0.00     0.188 HD
HETATM   21  N3  UNL     1     -18.525  16.559  32.121  1.00  0.00    -0.334 N 
ATOM     22  H3  UNL     1     -17.695  17.141  32.236  1.00  0.00     0.168 HD
BRANCH  17  23
HETATM   23  C2  UNL     1     -20.461  13.810  30.891  1.00  0.00     0.102 C 
HETATM   24  C1  UNL     1     -21.200  14.127  29.635  1.00  0.00     0.034 C 
HETATM   25  C3  UNL     1     -21.387  13.165  31.928  1.00  0.00     0.034 C 
ENDBRANCH  17  23
ENDBRANCH   1  16
BRANCH  10  26
HETATM   26  O1  UNL     1     -16.041   9.658  25.235  1.00  0.00    -0.337 OA
BRANCH  26  27
HETATM   27  C13 UNL     1     -15.900   8.293  25.499  1.00  0.00     0.213 C 
HETATM   28  C14 UNL     1     -17.189   7.518  25.358  1.00  0.00     0.050 C 
BRANCH  27  29
HETATM   29  C15 UNL     1     -14.842   7.655  24.658  1.00  0.00     0.260 C 
HETATM   30  N6  UNL     1     -15.051   6.407  24.030  1.00  0.00    -0.060 NA
HETATM   31  O2  UNL     1     -13.738   8.232  24.500  1.00  0.00    -0.274 OA
ENDBRANCH  27  29
ENDBRANCH  26  27
ENDBRANCH  10  26
TORSDOF 5
ENDMDL
