MODEL 2
REMARK VINA RESULT: -8.738176550      1.163      1.252
REMARK  5 active torsions:
REMARK  status: ('A' for Active; 'I' for Inactive)
REMARK    1  A    between atoms: C2_2  and  N1_4 
REMARK    2  A    between atoms: C5_10  and  C6_11 
REMARK    3  A    between atoms: C12_20  and  O1_21 
REMARK    4  A    between atoms: O1_21  and  C13_22 
REMARK    5  A    between atoms: C13_22  and  C15_24 
ROOT
HETATM    1  C6  UNL     1     -16.891  15.245  30.706  1.00  0.00     0.095 A 
HETATM    2  C7  UNL     1     -15.555  15.147  30.484  1.00  0.00     0.126 A 
HETATM    3  N4  UNL     1     -15.315  14.152  29.593  1.00  0.00    -0.338 N 
HETATM    4  C8  UNL     1     -16.508  13.637  29.266  1.00  0.00     0.121 A 
HETATM    5  N5  UNL     1     -17.484  14.271  29.917  1.00  0.00    -0.337 N 
ATOM      6  H5  UNL     1     -18.483  14.076  29.846  1.00  0.00     0.167 HD
HETATM    7  C9  UNL     1     -16.749  12.523  28.320  1.00  0.00     0.042 A 
HETATM    8  C10 UNL     1     -18.029  12.053  28.477  1.00  0.00     0.021 A 
HETATM    9  C11 UNL     1     -18.426  11.011  27.672  1.00  0.00     0.038 A 
HETATM   10  C12 UNL     1     -17.546  10.455  26.728  1.00  0.00     0.072 A 
HETATM   11  C16 UNL     1     -16.267  10.940  26.587  1.00  0.00     0.074 A 
HETATM   12  C17 UNL     1     -15.861  12.004  27.407  1.00  0.00     0.085 A 
HETATM   13  O3  UNL     1     -14.553  12.407  27.174  1.00  0.00    -0.348 OA
HETATM   14  C18 UNL     1     -13.983  13.645  27.597  1.00  0.00     0.196 C 
HETATM   15  C19 UNL     1     -14.001  13.762  29.121  1.00  0.00     0.156 C 
ENDROOT
BRANCH   1  16
HETATM   16  C5  UNL     1     -17.648  16.140  31.564  1.00  0.00     0.152 A 
HETATM   17  N1  UNL     1     -18.916  16.125  31.902  1.00  0.00    -0.270 N 
HETATM   18  N2  UNL     1     -19.193  17.162  32.731  1.00  0.00    -0.292 N 
HETATM   19  C4  UNL     1     -18.068  17.850  32.921  1.00  0.00     0.199 A 
ATOM     20  H2  UNL     1     -20.103  17.378  33.139  1.00  0.00     0.188 HD
HETATM   21  N3  UNL     1     -17.125  17.233  32.213  1.00  0.00    -0.334 N 
ATOM     22  H3  UNL     1     -16.151  17.529  32.160  1.00  0.00     0.168 HD
BRANCH  17  23
HETATM   23  C2  UNL     1     -19.976  15.183  31.511  1.00  0.00     0.102 C 
HETATM   24  C1  UNL     1     -20.789  15.676  30.362  1.00  0.00     0.034 C 
HETATM   25  C3  UNL     1     -20.860  14.884  32.725  1.00  0.00     0.034 C 
ENDBRANCH  17  23
ENDBRANCH   1  16
BRANCH  10  26
HETATM   26  O1  UNL     1     -17.962   9.411  25.932  1.00  0.00    -0.337 OA
BRANCH  26  27
HETATM   27  C13 UNL     1     -18.143   8.090  26.350  1.00  0.00     0.213 C 
HETATM   28  C14 UNL     1     -18.830   7.223  25.320  1.00  0.00     0.050 C 
BRANCH  27  29
HETATM   29  C15 UNL     1     -16.864   7.443  26.771  1.00  0.00     0.260 C 
HETATM   30  N6  UNL     1     -16.593   7.156  28.127  1.00  0.00    -0.060 NA
HETATM   31  O2  UNL     1     -16.003   7.142  25.908  1.00  0.00    -0.274 OA
ENDBRANCH  27  29
ENDBRANCH  26  27
ENDBRANCH  10  26
TORSDOF 5
ENDMDL
