MODEL 15
REMARK VINA RESULT: -8.185730761      3.428      8.181
REMARK  5 active torsions:
REMARK  status: ('A' for Active; 'I' for Inactive)
REMARK    1  A    between atoms: C2_2  and  N1_4 
REMARK    2  A    between atoms: C5_10  and  C6_11 
REMARK    3  A    between atoms: C12_20  and  O1_21 
REMARK    4  A    between atoms: O1_21  and  C13_22 
REMARK    5  A    between atoms: C13_22  and  C15_24 
ROOT
HETATM    1  C6  UNL     1     -17.010  11.260  27.839  1.00  0.00     0.095 A 
HETATM    2  C7  UNL     1     -15.903  11.988  27.540  1.00  0.00     0.126 A 
HETATM    3  N4  UNL     1     -15.917  13.146  28.248  1.00  0.00    -0.338 N 
HETATM    4  C8  UNL     1     -17.036  13.128  28.985  1.00  0.00     0.121 A 
HETATM    5  N5  UNL     1     -17.722  12.006  28.766  1.00  0.00    -0.337 N 
ATOM      6  H5  UNL     1     -18.606  11.744  29.201  1.00  0.00     0.167 HD
HETATM    7  C9  UNL     1     -17.481  14.186  29.922  1.00  0.00     0.042 A 
HETATM    8  C10 UNL     1     -18.801  13.991  30.244  1.00  0.00     0.021 A 
HETATM    9  C11 UNL     1     -19.382  14.887  31.111  1.00  0.00     0.038 A 
HETATM   10  C12 UNL     1     -18.643  15.959  31.639  1.00  0.00     0.072 A 
HETATM   11  C16 UNL     1     -17.322  16.137  31.303  1.00  0.00     0.074 A 
HETATM   12  C17 UNL     1     -16.727  15.223  30.420  1.00  0.00     0.085 A 
HETATM   13  O3  UNL     1     -15.394  15.504  30.156  1.00  0.00    -0.348 OA
HETATM   14  C18 UNL     1     -14.456  14.594  29.584  1.00  0.00     0.196 C 
HETATM   15  C19 UNL     1     -14.893  14.169  28.182  1.00  0.00     0.156 C 
ENDROOT
BRANCH   1  16
HETATM   16  C5  UNL     1     -17.456   9.966  27.352  1.00  0.00     0.152 A 
HETATM   17  N1  UNL     1     -18.482   9.646  26.600  1.00  0.00    -0.270 N 
HETATM   18  N2  UNL     1     -18.514   8.306  26.393  1.00  0.00    -0.292 N 
HETATM   19  C4  UNL     1     -17.478   7.766  27.033  1.00  0.00     0.199 A 
ATOM     20  H2  UNL     1     -19.208   7.801  25.843  1.00  0.00     0.188 HD
HETATM   21  N3  UNL     1     -16.831   8.770  27.618  1.00  0.00    -0.334 N 
ATOM     22  H3  UNL     1     -15.989   8.668  28.185  1.00  0.00     0.168 HD
BRANCH  17  23
HETATM   23  C2  UNL     1     -19.512  10.514  26.008  1.00  0.00     0.102 C 
HETATM   24  C1  UNL     1     -20.651  10.770  26.936  1.00  0.00     0.034 C 
HETATM   25  C3  UNL     1     -19.998   9.897  24.694  1.00  0.00     0.034 C 
ENDBRANCH  17  23
ENDBRANCH   1  16
BRANCH  10  26
HETATM   26  O1  UNL     1     -19.243  16.847  32.505  1.00  0.00    -0.337 OA
BRANCH  26  27
HETATM   27  C13 UNL     1     -20.280  16.545  33.392  1.00  0.00     0.213 C 
HETATM   28  C14 UNL     1     -20.090  17.146  34.765  1.00  0.00     0.050 C 
BRANCH  27  29
HETATM   29  C15 UNL     1     -21.620  16.936  32.859  1.00  0.00     0.260 C 
HETATM   30  N6  UNL     1     -22.685  16.011  32.788  1.00  0.00    -0.060 NA
HETATM   31  O2  UNL     1     -21.815  18.112  32.464  1.00  0.00    -0.274 OA
ENDBRANCH  27  29
ENDBRANCH  26  27
ENDBRANCH  10  26
TORSDOF 5
ENDMDL
