MODEL 12
REMARK VINA RESULT: -8.217943037      2.787      8.401
REMARK  5 active torsions:
REMARK  status: ('A' for Active; 'I' for Inactive)
REMARK    1  A    between atoms: C2_2  and  N1_4 
REMARK    2  A    between atoms: C5_10  and  C6_11 
REMARK    3  A    between atoms: C12_20  and  O1_21 
REMARK    4  A    between atoms: O1_21  and  C13_22 
REMARK    5  A    between atoms: C13_22  and  C15_24 
ROOT
HETATM    1  C6  UNL     1     -15.231  10.594  26.287  1.00  0.00     0.095 A 
HETATM    2  C7  UNL     1     -14.318  11.594  26.394  1.00  0.00     0.126 A 
HETATM    3  N4  UNL     1     -14.772  12.532  27.263  1.00  0.00    -0.338 N 
HETATM    4  C8  UNL     1     -15.968  12.107  27.692  1.00  0.00     0.121 A 
HETATM    5  N5  UNL     1     -16.279  10.940  27.126  1.00  0.00    -0.337 N 
ATOM      6  H5  UNL     1     -17.131  10.402  27.282  1.00  0.00     0.167 HD
HETATM    7  C9  UNL     1     -16.848  12.805  28.657  1.00  0.00     0.042 A 
HETATM    8  C10 UNL     1     -18.107  12.261  28.612  1.00  0.00     0.021 A 
HETATM    9  C11 UNL     1     -19.060  12.792  29.450  1.00  0.00     0.038 A 
HETATM   10  C12 UNL     1     -18.745  13.853  30.316  1.00  0.00     0.072 A 
HETATM   11  C16 UNL     1     -17.477  14.384  30.346  1.00  0.00     0.074 A 
HETATM   12  C17 UNL     1     -16.504  13.844  29.492  1.00  0.00     0.085 A 
HETATM   13  O3  UNL     1     -15.266  14.459  29.612  1.00  0.00    -0.348 OA
HETATM   14  C18 UNL     1     -14.030  13.927  29.139  1.00  0.00     0.196 C 
HETATM   15  C19 UNL     1     -14.059  13.742  27.622  1.00  0.00     0.156 C 
ENDROOT
BRANCH   1  16
HETATM   16  C5  UNL     1     -15.219   9.377  25.495  1.00  0.00     0.152 A 
HETATM   17  N1  UNL     1     -16.087   8.395  25.428  1.00  0.00    -0.270 N 
HETATM   18  N2  UNL     1     -15.665   7.453  24.548  1.00  0.00    -0.292 N 
HETATM   19  C4  UNL     1     -14.497   7.852  24.047  1.00  0.00     0.199 A 
ATOM     20  H2  UNL     1     -16.155   6.591  24.311  1.00  0.00     0.188 HD
HETATM   21  N3  UNL     1     -14.221   9.022  24.619  1.00  0.00    -0.334 N 
ATOM     22  H3  UNL     1     -13.386   9.577  24.433  1.00  0.00     0.168 HD
BRANCH  17  23
HETATM   23  C2  UNL     1     -17.360   8.225  26.145  1.00  0.00     0.102 C 
HETATM   24  C1  UNL     1     -17.210   7.450  27.410  1.00  0.00     0.034 C 
HETATM   25  C3  UNL     1     -18.381   7.565  25.212  1.00  0.00     0.034 C 
ENDBRANCH  17  23
ENDBRANCH   1  16
BRANCH  10  26
HETATM   26  O1  UNL     1     -19.713  14.372  31.147  1.00  0.00    -0.337 OA
BRANCH  26  27
HETATM   27  C13 UNL     1     -19.803  15.704  31.558  1.00  0.00     0.213 C 
HETATM   28  C14 UNL     1     -20.773  16.522  30.737  1.00  0.00     0.050 C 
BRANCH  27  29
HETATM   29  C15 UNL     1     -20.147  15.833  33.007  1.00  0.00     0.260 C 
HETATM   30  N6  UNL     1     -19.640  16.890  33.795  1.00  0.00    -0.060 NA
HETATM   31  O2  UNL     1     -20.905  14.989  33.545  1.00  0.00    -0.274 OA
ENDBRANCH  27  29
ENDBRANCH  26  27
ENDBRANCH  10  26
TORSDOF 5
ENDMDL
