MODEL 14
REMARK VINA RESULT: -8.199195660      3.264      7.938
REMARK  5 active torsions:
REMARK  status: ('A' for Active; 'I' for Inactive)
REMARK    1  A    between atoms: C2_2  and  N1_4 
REMARK    2  A    between atoms: C5_10  and  C6_11 
REMARK    3  A    between atoms: C12_20  and  O1_21 
REMARK    4  A    between atoms: O1_21  and  C13_22 
REMARK    5  A    between atoms: C13_22  and  C15_24 
ROOT
HETATM    1  C6  UNL     1     -15.464  11.525  27.074  1.00  0.00     0.095 A 
HETATM    2  C7  UNL     1     -14.490  12.471  27.025  1.00  0.00     0.126 A 
HETATM    3  N4  UNL     1     -14.834  13.518  27.817  1.00  0.00    -0.338 N 
HETATM    4  C8  UNL     1     -16.023  13.214  28.354  1.00  0.00     0.121 A 
HETATM    5  N5  UNL     1     -16.436  12.019  27.931  1.00  0.00    -0.337 N 
ATOM      6  H5  UNL     1     -17.305  11.553  28.189  1.00  0.00     0.167 HD
HETATM    7  C9  UNL     1     -16.800  14.059  29.291  1.00  0.00     0.042 A 
HETATM    8  C10 UNL     1     -18.088  13.593  29.373  1.00  0.00     0.021 A 
HETATM    9  C11 UNL     1     -18.955  14.264  30.204  1.00  0.00     0.038 A 
HETATM   10  C12 UNL     1     -18.526  15.384  30.937  1.00  0.00     0.072 A 
HETATM   11  C16 UNL     1     -17.230  15.835  30.840  1.00  0.00     0.074 A 
HETATM   12  C17 UNL     1     -16.346  15.152  29.993  1.00  0.00     0.085 A 
HETATM   13  O3  UNL     1     -15.069  15.697  29.977  1.00  0.00    -0.348 OA
HETATM   14  C18 UNL     1     -13.898  15.043  29.493  1.00  0.00     0.196 C 
HETATM   15  C19 UNL     1     -14.033  14.710  28.007  1.00  0.00     0.156 C 
ENDROOT
BRANCH   1  16
HETATM   16  C5  UNL     1     -15.570  10.236  26.413  1.00  0.00     0.152 A 
HETATM   17  N1  UNL     1     -16.246   9.162  26.744  1.00  0.00    -0.270 N 
HETATM   18  N2  UNL     1     -16.051   8.182  25.827  1.00  0.00    -0.292 N 
HETATM   19  C4  UNL     1     -15.228   8.651  24.892  1.00  0.00     0.199 A 
ATOM     20  H2  UNL     1     -16.463   7.249  25.850  1.00  0.00     0.188 HD
HETATM   21  N3  UNL     1     -14.932   9.901  25.242  1.00  0.00    -0.334 N 
ATOM     22  H3  UNL     1     -14.318  10.522  24.716  1.00  0.00     0.168 HD
BRANCH  17  23
HETATM   23  C2  UNL     1     -17.120   8.930  27.905  1.00  0.00     0.102 C 
HETATM   24  C1  UNL     1     -16.988   7.551  28.458  1.00  0.00     0.034 C 
HETATM   25  C3  UNL     1     -18.570   9.233  27.516  1.00  0.00     0.034 C 
ENDBRANCH  17  23
ENDBRANCH   1  16
BRANCH  10  26
HETATM   26  O1  UNL     1     -19.409  16.044  31.763  1.00  0.00    -0.337 OA
BRANCH  26  27
HETATM   27  C13 UNL     1     -20.232  15.444  32.719  1.00  0.00     0.213 C 
HETATM   28  C14 UNL     1     -20.173  16.118  34.071  1.00  0.00     0.050 C 
BRANCH  27  29
HETATM   29  C15 UNL     1     -21.655  15.352  32.272  1.00  0.00     0.260 C 
HETATM   30  N6  UNL     1     -22.175  14.167  31.705  1.00  0.00    -0.060 NA
HETATM   31  O2  UNL     1     -22.414  16.344  32.399  1.00  0.00    -0.274 OA
ENDBRANCH  27  29
ENDBRANCH  26  27
ENDBRANCH  10  26
TORSDOF 5
ENDMDL
