MODEL 1
REMARK VINA RESULT: -12.802568494      0.000      0.000
REMARK  11 active torsions:
REMARK  status: ('A' for Active; 'I' for Inactive)
REMARK    1  A    between atoms: C6_8  and  S1_9 
REMARK    2  A    between atoms: S1_9  and  C7_10 
REMARK    3  A    between atoms: C7_10  and  C8_11 
REMARK       I    between atoms: C8_11  and  N2_13 
REMARK    4  A    between atoms: N2_13  and  C9_15 
REMARK    5  A    between atoms: C11_19  and  C12_20 
REMARK    6  A    between atoms: C12_20  and  C13_21 
REMARK    7  A    between atoms: C17_25  and  O2_26 
REMARK    8  A    between atoms: O2_26  and  C18_27 
REMARK    9  A    between atoms: C18_27  and  C19_28 
REMARK   10  A    between atoms: N4_30  and  C21_31 
REMARK   11  A    between atoms: C21_31  and  C22_32 
ROOT
HETATM    1  C12 UNL     1       8.799   1.366  19.790  1.00  0.00     0.086 C 
ENDROOT
BRANCH   1   2
HETATM    2  C11 UNL     1       7.640   1.655  20.675  1.00  0.00     0.006 A 
HETATM    3  C10 UNL     1       6.943   2.831  20.791  1.00  0.00     0.105 A 
HETATM    4  N3  UNL     1       5.953   2.865  21.622  1.00  0.00    -0.345 N 
HETATM    5  C9  UNL     1       5.639   1.797  22.325  1.00  0.00     0.151 A 
ATOM      6  H3  UNL     1       5.413   3.724  21.734  1.00  0.00     0.167 HD
HETATM    7  S2  UNL     1       6.795   0.663  21.800  1.00  0.00    -0.057 SA
BRANCH   5   8
HETATM    8  N2  UNL     1       4.582   1.692  23.269  1.00  0.00    -0.306 N 
HETATM    9  C8  UNL     1       3.276   2.212  22.986  1.00  0.00     0.233 C 
HETATM   10  O1  UNL     1       3.165   2.759  21.842  1.00  0.00    -0.272 OA
ATOM     11  H2  UNL     1       4.755   1.238  24.166  1.00  0.00     0.171 HD
BRANCH   9  12
HETATM   12  C7  UNL     1       2.139   2.153  23.891  1.00  0.00     0.185 C 
BRANCH  12  13
HETATM   13  S1  UNL     1       1.060   0.730  23.683  1.00  0.00    -0.085 SA
BRANCH  13  14
HETATM   14  C6  UNL     1       1.631  -0.587  24.722  1.00  0.00     0.145 A 
HETATM   15  N1  UNL     1       2.869  -0.549  25.229  1.00  0.00    -0.341 N 
HETATM   16  C4  UNL     1       3.360  -1.503  26.032  1.00  0.00     0.009 A 
ATOM     17  H1  UNL     1       3.467   0.243  24.993  1.00  0.00     0.167 HD
HETATM   18  C3  UNL     1       2.514  -2.561  26.327  1.00  0.00     0.049 A 
HETATM   19  C5  UNL     1       4.742  -1.391  26.554  1.00  0.00     0.068 C 
HETATM   20  C2  UNL     1       1.247  -2.631  25.827  1.00  0.00     0.009 A 
HETATM   21  C1  UNL     1       0.329  -3.746  26.129  1.00  0.00     0.068 C 
HETATM   22  N7  UNL     1       0.826  -1.612  25.014  1.00  0.00    -0.341 N 
ATOM     23  H7  UNL     1      -0.117  -1.637  24.625  1.00  0.00     0.167 HD
ENDBRANCH  13  14
ENDBRANCH  12  13
ENDBRANCH   9  12
ENDBRANCH   5   8
ENDBRANCH   1   2
BRANCH   1  24
HETATM   24  C13 UNL     1       8.414   0.477  18.672  1.00  0.00    -0.051 A 
HETATM   25  C14 UNL     1       9.363  -0.272  17.996  1.00  0.00     0.007 A 
HETATM   26  C15 UNL     1       8.985  -1.103  16.956  1.00  0.00     0.003 A 
HETATM   27  C16 UNL     1       7.681  -1.214  16.561  1.00  0.00     0.037 A 
HETATM   28  C17 UNL     1       6.703  -0.473  17.219  1.00  0.00     0.069 A 
HETATM   29  C28 UNL     1       7.110   0.340  18.246  1.00  0.00     0.044 A 
BRANCH  28  30
HETATM   30  O2  UNL     1       5.390  -0.606  16.797  1.00  0.00    -0.345 OA
BRANCH  30  31
HETATM   31  C18 UNL     1       4.787   0.503  16.149  1.00  0.00     0.235 C 
BRANCH  31  32
HETATM   32  C19 UNL     1       5.256   0.624  14.750  1.00  0.00     0.068 A 
HETATM   33  C20 UNL     1       5.534   1.776  14.051  1.00  0.00     0.140 A 
HETATM   34  N4  UNL     1       5.939   1.437  12.790  1.00  0.00    -0.283 N 
HETATM   35  N5  UNL     1       5.905   0.140  12.741  1.00  0.00    -0.240 N 
HETATM   36  N6  UNL     1       5.501  -0.380  13.898  1.00  0.00    -0.287 N 
ATOM     37  H5  UNL     1       6.155  -0.410  11.920  1.00  0.00     0.208 HD
ATOM     38  H6  UNL     1       5.396  -1.374  14.101  1.00  0.00     0.188 HD
BRANCH  34  39
HETATM   39  C21 UNL     1       6.325   2.342  11.730  1.00  0.00     0.188 C 
BRANCH  39  40
HETATM   40  C22 UNL     1       6.725   3.666  12.280  1.00  0.00    -0.038 A 
HETATM   41  C23 UNL     1       6.125   4.792  11.755  1.00  0.00     0.009 A 
HETATM   42  C24 UNL     1       6.440   6.058  12.200  1.00  0.00     0.001 A 
HETATM   43  C25 UNL     1       7.387   6.229  13.208  1.00  0.00     0.000 A 
HETATM   44  C26 UNL     1       7.978   5.085  13.724  1.00  0.00     0.001 A 
HETATM   45  C27 UNL     1       7.657   3.841  13.273  1.00  0.00     0.009 A 
ENDBRANCH  39  40
ENDBRANCH  34  39
ENDBRANCH  31  32
ENDBRANCH  30  31
ENDBRANCH  28  30
ENDBRANCH   1  24
TORSDOF 11
ENDMDL
