MODEL 5
REMARK VINA RESULT: -12.188687651      3.544     12.735
REMARK  11 active torsions:
REMARK  status: ('A' for Active; 'I' for Inactive)
REMARK    1  A    between atoms: C6_8  and  S1_9 
REMARK    2  A    between atoms: S1_9  and  C7_10 
REMARK    3  A    between atoms: C7_10  and  C8_11 
REMARK       I    between atoms: C8_11  and  N2_13 
REMARK    4  A    between atoms: N2_13  and  C9_15 
REMARK    5  A    between atoms: C11_19  and  C12_20 
REMARK    6  A    between atoms: C12_20  and  C13_21 
REMARK    7  A    between atoms: C17_25  and  O2_26 
REMARK    8  A    between atoms: O2_26  and  C18_27 
REMARK    9  A    between atoms: C18_27  and  C19_28 
REMARK   10  A    between atoms: N4_30  and  C21_31 
REMARK   11  A    between atoms: C21_31  and  C22_32 
ROOT
HETATM    1  C12 UNL     1       8.955  -0.103  18.960  1.00  0.00     0.086 C 
ENDROOT
BRANCH   1   2
HETATM    2  C11 UNL     1       8.598  -0.092  17.517  1.00  0.00     0.006 A 
HETATM    3  C10 UNL     1       9.326  -0.586  16.465  1.00  0.00     0.105 A 
HETATM    4  N3  UNL     1       8.822  -0.479  15.279  1.00  0.00    -0.345 N 
HETATM    5  C9  UNL     1       7.647   0.089  15.106  1.00  0.00     0.151 A 
ATOM      6  H3  UNL     1       9.338  -0.835  14.474  1.00  0.00     0.167 HD
HETATM    7  S2  UNL     1       7.207   0.506  16.697  1.00  0.00    -0.057 SA
BRANCH   5   8
HETATM    8  N2  UNL     1       6.976   0.273  13.867  1.00  0.00    -0.306 N 
HETATM    9  C8  UNL     1       7.700   0.568  12.665  1.00  0.00     0.233 C 
HETATM   10  O1  UNL     1       8.961   0.646  12.816  1.00  0.00    -0.272 OA
ATOM     11  H2  UNL     1       5.959   0.193  13.832  1.00  0.00     0.171 HD
BRANCH   9  12
HETATM   12  C7  UNL     1       7.097   0.775  11.357  1.00  0.00     0.185 C 
BRANCH  12  13
HETATM   13  S1  UNL     1       6.512  -0.712  10.533  1.00  0.00    -0.085 SA
BRANCH  13  14
HETATM   14  C6  UNL     1       6.133  -0.326   8.845  1.00  0.00     0.145 A 
HETATM   15  N1  UNL     1       6.688   0.744   8.263  1.00  0.00    -0.341 N 
HETATM   16  C4  UNL     1       6.457   1.086   6.988  1.00  0.00     0.009 A 
ATOM     17  H1  UNL     1       7.317   1.326   8.817  1.00  0.00     0.167 HD
HETATM   18  C3  UNL     1       5.597   0.266   6.273  1.00  0.00     0.049 A 
HETATM   19  C5  UNL     1       7.109   2.286   6.413  1.00  0.00     0.068 C 
HETATM   20  C2  UNL     1       5.014  -0.831   6.835  1.00  0.00     0.009 A 
HETATM   21  C1  UNL     1       4.097  -1.718   6.093  1.00  0.00     0.068 C 
HETATM   22  N7  UNL     1       5.306  -1.107   8.145  1.00  0.00    -0.341 N 
ATOM     23  H7  UNL     1       4.885  -1.922   8.593  1.00  0.00     0.167 HD
ENDBRANCH  13  14
ENDBRANCH  12  13
ENDBRANCH   9  12
ENDBRANCH   5   8
ENDBRANCH   1   2
BRANCH   1  24
HETATM   24  C13 UNL     1       8.326   1.025  19.679  1.00  0.00    -0.051 A 
HETATM   25  C14 UNL     1       8.951   2.260  19.756  1.00  0.00     0.007 A 
HETATM   26  C15 UNL     1       8.346   3.308  20.427  1.00  0.00     0.003 A 
HETATM   27  C16 UNL     1       7.128   3.168  21.031  1.00  0.00     0.037 A 
HETATM   28  C17 UNL     1       6.474   1.939  20.973  1.00  0.00     0.069 A 
HETATM   29  C28 UNL     1       7.099   0.922  20.300  1.00  0.00     0.044 A 
BRANCH  28  30
HETATM   30  O2  UNL     1       5.240   1.828  21.595  1.00  0.00    -0.345 OA
BRANCH  30  31
HETATM   31  C18 UNL     1       4.948   2.728  22.651  1.00  0.00     0.235 C 
BRANCH  31  32
HETATM   32  C19 UNL     1       3.762   2.285  23.419  1.00  0.00     0.068 A 
HETATM   33  C20 UNL     1       2.912   1.242  23.129  1.00  0.00     0.140 A 
HETATM   34  N4  UNL     1       1.949   1.180  24.098  1.00  0.00    -0.283 N 
HETATM   35  N5  UNL     1       2.214   2.143  24.927  1.00  0.00    -0.240 N 
HETATM   36  N6  UNL     1       3.294   2.824  24.552  1.00  0.00    -0.287 N 
ATOM     37  H5  UNL     1       1.665   2.351  25.760  1.00  0.00     0.208 HD
ATOM     38  H6  UNL     1       3.697   3.622  25.044  1.00  0.00     0.188 HD
BRANCH  34  39
HETATM   39  C21 UNL     1       0.858   0.233  24.177  1.00  0.00     0.188 C 
BRANCH  39  40
HETATM   40  C22 UNL     1       1.251  -0.966  24.966  1.00  0.00    -0.038 A 
HETATM   41  C23 UNL     1       0.347  -2.006  25.054  1.00  0.00     0.009 A 
HETATM   42  C24 UNL     1       0.625  -3.151  25.768  1.00  0.00     0.001 A 
HETATM   43  C25 UNL     1       1.846  -3.285  26.427  1.00  0.00     0.000 A 
HETATM   44  C26 UNL     1       2.741  -2.230  26.325  1.00  0.00     0.001 A 
HETATM   45  C27 UNL     1       2.452  -1.104  25.616  1.00  0.00     0.009 A 
ENDBRANCH  39  40
ENDBRANCH  34  39
ENDBRANCH  31  32
ENDBRANCH  30  31
ENDBRANCH  28  30
ENDBRANCH   1  24
TORSDOF 11
ENDMDL
