MODEL 4
REMARK VINA RESULT: -12.193896893      3.566     12.854
REMARK  11 active torsions:
REMARK  status: ('A' for Active; 'I' for Inactive)
REMARK    1  A    between atoms: C6_8  and  S1_9 
REMARK    2  A    between atoms: S1_9  and  C7_10 
REMARK    3  A    between atoms: C7_10  and  C8_11 
REMARK       I    between atoms: C8_11  and  N2_13 
REMARK    4  A    between atoms: N2_13  and  C9_15 
REMARK    5  A    between atoms: C11_19  and  C12_20 
REMARK    6  A    between atoms: C12_20  and  C13_21 
REMARK    7  A    between atoms: C17_25  and  O2_26 
REMARK    8  A    between atoms: O2_26  and  C18_27 
REMARK    9  A    between atoms: C18_27  and  C19_28 
REMARK   10  A    between atoms: N4_30  and  C21_31 
REMARK   11  A    between atoms: C21_31  and  C22_32 
ROOT
HETATM    1  C12 UNL     1       8.873  -0.126  18.911  1.00  0.00     0.086 C 
ENDROOT
BRANCH   1   2
HETATM    2  C11 UNL     1       8.504  -0.097  17.471  1.00  0.00     0.006 A 
HETATM    3  C10 UNL     1       9.186  -0.645  16.415  1.00  0.00     0.105 A 
HETATM    4  N3  UNL     1       8.679  -0.509  15.234  1.00  0.00    -0.345 N 
HETATM    5  C9  UNL     1       7.545   0.137  15.068  1.00  0.00     0.151 A 
ATOM      6  H3  UNL     1       9.161  -0.905  14.426  1.00  0.00     0.167 HD
HETATM    7  S2  UNL     1       7.150   0.592  16.661  1.00  0.00    -0.057 SA
BRANCH   5   8
HETATM    8  N2  UNL     1       6.875   0.361  13.835  1.00  0.00    -0.306 N 
HETATM    9  C8  UNL     1       7.606   0.566  12.618  1.00  0.00     0.233 C 
HETATM   10  O1  UNL     1       8.871   0.528  12.752  1.00  0.00    -0.272 OA
ATOM     11  H2  UNL     1       5.856   0.376  13.814  1.00  0.00     0.171 HD
BRANCH   9  12
HETATM   12  C7  UNL     1       7.007   0.804  11.314  1.00  0.00     0.185 C 
BRANCH  12  13
HETATM   13  S1  UNL     1       6.461  -0.665  10.434  1.00  0.00    -0.085 SA
BRANCH  13  14
HETATM   14  C6  UNL     1       6.154  -0.244   8.740  1.00  0.00     0.145 A 
HETATM   15  N1  UNL     1       5.342  -1.006   7.998  1.00  0.00    -0.341 N 
HETATM   16  C4  UNL     1       5.057  -0.738   6.716  1.00  0.00     0.009 A 
ATOM     17  H1  UNL     1       4.921  -1.829   8.429  1.00  0.00     0.167 HD
HETATM   18  C3  UNL     1       5.650   0.390   6.172  1.00  0.00     0.049 A 
HETATM   19  C5  UNL     1       4.147  -1.630   5.959  1.00  0.00     0.068 C 
HETATM   20  C2  UNL     1       6.483   1.188   6.899  1.00  0.00     0.009 A 
HETATM   21  C1  UNL     1       7.125   2.394   6.340  1.00  0.00     0.068 C 
HETATM   22  N7  UNL     1       6.721   0.841   8.203  1.00  0.00    -0.341 N 
ATOM     23  H7  UNL     1       7.340   1.418   8.772  1.00  0.00     0.167 HD
ENDBRANCH  13  14
ENDBRANCH  12  13
ENDBRANCH   9  12
ENDBRANCH   5   8
ENDBRANCH   1   2
BRANCH   1  24
HETATM   24  C13 UNL     1       8.272   1.010  19.643  1.00  0.00    -0.051 A 
HETATM   25  C14 UNL     1       8.906   2.241  19.695  1.00  0.00     0.007 A 
HETATM   26  C15 UNL     1       8.327   3.295  20.380  1.00  0.00     0.003 A 
HETATM   27  C16 UNL     1       7.127   3.164  21.021  1.00  0.00     0.037 A 
HETATM   28  C17 UNL     1       6.465   1.939  20.989  1.00  0.00     0.069 A 
HETATM   29  C28 UNL     1       7.064   0.916  20.302  1.00  0.00     0.044 A 
BRANCH  28  30
HETATM   30  O2  UNL     1       5.251   1.837  21.649  1.00  0.00    -0.345 OA
BRANCH  30  31
HETATM   31  C18 UNL     1       5.083   2.579  22.846  1.00  0.00     0.235 C 
BRANCH  31  32
HETATM   32  C19 UNL     1       3.829   2.203  23.537  1.00  0.00     0.068 A 
HETATM   33  C20 UNL     1       3.012   1.128  23.274  1.00  0.00     0.140 A 
HETATM   34  N4  UNL     1       1.960   1.153  24.149  1.00  0.00    -0.283 N 
HETATM   35  N5  UNL     1       2.145   2.196  24.899  1.00  0.00    -0.240 N 
HETATM   36  N6  UNL     1       3.255   2.848  24.562  1.00  0.00    -0.287 N 
ATOM     37  H5  UNL     1       1.519   2.480  25.652  1.00  0.00     0.208 HD
ATOM     38  H6  UNL     1       3.609   3.695  25.007  1.00  0.00     0.188 HD
BRANCH  34  39
HETATM   39  C21 UNL     1       0.868   0.208  24.218  1.00  0.00     0.188 C 
BRANCH  39  40
HETATM   40  C22 UNL     1       1.260  -1.003  24.990  1.00  0.00    -0.038 A 
HETATM   41  C23 UNL     1       0.343  -2.030  25.090  1.00  0.00     0.009 A 
HETATM   42  C24 UNL     1       0.620  -3.184  25.791  1.00  0.00     0.001 A 
HETATM   43  C25 UNL     1       1.852  -3.340  26.423  1.00  0.00     0.000 A 
HETATM   44  C26 UNL     1       2.759  -2.297  26.311  1.00  0.00     0.001 A 
HETATM   45  C27 UNL     1       2.471  -1.162  25.615  1.00  0.00     0.009 A 
ENDBRANCH  39  40
ENDBRANCH  34  39
ENDBRANCH  31  32
ENDBRANCH  30  31
ENDBRANCH  28  30
ENDBRANCH   1  24
TORSDOF 11
ENDMDL
