MODEL 2
REMARK VINA RESULT: -12.688173619      0.660      1.541
REMARK  11 active torsions:
REMARK  status: ('A' for Active; 'I' for Inactive)
REMARK    1  A    between atoms: C6_8  and  S1_9 
REMARK    2  A    between atoms: S1_9  and  C7_10 
REMARK    3  A    between atoms: C7_10  and  C8_11 
REMARK       I    between atoms: C8_11  and  N2_13 
REMARK    4  A    between atoms: N2_13  and  C9_15 
REMARK    5  A    between atoms: C11_19  and  C12_20 
REMARK    6  A    between atoms: C12_20  and  C13_21 
REMARK    7  A    between atoms: C17_25  and  O2_26 
REMARK    8  A    between atoms: O2_26  and  C18_27 
REMARK    9  A    between atoms: C18_27  and  C19_28 
REMARK   10  A    between atoms: N4_30  and  C21_31 
REMARK   11  A    between atoms: C21_31  and  C22_32 
ROOT
HETATM    1  C12 UNL     1       8.926   1.271  19.904  1.00  0.00     0.086 C 
ENDROOT
BRANCH   1   2
HETATM    2  C11 UNL     1       7.761   1.610  20.763  1.00  0.00     0.006 A 
HETATM    3  C10 UNL     1       7.076   2.796  20.824  1.00  0.00     0.105 A 
HETATM    4  N3  UNL     1       6.078   2.875  21.643  1.00  0.00    -0.345 N 
HETATM    5  C9  UNL     1       5.745   1.840  22.386  1.00  0.00     0.151 A 
ATOM      6  H3  UNL     1       5.547   3.743  21.714  1.00  0.00     0.167 HD
HETATM    7  S2  UNL     1       6.894   0.674  21.920  1.00  0.00    -0.057 SA
BRANCH   5   8
HETATM    8  N2  UNL     1       4.678   1.785  23.323  1.00  0.00    -0.306 N 
HETATM    9  C8  UNL     1       3.361   2.235  22.977  1.00  0.00     0.233 C 
HETATM   10  O1  UNL     1       3.250   2.674  21.788  1.00  0.00    -0.272 OA
ATOM     11  H2  UNL     1       4.852   1.419  24.258  1.00  0.00     0.171 HD
BRANCH   9  12
HETATM   12  C7  UNL     1       2.212   2.219  23.870  1.00  0.00     0.185 C 
BRANCH  12  13
HETATM   13  S1  UNL     1       1.110   0.811  23.686  1.00  0.00    -0.085 SA
BRANCH  13  14
HETATM   14  C6  UNL     1       1.673  -0.505  24.731  1.00  0.00     0.145 A 
HETATM   15  N1  UNL     1       0.863  -1.534  25.005  1.00  0.00    -0.341 N 
HETATM   16  C4  UNL     1       1.229  -2.568  25.776  1.00  0.00     0.009 A 
ATOM     17  H1  UNL     1      -0.077  -1.531  24.608  1.00  0.00     0.167 HD
HETATM   18  C3  UNL     1       2.514  -2.531  26.293  1.00  0.00     0.049 A 
HETATM   19  C5  UNL     1       0.275  -3.672  26.034  1.00  0.00     0.068 C 
HETATM   20  C2  UNL     1       3.365  -1.497  26.034  1.00  0.00     0.009 A 
HETATM   21  C1  UNL     1       4.738  -1.437  26.573  1.00  0.00     0.068 C 
HETATM   22  N7  UNL     1       2.910  -0.481  25.236  1.00  0.00    -0.341 N 
ATOM     23  H7  UNL     1       3.524   0.306  25.025  1.00  0.00     0.167 HD
ENDBRANCH  13  14
ENDBRANCH  12  13
ENDBRANCH   9  12
ENDBRANCH   5   8
ENDBRANCH   1   2
BRANCH   1  24
HETATM   24  C13 UNL     1       8.505   0.524  18.699  1.00  0.00    -0.051 A 
HETATM   25  C14 UNL     1       9.325  -0.441  18.136  1.00  0.00     0.007 A 
HETATM   26  C15 UNL     1       8.915  -1.135  17.011  1.00  0.00     0.003 A 
HETATM   27  C16 UNL     1       7.704  -0.900  16.422  1.00  0.00     0.037 A 
HETATM   28  C17 UNL     1       6.858   0.065  16.963  1.00  0.00     0.069 A 
HETATM   29  C28 UNL     1       7.293   0.734  18.077  1.00  0.00     0.044 A 
BRANCH  28  30
HETATM   30  O2  UNL     1       5.637   0.282  16.343  1.00  0.00    -0.345 OA
BRANCH  30  31
HETATM   31  C18 UNL     1       5.423  -0.316  15.075  1.00  0.00     0.235 C 
BRANCH  31  32
HETATM   32  C19 UNL     1       5.875   0.574  13.982  1.00  0.00     0.068 A 
HETATM   33  C20 UNL     1       5.269   1.721  13.524  1.00  0.00     0.140 A 
HETATM   34  N4  UNL     1       6.019   2.235  12.502  1.00  0.00    -0.283 N 
HETATM   35  N5  UNL     1       7.027   1.429  12.359  1.00  0.00    -0.240 N 
HETATM   36  N6  UNL     1       6.973   0.424  13.230  1.00  0.00    -0.287 N 
ATOM     37  H5  UNL     1       7.766   1.551  11.667  1.00  0.00     0.208 HD
ATOM     38  H6  UNL     1       7.653  -0.333  13.311  1.00  0.00     0.188 HD
BRANCH  34  39
HETATM   39  C21 UNL     1       5.741   3.431  11.739  1.00  0.00     0.188 C 
BRANCH  39  40
HETATM   40  C22 UNL     1       6.314   4.632  12.405  1.00  0.00    -0.038 A 
HETATM   41  C23 UNL     1       6.098   5.862  11.816  1.00  0.00     0.009 A 
HETATM   42  C24 UNL     1       6.597   7.026  12.361  1.00  0.00     0.001 A 
HETATM   43  C25 UNL     1       7.342   6.983  13.538  1.00  0.00     0.000 A 
HETATM   44  C26 UNL     1       7.547   5.738  14.114  1.00  0.00     0.001 A 
HETATM   45  C27 UNL     1       7.048   4.597  13.564  1.00  0.00     0.009 A 
ENDBRANCH  39  40
ENDBRANCH  34  39
ENDBRANCH  31  32
ENDBRANCH  30  31
ENDBRANCH  28  30
ENDBRANCH   1  24
TORSDOF 11
ENDMDL
