MODEL 6
REMARK VINA RESULT: -12.181896969      2.661     11.995
REMARK  11 active torsions:
REMARK  status: ('A' for Active; 'I' for Inactive)
REMARK    1  A    between atoms: C6_8  and  S1_9 
REMARK    2  A    between atoms: S1_9  and  C7_10 
REMARK    3  A    between atoms: C7_10  and  C8_11 
REMARK       I    between atoms: C8_11  and  N2_13 
REMARK    4  A    between atoms: N2_13  and  C9_15 
REMARK    5  A    between atoms: C11_19  and  C12_20 
REMARK    6  A    between atoms: C12_20  and  C13_21 
REMARK    7  A    between atoms: C17_25  and  O2_26 
REMARK    8  A    between atoms: O2_26  and  C18_27 
REMARK    9  A    between atoms: C18_27  and  C19_28 
REMARK   10  A    between atoms: N4_30  and  C21_31 
REMARK   11  A    between atoms: C21_31  and  C22_32 
ROOT
HETATM    1  C12 UNL     1       8.858  -0.178  18.927  1.00  0.00     0.086 C 
ENDROOT
BRANCH   1   2
HETATM    2  C11 UNL     1       8.556  -0.126  17.472  1.00  0.00     0.006 A 
HETATM    3  C10 UNL     1       9.365  -0.500  16.430  1.00  0.00     0.105 A 
HETATM    4  N3  UNL     1       8.899  -0.379  15.230  1.00  0.00    -0.345 N 
HETATM    5  C9  UNL     1       7.684   0.090  15.034  1.00  0.00     0.151 A 
ATOM      6  H3  UNL     1       9.474  -0.648  14.432  1.00  0.00     0.167 HD
HETATM    7  S2  UNL     1       7.148   0.386  16.623  1.00  0.00    -0.057 SA
BRANCH   5   8
HETATM    8  N2  UNL     1       7.046   0.275  13.778  1.00  0.00    -0.306 N 
HETATM    9  C8  UNL     1       7.388   1.376  12.925  1.00  0.00     0.233 C 
HETATM   10  O1  UNL     1       8.289   2.144  13.393  1.00  0.00    -0.272 OA
ATOM     11  H2  UNL     1       6.331  -0.388  13.477  1.00  0.00     0.171 HD
BRANCH   9  12
HETATM   12  C7  UNL     1       6.786   1.646  11.628  1.00  0.00     0.185 C 
BRANCH  12  13
HETATM   13  S1  UNL     1       5.493   2.895  11.622  1.00  0.00    -0.085 SA
BRANCH  13  14
HETATM   14  C6  UNL     1       6.236   4.497  11.775  1.00  0.00     0.145 A 
HETATM   15  N1  UNL     1       6.437   5.247  10.685  1.00  0.00    -0.341 N 
HETATM   16  C4  UNL     1       6.982   6.471  10.730  1.00  0.00     0.009 A 
ATOM     17  H1  UNL     1       6.164   4.869   9.778  1.00  0.00     0.167 HD
HETATM   18  C3  UNL     1       7.338   6.945  11.983  1.00  0.00     0.049 A 
HETATM   19  C5  UNL     1       7.173   7.242   9.479  1.00  0.00     0.068 C 
HETATM   20  C2  UNL     1       7.148   6.206  13.114  1.00  0.00     0.009 A 
HETATM   21  C1  UNL     1       7.518   6.692  14.457  1.00  0.00     0.068 C 
HETATM   22  N7  UNL     1       6.585   4.965  12.977  1.00  0.00    -0.341 N 
ATOM     23  H7  UNL     1       6.430   4.389  13.805  1.00  0.00     0.167 HD
ENDBRANCH  13  14
ENDBRANCH  12  13
ENDBRANCH   9  12
ENDBRANCH   5   8
ENDBRANCH   1   2
BRANCH   1  24
HETATM   24  C13 UNL     1       8.264   0.973  19.641  1.00  0.00    -0.051 A 
HETATM   25  C14 UNL     1       8.932   2.184  19.722  1.00  0.00     0.007 A 
HETATM   26  C15 UNL     1       8.360   3.253  20.388  1.00  0.00     0.003 A 
HETATM   27  C16 UNL     1       7.133   3.157  20.984  1.00  0.00     0.037 A 
HETATM   28  C17 UNL     1       6.436   1.952  20.922  1.00  0.00     0.069 A 
HETATM   29  C28 UNL     1       7.030   0.913  20.254  1.00  0.00     0.044 A 
BRANCH  28  30
HETATM   30  O2  UNL     1       5.195   1.885  21.535  1.00  0.00    -0.345 OA
BRANCH  30  31
HETATM   31  C18 UNL     1       4.952   2.749  22.634  1.00  0.00     0.235 C 
BRANCH  31  32
HETATM   32  C19 UNL     1       3.776   2.303  23.414  1.00  0.00     0.068 A 
HETATM   33  C20 UNL     1       2.934   1.250  23.142  1.00  0.00     0.140 A 
HETATM   34  N4  UNL     1       1.978   1.189  24.119  1.00  0.00    -0.283 N 
HETATM   35  N5  UNL     1       2.241   2.162  24.936  1.00  0.00    -0.240 N 
HETATM   36  N6  UNL     1       3.312   2.850  24.546  1.00  0.00    -0.287 N 
ATOM     37  H5  UNL     1       1.696   2.374  25.771  1.00  0.00     0.208 HD
ATOM     38  H6  UNL     1       3.711   3.656  25.026  1.00  0.00     0.188 HD
BRANCH  34  39
HETATM   39  C21 UNL     1       0.897   0.233  24.216  1.00  0.00     0.188 C 
BRANCH  39  40
HETATM   40  C22 UNL     1       1.316  -0.968  24.989  1.00  0.00    -0.038 A 
HETATM   41  C23 UNL     1       0.414  -2.006  25.110  1.00  0.00     0.009 A 
HETATM   42  C24 UNL     1       0.716  -3.152  25.813  1.00  0.00     0.001 A 
HETATM   43  C25 UNL     1       1.960  -3.289  26.426  1.00  0.00     0.000 A 
HETATM   44  C26 UNL     1       2.853  -2.235  26.292  1.00  0.00     0.001 A 
HETATM   45  C27 UNL     1       2.540  -1.109  25.595  1.00  0.00     0.009 A 
ENDBRANCH  39  40
ENDBRANCH  34  39
ENDBRANCH  31  32
ENDBRANCH  30  31
ENDBRANCH  28  30
ENDBRANCH   1  24
TORSDOF 11
ENDMDL
