MODEL 3
REMARK VINA RESULT: -7.855105439      2.845      6.327
REMARK  3 active torsions:
REMARK  status: ('A' for Active; 'I' for Inactive)
REMARK    1  A    between atoms: C1_2  and  C2_4 
REMARK    2  A    between atoms: C7_9  and  C8_10 
REMARK    3  A    between atoms: C17_21  and  O5_22 
ROOT
HETATM    1  C8  UNL     1      24.739  27.741  29.624  1.00  0.00     0.001 A 
HETATM    2  C9  UNL     1      25.155  28.006  30.912  1.00  0.00     0.010 A 
HETATM    3  C10 UNL     1      25.017  27.106  31.944  1.00  0.00     0.019 A 
HETATM    4  C11 UNL     1      25.467  27.467  33.206  1.00  0.00     0.056 A 
HETATM    5  C12 UNL     1      26.038  28.706  33.398  1.00  0.00     0.174 A 
HETATM    6  O3  UNL     1      26.431  28.986  34.555  1.00  0.00    -0.288 OA
HETATM    7  C13 UNL     1      26.198  29.634  32.399  1.00  0.00     0.092 A 
HETATM    8  C14 UNL     1      25.761  29.310  31.134  1.00  0.00     0.091 A 
HETATM    9  O4  UNL     1      25.890  30.169  30.131  1.00  0.00    -0.309 OA
HETATM   10  C15 UNL     1      25.493  29.913  28.907  1.00  0.00     0.089 A 
HETATM   11  C16 UNL     1      25.651  30.853  27.890  1.00  0.00     0.074 A 
HETATM   12  C17 UNL     1      25.245  30.615  26.594  1.00  0.00     0.068 A 
HETATM   13  C18 UNL     1      24.663  29.392  26.329  1.00  0.00     0.037 A 
HETATM   14  C19 UNL     1      24.505  28.462  27.334  1.00  0.00     0.018 A 
HETATM   15  C20 UNL     1      24.911  28.693  28.634  1.00  0.00     0.010 A 
ENDROOT
BRANCH   1  16
HETATM   16  C7  UNL     1      24.125  26.450  29.343  1.00  0.00    -0.007 A 
HETATM   17  C2  UNL     1      24.907  25.402  28.887  1.00  0.00     0.051 A 
HETATM   18  C3  UNL     1      24.337  24.170  28.616  1.00  0.00     0.019 A 
HETATM   19  C4  UNL     1      22.986  24.059  28.823  1.00  0.00     0.001 A 
HETATM   20  C5  UNL     1      22.195  25.087  29.274  1.00  0.00     0.001 A 
HETATM   21  C6  UNL     1      22.779  26.298  29.536  1.00  0.00     0.013 A 
BRANCH  17  22
HETATM   22  C1  UNL     1      26.344  25.567  28.681  1.00  0.00     0.210 C 
HETATM   23  O1  UNL     1      26.782  25.691  27.515  1.00  0.00    -0.644 OA
HETATM   24  O2  UNL     1      27.260  25.594  29.719  1.00  0.00    -0.644 OA
ENDBRANCH  17  22
ENDBRANCH   1  16
BRANCH  12  25
HETATM   25  O5  UNL     1      25.416  31.574  25.593  1.00  0.00    -0.361 OA
ATOM     26  H5  UNL     1      24.714  31.788  24.991  1.00  0.00     0.217 HD
ENDBRANCH  12  25
TORSDOF 3
ENDMDL
