MODEL 5
REMARK VINA RESULT: -7.478601387      2.550      6.956
REMARK  3 active torsions:
REMARK  status: ('A' for Active; 'I' for Inactive)
REMARK    1  A    between atoms: C1_2  and  C2_4 
REMARK    2  A    between atoms: C7_9  and  C8_10 
REMARK    3  A    between atoms: C17_21  and  O5_22 
ROOT
HETATM    1  C8  UNL     1      26.136  32.304  30.558  1.00  0.00     0.001 A 
HETATM    2  C9  UNL     1      25.875  30.959  30.717  1.00  0.00     0.010 A 
HETATM    3  C10 UNL     1      25.759  30.359  31.950  1.00  0.00     0.019 A 
HETATM    4  C11 UNL     1      25.496  28.997  32.004  1.00  0.00     0.056 A 
HETATM    5  C12 UNL     1      25.357  28.281  30.836  1.00  0.00     0.174 A 
HETATM    6  O3  UNL     1      25.119  27.055  30.936  1.00  0.00    -0.288 OA
HETATM    7  C13 UNL     1      25.464  28.837  29.585  1.00  0.00     0.092 A 
HETATM    8  C14 UNL     1      25.725  30.186  29.493  1.00  0.00     0.091 A 
HETATM    9  O4  UNL     1      25.839  30.776  28.310  1.00  0.00    -0.309 OA
HETATM   10  C15 UNL     1      26.087  32.056  28.163  1.00  0.00     0.089 A 
HETATM   11  C16 UNL     1      26.197  32.625  26.895  1.00  0.00     0.074 A 
HETATM   12  C17 UNL     1      26.457  33.966  26.708  1.00  0.00     0.068 A 
HETATM   13  C18 UNL     1      26.608  34.745  27.836  1.00  0.00     0.037 A 
HETATM   14  C19 UNL     1      26.499  34.183  29.091  1.00  0.00     0.018 A 
HETATM   15  C20 UNL     1      26.239  32.841  29.287  1.00  0.00     0.010 A 
ENDROOT
BRANCH   1  16
HETATM   16  C7  UNL     1      26.296  33.127  31.750  1.00  0.00    -0.007 A 
HETATM   17  C2  UNL     1      27.559  33.332  32.278  1.00  0.00     0.051 A 
HETATM   18  C3  UNL     1      27.727  34.111  33.410  1.00  0.00     0.019 A 
HETATM   19  C4  UNL     1      26.591  34.653  33.957  1.00  0.00     0.001 A 
HETATM   20  C5  UNL     1      25.330  34.460  33.446  1.00  0.00     0.001 A 
HETATM   21  C6  UNL     1      25.187  33.685  32.326  1.00  0.00     0.013 A 
BRANCH  17  22
HETATM   22  C1  UNL     1      28.741  32.734  31.661  1.00  0.00     0.210 C 
HETATM   23  O1  UNL     1      29.490  33.452  30.960  1.00  0.00    -0.644 OA
HETATM   24  O2  UNL     1      29.083  31.401  31.812  1.00  0.00    -0.644 OA
ENDBRANCH  17  22
ENDBRANCH   1  16
BRANCH  12  25
HETATM   25  O5  UNL     1      26.562  34.511  25.425  1.00  0.00    -0.361 OA
ATOM     26  H5  UNL     1      25.791  34.687  24.901  1.00  0.00     0.217 HD
ENDBRANCH  12  25
TORSDOF 3
ENDMDL
