MODEL 2
REMARK VINA RESULT: -11.630913674      0.093      4.444
REMARK  3 active torsions:
REMARK  status: ('A' for Active; 'I' for Inactive)
REMARK    1  A    between atoms: C1_2  and  C2_4 
REMARK    2  A    between atoms: C7_9  and  C8_10 
REMARK    3  A    between atoms: C17_21  and  O5_22 
ROOT
HETATM    1  C8  UNL     1      25.449  31.657  26.941  1.00  0.00     0.001 A 
HETATM    2  C9  UNL     1      25.284  30.533  27.722  1.00  0.00     0.010 A 
HETATM    3  C10 UNL     1      24.719  29.370  27.252  1.00  0.00     0.019 A 
HETATM    4  C11 UNL     1      24.597  28.292  28.118  1.00  0.00     0.056 A 
HETATM    5  C12 UNL     1      25.042  28.406  29.416  1.00  0.00     0.174 A 
HETATM    6  O3  UNL     1      24.912  27.406  30.160  1.00  0.00    -0.288 OA
HETATM    7  C13 UNL     1      25.613  29.545  29.928  1.00  0.00     0.092 A 
HETATM    8  C14 UNL     1      25.748  30.635  29.097  1.00  0.00     0.091 A 
HETATM    9  O4  UNL     1      26.293  31.761  29.540  1.00  0.00    -0.309 OA
HETATM   10  C15 UNL     1      26.447  32.829  28.793  1.00  0.00     0.089 A 
HETATM   11  C16 UNL     1      27.025  33.987  29.308  1.00  0.00     0.074 A 
HETATM   12  C17 UNL     1      27.201  35.126  28.550  1.00  0.00     0.068 A 
HETATM   13  C18 UNL     1      26.778  35.083  27.238  1.00  0.00     0.037 A 
HETATM   14  C19 UNL     1      26.206  33.937  26.726  1.00  0.00     0.018 A 
HETATM   15  C20 UNL     1      26.027  32.793  27.479  1.00  0.00     0.010 A 
ENDROOT
BRANCH   1  16
HETATM   16  C7  UNL     1      25.002  31.612  25.554  1.00  0.00    -0.007 A 
HETATM   17  C2  UNL     1      25.818  31.048  24.588  1.00  0.00     0.051 A 
HETATM   18  C3  UNL     1      25.407  30.999  23.267  1.00  0.00     0.019 A 
HETATM   19  C4  UNL     1      24.173  31.529  22.987  1.00  0.00     0.001 A 
HETATM   20  C5  UNL     1      23.351  32.093  23.932  1.00  0.00     0.001 A 
HETATM   21  C6  UNL     1      23.777  32.132  25.233  1.00  0.00     0.013 A 
BRANCH  17  22
HETATM   22  C1  UNL     1      27.125  30.495  24.933  1.00  0.00     0.210 C 
HETATM   23  O1  UNL     1      28.120  31.254  24.961  1.00  0.00    -0.644 OA
HETATM   24  O2  UNL     1      27.326  29.159  25.236  1.00  0.00    -0.644 OA
ENDBRANCH  17  22
ENDBRANCH   1  16
BRANCH  12  25
HETATM   25  O5  UNL     1      27.785  36.274  29.092  1.00  0.00    -0.361 OA
ATOM     26  H5  UNL     1      27.460  37.140  28.875  1.00  0.00     0.217 HD
ENDBRANCH  12  25
TORSDOF 3
ENDMDL
