MODEL 1
REMARK VINA RESULT: -11.660840476      0.000      0.000
REMARK  3 active torsions:
REMARK  status: ('A' for Active; 'I' for Inactive)
REMARK    1  A    between atoms: C1_2  and  C2_4 
REMARK    2  A    between atoms: C7_9  and  C8_10 
REMARK    3  A    between atoms: C17_21  and  O5_22 
ROOT
HETATM    1  C8  UNL     1      25.447  31.639  26.940  1.00  0.00     0.001 A 
HETATM    2  C9  UNL     1      26.010  32.806  27.413  1.00  0.00     0.010 A 
HETATM    3  C10 UNL     1      26.170  33.929  26.634  1.00  0.00     0.019 A 
HETATM    4  C11 UNL     1      26.749  35.055  27.202  1.00  0.00     0.056 A 
HETATM    5  C12 UNL     1      27.146  35.027  28.520  1.00  0.00     0.174 A 
HETATM    6  O3  UNL     1      27.662  36.068  28.990  1.00  0.00    -0.288 OA
HETATM    7  C13 UNL     1      27.005  33.931  29.335  1.00  0.00     0.092 A 
HETATM    8  C14 UNL     1      26.436  32.794  28.804  1.00  0.00     0.091 A 
HETATM    9  O4  UNL     1      26.276  31.706  29.545  1.00  0.00    -0.309 OA
HETATM   10  C15 UNL     1      25.740  30.598  29.092  1.00  0.00     0.089 A 
HETATM   11  C16 UNL     1      25.596  29.482  29.915  1.00  0.00     0.074 A 
HETATM   12  C17 UNL     1      25.037  28.302  29.469  1.00  0.00     0.068 A 
HETATM   13  C18 UNL     1      24.615  28.259  28.156  1.00  0.00     0.037 A 
HETATM   14  C19 UNL     1      24.757  29.363  27.341  1.00  0.00     0.018 A 
HETATM   15  C20 UNL     1      25.316  30.547  27.780  1.00  0.00     0.010 A 
ENDROOT
BRANCH   1  16
HETATM   16  C7  UNL     1      25.002  31.592  25.553  1.00  0.00    -0.007 A 
HETATM   17  C2  UNL     1      25.818  31.025  24.589  1.00  0.00     0.051 A 
HETATM   18  C3  UNL     1      25.409  30.974  23.268  1.00  0.00     0.019 A 
HETATM   19  C4  UNL     1      24.176  31.506  22.985  1.00  0.00     0.001 A 
HETATM   20  C5  UNL     1      23.354  32.073  23.928  1.00  0.00     0.001 A 
HETATM   21  C6  UNL     1      23.779  32.113  25.230  1.00  0.00     0.013 A 
BRANCH  17  22
HETATM   22  C1  UNL     1      27.124  30.469  24.937  1.00  0.00     0.210 C 
HETATM   23  O1  UNL     1      28.123  31.224  24.951  1.00  0.00    -0.644 OA
HETATM   24  O2  UNL     1      27.319  29.136  25.257  1.00  0.00    -0.644 OA
ENDBRANCH  17  22
ENDBRANCH   1  16
BRANCH  12  25
HETATM   25  O5  UNL     1      24.904  27.198  30.315  1.00  0.00    -0.361 OA
ATOM     26  H5  UNL     1      24.062  26.961  30.686  1.00  0.00     0.217 HD
ENDBRANCH  12  25
TORSDOF 3
ENDMDL
