MODEL 4
REMARK VINA RESULT: -7.778988979      2.832      5.696
REMARK  3 active torsions:
REMARK  status: ('A' for Active; 'I' for Inactive)
REMARK    1  A    between atoms: C1_2  and  C2_4 
REMARK    2  A    between atoms: C7_9  and  C8_10 
REMARK    3  A    between atoms: C17_21  and  O5_22 
ROOT
HETATM    1  C8  UNL     1      24.759  27.787  29.565  1.00  0.00     0.001 A 
HETATM    2  C9  UNL     1      24.898  28.704  28.544  1.00  0.00     0.010 A 
HETATM    3  C10 UNL     1      24.459  28.468  27.261  1.00  0.00     0.019 A 
HETATM    4  C11 UNL     1      24.646  29.455  26.303  1.00  0.00     0.056 A 
HETATM    5  C12 UNL     1      25.259  30.638  26.652  1.00  0.00     0.174 A 
HETATM    6  O3  UNL     1      25.405  31.499  25.753  1.00  0.00    -0.288 OA
HETATM    7  C13 UNL     1      25.712  30.917  27.918  1.00  0.00     0.092 A 
HETATM    8  C14 UNL     1      25.544  29.960  28.894  1.00  0.00     0.091 A 
HETATM    9  O4  UNL     1      25.962  30.176  30.135  1.00  0.00    -0.309 OA
HETATM   10  C15 UNL     1      25.828  29.301  31.103  1.00  0.00     0.089 A 
HETATM   11  C16 UNL     1      26.286  29.579  32.390  1.00  0.00     0.074 A 
HETATM   12  C17 UNL     1      26.161  28.681  33.429  1.00  0.00     0.068 A 
HETATM   13  C18 UNL     1      25.555  27.473  33.151  1.00  0.00     0.037 A 
HETATM   14  C19 UNL     1      25.101  27.197  31.878  1.00  0.00     0.018 A 
HETATM   15  C20 UNL     1      25.223  28.091  30.833  1.00  0.00     0.010 A 
ENDROOT
BRANCH   1  16
HETATM   16  C7  UNL     1      24.119  26.511  29.272  1.00  0.00    -0.007 A 
HETATM   17  C2  UNL     1      24.884  25.447  28.824  1.00  0.00     0.051 A 
HETATM   18  C3  UNL     1      24.290  24.229  28.542  1.00  0.00     0.019 A 
HETATM   19  C4  UNL     1      22.933  24.148  28.731  1.00  0.00     0.001 A 
HETATM   20  C5  UNL     1      22.160  25.193  29.174  1.00  0.00     0.001 A 
HETATM   21  C6  UNL     1      22.767  26.389  29.447  1.00  0.00     0.013 A 
BRANCH  17  22
HETATM   22  C1  UNL     1      26.327  25.579  28.638  1.00  0.00     0.210 C 
HETATM   23  O1  UNL     1      26.781  25.719  27.480  1.00  0.00    -0.644 OA
HETATM   24  O2  UNL     1      27.230  25.558  29.687  1.00  0.00    -0.644 OA
ENDBRANCH  17  22
ENDBRANCH   1  16
BRANCH  12  25
HETATM   25  O5  UNL     1      26.628  28.986  34.710  1.00  0.00    -0.361 OA
ATOM     26  H5  UNL     1      27.452  28.637  35.029  1.00  0.00     0.217 HD
ENDBRANCH  12  25
TORSDOF 3
ENDMDL
