MODEL 1
REMARK VINA RESULT: -7.122879345      0.000      0.000
REMARK  8 active torsions:
REMARK  status: ('A' for Active; 'I' for Inactive)
REMARK    1  A    between atoms: N1_1  and  C1_4 
REMARK    2  A    between atoms: N2_7  and  C4_8 
REMARK    3  A    between atoms: C4_8  and  C5_9 
REMARK    4  A    between atoms: N3_11  and  C7_12 
REMARK    5  A    between atoms: C8_13  and  C9_14 
REMARK    6  A    between atoms: C9_14  and  O1_15 
REMARK    7  A    between atoms: C10_18  and  N4_19 
REMARK    8  A    between atoms: C16_32  and  O3_33 
ROOT
HETATM    1  C7  UNL     1     -10.882 -13.557  15.426  1.00  0.00     0.173 C 
HETATM    2  C8  UNL     1     -10.498 -14.222  14.128  1.00  0.00     0.175 C 
HETATM    3  O2  UNL     1     -11.681 -14.236  13.431  1.00  0.00    -0.354 OA
HETATM    4  C10 UNL     1     -12.328 -13.048  13.650  1.00  0.00     0.261 C 
HETATM    5  C16 UNL     1     -11.835 -12.477  14.950  1.00  0.00     0.194 C 
ENDROOT
BRANCH   1   6
HETATM    6  N3  UNL     1      -9.701 -13.007  16.053  1.00  0.00    -0.277 N 
HETATM    7  C6  UNL     1      -9.426 -13.211  17.373  1.00  0.00     0.140 A 
HETATM    8  C5  UNL     1      -8.261 -12.580  17.676  1.00  0.00     0.062 A 
HETATM    9  N10 UNL     1      -7.835 -11.993  16.533  1.00  0.00    -0.287 N 
HETATM   10  N9  UNL     1      -8.728 -12.277  15.591  1.00  0.00    -0.240 N 
ATOM     11  H10 UNL     1      -6.987 -11.438  16.416  1.00  0.00     0.188 HD
ATOM     12  H9  UNL     1      -8.660 -11.961  14.624  1.00  0.00     0.208 HD
BRANCH   8  13
HETATM   13  C4  UNL     1      -7.624 -12.568  19.017  1.00  0.00     0.193 C 
BRANCH  13  14
HETATM   14  N2  UNL     1      -8.109 -11.445  19.803  1.00  0.00    -0.304 N 
HETATM   15  C3  UNL     1      -9.307 -11.527  20.403  1.00  0.00     0.100 A 
HETATM   16  C2  UNL     1      -9.802 -10.470  21.165  1.00  0.00     0.065 A 
HETATM   17  C1  UNL     1      -9.030  -9.333  21.287  1.00  0.00     0.103 A 
HETATM   18  N11 UNL     1      -7.830  -9.277  20.673  1.00  0.00    -0.295 N 
HETATM   19  C17 UNL     1      -7.388 -10.321  19.948  1.00  0.00     0.328 A 
ATOM     20  H11 UNL     1      -7.254  -8.440  20.759  1.00  0.00     0.172 HD
HETATM   21  O4  UNL     1      -6.279 -10.247  19.391  1.00  0.00    -0.246 OA
BRANCH  17  22
HETATM   22  N1  UNL     1      -9.472  -8.343  21.988  1.00  0.00    -0.385 N 
ATOM     23  H12 UNL     1      -8.836  -7.676  22.424  1.00  0.00     0.157 HD
ATOM     24  H11 UNL     1     -10.478  -8.227  22.106  1.00  0.00     0.157 HD
ENDBRANCH  17  22
ENDBRANCH  13  14
ENDBRANCH   8  13
ENDBRANCH   1   6
BRANCH   2  25
HETATM   25  C9  UNL     1      -9.957 -15.614  14.335  1.00  0.00     0.198 C 
BRANCH  25  26
HETATM   26  O1  UNL     1      -9.451 -16.181  13.193  1.00  0.00    -0.398 OA
ATOM     27  H1  UNL     1      -8.939 -16.965  13.353  1.00  0.00     0.209 HD
ENDBRANCH  25  26
ENDBRANCH   2  25
BRANCH   5  28
HETATM   28  O3  UNL     1     -11.103 -11.288  14.763  1.00  0.00    -0.389 OA
ATOM     29  H3  UNL     1     -11.695 -10.551  14.861  1.00  0.00     0.210 HD
ENDBRANCH   5  28
BRANCH   4  30
HETATM   30  N4  UNL     1     -13.746 -13.254  13.625  1.00  0.00    -0.297 N 
HETATM   31  C11 UNL     1     -14.740 -12.470  13.195  1.00  0.00     0.188 A 
HETATM   32  N5  UNL     1     -15.935 -13.079  13.367  1.00  0.00    -0.346 N 
HETATM   33  C12 UNL     1     -15.711 -14.281  13.921  1.00  0.00     0.119 A 
ATOM     34  H5  UNL     1     -16.846 -12.692  13.119  1.00  0.00     0.167 HD
HETATM   35  C13 UNL     1     -16.586 -15.289  14.298  1.00  0.00     0.148 A 
HETATM   36  C15 UNL     1     -14.343 -14.382  14.079  1.00  0.00     0.142 A 
HETATM   37  N6  UNL     1     -17.985 -15.189  14.138  1.00  0.00    -0.080 NA
HETATM   38  N7  UNL     1     -16.025 -16.391  14.834  1.00  0.00    -0.339 N 
HETATM   39  C14 UNL     1     -14.680 -16.510  14.998  1.00  0.00     0.183 A 
ATOM     40  H7  UNL     1     -16.628 -17.161  15.127  1.00  0.00     0.167 HD
HETATM   41  N8  UNL     1     -13.858 -15.519  14.624  1.00  0.00    -0.336 N 
ATOM     42  H8  UNL     1     -12.852 -15.625  14.753  1.00  0.00     0.168 HD
ENDBRANCH   4  30
TORSDOF 8
ENDMDL
