MODEL 2
REMARK VINA RESULT: -6.948101550      1.047      1.894
REMARK  8 active torsions:
REMARK  status: ('A' for Active; 'I' for Inactive)
REMARK    1  A    between atoms: N1_1  and  C1_4 
REMARK    2  A    between atoms: N2_7  and  C4_8 
REMARK    3  A    between atoms: C4_8  and  C5_9 
REMARK    4  A    between atoms: N3_11  and  C7_12 
REMARK    5  A    between atoms: C8_13  and  C9_14 
REMARK    6  A    between atoms: C9_14  and  O1_15 
REMARK    7  A    between atoms: C10_18  and  N4_19 
REMARK    8  A    between atoms: C16_32  and  O3_33 
ROOT
HETATM    1  C7  UNL     1     -10.601 -13.941  15.952  1.00  0.00     0.173 C 
HETATM    2  C8  UNL     1     -10.092 -14.668  14.732  1.00  0.00     0.175 C 
HETATM    3  O2  UNL     1     -11.226 -14.824  13.973  1.00  0.00    -0.354 OA
HETATM    4  C10 UNL     1     -11.969 -13.676  14.064  1.00  0.00     0.261 C 
HETATM    5  C16 UNL     1     -11.599 -12.975  15.341  1.00  0.00     0.194 C 
ENDROOT
BRANCH   1   6
HETATM    6  N3  UNL     1      -9.503 -13.258  16.599  1.00  0.00    -0.277 N 
HETATM    7  C6  UNL     1      -9.320 -13.307  17.949  1.00  0.00     0.140 A 
HETATM    8  C5  UNL     1      -8.219 -12.578  18.265  1.00  0.00     0.062 A 
HETATM    9  N10 UNL     1      -7.737 -12.087  17.098  1.00  0.00    -0.287 N 
HETATM   10  N9  UNL     1      -8.539 -12.521  16.131  1.00  0.00    -0.240 N 
ATOM     11  H10 UNL     1      -6.914 -11.496  16.983  1.00  0.00     0.188 HD
ATOM     12  H9  UNL     1      -8.413 -12.303  15.142  1.00  0.00     0.208 HD
BRANCH   8  13
HETATM   13  C4  UNL     1      -7.688 -12.388  19.638  1.00  0.00     0.193 C 
BRANCH  13  14
HETATM   14  N2  UNL     1      -8.327 -11.250  20.279  1.00  0.00    -0.304 N 
HETATM   15  C3  UNL     1      -9.556 -11.387  20.801  1.00  0.00     0.100 A 
HETATM   16  C2  UNL     1     -10.196 -10.317  21.423  1.00  0.00     0.065 A 
HETATM   17  C1  UNL     1      -9.535  -9.108  21.490  1.00  0.00     0.103 A 
HETATM   18  N11 UNL     1      -8.301  -8.997  20.957  1.00  0.00    -0.295 N 
HETATM   19  C17 UNL     1      -7.717 -10.055  20.366  1.00  0.00     0.328 A 
ATOM     20  H11 UNL     1      -7.807  -8.106  21.002  1.00  0.00     0.172 HD
HETATM   21  O4  UNL     1      -6.579  -9.929  19.881  1.00  0.00    -0.246 OA
BRANCH  17  22
HETATM   22  N1  UNL     1     -10.113  -8.105  22.061  1.00  0.00    -0.385 N 
ATOM     23  H12 UNL     1     -11.120  -7.961  21.990  1.00  0.00     0.157 HD
ATOM     24  H11 UNL     1      -9.549  -7.444  22.595  1.00  0.00     0.157 HD
ENDBRANCH  17  22
ENDBRANCH  13  14
ENDBRANCH   8  13
ENDBRANCH   1   6
BRANCH   2  25
HETATM   25  C9  UNL     1      -9.465 -15.995  15.076  1.00  0.00     0.198 C 
BRANCH  25  26
HETATM   26  O1  UNL     1      -8.137 -16.077  14.744  1.00  0.00    -0.398 OA
ATOM     27  H1  UNL     1      -7.626 -16.603  15.347  1.00  0.00     0.209 HD
ENDBRANCH  25  26
ENDBRANCH   2  25
BRANCH   5  28
HETATM   28  O3  UNL     1     -10.945 -11.750  15.103  1.00  0.00    -0.389 OA
ATOM     29  H3  UNL     1     -11.176 -11.450  14.232  1.00  0.00     0.210 HD
ENDBRANCH   5  28
BRANCH   4  30
HETATM   30  N4  UNL     1     -13.365 -13.992  13.977  1.00  0.00    -0.297 N 
HETATM   31  C11 UNL     1     -14.025 -15.128  14.219  1.00  0.00     0.188 A 
HETATM   32  N5  UNL     1     -15.350 -14.964  14.003  1.00  0.00    -0.346 N 
HETATM   33  C12 UNL     1     -15.552 -13.697  13.611  1.00  0.00     0.119 A 
ATOM     34  H5  UNL     1     -16.069 -15.679  14.118  1.00  0.00     0.167 HD
HETATM   35  C13 UNL     1     -16.714 -13.021  13.267  1.00  0.00     0.148 A 
HETATM   36  C15 UNL     1     -14.309 -13.097  13.597  1.00  0.00     0.142 A 
HETATM   37  N6  UNL     1     -17.987 -13.632  13.281  1.00  0.00    -0.080 NA
HETATM   38  N7  UNL     1     -16.567 -11.729  12.914  1.00  0.00    -0.339 N 
HETATM   39  C14 UNL     1     -15.351 -11.121  12.894  1.00  0.00     0.183 A 
ATOM     40  H7  UNL     1     -17.393 -11.190  12.654  1.00  0.00     0.167 HD
HETATM   41  N8  UNL     1     -14.244 -11.797  13.231  1.00  0.00    -0.336 N 
ATOM     42  H8  UNL     1     -13.340 -11.325  13.211  1.00  0.00     0.168 HD
ENDBRANCH   4  30
TORSDOF 8
ENDMDL
