MODEL 3
REMARK VINA RESULT: -6.941872305      2.746      8.419
REMARK  8 active torsions:
REMARK  status: ('A' for Active; 'I' for Inactive)
REMARK    1  A    between atoms: N1_1  and  C1_4 
REMARK    2  A    between atoms: N2_7  and  C4_8 
REMARK    3  A    between atoms: C4_8  and  C5_9 
REMARK    4  A    between atoms: N3_11  and  C7_12 
REMARK    5  A    between atoms: C8_13  and  C9_14 
REMARK    6  A    between atoms: C9_14  and  O1_15 
REMARK    7  A    between atoms: C10_18  and  N4_19 
REMARK    8  A    between atoms: C16_32  and  O3_33 
ROOT
HETATM    1  C7  UNL     1     -13.153 -14.655  15.135  1.00  0.00     0.173 C 
HETATM    2  C8  UNL     1     -12.485 -16.007  15.173  1.00  0.00     0.175 C 
HETATM    3  O2  UNL     1     -11.552 -15.858  16.169  1.00  0.00    -0.354 OA
HETATM    4  C10 UNL     1     -12.114 -15.128  17.184  1.00  0.00     0.261 C 
HETATM    5  C16 UNL     1     -13.236 -14.310  16.610  1.00  0.00     0.194 C 
ENDROOT
BRANCH   1   6
HETATM    6  N3  UNL     1     -14.459 -14.780  14.528  1.00  0.00    -0.277 N 
HETATM    7  C6  UNL     1     -14.917 -13.880  13.612  1.00  0.00     0.140 A 
HETATM    8  C5  UNL     1     -16.164 -14.253  13.222  1.00  0.00     0.062 A 
HETATM    9  N10 UNL     1     -16.458 -15.383  13.908  1.00  0.00    -0.287 N 
HETATM   10  N9  UNL     1     -15.408 -15.658  14.676  1.00  0.00    -0.240 N 
ATOM     11  H10 UNL     1     -17.322 -15.922  13.848  1.00  0.00     0.188 HD
ATOM     12  H9  UNL     1     -15.353 -16.460  15.303  1.00  0.00     0.208 HD
BRANCH   8  13
HETATM   13  C4  UNL     1     -16.999 -13.527  12.233  1.00  0.00     0.193 C 
BRANCH  13  14
HETATM   14  N2  UNL     1     -17.148 -12.132  12.615  1.00  0.00    -0.304 N 
HETATM   15  C3  UNL     1     -17.739 -11.823  13.780  1.00  0.00     0.100 A 
HETATM   16  C2  UNL     1     -17.897 -10.497  14.176  1.00  0.00     0.065 A 
HETATM   17  C1  UNL     1     -17.430  -9.503  13.339  1.00  0.00     0.103 A 
HETATM   18  N11 UNL     1     -16.841  -9.841  12.174  1.00  0.00    -0.295 N 
HETATM   19  C17 UNL     1     -16.707 -11.135  11.829  1.00  0.00     0.328 A 
ATOM     20  H11 UNL     1     -16.495  -9.112  11.551  1.00  0.00     0.172 HD
HETATM   21  O4  UNL     1     -16.160 -11.422  10.750  1.00  0.00    -0.246 OA
BRANCH  17  22
HETATM   22  N1  UNL     1     -17.568  -8.268  13.689  1.00  0.00    -0.385 N 
ATOM     23  H12 UNL     1     -18.466  -7.904  14.009  1.00  0.00     0.157 HD
ATOM     24  H11 UNL     1     -16.763  -7.646  13.644  1.00  0.00     0.157 HD
ENDBRANCH  17  22
ENDBRANCH  13  14
ENDBRANCH   8  13
ENDBRANCH   1   6
BRANCH   2  25
HETATM   25  C9  UNL     1     -11.843 -16.366  13.857  1.00  0.00     0.198 C 
BRANCH  25  26
HETATM   26  O1  UNL     1     -11.233 -15.306  13.237  1.00  0.00    -0.398 OA
ATOM     27  H1  UNL     1     -10.293 -15.403  13.155  1.00  0.00     0.209 HD
ENDBRANCH  25  26
ENDBRANCH   2  25
BRANCH   5  28
HETATM   28  O3  UNL     1     -14.493 -14.720  17.094  1.00  0.00    -0.389 OA
ATOM     29  H3  UNL     1     -14.616 -15.636  16.874  1.00  0.00     0.210 HD
ENDBRANCH   5  28
BRANCH   4  30
HETATM   30  N4  UNL     1     -11.108 -14.336  17.829  1.00  0.00    -0.297 N 
HETATM   31  C11 UNL     1     -10.898 -14.063  19.120  1.00  0.00     0.188 A 
HETATM   32  N5  UNL     1      -9.818 -13.263  19.268  1.00  0.00    -0.346 N 
HETATM   33  C12 UNL     1      -9.318 -13.012  18.049  1.00  0.00     0.119 A 
ATOM     34  H5  UNL     1      -9.449 -12.913  20.152  1.00  0.00     0.167 HD
HETATM   35  C13 UNL     1      -8.227 -12.255  17.647  1.00  0.00     0.148 A 
HETATM   36  C15 UNL     1     -10.128 -13.685  17.156  1.00  0.00     0.142 A 
HETATM   37  N6  UNL     1      -7.397 -11.566  18.557  1.00  0.00    -0.080 NA
HETATM   38  N7  UNL     1      -7.993 -12.208  16.320  1.00  0.00    -0.339 N 
HETATM   39  C14 UNL     1      -8.780 -12.864  15.426  1.00  0.00     0.183 A 
ATOM     40  H7  UNL     1      -7.201 -11.664  15.977  1.00  0.00     0.167 HD
HETATM   41  N8  UNL     1      -9.828 -13.589  15.842  1.00  0.00    -0.336 N 
ATOM     42  H8  UNL     1     -10.407 -14.075  15.157  1.00  0.00     0.168 HD
ENDBRANCH   4  30
TORSDOF 8
ENDMDL
