MODEL 9
REMARK VINA RESULT: -8.582199882      4.790     10.790
REMARK  9 active torsions:
REMARK  status: ('A' for Active; 'I' for Inactive)
REMARK    1  A    between atoms: O1_2  and  C2_3 
REMARK    2  A    between atoms: C2_3  and  C3_4 
REMARK    3  A    between atoms: C3_4  and  N1_5 
REMARK    4  A    between atoms: N2_8  and  C6_9 
REMARK    5  A    between atoms: C6_9  and  C7_10 
REMARK    6  A    between atoms: C7_10  and  N3_11 
REMARK    7  A    between atoms: C10_14  and  N4_15 
REMARK    8  A    between atoms: N4_15  and  C11_17 
REMARK    9  A    between atoms: C18_31  and  C19_32 
ROOT
HETATM    1  C11 UNL     1       5.469  21.490  18.100  1.00  0.00     0.684 A 
HETATM    2  N5  UNL     1       4.460  20.842  17.505  1.00  0.00    -0.201 N 
ATOM      3  H5  UNL     1       4.510  20.701  16.497  1.00  0.00     0.183 HD
HETATM    4  C12 UNL     1       3.393  20.368  18.150  1.00  0.00     0.116 A 
HETATM    5  C13 UNL     1       3.280  20.536  19.528  1.00  0.00    -0.010 A 
HETATM    6  C14 UNL     1       4.302  21.197  20.144  1.00  0.00     0.071 A 
HETATM    7  N6  UNL     1       5.359  21.652  19.427  1.00  0.00    -0.190 N 
ATOM      8  H6  UNL     1       6.107  22.140  19.921  1.00  0.00     0.184 HD
HETATM    9  C15 UNL     1       4.218  21.518  21.589  1.00  0.00     0.045 A 
HETATM   10  C16 UNL     1       3.070  21.132  22.256  1.00  0.00     0.041 A 
HETATM   11  N7  UNL     1       3.203  21.571  23.515  1.00  0.00    -0.302 N 
ATOM     12  H7  UNL     1       2.516  21.443  24.257  1.00  0.00     0.187 HD
HETATM   13  N8  UNL     1       4.359  22.197  23.648  1.00  0.00    -0.295 N 
HETATM   14  C17 UNL     1       4.778  22.758  24.907  1.00  0.00     0.178 C 
HETATM   15  C18 UNL     1       5.036  22.186  22.462  1.00  0.00     0.075 A 
HETATM   16  C25 UNL     1       1.942  20.400  21.656  1.00  0.00     0.068 C 
HETATM   17  C26 UNL     1       2.124  19.994  20.257  1.00  0.00     0.024 C 
HETATM   18  C27 UNL     1       0.822  20.292  19.495  1.00  0.00     0.015 C 
ENDROOT
BRANCH   1  19
HETATM   19  N4  UNL     1       6.588  21.979  17.377  1.00  0.00    -0.175 N 
ATOM     20  H4  UNL     1       6.413  22.721  16.699  1.00  0.00     0.186 HD
BRANCH  19  21
HETATM   21  C10 UNL     1       7.915  21.535  17.510  1.00  0.00     0.137 A 
HETATM   22  C9  UNL     1       8.614  20.782  16.601  1.00  0.00     0.069 A 
HETATM   23  C8  UNL     1       9.902  20.546  17.098  1.00  0.00     0.114 A 
HETATM   24  N3  UNL     1       9.927  21.169  18.288  1.00  0.00    -0.300 N 
HETATM   25  N9  UNL     1       8.770  21.751  18.539  1.00  0.00    -0.283 N 
ATOM     26  H9  UNL     1       8.551  22.283  19.381  1.00  0.00     0.188 HD
BRANCH  24  27
HETATM   27  C7  UNL     1      11.099  21.169  19.140  1.00  0.00     0.178 C 
BRANCH  27  28
HETATM   28  C6  UNL     1      11.635  22.553  19.371  1.00  0.00     0.294 C 
BRANCH  28  29
HETATM   29  N2  UNL     1      12.872  22.583  20.128  1.00  0.00     0.093 N 
HETATM   30  C5  UNL     1      12.738  23.008  21.474  1.00  0.00     0.302 C 
HETATM   31  C4  UNL     1      12.920  24.477  21.709  1.00  0.00     0.302 C 
HETATM   32  N1  UNL     1      14.148  24.924  21.076  1.00  0.00     0.093 N 
HETATM   33  C29 UNL     1      13.924  24.756  19.630  1.00  0.00     0.302 C 
HETATM   34  C28 UNL     1      13.877  23.291  19.369  1.00  0.00     0.302 C 
BRANCH  32  35
HETATM   35  C3  UNL     1      14.516  26.262  21.419  1.00  0.00     0.298 C 
BRANCH  35  36
HETATM   36  C2  UNL     1      13.914  26.642  22.769  1.00  0.00     0.197 C 
BRANCH  36  37
HETATM   37  O1  UNL     1      13.593  27.992  22.703  1.00  0.00    -0.394 OA
HETATM   38  C1  UNL     1      13.191  28.476  23.950  1.00  0.00     0.201 C 
ENDBRANCH  36  37
ENDBRANCH  35  36
ENDBRANCH  32  35
ENDBRANCH  28  29
ENDBRANCH  27  28
ENDBRANCH  24  27
ENDBRANCH  19  21
ENDBRANCH   1  19
BRANCH  15  39
HETATM   39  C19 UNL     1       6.402  22.640  22.299  1.00  0.00    -0.007 A 
HETATM   40  C20 UNL     1       7.469  21.751  22.440  1.00  0.00     0.014 A 
HETATM   41  C21 UNL     1       8.760  22.131  22.182  1.00  0.00     0.001 A 
HETATM   42  C22 UNL     1       9.051  23.418  21.770  1.00  0.00     0.000 A 
HETATM   43  C23 UNL     1       8.035  24.318  21.619  1.00  0.00     0.001 A 
HETATM   44  C24 UNL     1       6.739  23.902  21.887  1.00  0.00     0.014 A 
ENDBRANCH  15  39
TORSDOF 9
ENDMDL
