MODEL 2
REMARK VINA RESULT: -8.804280034      1.706      4.036
REMARK  9 active torsions:
REMARK  status: ('A' for Active; 'I' for Inactive)
REMARK    1  A    between atoms: O1_2  and  C2_3 
REMARK    2  A    between atoms: C2_3  and  C3_4 
REMARK    3  A    between atoms: C3_4  and  N1_5 
REMARK    4  A    between atoms: N2_8  and  C6_9 
REMARK    5  A    between atoms: C6_9  and  C7_10 
REMARK    6  A    between atoms: C7_10  and  N3_11 
REMARK    7  A    between atoms: C10_14  and  N4_15 
REMARK    8  A    between atoms: N4_15  and  C11_17 
REMARK    9  A    between atoms: C18_31  and  C19_32 
ROOT
HETATM    1  C11 UNL     1       5.062  21.083  18.501  1.00  0.00     0.684 A 
HETATM    2  N5  UNL     1       4.850  21.034  17.180  1.00  0.00    -0.201 N 
ATOM      3  H5  UNL     1       4.027  20.533  16.845  1.00  0.00     0.183 HD
HETATM    4  C12 UNL     1       5.648  21.601  16.275  1.00  0.00     0.116 A 
HETATM    5  C13 UNL     1       6.783  22.296  16.683  1.00  0.00    -0.010 A 
HETATM    6  C14 UNL     1       7.008  22.351  18.028  1.00  0.00     0.071 A 
HETATM    7  N6  UNL     1       6.155  21.753  18.895  1.00  0.00    -0.190 N 
ATOM      8  H6  UNL     1       6.354  21.815  19.893  1.00  0.00     0.184 HD
HETATM    9  C15 UNL     1       8.248  22.975  18.550  1.00  0.00     0.045 A 
HETATM   10  C16 UNL     1       9.144  23.474  17.623  1.00  0.00     0.041 A 
HETATM   11  N7  UNL     1      10.191  23.932  18.321  1.00  0.00    -0.302 N 
ATOM     12  H7  UNL     1      11.024  24.361  17.919  1.00  0.00     0.187 HD
HETATM   13  N8  UNL     1       9.982  23.742  19.612  1.00  0.00    -0.295 N 
HETATM   14  C17 UNL     1      10.938  24.158  20.605  1.00  0.00     0.178 C 
HETATM   15  C18 UNL     1       8.768  23.145  19.806  1.00  0.00     0.075 A 
HETATM   16  C25 UNL     1       8.951  23.464  16.162  1.00  0.00     0.068 C 
HETATM   17  C26 UNL     1       7.656  22.951  15.698  1.00  0.00     0.024 C 
HETATM   18  C27 UNL     1       7.908  22.019  14.501  1.00  0.00     0.015 C 
ENDROOT
BRANCH   1  19
HETATM   19  N4  UNL     1       4.187  20.466  19.434  1.00  0.00    -0.175 N 
ATOM     20  H4  UNL     1       3.834  19.540  19.195  1.00  0.00     0.186 HD
BRANCH  19  21
HETATM   21  C10 UNL     1       3.762  21.016  20.656  1.00  0.00     0.137 A 
HETATM   22  C9  UNL     1       4.423  21.967  21.391  1.00  0.00     0.069 A 
HETATM   23  C8  UNL     1       3.678  22.252  22.542  1.00  0.00     0.114 A 
HETATM   24  N3  UNL     1       2.597  21.459  22.453  1.00  0.00    -0.300 N 
HETATM   25  N9  UNL     1       2.636  20.732  21.353  1.00  0.00    -0.283 N 
ATOM     26  H9  UNL     1       1.926  20.058  21.071  1.00  0.00     0.188 HD
BRANCH  24  27
HETATM   27  C7  UNL     1       1.556  21.448  23.462  1.00  0.00     0.178 C 
BRANCH  27  28
HETATM   28  C6  UNL     1       1.881  20.528  24.604  1.00  0.00     0.294 C 
BRANCH  28  29
HETATM   29  N2  UNL     1       2.057  19.144  24.209  1.00  0.00     0.093 N 
HETATM   30  C5  UNL     1       0.861  18.467  23.857  1.00  0.00     0.302 C 
HETATM   31  C4  UNL     1       0.179  17.738  24.974  1.00  0.00     0.302 C 
HETATM   32  N1  UNL     1       1.139  16.900  25.669  1.00  0.00     0.093 N 
HETATM   33  C29 UNL     1       2.089  17.835  26.297  1.00  0.00     0.302 C 
HETATM   34  C28 UNL     1       2.865  18.465  25.194  1.00  0.00     0.302 C 
BRANCH  32  35
HETATM   35  C3  UNL     1       0.545  16.009  26.615  1.00  0.00     0.298 C 
BRANCH  35  36
HETATM   36  C2  UNL     1       1.066  14.591  26.399  1.00  0.00     0.197 C 
BRANCH  36  37
HETATM   37  O1  UNL     1       0.241  13.742  27.126  1.00  0.00    -0.394 OA
HETATM   38  C1  UNL     1      -0.756  13.191  26.316  1.00  0.00     0.201 C 
ENDBRANCH  36  37
ENDBRANCH  35  36
ENDBRANCH  32  35
ENDBRANCH  28  29
ENDBRANCH  27  28
ENDBRANCH  24  27
ENDBRANCH  19  21
ENDBRANCH   1  19
BRANCH  15  39
HETATM   39  C19 UNL     1       8.157  22.943  21.104  1.00  0.00    -0.007 A 
HETATM   40  C20 UNL     1       8.286  21.723  21.768  1.00  0.00     0.014 A 
HETATM   41  C21 UNL     1       7.813  21.544  23.042  1.00  0.00     0.001 A 
HETATM   42  C22 UNL     1       7.187  22.575  23.716  1.00  0.00     0.000 A 
HETATM   43  C23 UNL     1       7.041  23.787  23.100  1.00  0.00     0.001 A 
HETATM   44  C24 UNL     1       7.532  23.935  21.812  1.00  0.00     0.014 A 
ENDBRANCH  15  39
TORSDOF 9
ENDMDL
