MODEL 7
REMARK VINA RESULT: -8.614192574      4.581      9.774
REMARK  9 active torsions:
REMARK  status: ('A' for Active; 'I' for Inactive)
REMARK    1  A    between atoms: O1_2  and  C2_3 
REMARK    2  A    between atoms: C2_3  and  C3_4 
REMARK    3  A    between atoms: C3_4  and  N1_5 
REMARK    4  A    between atoms: N2_8  and  C6_9 
REMARK    5  A    between atoms: C6_9  and  C7_10 
REMARK    6  A    between atoms: C7_10  and  N3_11 
REMARK    7  A    between atoms: C10_14  and  N4_15 
REMARK    8  A    between atoms: N4_15  and  C11_17 
REMARK    9  A    between atoms: C18_31  and  C19_32 
ROOT
HETATM    1  C11 UNL     1       4.422  22.261  24.051  1.00  0.00     0.684 A 
HETATM    2  N5  UNL     1       3.291  21.828  24.621  1.00  0.00    -0.201 N 
ATOM      3  H5  UNL     1       3.181  21.962  25.626  1.00  0.00     0.183 HD
HETATM    4  C12 UNL     1       2.301  21.232  23.957  1.00  0.00     0.116 A 
HETATM    5  C13 UNL     1       2.407  21.026  22.584  1.00  0.00    -0.010 A 
HETATM    6  C14 UNL     1       3.556  21.463  21.993  1.00  0.00     0.071 A 
HETATM    7  N6  UNL     1       4.524  22.063  22.728  1.00  0.00    -0.190 N 
ATOM      8  H6  UNL     1       5.369  22.379  22.253  1.00  0.00     0.184 HD
HETATM    9  C15 UNL     1       3.804  21.191  20.557  1.00  0.00     0.045 A 
HETATM   10  C16 UNL     1       2.838  20.478  19.872  1.00  0.00     0.041 A 
HETATM   11  N7  UNL     1       3.304  20.315  18.627  1.00  0.00    -0.302 N 
ATOM     12  H7  UNL     1       2.818  19.824  17.877  1.00  0.00     0.187 HD
HETATM   13  N8  UNL     1       4.491  20.887  18.517  1.00  0.00    -0.295 N 
HETATM   14  C17 UNL     1       5.223  20.885  17.277  1.00  0.00     0.178 C 
HETATM   15  C18 UNL     1       4.846  21.455  19.707  1.00  0.00     0.075 A 
HETATM   16  C25 UNL     1       1.570  19.997  20.445  1.00  0.00     0.068 C 
HETATM   17  C26 UNL     1       1.310  20.397  21.834  1.00  0.00     0.024 C 
HETATM   18  C27 UNL     1       0.772  19.174  22.595  1.00  0.00     0.015 C 
ENDROOT
BRANCH   1  19
HETATM   19  N4  UNL     1       5.455  22.892  24.794  1.00  0.00    -0.175 N 
ATOM     20  H4  UNL     1       5.175  23.414  25.624  1.00  0.00     0.186 HD
BRANCH  19  21
HETATM   21  C10 UNL     1       6.827  22.864  24.489  1.00  0.00     0.137 A 
HETATM   22  C9  UNL     1       7.533  23.842  23.836  1.00  0.00     0.069 A 
HETATM   23  C8  UNL     1       8.871  23.441  23.726  1.00  0.00     0.114 A 
HETATM   24  N3  UNL     1       8.915  22.237  24.320  1.00  0.00    -0.300 N 
HETATM   25  N9  UNL     1       7.725  21.890  24.769  1.00  0.00    -0.283 N 
ATOM     26  H9  UNL     1       7.513  21.019  25.255  1.00  0.00     0.188 HD
BRANCH  24  27
HETATM   27  C7  UNL     1      10.139  21.467  24.423  1.00  0.00     0.178 C 
BRANCH  27  28
HETATM   28  C6  UNL     1      11.304  22.306  24.864  1.00  0.00     0.294 C 
BRANCH  28  29
HETATM   29  N2  UNL     1      12.565  21.923  24.257  1.00  0.00     0.093 N 
HETATM   30  C5  UNL     1      13.703  22.593  24.775  1.00  0.00     0.302 C 
HETATM   31  C4  UNL     1      14.094  23.849  24.058  1.00  0.00     0.302 C 
HETATM   32  N1  UNL     1      14.167  23.595  22.631  1.00  0.00     0.093 N 
HETATM   33  C29 UNL     1      12.786  23.291  22.219  1.00  0.00     0.302 C 
HETATM   34  C28 UNL     1      12.437  21.974  22.820  1.00  0.00     0.302 C 
BRANCH  32  35
HETATM   35  C3  UNL     1      14.734  24.673  21.884  1.00  0.00     0.298 C 
BRANCH  35  36
HETATM   36  C2  UNL     1      13.650  25.379  21.075  1.00  0.00     0.197 C 
BRANCH  36  37
HETATM   37  O1  UNL     1      14.196  25.668  19.831  1.00  0.00    -0.394 OA
HETATM   38  C1  UNL     1      14.133  24.560  18.983  1.00  0.00     0.201 C 
ENDBRANCH  36  37
ENDBRANCH  35  36
ENDBRANCH  32  35
ENDBRANCH  28  29
ENDBRANCH  27  28
ENDBRANCH  24  27
ENDBRANCH  19  21
ENDBRANCH   1  19
BRANCH  15  39
HETATM   39  C19 UNL     1       6.009  22.301  19.891  1.00  0.00    -0.007 A 
HETATM   40  C20 UNL     1       7.282  21.743  20.016  1.00  0.00     0.014 A 
HETATM   41  C21 UNL     1       8.406  22.524  20.079  1.00  0.00     0.001 A 
HETATM   42  C22 UNL     1       8.316  23.902  20.022  1.00  0.00     0.000 A 
HETATM   43  C23 UNL     1       7.087  24.487  19.900  1.00  0.00     0.001 A 
HETATM   44  C24 UNL     1       5.970  23.669  19.837  1.00  0.00     0.014 A 
ENDBRANCH  15  39
TORSDOF 9
ENDMDL
