MODEL 3
REMARK VINA RESULT: -8.794600351      1.061      1.651
REMARK  9 active torsions:
REMARK  status: ('A' for Active; 'I' for Inactive)
REMARK    1  A    between atoms: O1_2  and  C2_3 
REMARK    2  A    between atoms: C2_3  and  C3_4 
REMARK    3  A    between atoms: C3_4  and  N1_5 
REMARK    4  A    between atoms: N2_8  and  C6_9 
REMARK    5  A    between atoms: C6_9  and  C7_10 
REMARK    6  A    between atoms: C7_10  and  N3_11 
REMARK    7  A    between atoms: C10_14  and  N4_15 
REMARK    8  A    between atoms: N4_15  and  C11_17 
REMARK    9  A    between atoms: C18_31  and  C19_32 
ROOT
HETATM    1  C11 UNL     1       6.813  21.023  21.989  1.00  0.00     0.684 A 
HETATM    2  N5  UNL     1       7.621  21.179  23.046  1.00  0.00    -0.201 N 
ATOM      3  H5  UNL     1       7.294  20.843  23.952  1.00  0.00     0.183 HD
HETATM    4  C12 UNL     1       8.826  21.745  22.987  1.00  0.00     0.116 A 
HETATM    5  C13 UNL     1       9.315  22.220  21.773  1.00  0.00    -0.010 A 
HETATM    6  C14 UNL     1       8.499  22.067  20.690  1.00  0.00     0.071 A 
HETATM    7  N6  UNL     1       7.284  21.480  20.820  1.00  0.00    -0.190 N 
ATOM      8  H6  UNL     1       6.701  21.382  19.989  1.00  0.00     0.184 HD
HETATM    9  C15 UNL     1       8.888  22.638  19.378  1.00  0.00     0.045 A 
HETATM   10  C16 UNL     1      10.086  23.326  19.318  1.00  0.00     0.041 A 
HETATM   11  N7  UNL     1      10.192  23.786  18.064  1.00  0.00    -0.302 N 
ATOM     12  H7  UNL     1      10.971  24.337  17.705  1.00  0.00     0.187 HD
HETATM   13  N8  UNL     1       9.135  23.416  17.364  1.00  0.00    -0.295 N 
HETATM   14  C17 UNL     1       8.990  23.755  15.972  1.00  0.00     0.178 C 
HETATM   15  C18 UNL     1       8.286  22.688  18.149  1.00  0.00     0.075 A 
HETATM   16  C25 UNL     1      11.020  23.508  20.443  1.00  0.00     0.068 C 
HETATM   17  C26 UNL     1      10.654  22.820  21.687  1.00  0.00     0.024 C 
HETATM   18  C27 UNL     1      10.883  23.789  22.859  1.00  0.00     0.015 C 
ENDROOT
BRANCH   1  19
HETATM   19  N4  UNL     1       5.535  20.414  22.094  1.00  0.00    -0.175 N 
ATOM     20  H4  UNL     1       5.220  19.859  21.298  1.00  0.00     0.186 HD
BRANCH  19  21
HETATM   21  C10 UNL     1       4.663  20.506  23.193  1.00  0.00     0.137 A 
HETATM   22  C9  UNL     1       3.911  21.599  23.542  1.00  0.00     0.069 A 
HETATM   23  C8  UNL     1       3.175  21.296  24.695  1.00  0.00     0.114 A 
HETATM   24  N3  UNL     1       3.514  20.031  24.992  1.00  0.00    -0.300 N 
HETATM   25  N9  UNL     1       4.384  19.559  24.120  1.00  0.00    -0.283 N 
ATOM     26  H9  UNL     1       4.787  18.623  24.141  1.00  0.00     0.188 HD
BRANCH  24  27
HETATM   27  C7  UNL     1       2.964  19.327  26.134  1.00  0.00     0.178 C 
BRANCH  27  28
HETATM   28  C6  UNL     1       2.514  17.938  25.783  1.00  0.00     0.294 C 
BRANCH  28  29
HETATM   29  N2  UNL     1       1.493  17.411  26.668  1.00  0.00     0.093 N 
HETATM   30  C5  UNL     1       1.857  16.230  27.364  1.00  0.00     0.302 C 
HETATM   31  C4  UNL     1       1.496  14.944  26.687  1.00  0.00     0.302 C 
HETATM   32  N1  UNL     1       0.100  14.978  26.288  1.00  0.00     0.093 N 
HETATM   33  C29 UNL     1       0.014  16.029  25.261  1.00  0.00     0.302 C 
HETATM   34  C28 UNL     1       0.240  17.327  25.954  1.00  0.00     0.302 C 
BRANCH  32  35
HETATM   35  C3  UNL     1      -0.394  13.720  25.823  1.00  0.00     0.298 C 
BRANCH  35  36
HETATM   36  C2  UNL     1      -1.593  13.285  26.661  1.00  0.00     0.197 C 
BRANCH  36  37
HETATM   37  O1  UNL     1      -2.571  12.852  25.775  1.00  0.00    -0.394 OA
HETATM   38  C1  UNL     1      -3.360  13.918  25.334  1.00  0.00     0.201 C 
ENDBRANCH  36  37
ENDBRANCH  35  36
ENDBRANCH  32  35
ENDBRANCH  28  29
ENDBRANCH  27  28
ENDBRANCH  24  27
ENDBRANCH  19  21
ENDBRANCH   1  19
BRANCH  15  39
HETATM   39  C19 UNL     1       7.114  21.994  17.655  1.00  0.00    -0.007 A 
HETATM   40  C20 UNL     1       7.239  20.949  16.739  1.00  0.00     0.014 A 
HETATM   41  C21 UNL     1       6.157  20.207  16.344  1.00  0.00     0.001 A 
HETATM   42  C22 UNL     1       4.896  20.470  16.842  1.00  0.00     0.000 A 
HETATM   43  C23 UNL     1       4.731  21.486  17.742  1.00  0.00     0.001 A 
HETATM   44  C24 UNL     1       5.846  22.217  18.123  1.00  0.00     0.014 A 
ENDBRANCH  15  39
TORSDOF 9
ENDMDL
