MODEL 1
REMARK VINA RESULT: -7.413453376      0.000      0.000
REMARK  3 active torsions:
REMARK  status: ('A' for Active; 'I' for Inactive)
REMARK    1  A    between atoms: C4_5  and  C5_6 
REMARK    2  A    between atoms: C8_9  and  S1_10 
REMARK    3  A    between atoms: S1_10  and  N2_11 
ROOT
HETATM    1  C5  UNL     1      -4.365   4.540  14.683  1.00  0.00    -0.026 A 
HETATM    2  C6  UNL     1      -3.557   3.466  14.997  1.00  0.00     0.014 A 
HETATM    3  C7  UNL     1      -4.023   2.368  15.656  1.00  0.00     0.026 A 
HETATM    4  C8  UNL     1      -5.348   2.332  16.021  1.00  0.00     0.079 A 
HETATM    5  C9  UNL     1      -6.192   3.400  15.720  1.00  0.00     0.026 A 
HETATM    6  C10 UNL     1      -5.708   4.495  15.057  1.00  0.00     0.014 A 
ENDROOT
BRANCH   1   7
HETATM    7  C4  UNL     1      -3.804   5.678  13.980  1.00  0.00    -0.026 A 
HETATM    8  C3  UNL     1      -4.160   5.899  12.672  1.00  0.00     0.014 A 
HETATM    9  C2  UNL     1      -3.649   6.973  11.956  1.00  0.00     0.027 A 
HETATM   10  C1  UNL     1      -2.766   7.824  12.593  1.00  0.00     0.046 A 
HETATM   11  N1  UNL     1      -2.193   8.945  11.949  1.00  0.00    -0.102 NA
HETATM   12  C12 UNL     1      -2.417   7.591  13.906  1.00  0.00     0.027 A 
HETATM   13  C11 UNL     1      -2.937   6.515  14.603  1.00  0.00     0.014 A 
ENDBRANCH   1   7
BRANCH   4  14
HETATM   14  S1  UNL     1      -5.975   0.947  16.867  1.00  0.00     0.256 S 
HETATM   15  O1  UNL     1      -5.503  -0.302  16.141  1.00  0.00    -0.201 OA
HETATM   16  O2  UNL     1      -5.436   0.968  18.279  1.00  0.00    -0.201 OA
BRANCH  14  17
HETATM   17  N2  UNL     1      -7.703   1.012  16.898  1.00  0.00    -0.324 N 
ATOM     18  H22 UNL     1      -8.250   1.852  16.709  1.00  0.00     0.169 HD
ATOM     19  H21 UNL     1      -8.079   0.093  17.132  1.00  0.00     0.169 HD
ENDBRANCH  14  17
ENDBRANCH   4  14
TORSDOF 3
ENDMDL
