MODEL 15
REMARK VINA RESULT: -6.883241841      4.234      7.028
REMARK  3 active torsions:
REMARK  status: ('A' for Active; 'I' for Inactive)
REMARK    1  A    between atoms: C4_5  and  C5_6 
REMARK    2  A    between atoms: C8_9  and  S1_10 
REMARK    3  A    between atoms: S1_10  and  N2_11 
ROOT
HETATM    1  C5  UNL     1      -3.571   4.358  14.771  1.00  0.00    -0.026 A 
HETATM    2  C6  UNL     1      -4.063   5.646  14.827  1.00  0.00     0.014 A 
HETATM    3  C7  UNL     1      -3.366   6.717  14.353  1.00  0.00     0.026 A 
HETATM    4  C8  UNL     1      -2.126   6.502  13.798  1.00  0.00     0.079 A 
HETATM    5  C9  UNL     1      -1.600   5.212  13.725  1.00  0.00     0.026 A 
HETATM    6  C10 UNL     1      -2.313   4.149  14.206  1.00  0.00     0.014 A 
ENDROOT
BRANCH   1   7
HETATM    7  C4  UNL     1      -4.366   3.264  15.296  1.00  0.00    -0.026 A 
HETATM    8  C3  UNL     1      -5.710   3.454  15.509  1.00  0.00     0.014 A 
HETATM    9  C2  UNL     1      -6.512   2.439  16.011  1.00  0.00     0.027 A 
HETATM   10  C1  UNL     1      -5.926   1.221  16.295  1.00  0.00     0.046 A 
HETATM   11  N1  UNL     1      -6.659   0.125  16.809  1.00  0.00    -0.102 NA
HETATM   12  C12 UNL     1      -4.576   1.043  16.078  1.00  0.00     0.027 A 
HETATM   13  C11 UNL     1      -3.793   2.067  15.577  1.00  0.00     0.014 A 
ENDBRANCH   1   7
BRANCH   4  14
HETATM   14  S1  UNL     1      -1.208   7.846  13.185  1.00  0.00     0.256 S 
HETATM   15  O1  UNL     1      -0.750   8.682  14.368  1.00  0.00    -0.201 OA
HETATM   16  O2  UNL     1      -0.014   7.303  12.434  1.00  0.00    -0.201 OA
BRANCH  14  17
HETATM   17  N2  UNL     1      -2.190   8.790  12.120  1.00  0.00    -0.324 N 
ATOM     18  H22 UNL     1      -2.080   8.815  11.106  1.00  0.00     0.169 HD
ATOM     19  H21 UNL     1      -2.885   9.308  12.659  1.00  0.00     0.169 HD
ENDBRANCH  14  17
ENDBRANCH   4  14
TORSDOF 3
ENDMDL
