MODEL 14
REMARK VINA RESULT: -6.896965532      4.327      6.974
REMARK  3 active torsions:
REMARK  status: ('A' for Active; 'I' for Inactive)
REMARK    1  A    between atoms: C4_5  and  C5_6 
REMARK    2  A    between atoms: C8_9  and  S1_10 
REMARK    3  A    between atoms: S1_10  and  N2_11 
ROOT
HETATM    1  C5  UNL     1      -3.644   4.357  14.765  1.00  0.00    -0.026 A 
HETATM    2  C6  UNL     1      -2.427   4.083  14.176  1.00  0.00     0.014 A 
HETATM    3  C7  UNL     1      -1.643   5.054  13.629  1.00  0.00     0.026 A 
HETATM    4  C8  UNL     1      -2.085   6.355  13.667  1.00  0.00     0.079 A 
HETATM    5  C9  UNL     1      -3.310   6.667  14.255  1.00  0.00     0.026 A 
HETATM    6  C10 UNL     1      -4.085   5.680  14.800  1.00  0.00     0.014 A 
ENDROOT
BRANCH   1   7
HETATM    7  C4  UNL     1      -4.428   3.274  15.328  1.00  0.00    -0.026 A 
HETATM    8  C3  UNL     1      -3.818   2.072  15.591  1.00  0.00     0.014 A 
HETATM    9  C2  UNL     1      -4.526   1.005  16.128  1.00  0.00     0.027 A 
HETATM   10  C1  UNL     1      -5.870   1.180  16.395  1.00  0.00     0.046 A 
HETATM   11  N1  UNL     1      -6.676   0.154  16.944  1.00  0.00    -0.102 NA
HETATM   12  C12 UNL     1      -6.471   2.391  16.127  1.00  0.00     0.027 A 
HETATM   13  C11 UNL     1      -5.749   3.442  15.592  1.00  0.00     0.014 A 
ENDBRANCH   1   7
BRANCH   4  14
HETATM   14  S1  UNL     1      -1.112   7.620  12.975  1.00  0.00     0.256 S 
HETATM   15  O1  UNL     1      -1.976   8.399  11.997  1.00  0.00    -0.201 OA
HETATM   16  O2  UNL     1      -0.641   8.522  14.092  1.00  0.00    -0.201 OA
BRANCH  14  17
HETATM   17  N2  UNL     1       0.251   6.932  12.162  1.00  0.00    -0.324 N 
ATOM     18  H22 UNL     1       1.123   6.671  12.623  1.00  0.00     0.169 HD
ATOM     19  H21 UNL     1       0.046   6.832  11.168  1.00  0.00     0.169 HD
ENDBRANCH  14  17
ENDBRANCH   4  14
TORSDOF 3
ENDMDL
