MODEL 13
REMARK VINA RESULT: -6.897357868      4.329      6.949
REMARK  3 active torsions:
REMARK  status: ('A' for Active; 'I' for Inactive)
REMARK    1  A    between atoms: C4_5  and  C5_6 
REMARK    2  A    between atoms: C8_9  and  S1_10 
REMARK    3  A    between atoms: S1_10  and  N2_11 
ROOT
HETATM    1  C5  UNL     1      -3.622   4.354  14.777  1.00  0.00    -0.026 A 
HETATM    2  C6  UNL     1      -2.404   4.097  14.183  1.00  0.00     0.014 A 
HETATM    3  C7  UNL     1      -1.634   5.080  13.637  1.00  0.00     0.026 A 
HETATM    4  C8  UNL     1      -2.092   6.376  13.682  1.00  0.00     0.079 A 
HETATM    5  C9  UNL     1      -3.319   6.670  14.275  1.00  0.00     0.026 A 
HETATM    6  C10 UNL     1      -4.079   5.671  14.818  1.00  0.00     0.014 A 
ENDROOT
BRANCH   1   7
HETATM    7  C4  UNL     1      -4.391   3.259  15.338  1.00  0.00    -0.026 A 
HETATM    8  C3  UNL     1      -5.733   3.435  15.576  1.00  0.00     0.014 A 
HETATM    9  C2  UNL     1      -6.511   2.419  16.114  1.00  0.00     0.027 A 
HETATM   10  C1  UNL     1      -5.901   1.214  16.406  1.00  0.00     0.046 A 
HETATM   11  N1  UNL     1      -6.609   0.118  16.955  1.00  0.00    -0.102 NA
HETATM   12  C12 UNL     1      -4.555   1.049  16.163  1.00  0.00     0.027 A 
HETATM   13  C11 UNL     1      -3.796   2.074  15.627  1.00  0.00     0.014 A 
ENDBRANCH   1   7
BRANCH   4  14
HETATM   14  S1  UNL     1      -1.137   7.655  12.992  1.00  0.00     0.256 S 
HETATM   15  O1  UNL     1      -2.016   8.432  12.027  1.00  0.00    -0.201 OA
HETATM   16  O2  UNL     1      -0.666   8.555  14.113  1.00  0.00    -0.201 OA
BRANCH  14  17
HETATM   17  N2  UNL     1       0.228   6.988  12.165  1.00  0.00    -0.324 N 
ATOM     18  H22 UNL     1       0.560   7.306  11.254  1.00  0.00     0.169 HD
ATOM     19  H21 UNL     1       0.639   6.240  12.724  1.00  0.00     0.169 HD
ENDBRANCH  14  17
ENDBRANCH   4  14
TORSDOF 3
ENDMDL
