MODEL 2
REMARK VINA RESULT: -7.393745959      0.070      1.155
REMARK  3 active torsions:
REMARK  status: ('A' for Active; 'I' for Inactive)
REMARK    1  A    between atoms: C4_5  and  C5_6 
REMARK    2  A    between atoms: C8_9  and  S1_10 
REMARK    3  A    between atoms: S1_10  and  N2_11 
ROOT
HETATM    1  C5  UNL     1      -4.343   4.549  14.680  1.00  0.00    -0.026 A 
HETATM    2  C6  UNL     1      -3.536   3.473  14.990  1.00  0.00     0.014 A 
HETATM    3  C7  UNL     1      -4.002   2.374  15.647  1.00  0.00     0.026 A 
HETATM    4  C8  UNL     1      -5.327   2.338  16.012  1.00  0.00     0.079 A 
HETATM    5  C9  UNL     1      -6.170   3.408  15.714  1.00  0.00     0.026 A 
HETATM    6  C10 UNL     1      -5.686   4.504  15.055  1.00  0.00     0.014 A 
ENDROOT
BRANCH   1   7
HETATM    7  C4  UNL     1      -3.782   5.688  13.980  1.00  0.00    -0.026 A 
HETATM    8  C3  UNL     1      -2.950   6.547  14.656  1.00  0.00     0.014 A 
HETATM    9  C2  UNL     1      -2.389   7.652  14.031  1.00  0.00     0.027 A 
HETATM   10  C1  UNL     1      -2.688   7.873  12.700  1.00  0.00     0.046 A 
HETATM   11  N1  UNL     1      -2.165   8.970  11.976  1.00  0.00    -0.102 NA
HETATM   12  C12 UNL     1      -3.525   7.004  12.032  1.00  0.00     0.027 A 
HETATM   13  C11 UNL     1      -4.074   5.909  12.673  1.00  0.00     0.014 A 
ENDBRANCH   1   7
BRANCH   4  14
HETATM   14  S1  UNL     1      -5.954   0.951  16.854  1.00  0.00     0.256 S 
HETATM   15  O1  UNL     1      -5.476  -0.296  16.131  1.00  0.00    -0.201 OA
HETATM   16  O2  UNL     1      -5.423   0.973  18.269  1.00  0.00    -0.201 OA
BRANCH  14  17
HETATM   17  N2  UNL     1      -7.683   1.012  16.877  1.00  0.00    -0.324 N 
ATOM     18  H22 UNL     1      -8.229   1.868  16.779  1.00  0.00     0.169 HD
ATOM     19  H21 UNL     1      -8.060   0.072  17.001  1.00  0.00     0.169 HD
ENDBRANCH  14  17
ENDBRANCH   4  14
TORSDOF 3
ENDMDL
