MODEL 5
REMARK VINA RESULT: -7.313945066      1.048      1.308
REMARK  3 active torsions:
REMARK  status: ('A' for Active; 'I' for Inactive)
REMARK    1  A    between atoms: C4_5  and  C5_6 
REMARK    2  A    between atoms: C8_9  and  S1_10 
REMARK    3  A    between atoms: S1_10  and  N2_11 
ROOT
HETATM    1  C5  UNL     1      -3.674   4.121  14.851  1.00  0.00    -0.026 A 
HETATM    2  C6  UNL     1      -3.023   2.990  15.300  1.00  0.00     0.014 A 
HETATM    3  C7  UNL     1      -3.678   1.962  15.910  1.00  0.00     0.026 A 
HETATM    4  C8  UNL     1      -5.038   2.060  16.084  1.00  0.00     0.079 A 
HETATM    5  C9  UNL     1      -5.726   3.190  15.642  1.00  0.00     0.026 A 
HETATM    6  C10 UNL     1      -5.054   4.212  15.032  1.00  0.00     0.014 A 
ENDROOT
BRANCH   1   7
HETATM    7  C4  UNL     1      -2.914   5.178  14.210  1.00  0.00    -0.026 A 
HETATM    8  C3  UNL     1      -3.257   6.487  14.446  1.00  0.00     0.014 A 
HETATM    9  C2  UNL     1      -2.563   7.533  13.855  1.00  0.00     0.027 A 
HETATM   10  C1  UNL     1      -1.509   7.228  13.015  1.00  0.00     0.046 A 
HETATM   11  N1  UNL     1      -0.740   8.223  12.368  1.00  0.00    -0.102 NA
HETATM   12  C12 UNL     1      -1.174   5.910  12.786  1.00  0.00     0.027 A 
HETATM   13  C11 UNL     1      -1.878   4.881  13.385  1.00  0.00     0.014 A 
ENDBRANCH   1   7
BRANCH   4  14
HETATM   14  S1  UNL     1      -5.905   0.769  16.862  1.00  0.00     0.256 S 
HETATM   15  O1  UNL     1      -5.553  -0.529  16.155  1.00  0.00    -0.201 OA
HETATM   16  O2  UNL     1      -5.474   0.711  18.310  1.00  0.00    -0.201 OA
BRANCH  14  17
HETATM   17  N2  UNL     1      -7.607   1.066  16.769  1.00  0.00    -0.324 N 
ATOM     18  H22 UNL     1      -8.123   1.185  15.897  1.00  0.00     0.169 HD
ATOM     19  H21 UNL     1      -8.003   1.101  17.709  1.00  0.00     0.169 HD
ENDBRANCH  14  17
ENDBRANCH   4  14
TORSDOF 3
ENDMDL
