MODEL 3
REMARK VINA RESULT: -7.393156958      0.080      1.164
REMARK  3 active torsions:
REMARK  status: ('A' for Active; 'I' for Inactive)
REMARK    1  A    between atoms: C4_5  and  C5_6 
REMARK    2  A    between atoms: C8_9  and  S1_10 
REMARK    3  A    between atoms: S1_10  and  N2_11 
ROOT
HETATM    1  C5  UNL     1      -4.241   4.491  14.667  1.00  0.00    -0.026 A 
HETATM    2  C6  UNL     1      -5.574   4.440  15.019  1.00  0.00     0.014 A 
HETATM    3  C7  UNL     1      -6.115   3.380  15.684  1.00  0.00     0.026 A 
HETATM    4  C8  UNL     1      -5.299   2.324  16.013  1.00  0.00     0.079 A 
HETATM    5  C9  UNL     1      -3.947   2.344  15.673  1.00  0.00     0.026 A 
HETATM    6  C10 UNL     1      -3.420   3.415  15.006  1.00  0.00     0.014 A 
ENDROOT
BRANCH   1   7
HETATM    7  C4  UNL     1      -3.730   5.650  13.959  1.00  0.00    -0.026 A 
HETATM    8  C3  UNL     1      -4.118   5.865  12.659  1.00  0.00     0.014 A 
HETATM    9  C2  UNL     1      -3.655   6.958  11.939  1.00  0.00     0.027 A 
HETATM   10  C1  UNL     1      -2.788   7.835  12.564  1.00  0.00     0.046 A 
HETATM   11  N1  UNL     1      -2.264   8.977  11.915  1.00  0.00    -0.102 NA
HETATM   12  C12 UNL     1      -2.407   7.607  13.869  1.00  0.00     0.027 A 
HETATM   13  C11 UNL     1      -2.879   6.512  14.569  1.00  0.00     0.014 A 
ENDBRANCH   1   7
BRANCH   4  14
HETATM   14  S1  UNL     1      -5.958   0.954  16.859  1.00  0.00     0.256 S 
HETATM   15  O1  UNL     1      -5.488  -0.307  16.152  1.00  0.00    -0.201 OA
HETATM   16  O2  UNL     1      -5.443   0.980  18.280  1.00  0.00    -0.201 OA
BRANCH  14  17
HETATM   17  N2  UNL     1      -7.685   1.040  16.859  1.00  0.00    -0.324 N 
ATOM     18  H22 UNL     1      -8.229   1.675  17.443  1.00  0.00     0.169 HD
ATOM     19  H21 UNL     1      -8.065   0.366  16.194  1.00  0.00     0.169 HD
ENDBRANCH  14  17
ENDBRANCH   4  14
TORSDOF 3
ENDMDL
