MODEL 4
REMARK VINA RESULT: -7.375627968      0.087      1.639
REMARK  3 active torsions:
REMARK  status: ('A' for Active; 'I' for Inactive)
REMARK    1  A    between atoms: C4_5  and  C5_6 
REMARK    2  A    between atoms: C8_9  and  S1_10 
REMARK    3  A    between atoms: S1_10  and  N2_11 
ROOT
HETATM    1  C5  UNL     1      -4.241   4.480  14.658  1.00  0.00    -0.026 A 
HETATM    2  C6  UNL     1      -5.572   4.435  15.019  1.00  0.00     0.014 A 
HETATM    3  C7  UNL     1      -6.114   3.378  15.687  1.00  0.00     0.026 A 
HETATM    4  C8  UNL     1      -5.300   2.318  16.011  1.00  0.00     0.079 A 
HETATM    5  C9  UNL     1      -3.950   2.332  15.662  1.00  0.00     0.026 A 
HETATM    6  C10 UNL     1      -3.423   3.401  14.992  1.00  0.00     0.014 A 
ENDROOT
BRANCH   1   7
HETATM    7  C4  UNL     1      -3.730   5.637  13.947  1.00  0.00    -0.026 A 
HETATM    8  C3  UNL     1      -2.887   6.505  14.598  1.00  0.00     0.014 A 
HETATM    9  C2  UNL     1      -2.373   7.627  13.962  1.00  0.00     0.027 A 
HETATM   10  C1  UNL     1      -2.731   7.855  12.647  1.00  0.00     0.046 A 
HETATM   11  N1  UNL     1      -2.259   8.968  11.913  1.00  0.00    -0.102 NA
HETATM   12  C12 UNL     1      -3.578   6.977  12.005  1.00  0.00     0.027 A 
HETATM   13  C11 UNL     1      -4.079   5.865  12.656  1.00  0.00     0.014 A 
ENDBRANCH   1   7
BRANCH   4  14
HETATM   14  S1  UNL     1      -5.959   0.951  16.861  1.00  0.00     0.256 S 
HETATM   15  O1  UNL     1      -5.495  -0.312  16.154  1.00  0.00    -0.201 OA
HETATM   16  O2  UNL     1      -5.440   0.977  18.280  1.00  0.00    -0.201 OA
BRANCH  14  17
HETATM   17  N2  UNL     1      -7.686   1.040  16.867  1.00  0.00    -0.324 N 
ATOM     18  H22 UNL     1      -8.295   0.441  16.309  1.00  0.00     0.169 HD
ATOM     19  H21 UNL     1      -7.992   1.775  17.505  1.00  0.00     0.169 HD
ENDBRANCH  14  17
ENDBRANCH   4  14
TORSDOF 3
ENDMDL
