MODEL 2
REMARK VINA RESULT: -7.468019184      0.141      1.171
REMARK  3 active torsions:
REMARK  status: ('A' for Active; 'I' for Inactive)
REMARK    1  A    between atoms: C5_6  and  C6_7 
REMARK    2  A    between atoms: C9_10  and  S1_11 
REMARK    3  A    between atoms: S1_11  and  N2_12 
ROOT
HETATM    1  C6  UNL     1      -4.247   4.517  14.759  1.00  0.00    -0.026 A 
HETATM    2  C7  UNL     1      -5.593   4.464  15.069  1.00  0.00     0.014 A 
HETATM    3  C8  UNL     1      -6.143   3.372  15.705  1.00  0.00     0.026 A 
HETATM    4  C9  UNL     1      -5.322   2.311  16.034  1.00  0.00     0.079 A 
HETATM    5  C10 UNL     1      -3.969   2.378  15.715  1.00  0.00     0.026 A 
HETATM    6  C11 UNL     1      -3.407   3.465  15.079  1.00  0.00     0.014 A 
ENDROOT
BRANCH   1   7
HETATM    7  C5  UNL     1      -3.695   5.694  14.083  1.00  0.00    -0.024 A 
HETATM    8  C4  UNL     1      -3.935   5.932  12.755  1.00  0.00     0.012 A 
HETATM    9  C3  UNL     1      -3.440   7.021  12.077  1.00  0.00     0.003 A 
HETATM   10  C2  UNL     1      -2.661   7.910  12.796  1.00  0.00     0.026 A 
HETATM   11  C1  UNL     1      -2.386   7.722  14.135  1.00  0.00     0.047 A 
HETATM   12  N1  UNL     1      -1.582   8.648  14.851  1.00  0.00    -0.102 NA
HETATM   13  C12 UNL     1      -2.914   6.606  14.760  1.00  0.00     0.038 A 
ENDBRANCH   1   7
BRANCH   4  14
HETATM   14  S1  UNL     1      -5.919   0.876  16.846  1.00  0.00     0.256 S 
HETATM   15  O1  UNL     1      -5.379   0.826  18.247  1.00  0.00    -0.201 OA
HETATM   16  O2  UNL     1      -5.526  -0.379  16.115  1.00  0.00    -0.201 OA
BRANCH  14  17
HETATM   17  N2  UNL     1      -7.644   0.991  16.912  1.00  0.00    -0.324 N 
ATOM     18  H22 UNL     1      -8.170   1.681  17.448  1.00  0.00     0.169 HD
ATOM     19  H21 UNL     1      -8.024   0.251  16.321  1.00  0.00     0.169 HD
ENDBRANCH  14  17
ENDBRANCH   4  14
TORSDOF 3
ENDMDL
