MODEL 9
REMARK VINA RESULT: -7.165427264      4.393      6.749
REMARK  3 active torsions:
REMARK  status: ('A' for Active; 'I' for Inactive)
REMARK    1  A    between atoms: C5_6  and  C6_7 
REMARK    2  A    between atoms: C9_10  and  S1_11 
REMARK    3  A    between atoms: S1_11  and  N2_12 
ROOT
HETATM    1  C6  UNL     1      -4.849   3.064  13.802  1.00  0.00    -0.026 A 
HETATM    2  C7  UNL     1      -4.623   2.114  12.823  1.00  0.00     0.014 A 
HETATM    3  C8  UNL     1      -4.019   2.439  11.628  1.00  0.00     0.026 A 
HETATM    4  C9  UNL     1      -3.635   3.748  11.412  1.00  0.00     0.079 A 
HETATM    5  C10 UNL     1      -3.869   4.695  12.405  1.00  0.00     0.026 A 
HETATM    6  C11 UNL     1      -4.472   4.381  13.605  1.00  0.00     0.014 A 
ENDROOT
BRANCH   1   7
HETATM    7  C5  UNL     1      -5.493   2.683  15.062  1.00  0.00    -0.024 A 
HETATM    8  C4  UNL     1      -6.283   3.564  15.753  1.00  0.00     0.012 A 
HETATM    9  C3  UNL     1      -6.908   3.254  16.938  1.00  0.00     0.003 A 
HETATM   10  C2  UNL     1      -6.712   1.979  17.439  1.00  0.00     0.026 A 
HETATM   11  C1  UNL     1      -5.928   1.050  16.785  1.00  0.00     0.047 A 
HETATM   12  N1  UNL     1      -5.742  -0.252  17.320  1.00  0.00    -0.102 NA
HETATM   13  C12 UNL     1      -5.326   1.425  15.596  1.00  0.00     0.038 A 
ENDBRANCH   1   7
BRANCH   4  14
HETATM   14  S1  UNL     1      -2.858   4.268   9.929  1.00  0.00     0.256 S 
HETATM   15  O1  UNL     1      -3.893   4.469   8.859  1.00  0.00    -0.201 OA
HETATM   16  O2  UNL     1      -1.838   3.269   9.456  1.00  0.00    -0.201 OA
BRANCH  14  17
HETATM   17  N2  UNL     1      -2.080   5.780  10.249  1.00  0.00    -0.324 N 
ATOM     18  H22 UNL     1      -1.080   5.910  10.402  1.00  0.00     0.169 HD
ATOM     19  H21 UNL     1      -2.801   6.502  10.255  1.00  0.00     0.169 HD
ENDBRANCH  14  17
ENDBRANCH   4  14
TORSDOF 3
ENDMDL
