MODEL 8
REMARK VINA RESULT: -7.192453686      4.481      6.732
REMARK  3 active torsions:
REMARK  status: ('A' for Active; 'I' for Inactive)
REMARK    1  A    between atoms: C5_6  and  C6_7 
REMARK    2  A    between atoms: C9_10  and  S1_11 
REMARK    3  A    between atoms: S1_11  and  N2_12 
ROOT
HETATM    1  C6  UNL     1      -3.928   3.163  14.455  1.00  0.00    -0.026 A 
HETATM    2  C7  UNL     1      -3.820   2.595  13.199  1.00  0.00     0.014 A 
HETATM    3  C8  UNL     1      -2.869   3.020  12.296  1.00  0.00     0.026 A 
HETATM    4  C9  UNL     1      -2.009   4.036  12.664  1.00  0.00     0.079 A 
HETATM    5  C10 UNL     1      -2.130   4.599  13.933  1.00  0.00     0.026 A 
HETATM    6  C11 UNL     1      -3.077   4.182  14.844  1.00  0.00     0.014 A 
ENDROOT
BRANCH   1   7
HETATM    7  C5  UNL     1      -4.950   2.686  15.391  1.00  0.00    -0.024 A 
HETATM    8  C4  UNL     1      -5.964   3.504  15.816  1.00  0.00     0.012 A 
HETATM    9  C3  UNL     1      -6.945   3.104  16.693  1.00  0.00     0.003 A 
HETATM   10  C2  UNL     1      -6.884   1.801  17.154  1.00  0.00     0.026 A 
HETATM   11  C1  UNL     1      -5.887   0.932  16.759  1.00  0.00     0.047 A 
HETATM   12  N1  UNL     1      -5.846  -0.400  17.249  1.00  0.00    -0.102 NA
HETATM   13  C12 UNL     1      -4.929   1.397  15.875  1.00  0.00     0.038 A 
ENDBRANCH   1   7
BRANCH   4  14
HETATM   14  S1  UNL     1      -0.763   4.650  11.594  1.00  0.00     0.256 S 
HETATM   15  O1  UNL     1      -0.446   6.074  11.952  1.00  0.00    -0.201 OA
HETATM   16  O2  UNL     1      -1.185   4.579  10.152  1.00  0.00    -0.201 OA
BRANCH  14  17
HETATM   17  N2  UNL     1       0.651   3.682  11.831  1.00  0.00    -0.324 N 
ATOM     18  H22 UNL     1       0.675   2.773  12.292  1.00  0.00     0.169 HD
ATOM     19  H21 UNL     1       1.441   4.187  11.428  1.00  0.00     0.169 HD
ENDBRANCH  14  17
ENDBRANCH   4  14
TORSDOF 3
ENDMDL
