MODEL 3
REMARK VINA RESULT: -7.446437784      1.176      1.649
REMARK  3 active torsions:
REMARK  status: ('A' for Active; 'I' for Inactive)
REMARK    1  A    between atoms: C5_6  and  C6_7 
REMARK    2  A    between atoms: C9_10  and  S1_11 
REMARK    3  A    between atoms: S1_11  and  N2_12 
ROOT
HETATM    1  C6  UNL     1      -4.251   4.447  14.735  1.00  0.00    -0.026 A 
HETATM    2  C7  UNL     1      -3.400   3.419  15.097  1.00  0.00     0.014 A 
HETATM    3  C8  UNL     1      -3.860   2.301  15.758  1.00  0.00     0.026 A 
HETATM    4  C9  UNL     1      -5.205   2.215  16.061  1.00  0.00     0.079 A 
HETATM    5  C10 UNL     1      -6.050   3.258  15.691  1.00  0.00     0.026 A 
HETATM    6  C11 UNL     1      -5.600   4.381  15.031  1.00  0.00     0.014 A 
ENDROOT
BRANCH   1   7
HETATM    7  C5  UNL     1      -3.726   5.621  14.033  1.00  0.00    -0.024 A 
HETATM    8  C4  UNL     1      -2.878   6.502  14.651  1.00  0.00     0.012 A 
HETATM    9  C3  UNL     1      -2.360   7.617  14.035  1.00  0.00     0.003 A 
HETATM   10  C2  UNL     1      -2.731   7.840  12.721  1.00  0.00     0.026 A 
HETATM   11  C1  UNL     1      -3.581   6.987  12.047  1.00  0.00     0.047 A 
HETATM   12  N1  UNL     1      -3.947   7.238  10.699  1.00  0.00    -0.102 NA
HETATM   13  C12 UNL     1      -4.068   5.882  12.724  1.00  0.00     0.038 A 
ENDBRANCH   1   7
BRANCH   4  14
HETATM   14  S1  UNL     1      -5.896   0.836  16.896  1.00  0.00     0.256 S 
HETATM   15  O1  UNL     1      -5.407   0.809  18.316  1.00  0.00    -0.201 OA
HETATM   16  O2  UNL     1      -5.539  -0.459  16.219  1.00  0.00    -0.201 OA
BRANCH  14  17
HETATM   17  N2  UNL     1      -7.614   1.034  16.897  1.00  0.00    -0.324 N 
ATOM     18  H22 UNL     1      -8.108   1.924  16.978  1.00  0.00     0.169 HD
ATOM     19  H21 UNL     1      -8.031   0.108  16.803  1.00  0.00     0.169 HD
ENDBRANCH  14  17
ENDBRANCH   4  14
TORSDOF 3
ENDMDL
