MODEL 5
REMARK VINA RESULT: -7.332512794      1.356      1.950
REMARK  3 active torsions:
REMARK  status: ('A' for Active; 'I' for Inactive)
REMARK    1  A    between atoms: C5_6  and  C6_7 
REMARK    2  A    between atoms: C9_10  and  S1_11 
REMARK    3  A    between atoms: S1_11  and  N2_12 
ROOT
HETATM    1  C6  UNL     1      -3.625   4.178  14.936  1.00  0.00    -0.026 A 
HETATM    2  C7  UNL     1      -4.998   4.241  15.081  1.00  0.00     0.014 A 
HETATM    3  C8  UNL     1      -5.711   3.211  15.656  1.00  0.00     0.026 A 
HETATM    4  C9  UNL     1      -5.027   2.094  16.094  1.00  0.00     0.079 A 
HETATM    5  C10 UNL     1      -3.644   2.044  15.942  1.00  0.00     0.026 A 
HETATM    6  C11 UNL     1      -2.921   3.068  15.368  1.00  0.00     0.014 A 
ENDROOT
BRANCH   1   7
HETATM    7  C5  UNL     1      -2.899   5.292  14.321  1.00  0.00    -0.024 A 
HETATM    8  C4  UNL     1      -3.234   6.595  14.587  1.00  0.00     0.012 A 
HETATM    9  C3  UNL     1      -2.584   7.673  14.034  1.00  0.00     0.003 A 
HETATM   10  C2  UNL     1      -1.540   7.403  13.167  1.00  0.00     0.026 A 
HETATM   11  C1  UNL     1      -1.158   6.112  12.863  1.00  0.00     0.047 A 
HETATM   12  N1  UNL     1      -0.083   5.862  11.970  1.00  0.00    -0.102 NA
HETATM   13  C12 UNL     1      -1.853   5.070  13.453  1.00  0.00     0.038 A 
ENDBRANCH   1   7
BRANCH   4  14
HETATM   14  S1  UNL     1      -5.835   0.729  16.842  1.00  0.00     0.256 S 
HETATM   15  O1  UNL     1      -5.376   0.588  18.266  1.00  0.00    -0.201 OA
HETATM   16  O2  UNL     1      -5.563  -0.551  16.100  1.00  0.00    -0.201 OA
BRANCH  14  17
HETATM   17  N2  UNL     1      -7.534   1.056  16.829  1.00  0.00    -0.324 N 
ATOM     18  H22 UNL     1      -7.959   1.980  16.905  1.00  0.00     0.169 HD
ATOM     19  H21 UNL     1      -8.018   0.164  16.731  1.00  0.00     0.169 HD
ENDBRANCH  14  17
ENDBRANCH   4  14
TORSDOF 3
ENDMDL
