MODEL 4
REMARK VINA RESULT: -7.407509963      1.166      2.011
REMARK  3 active torsions:
REMARK  status: ('A' for Active; 'I' for Inactive)
REMARK    1  A    between atoms: C5_6  and  C6_7 
REMARK    2  A    between atoms: C9_10  and  S1_11 
REMARK    3  A    between atoms: S1_11  and  N2_12 
ROOT
HETATM    1  C6  UNL     1      -4.246   4.617  14.719  1.00  0.00    -0.026 A 
HETATM    2  C7  UNL     1      -5.594   4.568  15.021  1.00  0.00     0.014 A 
HETATM    3  C8  UNL     1      -6.150   3.483  15.664  1.00  0.00     0.026 A 
HETATM    4  C9  UNL     1      -5.333   2.425  16.010  1.00  0.00     0.079 A 
HETATM    5  C10 UNL     1      -3.977   2.488  15.700  1.00  0.00     0.026 A 
HETATM    6  C11 UNL     1      -3.410   3.567  15.057  1.00  0.00     0.014 A 
ENDROOT
BRANCH   1   7
HETATM    7  C5  UNL     1      -3.688   5.787  14.035  1.00  0.00    -0.024 A 
HETATM    8  C4  UNL     1      -2.877   6.676  14.691  1.00  0.00     0.012 A 
HETATM    9  C3  UNL     1      -2.331   7.787  14.093  1.00  0.00     0.003 A 
HETATM   10  C2  UNL     1      -2.630   7.997  12.759  1.00  0.00     0.026 A 
HETATM   11  C1  UNL     1      -3.440   7.135  12.048  1.00  0.00     0.047 A 
HETATM   12  N1  UNL     1      -3.733   7.373  10.679  1.00  0.00    -0.102 NA
HETATM   13  C12 UNL     1      -3.959   6.034  12.707  1.00  0.00     0.038 A 
ENDBRANCH   1   7
BRANCH   4  14
HETATM   14  S1  UNL     1      -5.936   0.999  16.833  1.00  0.00     0.256 S 
HETATM   15  O1  UNL     1      -5.437   0.983  18.249  1.00  0.00    -0.201 OA
HETATM   16  O2  UNL     1      -5.508  -0.265  16.138  1.00  0.00    -0.201 OA
BRANCH  14  17
HETATM   17  N2  UNL     1      -7.663   1.095  16.846  1.00  0.00    -0.324 N 
ATOM     18  H22 UNL     1      -8.233   1.606  16.171  1.00  0.00     0.169 HD
ATOM     19  H21 UNL     1      -7.996   0.553  17.644  1.00  0.00     0.169 HD
ENDBRANCH  14  17
ENDBRANCH   4  14
TORSDOF 3
ENDMDL
