MODEL 7
REMARK VINA RESULT: -7.206730150      4.342      6.722
REMARK  3 active torsions:
REMARK  status: ('A' for Active; 'I' for Inactive)
REMARK    1  A    between atoms: C5_6  and  C6_7 
REMARK    2  A    between atoms: C9_10  and  S1_11 
REMARK    3  A    between atoms: S1_11  and  N2_12 
ROOT
HETATM    1  C6  UNL     1      -3.927   3.053  14.366  1.00  0.00    -0.026 A 
HETATM    2  C7  UNL     1      -3.030   4.057  14.681  1.00  0.00     0.014 A 
HETATM    3  C8  UNL     1      -2.068   4.471  13.785  1.00  0.00     0.026 A 
HETATM    4  C9  UNL     1      -2.007   3.863  12.546  1.00  0.00     0.079 A 
HETATM    5  C10 UNL     1      -2.917   2.853  12.243  1.00  0.00     0.026 A 
HETATM    6  C11 UNL     1      -3.883   2.431  13.131  1.00  0.00     0.014 A 
ENDROOT
BRANCH   1   7
HETATM    7  C5  UNL     1      -4.937   2.638  15.342  1.00  0.00    -0.024 A 
HETATM    8  C4  UNL     1      -5.946   3.483  15.727  1.00  0.00     0.012 A 
HETATM    9  C3  UNL     1      -6.916   3.140  16.639  1.00  0.00     0.003 A 
HETATM   10  C2  UNL     1      -6.849   1.870  17.183  1.00  0.00     0.026 A 
HETATM   11  C1  UNL     1      -5.857   0.977  16.833  1.00  0.00     0.047 A 
HETATM   12  N1  UNL     1      -5.809  -0.321  17.407  1.00  0.00    -0.102 NA
HETATM   13  C12 UNL     1      -4.910   1.383  15.909  1.00  0.00     0.038 A 
ENDBRANCH   1   7
BRANCH   4  14
HETATM   14  S1  UNL     1      -0.826   4.315  11.332  1.00  0.00     0.256 S 
HETATM   15  O1  UNL     1      -1.409   5.360  10.424  1.00  0.00    -0.201 OA
HETATM   16  O2  UNL     1      -0.388   3.130  10.515  1.00  0.00    -0.201 OA
BRANCH  14  17
HETATM   17  N2  UNL     1       0.540   4.985  12.156  1.00  0.00    -0.324 N 
ATOM     18  H22 UNL     1       0.758   5.979  12.228  1.00  0.00     0.169 HD
ATOM     19  H21 UNL     1       1.074   4.209  12.548  1.00  0.00     0.169 HD
ENDBRANCH  14  17
ENDBRANCH   4  14
TORSDOF 3
ENDMDL
