MODEL 1
REMARK VINA RESULT: -7.224644769      0.000      0.000
REMARK  4 active torsions:
REMARK  status: ('A' for Active; 'I' for Inactive)
REMARK    1  A    between atoms: N1_1  and  C1_5 
REMARK    2  A    between atoms: C1_5  and  C2_6 
REMARK    3  A    between atoms: C1_5  and  C9_13 
REMARK    4  A    between atoms: C2_6  and  C3_7 
ROOT
HETATM    1  C1  UNL     1      94.186 -39.652  14.572  1.00  0.00     0.287 C 
ENDROOT
BRANCH   1   2
HETATM    2  N1  UNL     1      93.165 -39.207  13.674  1.00  0.00    -0.065 N 
ATOM      3  H13 UNL     1      93.207 -39.720  12.793  1.00  0.00     0.275 HD
ATOM      4  H12 UNL     1      92.244 -39.502  13.996  1.00  0.00     0.275 HD
ATOM      5  H11 UNL     1      93.186 -38.201  13.509  1.00  0.00     0.275 HD
ENDBRANCH   1   2
BRANCH   1   6
HETATM    6  C2  UNL     1      95.433 -40.128  13.867  1.00  0.00     0.082 C 
BRANCH   6   7
HETATM    7  C3  UNL     1      96.663 -39.565  14.446  1.00  0.00    -0.056 A 
HETATM    8  C4  UNL     1      97.867 -40.256  14.351  1.00  0.00     0.007 A 
HETATM    9  C5  UNL     1      99.035 -39.746  14.887  1.00  0.00     0.001 A 
HETATM   10  C6  UNL     1      99.034 -38.531  15.533  1.00  0.00     0.000 A 
HETATM   11  C7  UNL     1      97.846 -37.823  15.640  1.00  0.00     0.001 A 
HETATM   12  C8  UNL     1      96.712 -38.349  15.103  1.00  0.00     0.007 A 
ENDBRANCH   6   7
ENDBRANCH   1   6
BRANCH   1  13
HETATM   13  C9  UNL     1      93.656 -40.676  15.508  1.00  0.00     0.204 C 
HETATM   14  O1  UNL     1      94.182 -40.962  16.594  1.00  0.00    -0.646 OA
HETATM   15  O2  UNL     1      92.490 -41.371  15.157  1.00  0.00    -0.646 OA
ENDBRANCH   1  13
TORSDOF 4
ENDMDL
