MODEL 12
REMARK VINA RESULT: -5.953655986      3.190      4.869
REMARK  4 active torsions:
REMARK  status: ('A' for Active; 'I' for Inactive)
REMARK    1  A    between atoms: N1_1  and  C1_5 
REMARK    2  A    between atoms: C1_5  and  C2_6 
REMARK    3  A    between atoms: C1_5  and  C9_13 
REMARK    4  A    between atoms: C2_6  and  C3_7 
ROOT
HETATM    1  C1  UNL     1      95.405 -37.556  14.108  1.00  0.00     0.287 C 
ENDROOT
BRANCH   1   2
HETATM    2  N1  UNL     1      94.019 -37.224  13.986  1.00  0.00    -0.065 N 
ATOM      3  H13 UNL     1      93.593 -37.101  14.904  1.00  0.00     0.275 HD
ATOM      4  H12 UNL     1      93.904 -36.279  13.620  1.00  0.00     0.275 HD
ATOM      5  H11 UNL     1      93.492 -37.895  13.429  1.00  0.00     0.275 HD
ENDBRANCH   1   2
BRANCH   1   6
HETATM    6  C2  UNL     1      95.639 -38.929  14.690  1.00  0.00     0.082 C 
BRANCH   6   7
HETATM    7  C3  UNL     1      94.670 -39.924  14.206  1.00  0.00    -0.056 A 
HETATM    8  C4  UNL     1      93.662 -40.392  15.044  1.00  0.00     0.007 A 
HETATM    9  C5  UNL     1      92.740 -41.327  14.611  1.00  0.00     0.001 A 
HETATM   10  C6  UNL     1      92.799 -41.822  13.328  1.00  0.00     0.000 A 
HETATM   11  C7  UNL     1      93.794 -41.371  12.474  1.00  0.00     0.001 A 
HETATM   12  C8  UNL     1      94.687 -40.450  12.927  1.00  0.00     0.007 A 
ENDBRANCH   6   7
ENDBRANCH   1   6
BRANCH   1  13
HETATM   13  C9  UNL     1      96.137 -36.505  14.860  1.00  0.00     0.204 C 
HETATM   14  O1  UNL     1      97.302 -36.627  15.266  1.00  0.00    -0.646 OA
HETATM   15  O2  UNL     1      95.484 -35.296  15.135  1.00  0.00    -0.646 OA
ENDBRANCH   1  13
TORSDOF 4
ENDMDL
