MODEL 13
REMARK VINA RESULT: -5.885857595      3.244      4.935
REMARK  4 active torsions:
REMARK  status: ('A' for Active; 'I' for Inactive)
REMARK    1  A    between atoms: N1_1  and  C1_5 
REMARK    2  A    between atoms: C1_5  and  C2_6 
REMARK    3  A    between atoms: C1_5  and  C9_13 
REMARK    4  A    between atoms: C2_6  and  C3_7 
ROOT
HETATM    1  C1  UNL     1      97.619 -38.790  15.092  1.00  0.00     0.287 C 
ENDROOT
BRANCH   1   2
HETATM    2  N1  UNL     1      96.969 -37.629  15.618  1.00  0.00    -0.065 N 
ATOM      3  H13 UNL     1      97.108 -37.561  16.626  1.00  0.00     0.275 HD
ATOM      4  H12 UNL     1      97.450 -36.780  15.324  1.00  0.00     0.275 HD
ATOM      5  H11 UNL     1      95.977 -37.584  15.385  1.00  0.00     0.275 HD
ENDBRANCH   1   2
BRANCH   1   6
HETATM    6  C2  UNL     1      97.050 -40.084  15.624  1.00  0.00     0.082 C 
BRANCH   6   7
HETATM    7  C3  UNL     1      95.774 -40.446  14.990  1.00  0.00    -0.056 A 
HETATM    8  C4  UNL     1      95.638 -40.407  13.605  1.00  0.00     0.007 A 
HETATM    9  C5  UNL     1      94.448 -40.743  12.987  1.00  0.00     0.001 A 
HETATM   10  C6  UNL     1      93.359 -41.130  13.734  1.00  0.00     0.000 A 
HETATM   11  C7  UNL     1      93.469 -41.178  15.116  1.00  0.00     0.001 A 
HETATM   12  C8  UNL     1      94.653 -40.842  15.697  1.00  0.00     0.007 A 
ENDBRANCH   6   7
ENDBRANCH   1   6
BRANCH   1  13
HETATM   13  C9  UNL     1      99.088 -38.709  15.292  1.00  0.00     0.204 C 
HETATM   14  O1  UNL     1      99.876 -39.628  15.026  1.00  0.00    -0.646 OA
HETATM   15  O2  UNL     1      99.633 -37.528  15.815  1.00  0.00    -0.646 OA
ENDBRANCH   1  13
TORSDOF 4
ENDMDL
