MODEL 20
REMARK VINA RESULT: -5.676900315      1.721      2.425
REMARK  4 active torsions:
REMARK  status: ('A' for Active; 'I' for Inactive)
REMARK    1  A    between atoms: N1_1  and  C1_5 
REMARK    2  A    between atoms: C1_5  and  C2_6 
REMARK    3  A    between atoms: C1_5  and  C9_13 
REMARK    4  A    between atoms: C2_6  and  C3_7 
ROOT
HETATM    1  C1  UNL     1      95.476 -40.960  14.167  1.00  0.00     0.287 C 
ENDROOT
BRANCH   1   2
HETATM    2  N1  UNL     1      95.430 -40.810  15.589  1.00  0.00    -0.065 N 
ATOM      3  H13 UNL     1      95.620 -41.698  16.054  1.00  0.00     0.275 HD
ATOM      4  H12 UNL     1      96.229 -40.272  15.924  1.00  0.00     0.275 HD
ATOM      5  H11 UNL     1      94.556 -40.406  15.923  1.00  0.00     0.275 HD
ENDBRANCH   1   2
BRANCH   1   6
HETATM    6  C2  UNL     1      96.818 -40.601  13.574  1.00  0.00     0.082 C 
BRANCH   6   7
HETATM    7  C3  UNL     1      97.516 -39.557  14.339  1.00  0.00    -0.056 A 
HETATM    8  C4  UNL     1      96.895 -38.339  14.601  1.00  0.00     0.007 A 
HETATM    9  C5  UNL     1      97.532 -37.343  15.317  1.00  0.00     0.001 A 
HETATM   10  C6  UNL     1      98.808 -37.535  15.795  1.00  0.00     0.000 A 
HETATM   11  C7  UNL     1      99.448 -38.741  15.548  1.00  0.00     0.001 A 
HETATM   12  C8  UNL     1      98.797 -39.702  14.840  1.00  0.00     0.007 A 
ENDBRANCH   6   7
ENDBRANCH   1   6
BRANCH   1  13
HETATM   13  C9  UNL     1      94.369 -40.211  13.521  1.00  0.00     0.204 C 
HETATM   14  O1  UNL     1      94.160 -40.199  12.299  1.00  0.00    -0.646 OA
HETATM   15  O2  UNL     1      93.497 -39.468  14.328  1.00  0.00    -0.646 OA
ENDBRANCH   1  13
TORSDOF 4
ENDMDL
