MODEL 2
REMARK VINA RESULT: -7.223809853      0.038      1.367
REMARK  4 active torsions:
REMARK  status: ('A' for Active; 'I' for Inactive)
REMARK    1  A    between atoms: N1_1  and  C1_5 
REMARK    2  A    between atoms: C1_5  and  C2_6 
REMARK    3  A    between atoms: C1_5  and  C9_13 
REMARK    4  A    between atoms: C2_6  and  C3_7 
ROOT
HETATM    1  C1  UNL     1      94.183 -39.666  14.560  1.00  0.00     0.287 C 
ENDROOT
BRANCH   1   2
HETATM    2  N1  UNL     1      93.158 -39.224  13.665  1.00  0.00    -0.065 N 
ATOM      3  H13 UNL     1      93.011 -38.218  13.750  1.00  0.00     0.275 HD
ATOM      4  H12 UNL     1      93.478 -39.265  12.698  1.00  0.00     0.275 HD
ATOM      5  H11 UNL     1      92.279 -39.729  13.779  1.00  0.00     0.275 HD
ENDBRANCH   1   2
BRANCH   1   6
HETATM    6  C2  UNL     1      95.426 -40.146  13.851  1.00  0.00     0.082 C 
BRANCH   6   7
HETATM    7  C3  UNL     1      96.660 -39.593  14.430  1.00  0.00    -0.056 A 
HETATM    8  C4  UNL     1      96.645 -38.361  15.077  1.00  0.00     0.007 A 
HETATM    9  C5  UNL     1      97.792 -37.821  15.629  1.00  0.00     0.001 A 
HETATM   10  C6  UNL     1      98.987 -38.498  15.551  1.00  0.00     0.000 A 
HETATM   11  C7  UNL     1      99.028 -39.729  14.913  1.00  0.00     0.001 A 
HETATM   12  C8  UNL     1      97.884 -40.234  14.379  1.00  0.00     0.007 A 
ENDBRANCH   6   7
ENDBRANCH   1   6
BRANCH   1  13
HETATM   13  C9  UNL     1      93.657 -40.685  15.504  1.00  0.00     0.204 C 
HETATM   14  O1  UNL     1      94.190 -40.968  16.587  1.00  0.00    -0.646 OA
HETATM   15  O2  UNL     1      92.487 -41.378  15.164  1.00  0.00    -0.646 OA
ENDBRANCH   1  13
TORSDOF 4
ENDMDL
