MODEL 11
REMARK VINA RESULT: -5.984795754      3.143      4.855
REMARK  4 active torsions:
REMARK  status: ('A' for Active; 'I' for Inactive)
REMARK    1  A    between atoms: N1_1  and  C1_5 
REMARK    2  A    between atoms: C1_5  and  C2_6 
REMARK    3  A    between atoms: C1_5  and  C9_13 
REMARK    4  A    between atoms: C2_6  and  C3_7 
ROOT
HETATM    1  C1  UNL     1      98.377 -39.345  15.261  1.00  0.00     0.287 C 
ENDROOT
BRANCH   1   2
HETATM    2  N1  UNL     1      99.765 -39.671  15.135  1.00  0.00    -0.065 N 
ATOM      3  H13 UNL     1     100.290 -38.882  14.759  1.00  0.00     0.275 HD
ATOM      4  H12 UNL     1     100.205 -39.743  16.052  1.00  0.00     0.275 HD
ATOM      5  H11 UNL     1      99.932 -40.513  14.585  1.00  0.00     0.275 HD
ENDBRANCH   1   2
BRANCH   1   6
HETATM    6  C2  UNL     1      97.580 -39.645  14.014  1.00  0.00     0.082 C 
BRANCH   6   7
HETATM    7  C3  UNL     1      96.238 -40.169  14.310  1.00  0.00    -0.056 A 
HETATM    8  C4  UNL     1      95.949 -40.702  15.563  1.00  0.00     0.007 A 
HETATM    9  C5  UNL     1      94.695 -41.200  15.864  1.00  0.00     0.001 A 
HETATM   10  C6  UNL     1      93.692 -41.179  14.922  1.00  0.00     0.000 A 
HETATM   11  C7  UNL     1      93.955 -40.653  13.666  1.00  0.00     0.001 A 
HETATM   12  C8  UNL     1      95.198 -40.170  13.399  1.00  0.00     0.007 A 
ENDBRANCH   6   7
ENDBRANCH   1   6
BRANCH   1  13
HETATM   13  C9  UNL     1      98.202 -37.939  15.703  1.00  0.00     0.204 C 
HETATM   14  O1  UNL     1      97.120 -37.456  16.068  1.00  0.00    -0.646 OA
HETATM   15  O2  UNL     1      99.319 -37.092  15.714  1.00  0.00    -0.646 OA
ENDBRANCH   1  13
TORSDOF 4
ENDMDL
