MODEL 4
REMARK VINA RESULT: -8.707042489      3.835      9.705
REMARK  10 active torsions:
REMARK  status: ('A' for Active; 'I' for Inactive)
REMARK    1  A    between atoms: C1_2  and  C2_3 
REMARK       I    between atoms: C1_2  and  N5_20 
REMARK    2  A    between atoms: C2_3  and  C3_4 
REMARK    3  A    between atoms: C3_4  and  C4_5 
REMARK    4  A    between atoms: C9_11  and  N1_12 
REMARK    5  A    between atoms: N5_20  and  C11_22 
REMARK    6  A    between atoms: C11_22  and  C12_23 
REMARK    7  A    between atoms: C11_22  and  C19_30 
REMARK    8  A    between atoms: C12_23  and  C13_24 
REMARK       I    between atoms: C19_30  and  N6_32 
REMARK    9  A    between atoms: N6_32  and  C20_34 
REMARK   10  A    between atoms: C23_37  and  C24_38 
ROOT
HETATM    1  O1  UNL     1      38.133 -20.380  27.974  1.00  0.00    -0.274 OA
HETATM    2  C1  UNL     1      39.056 -19.587  28.023  1.00  0.00     0.218 C 
HETATM    3  N5  UNL     1      39.086 -18.345  27.269  1.00  0.00    -0.347 N 
ATOM      4  H5  UNL     1      39.914 -17.753  27.208  1.00  0.00     0.163 HD
ENDROOT
BRANCH   3   5
HETATM    5  C11 UNL     1      37.813 -18.013  26.599  1.00  0.00     0.181 C 
BRANCH   5   6
HETATM    6  C12 UNL     1      37.879 -16.574  26.251  1.00  0.00     0.073 C 
BRANCH   6   7
HETATM    7  C13 UNL     1      37.288 -15.683  27.231  1.00  0.00    -0.056 A 
HETATM    8  C14 UNL     1      37.141 -14.317  26.876  1.00  0.00     0.007 A 
HETATM    9  C15 UNL     1      36.220 -13.589  27.597  1.00  0.00     0.001 A 
HETATM   10  C16 UNL     1      35.426 -14.052  28.581  1.00  0.00     0.000 A 
HETATM   11  C17 UNL     1      35.566 -15.449  29.006  1.00  0.00     0.001 A 
HETATM   12  C18 UNL     1      36.523 -16.103  28.227  1.00  0.00     0.007 A 
ENDBRANCH   6   7
ENDBRANCH   5   6
BRANCH   5  13
HETATM   13  C19 UNL     1      37.584 -18.861  25.413  1.00  0.00     0.245 C 
HETATM   14  O2  UNL     1      38.312 -18.709  24.408  1.00  0.00    -0.271 OA
HETATM   15  N6  UNL     1      36.620 -19.844  25.557  1.00  0.00    -0.325 N 
ATOM     16  H6  UNL     1      36.128 -19.947  26.445  1.00  0.00     0.169 HD
BRANCH  15  17
HETATM   17  C20 UNL     1      36.304 -20.738  24.439  1.00  0.00     0.034 A 
HETATM   18  C21 UNL     1      36.652 -22.044  24.616  1.00  0.00     0.030 A 
HETATM   19  C22 UNL     1      35.923 -23.076  23.911  1.00  0.00     0.020 A 
HETATM   20  C23 UNL     1      34.903 -22.552  23.081  1.00  0.00     0.041 A 
HETATM   21  C25 UNL     1      34.658 -21.232  22.905  1.00  0.00     0.020 A 
HETATM   22  C26 UNL     1      35.359 -20.307  23.570  1.00  0.00     0.030 A 
BRANCH  20  23
HETATM   23  C24 UNL     1      33.852 -23.558  22.810  1.00  0.00     0.209 C 
HETATM   24  O3  UNL     1      32.796 -23.250  22.246  1.00  0.00    -0.644 OA
HETATM   25  O4  UNL     1      34.121 -24.903  23.237  1.00  0.00    -0.644 OA
ENDBRANCH  20  23
ENDBRANCH  15  17
ENDBRANCH   5  13
ENDBRANCH   3   5
BRANCH   2  26
HETATM   26  C2  UNL     1      40.233 -19.912  28.897  1.00  0.00     0.107 C 
BRANCH  26  27
HETATM   27  C3  UNL     1      40.309 -21.396  28.985  1.00  0.00     0.050 C 
BRANCH  27  28
HETATM   28  C4  UNL     1      41.674 -21.989  29.176  1.00  0.00    -0.027 A 
HETATM   29  C5  UNL     1      42.656 -21.143  29.588  1.00  0.00     0.033 A 
HETATM   30  C6  UNL     1      43.875 -21.537  30.018  1.00  0.00     0.034 A 
HETATM   31 CL1  UNL     1      45.077 -20.451  30.689  1.00  0.00    -0.084 Cl
HETATM   32  C7  UNL     1      44.204 -22.866  30.013  1.00  0.00     0.026 A 
HETATM   33  C8  UNL     1      43.289 -23.754  29.603  1.00  0.00     0.034 A 
HETATM   34  C9  UNL     1      41.994 -23.283  29.196  1.00  0.00     0.065 A 
BRANCH  34  35
HETATM   35  N1  UNL     1      41.031 -24.362  29.041  1.00  0.00    -0.235 N 
HETATM   36  C10 UNL     1      40.585 -25.133  30.017  1.00  0.00     0.226 A 
HETATM   37  N2  UNL     1      39.890 -26.039  29.400  1.00  0.00    -0.279 N 
HETATM   38  N3  UNL     1      39.852 -25.785  28.189  1.00  0.00    -0.227 N 
ATOM     39  H2  UNL     1      39.443 -26.840  29.845  1.00  0.00     0.189 HD
HETATM   40  N4  UNL     1      40.600 -24.763  27.914  1.00  0.00    -0.220 N 
ATOM     41  H3  UNL     1      39.309 -26.308  27.502  1.00  0.00     0.210 HD
ATOM     42  H4  UNL     1      40.799 -24.367  26.994  1.00  0.00     0.210 HD
ENDBRANCH  34  35
ENDBRANCH  27  28
ENDBRANCH  26  27
ENDBRANCH   2  26
TORSDOF 10
ENDMDL
