MODEL 2
REMARK VINA RESULT: -8.844019576      3.409      8.111
REMARK  10 active torsions:
REMARK  status: ('A' for Active; 'I' for Inactive)
REMARK    1  A    between atoms: C1_2  and  C2_3 
REMARK       I    between atoms: C1_2  and  N5_20 
REMARK    2  A    between atoms: C2_3  and  C3_4 
REMARK    3  A    between atoms: C3_4  and  C4_5 
REMARK    4  A    between atoms: C9_11  and  N1_12 
REMARK    5  A    between atoms: N5_20  and  C11_22 
REMARK    6  A    between atoms: C11_22  and  C12_23 
REMARK    7  A    between atoms: C11_22  and  C19_30 
REMARK    8  A    between atoms: C12_23  and  C13_24 
REMARK       I    between atoms: C19_30  and  N6_32 
REMARK    9  A    between atoms: N6_32  and  C20_34 
REMARK   10  A    between atoms: C23_37  and  C24_38 
ROOT
HETATM    1  O1  UNL     1      41.969 -20.645  25.830  1.00  0.00    -0.274 OA
HETATM    2  C1  UNL     1      42.213 -20.710  27.022  1.00  0.00     0.218 C 
HETATM    3  N5  UNL     1      41.308 -20.227  28.052  1.00  0.00    -0.347 N 
ATOM      4  H5  UNL     1      41.573 -20.159  29.034  1.00  0.00     0.163 HD
ENDROOT
BRANCH   3   5
HETATM    5  C11 UNL     1      39.973 -19.843  27.554  1.00  0.00     0.181 C 
BRANCH   5   6
HETATM    6  C12 UNL     1      39.094 -21.021  27.742  1.00  0.00     0.073 C 
BRANCH   6   7
HETATM    7  C13 UNL     1      38.223 -21.315  26.620  1.00  0.00    -0.056 A 
HETATM    8  C14 UNL     1      38.444 -22.526  25.914  1.00  0.00     0.007 A 
HETATM    9  C15 UNL     1      37.391 -23.001  25.163  1.00  0.00     0.001 A 
HETATM   10  C16 UNL     1      36.168 -22.447  25.056  1.00  0.00     0.000 A 
HETATM   11  C17 UNL     1      35.905 -21.176  25.739  1.00  0.00     0.001 A 
HETATM   12  C18 UNL     1      37.026 -20.771  26.466  1.00  0.00     0.007 A 
ENDBRANCH   6   7
ENDBRANCH   5   6
BRANCH   5  13
HETATM   13  C19 UNL     1      39.455 -18.648  28.248  1.00  0.00     0.245 C 
HETATM   14  O2  UNL     1      39.584 -18.562  29.488  1.00  0.00    -0.271 OA
HETATM   15  N6  UNL     1      38.945 -17.654  27.429  1.00  0.00    -0.325 N 
ATOM     16  H6  UNL     1      38.952 -17.776  26.417  1.00  0.00     0.169 HD
BRANCH  15  17
HETATM   17  C20 UNL     1      38.395 -16.427  28.014  1.00  0.00     0.034 A 
HETATM   18  C21 UNL     1      38.510 -15.308  27.243  1.00  0.00     0.030 A 
HETATM   19  C22 UNL     1      37.559 -14.230  27.406  1.00  0.00     0.020 A 
HETATM   20  C23 UNL     1      36.596 -14.502  28.409  1.00  0.00     0.041 A 
HETATM   21  C25 UNL     1      36.584 -15.613  29.183  1.00  0.00     0.020 A 
HETATM   22  C26 UNL     1      37.486 -16.585  29.005  1.00  0.00     0.030 A 
BRANCH  20  23
HETATM   23  C24 UNL     1      35.363 -13.709  28.208  1.00  0.00     0.209 C 
HETATM   24  O3  UNL     1      35.216 -12.985  27.218  1.00  0.00    -0.644 OA
HETATM   25  O4  UNL     1      34.350 -13.823  29.222  1.00  0.00    -0.644 OA
ENDBRANCH  20  23
ENDBRANCH  15  17
ENDBRANCH   5  13
ENDBRANCH   3   5
BRANCH   2  26
HETATM   26  C2  UNL     1      43.521 -21.307  27.453  1.00  0.00     0.107 C 
BRANCH  26  27
HETATM   27  C3  UNL     1      43.394 -22.784  27.299  1.00  0.00     0.050 C 
BRANCH  27  28
HETATM   28  C4  UNL     1      42.210 -23.429  27.955  1.00  0.00    -0.027 A 
HETATM   29  C5  UNL     1      41.394 -24.167  27.156  1.00  0.00     0.033 A 
HETATM   30  C6  UNL     1      40.420 -24.989  27.606  1.00  0.00     0.034 A 
HETATM   31 CL1  UNL     1      39.476 -26.049  26.576  1.00  0.00    -0.084 Cl
HETATM   32  C7  UNL     1      40.171 -25.081  28.949  1.00  0.00     0.026 A 
HETATM   33  C8  UNL     1      40.927 -24.368  29.793  1.00  0.00     0.034 A 
HETATM   34  C9  UNL     1      41.976 -23.543  29.263  1.00  0.00     0.065 A 
BRANCH  34  35
HETATM   35  N1  UNL     1      42.875 -23.049  30.295  1.00  0.00    -0.235 N 
HETATM   36  C10 UNL     1      43.914 -23.706  30.781  1.00  0.00     0.226 A 
HETATM   37  N2  UNL     1      44.308 -22.967  31.772  1.00  0.00    -0.279 N 
HETATM   38  N3  UNL     1      43.630 -21.932  31.819  1.00  0.00    -0.227 N 
ATOM     39  H2  UNL     1      45.063 -23.204  32.416  1.00  0.00     0.189 HD
HETATM   40  N4  UNL     1      42.683 -21.967  30.936  1.00  0.00    -0.220 N 
ATOM     41  H3  UNL     1      43.794 -21.159  32.464  1.00  0.00     0.210 HD
ATOM     42  H4  UNL     1      41.946 -21.277  30.786  1.00  0.00     0.210 HD
ENDBRANCH  34  35
ENDBRANCH  27  28
ENDBRANCH  26  27
ENDBRANCH   2  26
TORSDOF 10
ENDMDL
