MODEL 3
REMARK VINA RESULT: -8.768324070      3.830      7.079
REMARK  10 active torsions:
REMARK  status: ('A' for Active; 'I' for Inactive)
REMARK    1  A    between atoms: C1_2  and  C2_3 
REMARK       I    between atoms: C1_2  and  N5_20 
REMARK    2  A    between atoms: C2_3  and  C3_4 
REMARK    3  A    between atoms: C3_4  and  C4_5 
REMARK    4  A    between atoms: C9_11  and  N1_12 
REMARK    5  A    between atoms: N5_20  and  C11_22 
REMARK    6  A    between atoms: C11_22  and  C12_23 
REMARK    7  A    between atoms: C11_22  and  C19_30 
REMARK    8  A    between atoms: C12_23  and  C13_24 
REMARK       I    between atoms: C19_30  and  N6_32 
REMARK    9  A    between atoms: N6_32  and  C20_34 
REMARK   10  A    between atoms: C23_37  and  C24_38 
ROOT
HETATM    1  O1  UNL     1      39.978 -16.477  26.036  1.00  0.00    -0.274 OA
HETATM    2  C1  UNL     1      39.050 -17.236  25.814  1.00  0.00     0.218 C 
HETATM    3  N5  UNL     1      38.278 -17.883  26.861  1.00  0.00    -0.347 N 
ATOM      4  H5  UNL     1      37.597 -18.618  26.673  1.00  0.00     0.163 HD
ENDROOT
BRANCH   3   5
HETATM    5  C11 UNL     1      38.566 -17.386  28.221  1.00  0.00     0.181 C 
BRANCH   5   6
HETATM    6  C12 UNL     1      37.261 -17.048  28.834  1.00  0.00     0.073 C 
BRANCH   6   7
HETATM    7  C13 UNL     1      36.874 -15.655  28.712  1.00  0.00    -0.056 A 
HETATM    8  C14 UNL     1      37.576 -14.857  27.772  1.00  0.00     0.007 A 
HETATM    9  C15 UNL     1      36.948 -13.703  27.353  1.00  0.00     0.001 A 
HETATM   10  C16 UNL     1      35.726 -13.276  27.725  1.00  0.00     0.000 A 
HETATM   11  C17 UNL     1      34.978 -14.050  28.721  1.00  0.00     0.001 A 
HETATM   12  C18 UNL     1      35.692 -15.192  29.089  1.00  0.00     0.007 A 
ENDBRANCH   6   7
ENDBRANCH   5   6
BRANCH   5  13
HETATM   13  C19 UNL     1      39.313 -18.379  29.018  1.00  0.00     0.245 C 
HETATM   14  O2  UNL     1      39.373 -18.241  30.258  1.00  0.00    -0.271 OA
HETATM   15  N6  UNL     1      39.811 -19.461  28.312  1.00  0.00    -0.325 N 
ATOM     16  H6  UNL     1      39.644 -19.534  27.308  1.00  0.00     0.169 HD
BRANCH  15  17
HETATM   17  C20 UNL     1      40.577 -20.504  29.002  1.00  0.00     0.034 A 
HETATM   18  C21 UNL     1      39.853 -21.578  29.427  1.00  0.00     0.030 A 
HETATM   19  C22 UNL     1      40.506 -22.860  29.579  1.00  0.00     0.020 A 
HETATM   20  C23 UNL     1      41.884 -22.811  29.257  1.00  0.00     0.041 A 
HETATM   21  C25 UNL     1      42.551 -21.687  28.904  1.00  0.00     0.020 A 
HETATM   22  C26 UNL     1      41.913 -20.518  28.781  1.00  0.00     0.030 A 
BRANCH  20  23
HETATM   23  C24 UNL     1      42.405 -24.145  28.887  1.00  0.00     0.209 C 
HETATM   24  O3  UNL     1      42.059 -24.704  27.840  1.00  0.00    -0.644 OA
HETATM   25  O4  UNL     1      43.327 -24.756  29.805  1.00  0.00    -0.644 OA
ENDBRANCH  20  23
ENDBRANCH  15  17
ENDBRANCH   5  13
ENDBRANCH   3   5
BRANCH   2  26
HETATM   26  C2  UNL     1      38.692 -17.530  24.386  1.00  0.00     0.107 C 
BRANCH  26  27
HETATM   27  C3  UNL     1      37.227 -17.799  24.355  1.00  0.00     0.050 C 
BRANCH  27  28
HETATM   28  C4  UNL     1      36.794 -19.082  23.710  1.00  0.00    -0.027 A 
HETATM   29  C5  UNL     1      36.661 -20.163  24.525  1.00  0.00     0.033 A 
HETATM   30  C6  UNL     1      36.077 -21.327  24.165  1.00  0.00     0.034 A 
HETATM   31 CL1  UNL     1      35.777 -22.657  25.268  1.00  0.00    -0.084 Cl
HETATM   32  C7  UNL     1      35.612 -21.491  22.887  1.00  0.00     0.026 A 
HETATM   33  C8  UNL     1      35.725 -20.472  22.027  1.00  0.00     0.034 A 
HETATM   34  C9  UNL     1      36.317 -19.242  22.475  1.00  0.00     0.065 A 
BRANCH  34  35
HETATM   35  N1  UNL     1      36.127 -18.153  21.529  1.00  0.00    -0.235 N 
HETATM   36  C10 UNL     1      37.084 -17.587  20.815  1.00  0.00     0.226 A 
HETATM   37  N2  UNL     1      36.493 -16.577  20.255  1.00  0.00    -0.279 N 
HETATM   38  N3  UNL     1      35.287 -16.589  20.535  1.00  0.00    -0.227 N 
ATOM     39  H2  UNL     1      36.952 -15.878  19.671  1.00  0.00     0.189 HD
HETATM   40  N4  UNL     1      35.024 -17.538  21.376  1.00  0.00    -0.220 N 
ATOM     41  H3  UNL     1      34.596 -15.942  20.156  1.00  0.00     0.210 HD
ATOM     42  H4  UNL     1      34.128 -17.748  21.819  1.00  0.00     0.210 HD
ENDBRANCH  34  35
ENDBRANCH  27  28
ENDBRANCH  26  27
ENDBRANCH   2  26
TORSDOF 10
ENDMDL
