MODEL 4
REMARK VINA RESULT: -10.095036513      4.834      8.920
REMARK  10 active torsions:
REMARK  status: ('A' for Active; 'I' for Inactive)
REMARK       I    between atoms: C1_2  and  N1_3 
REMARK    1  A    between atoms: C1_2  and  C20_32 
REMARK    2  A    between atoms: N1_3  and  C2_5 
REMARK    3  A    between atoms: C2_5  and  C3_6 
REMARK    4  A    between atoms: C2_5  and  C10_13 
REMARK    5  A    between atoms: C3_6  and  C4_7 
REMARK       I    between atoms: C10_13  and  N2_15 
REMARK    6  A    between atoms: N2_15  and  C11_17 
REMARK    7  A    between atoms: C11_17  and  C12_18 
REMARK    8  A    between atoms: C12_18  and  C13_19 
REMARK    9  A    between atoms: C18_25  and  N3_26 
REMARK   10  A    between atoms: C26_41  and  O4_42 
ROOT
HETATM    1  C2  UNL     1      40.714 -21.560  28.242  1.00  0.00     0.181 C 
ENDROOT
BRANCH   1   2
HETATM    2  N1  UNL     1      39.868 -20.439  28.555  1.00  0.00    -0.343 N 
HETATM    3  C1  UNL     1      39.817 -19.257  27.763  1.00  0.00     0.252 C 
HETATM    4  O1  UNL     1      40.566 -19.248  26.753  1.00  0.00    -0.268 OA
ATOM      5  H1  UNL     1      39.277 -20.493  29.385  1.00  0.00     0.163 HD
BRANCH   3   6
HETATM    6  C20 UNL     1      38.972 -18.117  28.067  1.00  0.00     0.033 A 
HETATM    7  C21 UNL     1      38.500 -17.969  29.351  1.00  0.00     0.019 A 
HETATM    8  C22 UNL     1      37.690 -16.915  29.722  1.00  0.00     0.031 A 
HETATM    9  C23 UNL     1      37.341 -15.972  28.769  1.00  0.00     0.048 A 
HETATM   10  N7  UNL     1      36.547 -14.940  29.139  1.00  0.00    -0.323 N 
HETATM   11  C27 UNL     1      37.799 -16.093  27.471  1.00  0.00     0.025 A 
HETATM   12  C24 UNL     1      36.169 -13.990  28.264  1.00  0.00     0.248 A 
ATOM     13  H7  UNL     1      36.227 -14.881  30.106  1.00  0.00     0.169 HD
HETATM   14  O3  UNL     1      35.429 -13.026  28.603  1.00  0.00    -0.268 OA
HETATM   15  C25 UNL     1      36.591 -14.061  26.973  1.00  0.00     0.111 A 
HETATM   16  C26 UNL     1      37.415 -15.124  26.573  1.00  0.00     0.083 A 
HETATM   17  C28 UNL     1      38.613 -17.170  27.133  1.00  0.00     0.033 A 
BRANCH  16  18
HETATM   18  O4  UNL     1      37.816 -15.154  25.261  1.00  0.00    -0.360 OA
ATOM     19  H4  UNL     1      37.668 -14.373  24.740  1.00  0.00     0.217 HD
ENDBRANCH  16  18
ENDBRANCH   3   6
ENDBRANCH   1   2
BRANCH   1  20
HETATM   20  C3  UNL     1      41.268 -22.100  29.535  1.00  0.00     0.073 C 
BRANCH  20  21
HETATM   21  C4  UNL     1      42.631 -21.608  29.835  1.00  0.00    -0.056 A 
HETATM   22  C5  UNL     1      43.345 -20.847  28.933  1.00  0.00     0.007 A 
HETATM   23  C6  UNL     1      44.633 -20.386  29.227  1.00  0.00     0.001 A 
HETATM   24  C7  UNL     1      45.216 -20.686  30.431  1.00  0.00     0.000 A 
HETATM   25  C8  UNL     1      44.515 -21.447  31.344  1.00  0.00     0.001 A 
HETATM   26  C9  UNL     1      43.238 -21.898  31.040  1.00  0.00     0.007 A 
ENDBRANCH  20  21
ENDBRANCH   1  20
BRANCH   1  27
HETATM   27  C10 UNL     1      40.010 -22.586  27.451  1.00  0.00     0.240 C 
HETATM   28  O2  UNL     1      40.095 -23.782  27.816  1.00  0.00    -0.271 OA
HETATM   29  N2  UNL     1      39.254 -22.276  26.311  1.00  0.00    -0.359 N 
ATOM     30  H2  UNL     1      39.208 -21.293  26.044  1.00  0.00     0.162 HD
BRANCH  29  31
HETATM   31  C11 UNL     1      38.533 -23.211  25.479  1.00  0.00     0.127 C 
BRANCH  31  32
HETATM   32  C12 UNL     1      37.060 -23.078  25.773  1.00  0.00     0.060 C 
BRANCH  32  33
HETATM   33  C13 UNL     1      36.369 -22.205  24.813  1.00  0.00    -0.026 A 
HETATM   34  C14 UNL     1      36.613 -20.853  24.796  1.00  0.00     0.033 A 
HETATM   35  C15 UNL     1      35.928 -20.061  23.865  1.00  0.00     0.034 A 
HETATM   36 CL1  UNL     1      36.240 -18.339  23.846  1.00  0.00    -0.084 Cl
HETATM   37  C16 UNL     1      35.031 -20.591  22.978  1.00  0.00     0.026 A 
HETATM   38  C17 UNL     1      34.793 -21.949  23.002  1.00  0.00     0.033 A 
HETATM   39  C18 UNL     1      35.469 -22.741  23.924  1.00  0.00     0.061 A 
BRANCH  39  40
HETATM   40  N3  UNL     1      35.174 -24.131  23.889  1.00  0.00    -0.236 N 
HETATM   41  C19 UNL     1      35.747 -25.018  23.061  1.00  0.00     0.218 A 
HETATM   42  N4  UNL     1      35.233 -26.242  23.299  1.00  0.00    -0.280 N 
HETATM   43  N5  UNL     1      34.352 -26.082  24.270  1.00  0.00    -0.007 NA
ATOM     44  H4  UNL     1      35.475 -27.113  22.826  1.00  0.00     0.184 HD
HETATM   45  N6  UNL     1      34.312 -24.810  24.631  1.00  0.00    -0.000 NA
ENDBRANCH  39  40
ENDBRANCH  32  33
ENDBRANCH  31  32
ENDBRANCH  29  31
ENDBRANCH   1  27
TORSDOF 10
ENDMDL
