MODEL 2
REMARK VINA RESULT: -10.400788265      1.251      2.015
REMARK  10 active torsions:
REMARK  status: ('A' for Active; 'I' for Inactive)
REMARK       I    between atoms: C1_2  and  N1_3 
REMARK    1  A    between atoms: C1_2  and  C20_32 
REMARK    2  A    between atoms: N1_3  and  C2_5 
REMARK    3  A    between atoms: C2_5  and  C3_6 
REMARK    4  A    between atoms: C2_5  and  C10_13 
REMARK    5  A    between atoms: C3_6  and  C4_7 
REMARK       I    between atoms: C10_13  and  N2_15 
REMARK    6  A    between atoms: N2_15  and  C11_17 
REMARK    7  A    between atoms: C11_17  and  C12_18 
REMARK    8  A    between atoms: C12_18  and  C13_19 
REMARK    9  A    between atoms: C18_25  and  N3_26 
REMARK   10  A    between atoms: C26_41  and  O4_42 
ROOT
HETATM    1  C2  UNL     1      40.841 -20.581  28.881  1.00  0.00     0.181 C 
ENDROOT
BRANCH   1   2
HETATM    2  N1  UNL     1      41.906 -20.953  29.773  1.00  0.00    -0.343 N 
HETATM    3  C1  UNL     1      43.282 -20.895  29.411  1.00  0.00     0.252 C 
HETATM    4  O1  UNL     1      43.519 -20.491  28.244  1.00  0.00    -0.268 OA
ATOM      5  H1  UNL     1      41.664 -21.275  30.711  1.00  0.00     0.163 HD
BRANCH   3   6
HETATM    6  C20 UNL     1      44.367 -21.269  30.298  1.00  0.00     0.033 A 
HETATM    7  C21 UNL     1      44.064 -21.898  31.484  1.00  0.00     0.019 A 
HETATM    8  C22 UNL     1      45.036 -22.284  32.384  1.00  0.00     0.031 A 
HETATM    9  C23 UNL     1      46.364 -22.032  32.083  1.00  0.00     0.048 A 
HETATM   10  N7  UNL     1      47.314 -22.413  32.968  1.00  0.00    -0.323 N 
HETATM   11  C27 UNL     1      46.702 -21.401  30.900  1.00  0.00     0.025 A 
HETATM   12  C24 UNL     1      48.622 -22.199  32.740  1.00  0.00     0.248 A 
ATOM     13  H7  UNL     1      47.030 -22.876  33.832  1.00  0.00     0.169 HD
HETATM   14  O3  UNL     1      49.511 -22.552  33.561  1.00  0.00    -0.268 OA
HETATM   15  C25 UNL     1      49.009 -21.582  31.590  1.00  0.00     0.111 A 
HETATM   16  C26 UNL     1      48.038 -21.180  30.661  1.00  0.00     0.083 A 
HETATM   17  C28 UNL     1      45.694 -21.026  30.017  1.00  0.00     0.033 A 
BRANCH  16  18
HETATM   18  O4  UNL     1      48.476 -20.562  29.517  1.00  0.00    -0.360 OA
ATOM     19  H4  UNL     1      47.886 -20.550  28.772  1.00  0.00     0.217 HD
ENDBRANCH  16  18
ENDBRANCH   3   6
ENDBRANCH   1   2
BRANCH   1  20
HETATM   20  C3  UNL     1      40.090 -21.833  28.506  1.00  0.00     0.073 C 
BRANCH  20  21
HETATM   21  C4  UNL     1      39.610 -21.827  27.106  1.00  0.00    -0.056 A 
HETATM   22  C5  UNL     1      38.269 -21.742  26.798  1.00  0.00     0.007 A 
HETATM   23  C6  UNL     1      37.825 -21.736  25.471  1.00  0.00     0.001 A 
HETATM   24  C7  UNL     1      38.726 -21.816  24.441  1.00  0.00     0.000 A 
HETATM   25  C8  UNL     1      40.072 -21.902  24.732  1.00  0.00     0.001 A 
HETATM   26  C9  UNL     1      40.499 -21.907  26.054  1.00  0.00     0.007 A 
ENDBRANCH  20  21
ENDBRANCH   1  20
BRANCH   1  27
HETATM   27  C10 UNL     1      39.967 -19.543  29.456  1.00  0.00     0.240 C 
HETATM   28  O2  UNL     1      39.973 -19.381  30.699  1.00  0.00    -0.271 OA
HETATM   29  N2  UNL     1      39.134 -18.734  28.670  1.00  0.00    -0.359 N 
ATOM     30  H2  UNL     1      39.155 -18.895  27.663  1.00  0.00     0.162 HD
BRANCH  29  31
HETATM   31  C11 UNL     1      38.248 -17.697  29.144  1.00  0.00     0.127 C 
BRANCH  31  32
HETATM   32  C12 UNL     1      37.181 -17.464  28.104  1.00  0.00     0.060 C 
BRANCH  32  33
HETATM   33  C13 UNL     1      36.648 -16.095  28.137  1.00  0.00    -0.026 A 
HETATM   34  C14 UNL     1      35.594 -15.775  28.957  1.00  0.00     0.033 A 
HETATM   35  C15 UNL     1      35.119 -14.456  28.953  1.00  0.00     0.034 A 
HETATM   36 CL1  UNL     1      33.774 -14.051  29.998  1.00  0.00    -0.084 Cl
HETATM   37  C16 UNL     1      35.671 -13.486  28.161  1.00  0.00     0.026 A 
HETATM   38  C17 UNL     1      36.730 -13.816  27.342  1.00  0.00     0.033 A 
HETATM   39  C18 UNL     1      37.206 -15.124  27.342  1.00  0.00     0.061 A 
BRANCH  39  40
HETATM   40  N3  UNL     1      38.299 -15.389  26.474  1.00  0.00    -0.236 N 
HETATM   41  C19 UNL     1      38.200 -15.585  25.150  1.00  0.00     0.218 A 
HETATM   42  N4  UNL     1      39.428 -15.810  24.641  1.00  0.00    -0.280 N 
HETATM   43  N5  UNL     1      40.260 -15.748  25.666  1.00  0.00    -0.007 NA
ATOM     44  H4  UNL     1      39.667 -15.991  23.666  1.00  0.00     0.184 HD
HETATM   45  N6  UNL     1      39.585 -15.494  26.775  1.00  0.00    -0.000 NA
ENDBRANCH  39  40
ENDBRANCH  32  33
ENDBRANCH  31  32
ENDBRANCH  29  31
ENDBRANCH   1  27
TORSDOF 10
ENDMDL
