MODEL 5
REMARK VINA RESULT: -10.032446231      4.849      9.153
REMARK  10 active torsions:
REMARK  status: ('A' for Active; 'I' for Inactive)
REMARK       I    between atoms: C1_2  and  N1_3 
REMARK    1  A    between atoms: C1_2  and  C20_32 
REMARK    2  A    between atoms: N1_3  and  C2_5 
REMARK    3  A    between atoms: C2_5  and  C3_6 
REMARK    4  A    between atoms: C2_5  and  C10_13 
REMARK    5  A    between atoms: C3_6  and  C4_7 
REMARK       I    between atoms: C10_13  and  N2_15 
REMARK    6  A    between atoms: N2_15  and  C11_17 
REMARK    7  A    between atoms: C11_17  and  C12_18 
REMARK    8  A    between atoms: C12_18  and  C13_19 
REMARK    9  A    between atoms: C18_25  and  N3_26 
REMARK   10  A    between atoms: C26_41  and  O4_42 
ROOT
HETATM    1  C2  UNL     1      40.881 -21.308  27.399  1.00  0.00     0.181 C 
ENDROOT
BRANCH   1   2
HETATM    2  N1  UNL     1      40.132 -20.085  27.511  1.00  0.00    -0.343 N 
HETATM    3  C1  UNL     1      39.980 -19.164  26.435  1.00  0.00     0.252 C 
HETATM    4  O1  UNL     1      40.547 -19.486  25.360  1.00  0.00    -0.268 OA
ATOM      5  H1  UNL     1      39.688 -19.866  28.403  1.00  0.00     0.163 HD
BRANCH   3   6
HETATM    6  C20 UNL     1      39.229 -17.926  26.532  1.00  0.00     0.033 A 
HETATM    7  C21 UNL     1      39.534 -16.900  25.666  1.00  0.00     0.019 A 
HETATM    8  C22 UNL     1      38.869 -15.690  25.693  1.00  0.00     0.031 A 
HETATM    9  C23 UNL     1      37.860 -15.502  26.622  1.00  0.00     0.048 A 
HETATM   10  N7  UNL     1      37.211 -14.315  26.643  1.00  0.00    -0.323 N 
HETATM   11  C27 UNL     1      37.530 -16.513  27.505  1.00  0.00     0.025 A 
HETATM   12  C24 UNL     1      36.221 -14.065  27.520  1.00  0.00     0.248 A 
ATOM     13  H7  UNL     1      37.480 -13.590  25.977  1.00  0.00     0.169 HD
HETATM   14  O3  UNL     1      35.614 -12.960  27.544  1.00  0.00    -0.268 OA
HETATM   15  C25 UNL     1      35.857 -15.026  28.411  1.00  0.00     0.111 A 
HETATM   16  C26 UNL     1      36.519 -16.263  28.403  1.00  0.00     0.083 A 
HETATM   17  C28 UNL     1      38.223 -17.719  27.449  1.00  0.00     0.033 A 
BRANCH  16  18
HETATM   18  O4  UNL     1      36.117 -17.200  29.321  1.00  0.00    -0.360 OA
ATOM     19  H4  UNL     1      35.186 -17.270  29.497  1.00  0.00     0.217 HD
ENDBRANCH  16  18
ENDBRANCH   3   6
ENDBRANCH   1   2
BRANCH   1  20
HETATM   20  C3  UNL     1      41.584 -21.543  28.711  1.00  0.00     0.073 C 
BRANCH  20  21
HETATM   21  C4  UNL     1      43.009 -21.145  28.688  1.00  0.00    -0.056 A 
HETATM   22  C5  UNL     1      43.736 -21.112  27.517  1.00  0.00     0.007 A 
HETATM   23  C6  UNL     1      45.083 -20.734  27.506  1.00  0.00     0.001 A 
HETATM   24  C7  UNL     1      45.712 -20.384  28.673  1.00  0.00     0.000 A 
HETATM   25  C8  UNL     1      44.998 -20.411  29.854  1.00  0.00     0.001 A 
HETATM   26  C9  UNL     1      43.662 -20.789  29.850  1.00  0.00     0.007 A 
ENDBRANCH  20  21
ENDBRANCH   1  20
BRANCH   1  27
HETATM   27  C10 UNL     1      40.036 -22.445  26.992  1.00  0.00     0.240 C 
HETATM   28  O2  UNL     1      39.927 -23.417  27.778  1.00  0.00    -0.271 OA
HETATM   29  N2  UNL     1      39.354 -22.482  25.768  1.00  0.00    -0.359 N 
ATOM     30  H2  UNL     1      39.467 -21.675  25.155  1.00  0.00     0.162 HD
BRANCH  29  31
HETATM   31  C11 UNL     1      38.507 -23.549  25.288  1.00  0.00     0.127 C 
BRANCH  31  32
HETATM   32  C12 UNL     1      37.091 -23.273  25.730  1.00  0.00     0.060 C 
BRANCH  32  33
HETATM   33  C13 UNL     1      36.403 -22.314  24.853  1.00  0.00    -0.026 A 
HETATM   34  C14 UNL     1      36.681 -20.971  24.933  1.00  0.00     0.033 A 
HETATM   35  C15 UNL     1      35.997 -20.095  24.079  1.00  0.00     0.034 A 
HETATM   36 CL1  UNL     1      36.351 -18.384  24.183  1.00  0.00    -0.084 Cl
HETATM   37  C16 UNL     1      35.069 -20.535  23.175  1.00  0.00     0.026 A 
HETATM   38  C17 UNL     1      34.798 -21.885  23.102  1.00  0.00     0.033 A 
HETATM   39  C18 UNL     1      35.473 -22.760  23.947  1.00  0.00     0.061 A 
BRANCH  39  40
HETATM   40  N3  UNL     1      35.142 -24.136  23.814  1.00  0.00    -0.236 N 
HETATM   41  C19 UNL     1      35.646 -24.961  22.883  1.00  0.00     0.218 A 
HETATM   42  N4  UNL     1      35.117 -26.191  23.047  1.00  0.00    -0.280 N 
HETATM   43  N5  UNL     1      34.296 -26.096  24.079  1.00  0.00    -0.007 NA
ATOM     44  H4  UNL     1      35.311 -27.023  22.491  1.00  0.00     0.184 HD
HETATM   45  N6  UNL     1      34.307 -24.858  24.545  1.00  0.00    -0.000 NA
ENDBRANCH  39  40
ENDBRANCH  32  33
ENDBRANCH  31  32
ENDBRANCH  29  31
ENDBRANCH   1  27
TORSDOF 10
ENDMDL
