MODEL 1
REMARK VINA RESULT: -10.719724588      0.000      0.000
REMARK  10 active torsions:
REMARK  status: ('A' for Active; 'I' for Inactive)
REMARK       I    between atoms: C1_2  and  N1_3 
REMARK    1  A    between atoms: C1_2  and  C20_32 
REMARK    2  A    between atoms: N1_3  and  C2_5 
REMARK    3  A    between atoms: C2_5  and  C3_6 
REMARK    4  A    between atoms: C2_5  and  C10_13 
REMARK    5  A    between atoms: C3_6  and  C4_7 
REMARK       I    between atoms: C10_13  and  N2_15 
REMARK    6  A    between atoms: N2_15  and  C11_17 
REMARK    7  A    between atoms: C11_17  and  C12_18 
REMARK    8  A    between atoms: C12_18  and  C13_19 
REMARK    9  A    between atoms: C18_25  and  N3_26 
REMARK   10  A    between atoms: C26_41  and  O4_42 
ROOT
HETATM    1  C2  UNL     1      40.882 -20.458  28.925  1.00  0.00     0.181 C 
ENDROOT
BRANCH   1   2
HETATM    2  N1  UNL     1      41.935 -20.855  29.821  1.00  0.00    -0.343 N 
HETATM    3  C1  UNL     1      43.312 -20.850  29.456  1.00  0.00     0.252 C 
HETATM    4  O1  UNL     1      43.561 -20.471  28.283  1.00  0.00    -0.268 OA
ATOM      5  H1  UNL     1      41.684 -21.155  30.763  1.00  0.00     0.163 HD
BRANCH   3   6
HETATM    6  C20 UNL     1      44.385 -21.249  30.347  1.00  0.00     0.033 A 
HETATM    7  C21 UNL     1      44.068 -21.929  31.500  1.00  0.00     0.019 A 
HETATM    8  C22 UNL     1      45.028 -22.342  32.401  1.00  0.00     0.031 A 
HETATM    9  C23 UNL     1      46.358 -22.064  32.135  1.00  0.00     0.048 A 
HETATM   10  N7  UNL     1      47.296 -22.472  33.021  1.00  0.00    -0.323 N 
HETATM   11  C27 UNL     1      46.710 -21.382  30.985  1.00  0.00     0.025 A 
HETATM   12  C24 UNL     1      48.606 -22.235  32.826  1.00  0.00     0.248 A 
ATOM     13  H7  UNL     1      47.002 -22.973  33.860  1.00  0.00     0.169 HD
HETATM   14  O3  UNL     1      49.484 -22.612  33.648  1.00  0.00    -0.268 OA
HETATM   15  C25 UNL     1      49.006 -21.567  31.710  1.00  0.00     0.111 A 
HETATM   16  C26 UNL     1      48.048 -21.137  30.780  1.00  0.00     0.083 A 
HETATM   17  C28 UNL     1      45.714 -20.980  30.100  1.00  0.00     0.033 A 
BRANCH  16  18
HETATM   18  O4  UNL     1      48.499 -20.468  29.670  1.00  0.00    -0.360 OA
ATOM     19  H4  UNL     1      47.938 -20.463  28.904  1.00  0.00     0.217 HD
ENDBRANCH  16  18
ENDBRANCH   3   6
ENDBRANCH   1   2
BRANCH   1  20
HETATM   20  C3  UNL     1      40.145 -21.701  28.496  1.00  0.00     0.073 C 
BRANCH  20  21
HETATM   21  C4  UNL     1      40.783 -22.950  28.970  1.00  0.00    -0.056 A 
HETATM   22  C5  UNL     1      40.547 -23.454  30.231  1.00  0.00     0.007 A 
HETATM   23  C6  UNL     1      41.154 -24.635  30.669  1.00  0.00     0.001 A 
HETATM   24  C7  UNL     1      42.007 -25.322  29.843  1.00  0.00     0.000 A 
HETATM   25  C8  UNL     1      42.255 -24.830  28.578  1.00  0.00     0.001 A 
HETATM   26  C9  UNL     1      41.645 -23.656  28.156  1.00  0.00     0.007 A 
ENDBRANCH  20  21
ENDBRANCH   1  20
BRANCH   1  27
HETATM   27  C10 UNL     1      39.993 -19.445  29.521  1.00  0.00     0.240 C 
HETATM   28  O2  UNL     1      39.987 -19.318  30.768  1.00  0.00    -0.271 OA
HETATM   29  N2  UNL     1      39.159 -18.623  28.750  1.00  0.00    -0.359 N 
ATOM     30  H2  UNL     1      39.190 -18.755  27.739  1.00  0.00     0.162 HD
BRANCH  29  31
HETATM   31  C11 UNL     1      38.259 -17.608  29.245  1.00  0.00     0.127 C 
BRANCH  31  32
HETATM   32  C12 UNL     1      37.151 -17.417  28.239  1.00  0.00     0.060 C 
BRANCH  32  33
HETATM   33  C13 UNL     1      36.613 -16.049  28.245  1.00  0.00    -0.026 A 
HETATM   34  C14 UNL     1      35.527 -15.729  29.024  1.00  0.00     0.033 A 
HETATM   35  C15 UNL     1      35.047 -14.412  28.994  1.00  0.00     0.034 A 
HETATM   36 CL1  UNL     1      33.663 -14.007  29.985  1.00  0.00    -0.084 Cl
HETATM   37  C16 UNL     1      35.625 -13.444  28.218  1.00  0.00     0.026 A 
HETATM   38  C17 UNL     1      36.715 -13.775  27.441  1.00  0.00     0.033 A 
HETATM   39  C18 UNL     1      37.196 -15.080  27.466  1.00  0.00     0.061 A 
BRANCH  39  40
HETATM   40  N3  UNL     1      38.322 -15.346  26.641  1.00  0.00    -0.236 N 
HETATM   41  C19 UNL     1      38.297 -15.401  25.301  1.00  0.00     0.218 A 
HETATM   42  N4  UNL     1      39.537 -15.672  24.844  1.00  0.00    -0.280 N 
HETATM   43  N5  UNL     1      40.301 -15.780  25.918  1.00  0.00    -0.007 NA
ATOM     44  H4  UNL     1      39.826 -15.774  23.871  1.00  0.00     0.184 HD
HETATM   45  N6  UNL     1      39.573 -15.584  27.005  1.00  0.00    -0.000 NA
ENDBRANCH  39  40
ENDBRANCH  32  33
ENDBRANCH  31  32
ENDBRANCH  29  31
ENDBRANCH   1  27
TORSDOF 10
ENDMDL
