MODEL 6
REMARK VINA RESULT: -10.028203607      4.610      8.121
REMARK  10 active torsions:
REMARK  status: ('A' for Active; 'I' for Inactive)
REMARK       I    between atoms: C1_2  and  N1_3 
REMARK    1  A    between atoms: C1_2  and  C20_32 
REMARK    2  A    between atoms: N1_3  and  C2_5 
REMARK    3  A    between atoms: C2_5  and  C3_6 
REMARK    4  A    between atoms: C2_5  and  C10_13 
REMARK    5  A    between atoms: C3_6  and  C4_7 
REMARK       I    between atoms: C10_13  and  N2_15 
REMARK    6  A    between atoms: N2_15  and  C11_17 
REMARK    7  A    between atoms: C11_17  and  C12_18 
REMARK    8  A    between atoms: C12_18  and  C13_19 
REMARK    9  A    between atoms: C18_25  and  N3_26 
REMARK   10  A    between atoms: C26_41  and  O4_42 
ROOT
HETATM    1  C2  UNL     1      37.819 -18.435  27.048  1.00  0.00     0.181 C 
ENDROOT
BRANCH   1   2
HETATM    2  N1  UNL     1      39.178 -18.892  27.160  1.00  0.00    -0.343 N 
HETATM    3  C1  UNL     1      39.579 -19.935  28.042  1.00  0.00     0.252 C 
HETATM    4  O1  UNL     1      38.659 -20.447  28.730  1.00  0.00    -0.268 OA
ATOM      5  H1  UNL     1      39.890 -18.447  26.580  1.00  0.00     0.163 HD
BRANCH   3   6
HETATM    6  C20 UNL     1      40.945 -20.407  28.168  1.00  0.00     0.033 A 
HETATM    7  C21 UNL     1      41.725 -20.480  27.036  1.00  0.00     0.019 A 
HETATM    8  C22 UNL     1      43.033 -20.919  27.069  1.00  0.00     0.031 A 
HETATM    9  C23 UNL     1      43.582 -21.297  28.283  1.00  0.00     0.048 A 
HETATM   10  N7  UNL     1      44.865 -21.725  28.310  1.00  0.00    -0.323 N 
HETATM   11  C27 UNL     1      42.824 -21.234  29.438  1.00  0.00     0.025 A 
HETATM   12  C24 UNL     1      45.460 -22.108  29.455  1.00  0.00     0.248 A 
ATOM     13  H7  UNL     1      45.395 -21.759  27.439  1.00  0.00     0.169 HD
HETATM   14  O3  UNL     1      46.655 -22.508  29.486  1.00  0.00    -0.268 OA
HETATM   15  C25 UNL     1      44.759 -22.065  30.620  1.00  0.00     0.111 A 
HETATM   16  C26 UNL     1      43.428 -21.624  30.611  1.00  0.00     0.083 A 
HETATM   17  C28 UNL     1      41.508 -20.788  29.366  1.00  0.00     0.033 A 
BRANCH  16  18
HETATM   18  O4  UNL     1      42.762 -21.598  31.811  1.00  0.00    -0.360 OA
ATOM     19  H4  UNL     1      41.815 -21.679  31.788  1.00  0.00     0.217 HD
ENDBRANCH  16  18
ENDBRANCH   3   6
ENDBRANCH   1   2
BRANCH   1  20
HETATM   20  C3  UNL     1      37.842 -17.049  26.456  1.00  0.00     0.073 C 
BRANCH  20  21
HETATM   21  C4  UNL     1      37.036 -16.074  27.225  1.00  0.00    -0.056 A 
HETATM   22  C5  UNL     1      36.297 -16.449  28.327  1.00  0.00     0.007 A 
HETATM   23  C6  UNL     1      35.540 -15.520  29.047  1.00  0.00     0.001 A 
HETATM   24  C7  UNL     1      35.518 -14.203  28.667  1.00  0.00     0.000 A 
HETATM   25  C8  UNL     1      36.251 -13.811  27.566  1.00  0.00     0.001 A 
HETATM   26  C9  UNL     1      36.999 -14.744  26.860  1.00  0.00     0.007 A 
ENDBRANCH  20  21
ENDBRANCH   1  20
BRANCH   1  27
HETATM   27  C10 UNL     1      36.977 -19.369  26.278  1.00  0.00     0.240 C 
HETATM   28  O2  UNL     1      36.535 -18.995  25.166  1.00  0.00    -0.271 OA
HETATM   29  N2  UNL     1      36.654 -20.653  26.740  1.00  0.00    -0.359 N 
ATOM     30  H2  UNL     1      37.030 -20.922  27.649  1.00  0.00     0.162 HD
BRANCH  29  31
HETATM   31  C11 UNL     1      35.841 -21.632  26.057  1.00  0.00     0.127 C 
BRANCH  31  32
HETATM   32  C12 UNL     1      36.682 -22.299  24.998  1.00  0.00     0.060 C 
BRANCH  32  33
HETATM   33  C13 UNL     1      37.477 -23.416  25.529  1.00  0.00    -0.026 A 
HETATM   34  C14 UNL     1      38.605 -23.178  26.276  1.00  0.00     0.033 A 
HETATM   35  C15 UNL     1      39.331 -24.275  26.758  1.00  0.00     0.034 A 
HETATM   36 CL1  UNL     1      40.769 -23.970  27.709  1.00  0.00    -0.084 Cl
HETATM   37  C16 UNL     1      38.952 -25.566  26.508  1.00  0.00     0.026 A 
HETATM   38  C17 UNL     1      37.818 -25.795  25.758  1.00  0.00     0.033 A 
HETATM   39  C18 UNL     1      37.093 -24.710  25.276  1.00  0.00     0.061 A 
BRANCH  39  40
HETATM   40  N3  UNL     1      35.936 -25.023  24.513  1.00  0.00    -0.236 N 
HETATM   41  C19 UNL     1      35.940 -25.366  23.215  1.00  0.00     0.218 A 
HETATM   42  N4  UNL     1      34.674 -25.595  22.812  1.00  0.00    -0.280 N 
HETATM   43  N5  UNL     1      33.914 -25.387  23.874  1.00  0.00    -0.007 NA
ATOM     44  H4  UNL     1      34.365 -25.871  21.880  1.00  0.00     0.184 HD
HETATM   45  N6  UNL     1      34.670 -25.042  24.903  1.00  0.00    -0.000 NA
ENDBRANCH  39  40
ENDBRANCH  32  33
ENDBRANCH  31  32
ENDBRANCH  29  31
ENDBRANCH   1  27
TORSDOF 10
ENDMDL
