MODEL 3
REMARK VINA RESULT: -10.228693767      1.094      1.551
REMARK  10 active torsions:
REMARK  status: ('A' for Active; 'I' for Inactive)
REMARK       I    between atoms: C1_2  and  N1_3 
REMARK    1  A    between atoms: C1_2  and  C20_32 
REMARK    2  A    between atoms: N1_3  and  C2_5 
REMARK    3  A    between atoms: C2_5  and  C3_6 
REMARK    4  A    between atoms: C2_5  and  C10_13 
REMARK    5  A    between atoms: C3_6  and  C4_7 
REMARK       I    between atoms: C10_13  and  N2_15 
REMARK    6  A    between atoms: N2_15  and  C11_17 
REMARK    7  A    between atoms: C11_17  and  C12_18 
REMARK    8  A    between atoms: C12_18  and  C13_19 
REMARK    9  A    between atoms: C18_25  and  N3_26 
REMARK   10  A    between atoms: C26_41  and  O4_42 
ROOT
HETATM    1  C2  UNL     1      40.527 -20.731  28.669  1.00  0.00     0.181 C 
ENDROOT
BRANCH   1   2
HETATM    2  N1  UNL     1      41.834 -20.869  29.253  1.00  0.00    -0.343 N 
HETATM    3  C1  UNL     1      43.036 -20.824  28.490  1.00  0.00     0.252 C 
HETATM    4  O1  UNL     1      42.888 -20.653  27.253  1.00  0.00    -0.268 OA
ATOM      5  H1  UNL     1      41.904 -21.005  30.261  1.00  0.00     0.163 HD
BRANCH   3   6
HETATM    6  C20 UNL     1      44.362 -20.962  29.063  1.00  0.00     0.033 A 
HETATM    7  C21 UNL     1      45.452 -20.631  28.291  1.00  0.00     0.019 A 
HETATM    8  C22 UNL     1      46.746 -20.735  28.759  1.00  0.00     0.031 A 
HETATM    9  C23 UNL     1      46.956 -21.188  30.051  1.00  0.00     0.048 A 
HETATM   10  N7  UNL     1      48.226 -21.287  30.506  1.00  0.00    -0.323 N 
HETATM   11  C27 UNL     1      45.881 -21.529  30.852  1.00  0.00     0.025 A 
HETATM   12  C24 UNL     1      48.502 -21.720  31.750  1.00  0.00     0.248 A 
ATOM     13  H7  UNL     1      48.996 -21.027  29.888  1.00  0.00     0.169 HD
HETATM   14  O3  UNL     1      49.684 -21.815  32.178  1.00  0.00    -0.268 OA
HETATM   15  C25 UNL     1      47.481 -22.068  32.579  1.00  0.00     0.111 A 
HETATM   16  C26 UNL     1      46.157 -21.971  32.125  1.00  0.00     0.083 A 
HETATM   17  C28 UNL     1      44.591 -21.411  30.345  1.00  0.00     0.033 A 
BRANCH  16  18
HETATM   18  O4  UNL     1      45.162 -22.333  32.996  1.00  0.00    -0.360 OA
ATOM     19  H4  UNL     1      45.174 -21.944  33.863  1.00  0.00     0.217 HD
ENDBRANCH  16  18
ENDBRANCH   3   6
ENDBRANCH   1   2
BRANCH   1  20
HETATM   20  C3  UNL     1      39.814 -22.052  28.811  1.00  0.00     0.073 C 
BRANCH  20  21
HETATM   21  C4  UNL     1      40.728 -23.178  29.108  1.00  0.00    -0.056 A 
HETATM   22  C5  UNL     1      41.087 -23.502  30.399  1.00  0.00     0.007 A 
HETATM   23  C6  UNL     1      41.950 -24.568  30.670  1.00  0.00     0.001 A 
HETATM   24  C7  UNL     1      42.463 -25.320  29.644  1.00  0.00     0.000 A 
HETATM   25  C8  UNL     1      42.115 -25.008  28.346  1.00  0.00     0.001 A 
HETATM   26  C9  UNL     1      41.256 -23.947  28.092  1.00  0.00     0.007 A 
ENDBRANCH  20  21
ENDBRANCH   1  20
BRANCH   1  27
HETATM   27  C10 UNL     1      39.769 -19.610  29.252  1.00  0.00     0.240 C 
HETATM   28  O2  UNL     1      40.016 -19.276  30.435  1.00  0.00    -0.271 OA
HETATM   29  N2  UNL     1      38.788 -18.906  28.538  1.00  0.00    -0.359 N 
ATOM     30  H2  UNL     1      38.614 -19.207  27.580  1.00  0.00     0.162 HD
BRANCH  29  31
HETATM   31  C11 UNL     1      38.000 -17.799  29.026  1.00  0.00     0.127 C 
BRANCH  31  32
HETATM   32  C12 UNL     1      36.998 -17.419  27.964  1.00  0.00     0.060 C 
BRANCH  32  33
HETATM   33  C13 UNL     1      36.548 -16.025  28.085  1.00  0.00    -0.026 A 
HETATM   34  C14 UNL     1      35.497 -15.699  28.909  1.00  0.00     0.033 A 
HETATM   35  C15 UNL     1      35.102 -14.357  28.989  1.00  0.00     0.034 A 
HETATM   36 CL1  UNL     1      33.763 -13.944  30.038  1.00  0.00    -0.084 Cl
HETATM   37  C16 UNL     1      35.728 -13.370  28.277  1.00  0.00     0.026 A 
HETATM   38  C17 UNL     1      36.782 -13.707  27.454  1.00  0.00     0.033 A 
HETATM   39  C18 UNL     1      37.178 -15.038  27.370  1.00  0.00     0.061 A 
BRANCH  39  40
HETATM   40  N3  UNL     1      38.271 -15.309  26.503  1.00  0.00    -0.236 N 
HETATM   41  C19 UNL     1      38.189 -15.400  25.167  1.00  0.00     0.218 A 
HETATM   42  N4  UNL     1      39.412 -15.665  24.663  1.00  0.00    -0.280 N 
HETATM   43  N5  UNL     1      40.223 -15.733  25.704  1.00  0.00    -0.007 NA
ATOM     44  H4  UNL     1      39.660 -15.789  23.682  1.00  0.00     0.184 HD
HETATM   45  N6  UNL     1      39.541 -15.519  26.817  1.00  0.00    -0.000 NA
ENDBRANCH  39  40
ENDBRANCH  32  33
ENDBRANCH  31  32
ENDBRANCH  29  31
ENDBRANCH   1  27
TORSDOF 10
ENDMDL
