MODEL 2
REMARK VINA RESULT: -8.564262289      5.559      7.079
REMARK  5 active torsions:
REMARK  status: ('A' for Active; 'I' for Inactive)
REMARK    1  A    between atoms: C4_5  and  C5_6 
REMARK    2  A    between atoms: C5_6  and  C6_8 
REMARK    3  A    between atoms: C9_11  and  C10_12 
REMARK    4  A    between atoms: C13_15  and  S1_16 
REMARK    5  A    between atoms: S1_16  and  N2_17 
ROOT
HETATM    1  C6  UNL     1      -3.833   6.080  13.960  1.00  0.00     0.015 A 
HETATM    2  C7  UNL     1      -3.218   6.707  12.877  1.00  0.00     0.016 A 
HETATM    3  C8  UNL     1      -2.515   7.885  13.001  1.00  0.00     0.013 A 
HETATM    4  C9  UNL     1      -2.396   8.496  14.238  1.00  0.00    -0.026 A 
HETATM    5  C16 UNL     1      -2.995   7.896  15.321  1.00  0.00     0.013 A 
HETATM    6  C17 UNL     1      -3.698   6.712  15.177  1.00  0.00     0.016 A 
ENDROOT
BRANCH   4   7
HETATM    7  C10 UNL     1      -1.651   9.739  14.367  1.00  0.00    -0.026 A 
HETATM    8  C11 UNL     1      -0.453   9.781  15.033  1.00  0.00     0.014 A 
HETATM    9  C12 UNL     1       0.231  10.984  15.135  1.00  0.00     0.026 A 
HETATM   10  C13 UNL     1      -0.283  12.154  14.571  1.00  0.00     0.079 A 
HETATM   11  C14 UNL     1      -1.488  12.104  13.903  1.00  0.00     0.026 A 
HETATM   12  C15 UNL     1      -2.152  10.883  13.815  1.00  0.00     0.014 A 
BRANCH  10  13
HETATM   13  S1  UNL     1       0.589  13.672  14.708  1.00  0.00     0.256 S 
HETATM   14  O2  UNL     1       0.272  14.291  16.055  1.00  0.00    -0.201 OA
HETATM   15  O3  UNL     1       2.071  13.472  14.635  1.00  0.00    -0.201 OA
BRANCH  13  16
HETATM   16  N2  UNL     1       0.001  14.739  13.493  1.00  0.00    -0.324 N 
ATOM     17  H22 UNL     1      -0.697  14.499  12.789  1.00  0.00     0.169 HD
ATOM     18  H21 UNL     1       0.470  15.637  13.605  1.00  0.00     0.169 HD
ENDBRANCH  13  16
ENDBRANCH  10  13
ENDBRANCH   4   7
BRANCH   1  19
HETATM   19  C5  UNL     1      -4.551   4.856  13.735  1.00  0.00     0.192 C 
HETATM   20  O1  UNL     1      -5.076   4.664  12.602  1.00  0.00    -0.287 OA
BRANCH  19  21
HETATM   21  C4  UNL     1      -4.740   3.785  14.711  1.00  0.00     0.015 A 
HETATM   22  C3  UNL     1      -5.975   3.592  15.317  1.00  0.00     0.017 A 
HETATM   23  C2  UNL     1      -6.189   2.588  16.237  1.00  0.00     0.027 A 
HETATM   24  C1  UNL     1      -5.183   1.721  16.604  1.00  0.00     0.046 A 
HETATM   25  N1  UNL     1      -5.386   0.679  17.553  1.00  0.00    -0.102 NA
HETATM   26  C19 UNL     1      -3.956   1.913  16.003  1.00  0.00     0.027 A 
HETATM   27  C18 UNL     1      -3.731   2.918  15.077  1.00  0.00     0.017 A 
ENDBRANCH  19  21
ENDBRANCH   1  19
TORSDOF 5
ENDMDL
