MODEL 3
REMARK VINA RESULT: -8.557230343      0.281      1.364
REMARK  5 active torsions:
REMARK  status: ('A' for Active; 'I' for Inactive)
REMARK    1  A    between atoms: C4_5  and  C5_6 
REMARK    2  A    between atoms: C5_6  and  C6_8 
REMARK    3  A    between atoms: C9_11  and  C10_12 
REMARK    4  A    between atoms: C13_15  and  S1_16 
REMARK    5  A    between atoms: S1_16  and  N2_17 
ROOT
HETATM    1  C6  UNL     1      -2.816   4.516  13.632  1.00  0.00     0.015 A 
HETATM    2  C7  UNL     1      -2.932   3.617  12.573  1.00  0.00     0.016 A 
HETATM    3  C8  UNL     1      -1.996   3.528  11.566  1.00  0.00     0.013 A 
HETATM    4  C9  UNL     1      -0.883   4.352  11.579  1.00  0.00    -0.026 A 
HETATM    5  C16 UNL     1      -0.747   5.248  12.614  1.00  0.00     0.013 A 
HETATM    6  C17 UNL     1      -1.698   5.323  13.617  1.00  0.00     0.016 A 
ENDROOT
BRANCH   4   7
HETATM    7  C10 UNL     1       0.106   4.255  10.516  1.00  0.00    -0.026 A 
HETATM    8  C11 UNL     1       1.449   4.262  10.795  1.00  0.00     0.014 A 
HETATM    9  C12 UNL     1       2.364   4.167   9.755  1.00  0.00     0.026 A 
HETATM   10  C13 UNL     1       1.938   4.066   8.429  1.00  0.00     0.079 A 
HETATM   11  C14 UNL     1       0.586   4.059   8.157  1.00  0.00     0.026 A 
HETATM   12  C15 UNL     1      -0.309   4.155   9.219  1.00  0.00     0.014 A 
BRANCH  10  13
HETATM   13  S1  UNL     1       3.104   3.948   7.121  1.00  0.00     0.256 S 
HETATM   14  O2  UNL     1       4.157   2.928   7.504  1.00  0.00    -0.201 OA
HETATM   15  O3  UNL     1       2.466   3.491   5.846  1.00  0.00    -0.201 OA
BRANCH  13  16
HETATM   16  N2  UNL     1       3.887   5.472   6.964  1.00  0.00    -0.324 N 
ATOM     17  H22 UNL     1       3.417   6.377   6.963  1.00  0.00     0.169 HD
ATOM     18  H21 UNL     1       4.889   5.306   6.873  1.00  0.00     0.169 HD
ENDBRANCH  13  16
ENDBRANCH  10  13
ENDBRANCH   4   7
BRANCH   1  19
HETATM   19  C5  UNL     1      -3.846   4.542  14.633  1.00  0.00     0.192 C 
HETATM   20  O1  UNL     1      -4.312   5.660  14.991  1.00  0.00    -0.287 OA
BRANCH  19  21
HETATM   21  C4  UNL     1      -4.422   3.373  15.296  1.00  0.00     0.015 A 
HETATM   22  C3  UNL     1      -5.776   3.333  15.603  1.00  0.00     0.017 A 
HETATM   23  C2  UNL     1      -6.353   2.245  16.221  1.00  0.00     0.027 A 
HETATM   24  C1  UNL     1      -5.612   1.136  16.568  1.00  0.00     0.046 A 
HETATM   25  N1  UNL     1      -6.192   0.004  17.207  1.00  0.00    -0.102 NA
HETATM   26  C19 UNL     1      -4.267   1.176  16.263  1.00  0.00     0.027 A 
HETATM   27  C18 UNL     1      -3.678   2.265  15.641  1.00  0.00     0.017 A 
ENDBRANCH  19  21
ENDBRANCH   1  19
TORSDOF 5
ENDMDL
