MODEL 1
REMARK VINA RESULT: -8.589190407      0.000      0.000
REMARK  5 active torsions:
REMARK  status: ('A' for Active; 'I' for Inactive)
REMARK    1  A    between atoms: C4_5  and  C5_6 
REMARK    2  A    between atoms: C5_6  and  C6_8 
REMARK    3  A    between atoms: C9_11  and  C10_12 
REMARK    4  A    between atoms: C13_15  and  S1_16 
REMARK    5  A    between atoms: S1_16  and  N2_17 
ROOT
HETATM    1  C6  UNL     1      -3.060   4.470  13.717  1.00  0.00     0.015 A 
HETATM    2  C7  UNL     1      -3.219   3.683  12.577  1.00  0.00     0.016 A 
HETATM    3  C8  UNL     1      -2.267   3.610  11.585  1.00  0.00     0.013 A 
HETATM    4  C9  UNL     1      -1.092   4.335  11.695  1.00  0.00    -0.026 A 
HETATM    5  C16 UNL     1      -0.912   5.119  12.811  1.00  0.00     0.013 A 
HETATM    6  C17 UNL     1      -1.881   5.180  13.798  1.00  0.00     0.016 A 
ENDROOT
BRANCH   4   7
HETATM    7  C10 UNL     1      -0.086   4.255  10.646  1.00  0.00    -0.026 A 
HETATM    8  C11 UNL     1      -0.445   4.108   9.331  1.00  0.00     0.014 A 
HETATM    9  C12 UNL     1       0.541   4.035   8.357  1.00  0.00     0.026 A 
HETATM   10  C13 UNL     1       1.894   4.108   8.696  1.00  0.00     0.079 A 
HETATM   11  C14 UNL     1       2.246   4.256  10.020  1.00  0.00     0.026 A 
HETATM   12  C15 UNL     1       1.237   4.327  10.976  1.00  0.00     0.014 A 
BRANCH  10  13
HETATM   13  S1  UNL     1       3.133   4.013   7.456  1.00  0.00     0.256 S 
HETATM   14  O2  UNL     1       4.111   2.918   7.835  1.00  0.00    -0.201 OA
HETATM   15  O3  UNL     1       2.558   3.669   6.117  1.00  0.00    -0.201 OA
BRANCH  13  16
HETATM   16  N2  UNL     1       3.996   5.502   7.447  1.00  0.00    -0.324 N 
ATOM     17  H22 UNL     1       4.194   6.071   8.269  1.00  0.00     0.169 HD
ATOM     18  H21 UNL     1       4.268   5.705   6.485  1.00  0.00     0.169 HD
ENDBRANCH  13  16
ENDBRANCH  10  13
ENDBRANCH   4   7
BRANCH   1  19
HETATM   19  C5  UNL     1      -4.110   4.489  14.697  1.00  0.00     0.192 C 
HETATM   20  O1  UNL     1      -4.611   5.601  15.023  1.00  0.00    -0.287 OA
BRANCH  19  21
HETATM   21  C4  UNL     1      -4.670   3.319  15.371  1.00  0.00     0.015 A 
HETATM   22  C3  UNL     1      -3.886   2.197  15.604  1.00  0.00     0.017 A 
HETATM   23  C2  UNL     1      -4.380   1.079  16.242  1.00  0.00     0.027 A 
HETATM   24  C1  UNL     1      -5.684   1.019  16.682  1.00  0.00     0.046 A 
HETATM   25  N1  UNL     1      -6.212  -0.127  17.343  1.00  0.00    -0.102 NA
HETATM   26  C19 UNL     1      -6.464   2.134  16.451  1.00  0.00     0.027 A 
HETATM   27  C18 UNL     1      -5.976   3.262  15.811  1.00  0.00     0.017 A 
ENDBRANCH  19  21
ENDBRANCH   1  19
TORSDOF 5
ENDMDL
