MODEL 18
REMARK VINA RESULT: -7.998544135      5.125      9.535
REMARK  5 active torsions:
REMARK  status: ('A' for Active; 'I' for Inactive)
REMARK    1  A    between atoms: C4_5  and  C5_6 
REMARK    2  A    between atoms: C5_6  and  C6_8 
REMARK    3  A    between atoms: C9_11  and  C10_12 
REMARK    4  A    between atoms: C13_15  and  S1_16 
REMARK    5  A    between atoms: S1_16  and  N2_17 
ROOT
HETATM    1  C6  UNL     1      -1.536   7.686  13.407  1.00  0.00     0.015 A 
HETATM    2  C7  UNL     1      -2.556   7.851  14.343  1.00  0.00     0.016 A 
HETATM    3  C8  UNL     1      -3.256   6.791  14.875  1.00  0.00     0.013 A 
HETATM    4  C9  UNL     1      -2.958   5.496  14.485  1.00  0.00    -0.026 A 
HETATM    5  C16 UNL     1      -1.956   5.308  13.562  1.00  0.00     0.013 A 
HETATM    6  C17 UNL     1      -1.263   6.386  13.038  1.00  0.00     0.016 A 
ENDROOT
BRANCH   4   7
HETATM    7  C10 UNL     1      -3.697   4.377  15.050  1.00  0.00    -0.026 A 
HETATM    8  C11 UNL     1      -5.057   4.439  15.218  1.00  0.00     0.014 A 
HETATM    9  C12 UNL     1      -5.730   3.353  15.760  1.00  0.00     0.026 A 
HETATM   10  C13 UNL     1      -5.044   2.197  16.138  1.00  0.00     0.079 A 
HETATM   11  C14 UNL     1      -3.676   2.142  15.967  1.00  0.00     0.026 A 
HETATM   12  C15 UNL     1      -3.028   3.246  15.420  1.00  0.00     0.014 A 
BRANCH  10  13
HETATM   13  S1  UNL     1      -5.904   0.829  16.825  1.00  0.00     0.256 S 
HETATM   14  O2  UNL     1      -5.621  -0.394  15.976  1.00  0.00    -0.201 OA
HETATM   15  O3  UNL     1      -5.452   0.531  18.221  1.00  0.00    -0.201 OA
BRANCH  13  16
HETATM   16  N2  UNL     1      -7.591   1.154  16.726  1.00  0.00    -0.324 N 
ATOM     17  H22 UNL     1      -8.003   2.024  16.392  1.00  0.00     0.169 HD
ATOM     18  H21 UNL     1      -8.092   0.329  17.056  1.00  0.00     0.169 HD
ENDBRANCH  13  16
ENDBRANCH  10  13
ENDBRANCH   4   7
BRANCH   1  19
HETATM   19  C5  UNL     1      -0.865   8.851  12.902  1.00  0.00     0.192 C 
HETATM   20  O1  UNL     1      -1.174   9.275  11.754  1.00  0.00    -0.287 OA
BRANCH  19  21
HETATM   21  C4  UNL     1       0.166   9.614  13.604  1.00  0.00     0.015 A 
HETATM   22  C3  UNL     1       1.511   9.403  13.326  1.00  0.00     0.017 A 
HETATM   23  C2  UNL     1       2.508  10.109  13.964  1.00  0.00     0.027 A 
HETATM   24  C1  UNL     1       2.220  11.064  14.915  1.00  0.00     0.046 A 
HETATM   25  N1  UNL     1       3.236  11.802  15.584  1.00  0.00    -0.102 NA
HETATM   26  C19 UNL     1       0.884  11.273  15.191  1.00  0.00     0.027 A 
HETATM   27  C18 UNL     1      -0.126  10.569  14.555  1.00  0.00     0.017 A 
ENDBRANCH  19  21
ENDBRANCH   1  19
TORSDOF 5
ENDMDL
