MODEL 8
REMARK VINA RESULT: -8.418871067      5.633      9.598
REMARK  5 active torsions:
REMARK  status: ('A' for Active; 'I' for Inactive)
REMARK    1  A    between atoms: C4_5  and  C5_6 
REMARK    2  A    between atoms: C5_6  and  C6_8 
REMARK    3  A    between atoms: C9_11  and  C10_12 
REMARK    4  A    between atoms: C13_15  and  S1_16 
REMARK    5  A    between atoms: S1_16  and  N2_17 
ROOT
HETATM    1  C6  UNL     1      -2.444   8.382  13.235  1.00  0.00     0.015 A 
HETATM    2  C7  UNL     1      -2.670   8.234  14.603  1.00  0.00     0.016 A 
HETATM    3  C8  UNL     1      -3.221   7.094  15.147  1.00  0.00     0.013 A 
HETATM    4  C9  UNL     1      -3.575   6.035  14.327  1.00  0.00    -0.026 A 
HETATM    5  C16 UNL     1      -3.362   6.158  12.974  1.00  0.00     0.013 A 
HETATM    6  C17 UNL     1      -2.808   7.312  12.446  1.00  0.00     0.016 A 
ENDROOT
BRANCH   4   7
HETATM    7  C10 UNL     1      -4.155   4.832  14.904  1.00  0.00    -0.026 A 
HETATM    8  C11 UNL     1      -5.486   4.772  15.230  1.00  0.00     0.014 A 
HETATM    9  C12 UNL     1      -6.005   3.608  15.778  1.00  0.00     0.026 A 
HETATM   10  C13 UNL     1      -5.192   2.495  16.005  1.00  0.00     0.079 A 
HETATM   11  C14 UNL     1      -3.855   2.562  15.675  1.00  0.00     0.026 A 
HETATM   12  C15 UNL     1      -3.362   3.743  15.126  1.00  0.00     0.014 A 
BRANCH  10  13
HETATM   13  S1  UNL     1      -5.858   1.027  16.700  1.00  0.00     0.256 S 
HETATM   14  O2  UNL     1      -5.443  -0.148  15.837  1.00  0.00    -0.201 OA
HETATM   15  O3  UNL     1      -5.341   0.782  18.085  1.00  0.00    -0.201 OA
BRANCH  13  16
HETATM   16  N2  UNL     1      -7.574   1.137  16.641  1.00  0.00    -0.324 N 
ATOM     17  H22 UNL     1      -8.099   1.936  16.288  1.00  0.00     0.169 HD
ATOM     18  H21 UNL     1      -7.961   0.271  17.016  1.00  0.00     0.169 HD
ENDBRANCH  13  16
ENDBRANCH  10  13
ENDBRANCH   4   7
BRANCH   1  19
HETATM   19  C5  UNL     1      -1.871   9.609  12.757  1.00  0.00     0.192 C 
HETATM   20  O1  UNL     1      -1.924   9.860  11.521  1.00  0.00    -0.287 OA
BRANCH  19  21
HETATM   21  C4  UNL     1      -1.217  10.624  13.582  1.00  0.00     0.015 A 
HETATM   22  C3  UNL     1      -0.074  10.313  14.308  1.00  0.00     0.017 A 
HETATM   23  C2  UNL     1       0.572  11.246  15.090  1.00  0.00     0.027 A 
HETATM   24  C1  UNL     1       0.113  12.541  15.193  1.00  0.00     0.046 A 
HETATM   25  N1  UNL     1       0.767  13.518  15.996  1.00  0.00    -0.102 NA
HETATM   26  C19 UNL     1      -1.022  12.851  14.472  1.00  0.00     0.027 A 
HETATM   27  C18 UNL     1      -1.677  11.920  13.682  1.00  0.00     0.017 A 
ENDBRANCH  19  21
ENDBRANCH   1  19
TORSDOF 5
ENDMDL
