MODEL 14
REMARK VINA RESULT: -6.083720690      3.025      4.624
REMARK  4 active torsions:
REMARK  status: ('A' for Active; 'I' for Inactive)
REMARK    1  A    between atoms: C2_2  and  C4_4 
REMARK    2  A    between atoms: C9_9  and  C10_10 
REMARK    3  A    between atoms: C13_13  and  S1_14 
REMARK    4  A    between atoms: S1_14  and  N1_15 
ROOT
HETATM    1  C10 UNL     1      -4.241   6.761  11.419  1.00  0.00    -0.025 A 
HETATM    2  C11 UNL     1      -4.082   5.720  10.487  1.00  0.00     0.014 A 
HETATM    3  C12 UNL     1      -4.042   4.396  10.856  1.00  0.00     0.026 A 
HETATM    4  C13 UNL     1      -4.160   4.054  12.198  1.00  0.00     0.079 A 
HETATM    5  C14 UNL     1      -4.303   5.052  13.116  1.00  0.00     0.026 A 
HETATM    6  C15 UNL     1      -4.340   6.414  12.686  1.00  0.00     0.014 A 
ENDROOT
BRANCH   1   7
HETATM    7  C9  UNL     1      -4.389   8.072  10.862  1.00  0.00    -0.015 A 
HETATM    8  C4  UNL     1      -5.594   8.653  10.662  1.00  0.00    -0.024 A 
HETATM    9  C5  UNL     1      -5.574  10.025  10.361  1.00  0.00     0.012 A 
HETATM   10  C6  UNL     1      -4.409  10.793  10.253  1.00  0.00     0.001 A 
HETATM   11  C7  UNL     1      -3.212  10.166  10.453  1.00  0.00     0.001 A 
HETATM   12  C8  UNL     1      -3.209   8.823  10.754  1.00  0.00     0.013 A 
BRANCH   8  13
HETATM   13  C2  UNL     1      -6.823   7.894  10.532  1.00  0.00    -0.076 C 
HETATM   14  C1  UNL     1      -7.617   7.522  11.728  1.00  0.00     0.044 C 
HETATM   15  C3  UNL     1      -7.105   7.166   9.230  1.00  0.00     0.044 C 
ENDBRANCH   8  13
ENDBRANCH   1   7
BRANCH   4  16
HETATM   16  S1  UNL     1      -4.247   2.335  12.619  1.00  0.00     0.256 S 
HETATM   17  O1  UNL     1      -2.975   1.709  12.095  1.00  0.00    -0.201 OA
HETATM   18  O2  UNL     1      -5.385   1.704  11.853  1.00  0.00    -0.201 OA
BRANCH  16  19
HETATM   19  N1  UNL     1      -4.357   2.148  14.282  1.00  0.00    -0.324 N 
ATOM     20  H12 UNL     1      -5.228   1.956  14.778  1.00  0.00     0.169 HD
ATOM     21  H11 UNL     1      -3.439   2.253  14.712  1.00  0.00     0.169 HD
ENDBRANCH  16  19
ENDBRANCH   4  16
TORSDOF 4
ENDMDL
