MODEL 17
REMARK VINA RESULT: -5.946230731      4.566      6.370
REMARK  4 active torsions:
REMARK  status: ('A' for Active; 'I' for Inactive)
REMARK    1  A    between atoms: C2_2  and  C4_4 
REMARK    2  A    between atoms: C9_9  and  C10_10 
REMARK    3  A    between atoms: C13_13  and  S1_14 
REMARK    4  A    between atoms: S1_14  and  N1_15 
ROOT
HETATM    1  C10 UNL     1      -4.272   4.247  14.251  1.00  0.00    -0.025 A 
HETATM    2  C11 UNL     1      -2.975   4.255  14.795  1.00  0.00     0.014 A 
HETATM    3  C12 UNL     1      -1.931   4.931  14.207  1.00  0.00     0.026 A 
HETATM    4  C13 UNL     1      -2.146   5.636  13.029  1.00  0.00     0.079 A 
HETATM    5  C14 UNL     1      -3.395   5.628  12.482  1.00  0.00     0.026 A 
HETATM    6  C15 UNL     1      -4.450   4.913  13.128  1.00  0.00     0.014 A 
ENDROOT
BRANCH   1   7
HETATM    7  C9  UNL     1      -5.273   3.604  15.048  1.00  0.00    -0.015 A 
HETATM    8  C4  UNL     1      -5.266   2.276  15.306  1.00  0.00    -0.024 A 
HETATM    9  C5  UNL     1      -6.148   1.838  16.307  1.00  0.00     0.012 A 
HETATM   10  C6  UNL     1      -7.011   2.677  17.021  1.00  0.00     0.001 A 
HETATM   11  C7  UNL     1      -6.995   4.010  16.723  1.00  0.00     0.001 A 
HETATM   12  C8  UNL     1      -6.134   4.462  15.749  1.00  0.00     0.013 A 
BRANCH   8  13
HETATM   13  C2  UNL     1      -4.576   1.315  14.468  1.00  0.00    -0.076 C 
HETATM   14  C1  UNL     1      -4.573   1.455  12.992  1.00  0.00     0.044 C 
HETATM   15  C3  UNL     1      -4.176  -0.025  15.060  1.00  0.00     0.044 C 
ENDBRANCH   8  13
ENDBRANCH   1   7
BRANCH   4  16
HETATM   16  S1  UNL     1      -0.814   6.608  12.381  1.00  0.00     0.256 S 
HETATM   17  O1  UNL     1      -0.611   7.745  13.355  1.00  0.00    -0.201 OA
HETATM   18  O2  UNL     1      -1.256   7.230  11.078  1.00  0.00    -0.201 OA
BRANCH  16  19
HETATM   19  N1  UNL     1       0.577   5.680  12.255  1.00  0.00    -0.324 N 
ATOM     20  H12 UNL     1       0.809   4.911  12.884  1.00  0.00     0.169 HD
ATOM     21  H11 UNL     1       1.145   5.998  11.469  1.00  0.00     0.169 HD
ENDBRANCH  16  19
ENDBRANCH   4  16
TORSDOF 4
ENDMDL
