MODEL 3
REMARK VINA RESULT: -7.138861847      1.355      1.757
REMARK  4 active torsions:
REMARK  status: ('A' for Active; 'I' for Inactive)
REMARK    1  A    between atoms: C2_2  and  C4_4 
REMARK    2  A    between atoms: C9_9  and  C10_10 
REMARK    3  A    between atoms: C13_13  and  S1_14 
REMARK    4  A    between atoms: S1_14  and  N1_15 
ROOT
HETATM    1  C10 UNL     1      -4.489   5.092  13.502  1.00  0.00    -0.025 A 
HETATM    2  C11 UNL     1      -3.939   3.931  12.930  1.00  0.00     0.014 A 
HETATM    3  C12 UNL     1      -3.992   2.705  13.550  1.00  0.00     0.026 A 
HETATM    4  C13 UNL     1      -4.604   2.589  14.792  1.00  0.00     0.079 A 
HETATM    5  C14 UNL     1      -5.132   3.709  15.366  1.00  0.00     0.026 A 
HETATM    6  C15 UNL     1      -5.056   4.962  14.684  1.00  0.00     0.014 A 
ENDROOT
BRANCH   1   7
HETATM    7  C9  UNL     1      -4.464   6.260  12.674  1.00  0.00    -0.015 A 
HETATM    8  C4  UNL     1      -3.339   6.974  12.444  1.00  0.00    -0.024 A 
HETATM    9  C5  UNL     1      -3.412   7.926  11.413  1.00  0.00     0.012 A 
HETATM   10  C6  UNL     1      -4.556   8.171  10.645  1.00  0.00     0.001 A 
HETATM   11  C7  UNL     1      -5.675   7.436  10.916  1.00  0.00     0.001 A 
HETATM   12  C8  UNL     1      -5.623   6.494  11.918  1.00  0.00     0.013 A 
BRANCH   8  13
HETATM   13  C2  UNL     1      -2.192   6.945  13.331  1.00  0.00    -0.076 C 
HETATM   14  C1  UNL     1      -2.159   7.774  14.560  1.00  0.00     0.044 C 
HETATM   15  C3  UNL     1      -0.884   6.364  12.825  1.00  0.00     0.044 C 
ENDBRANCH   8  13
ENDBRANCH   1   7
BRANCH   4  16
HETATM   16  S1  UNL     1      -4.777   0.972  15.493  1.00  0.00     0.256 S 
HETATM   17  O1  UNL     1      -3.520   0.725  16.295  1.00  0.00    -0.201 OA
HETATM   18  O2  UNL     1      -4.782  -0.044  14.376  1.00  0.00    -0.201 OA
BRANCH  16  19
HETATM   19  N1  UNL     1      -6.131   0.906  16.480  1.00  0.00    -0.324 N 
ATOM     20  H12 UNL     1      -6.410   0.081  17.011  1.00  0.00     0.169 HD
ATOM     21  H11 UNL     1      -6.622   1.800  16.468  1.00  0.00     0.169 HD
ENDBRANCH  16  19
ENDBRANCH   4  16
TORSDOF 4
ENDMDL
