MODEL 2
REMARK VINA RESULT: -7.428294742      1.287      1.359
REMARK  4 active torsions:
REMARK  status: ('A' for Active; 'I' for Inactive)
REMARK    1  A    between atoms: C2_2  and  C4_4 
REMARK    2  A    between atoms: C9_9  and  C10_10 
REMARK    3  A    between atoms: C13_13  and  S1_14 
REMARK    4  A    between atoms: S1_14  and  N1_15 
ROOT
HETATM    1  C10 UNL     1      -4.629   4.840  13.025  1.00  0.00    -0.025 A 
HETATM    2  C11 UNL     1      -5.169   4.809  14.323  1.00  0.00     0.014 A 
HETATM    3  C12 UNL     1      -5.245   3.653  15.065  1.00  0.00     0.026 A 
HETATM    4  C13 UNL     1      -4.778   2.460  14.527  1.00  0.00     0.079 A 
HETATM    5  C14 UNL     1      -4.262   2.471  13.264  1.00  0.00     0.026 A 
HETATM    6  C15 UNL     1      -4.202   3.696  12.531  1.00  0.00     0.014 A 
ENDROOT
BRANCH   1   7
HETATM    7  C9  UNL     1      -4.506   6.141  12.438  1.00  0.00    -0.015 A 
HETATM    8  C4  UNL     1      -3.353   6.846  12.451  1.00  0.00    -0.024 A 
HETATM    9  C5  UNL     1      -3.311   7.975  11.616  1.00  0.00     0.012 A 
HETATM   10  C6  UNL     1      -4.371   8.397  10.806  1.00  0.00     0.001 A 
HETATM   11  C7  UNL     1      -5.523   7.663  10.829  1.00  0.00     0.001 A 
HETATM   12  C8  UNL     1      -5.583   6.550  11.636  1.00  0.00     0.013 A 
BRANCH   8  13
HETATM   13  C2  UNL     1      -2.297   6.614  13.418  1.00  0.00    -0.076 C 
HETATM   14  C1  UNL     1      -2.186   7.449  14.638  1.00  0.00     0.044 C 
HETATM   15  C3  UNL     1      -1.098   5.776  13.012  1.00  0.00     0.044 C 
ENDBRANCH   8  13
ENDBRANCH   1   7
BRANCH   4  16
HETATM   16  S1  UNL     1      -4.763   1.024  15.563  1.00  0.00     0.256 S 
HETATM   17  O1  UNL     1      -3.450   1.059  16.310  1.00  0.00    -0.201 OA
HETATM   18  O2  UNL     1      -4.728  -0.206  14.688  1.00  0.00    -0.201 OA
BRANCH  16  19
HETATM   19  N1  UNL     1      -6.053   1.063  16.633  1.00  0.00    -0.324 N 
ATOM     20  H12 UNL     1      -6.279   1.862  17.225  1.00  0.00     0.169 HD
ATOM     21  H11 UNL     1      -6.566   0.182  16.602  1.00  0.00     0.169 HD
ENDBRANCH  16  19
ENDBRANCH   4  16
TORSDOF 4
ENDMDL
