MODEL 1
REMARK VINA RESULT: -7.445822148      0.000      0.000
REMARK  4 active torsions:
REMARK  status: ('A' for Active; 'I' for Inactive)
REMARK    1  A    between atoms: C2_2  and  C4_4 
REMARK    2  A    between atoms: C9_9  and  C10_10 
REMARK    3  A    between atoms: C13_13  and  S1_14 
REMARK    4  A    between atoms: S1_14  and  N1_15 
ROOT
HETATM    1  C10 UNL     1      -5.096   4.662  13.795  1.00  0.00    -0.025 A 
HETATM    2  C11 UNL     1      -5.934   4.893  14.901  1.00  0.00     0.014 A 
HETATM    3  C12 UNL     1      -6.237   3.912  15.817  1.00  0.00     0.026 A 
HETATM    4  C13 UNL     1      -5.707   2.637  15.658  1.00  0.00     0.079 A 
HETATM    5  C14 UNL     1      -4.902   2.394  14.584  1.00  0.00     0.026 A 
HETATM    6  C15 UNL     1      -4.613   3.444  13.659  1.00  0.00     0.014 A 
ENDROOT
BRANCH   1   7
HETATM    7  C9  UNL     1      -4.779   5.816  13.009  1.00  0.00    -0.015 A 
HETATM    8  C4  UNL     1      -3.569   6.420  13.046  1.00  0.00    -0.024 A 
HETATM    9  C5  UNL     1      -3.321   7.366  12.038  1.00  0.00     0.012 A 
HETATM   10  C6  UNL     1      -4.236   7.710  11.036  1.00  0.00     0.001 A 
HETATM   11  C7  UNL     1      -5.451   7.085  11.040  1.00  0.00     0.001 A 
HETATM   12  C8  UNL     1      -5.712   6.150  12.016  1.00  0.00     0.013 A 
BRANCH   8  13
HETATM   13  C2  UNL     1      -2.658   6.291  14.167  1.00  0.00    -0.076 C 
HETATM   14  C1  UNL     1      -2.510   7.384  15.157  1.00  0.00     0.044 C 
HETATM   15  C3  UNL     1      -1.590   5.212  14.127  1.00  0.00     0.044 C 
ENDBRANCH   8  13
ENDBRANCH   1   7
BRANCH   4  16
HETATM   16  S1  UNL     1      -6.004   1.443  16.932  1.00  0.00     0.256 S 
HETATM   17  O1  UNL     1      -4.758   0.593  17.011  1.00  0.00    -0.201 OA
HETATM   18  O2  UNL     1      -7.122   0.529  16.489  1.00  0.00    -0.201 OA
BRANCH  16  19
HETATM   19  N1  UNL     1      -6.291   2.210  18.395  1.00  0.00    -0.324 N 
ATOM     20  H12 UNL     1      -5.563   2.638  18.967  1.00  0.00     0.169 HD
ATOM     21  H11 UNL     1      -7.285   2.182  18.621  1.00  0.00     0.169 HD
ENDBRANCH  16  19
ENDBRANCH   4  16
TORSDOF 4
ENDMDL
