MODEL 3
REMARK VINA RESULT: -6.962146017      2.209      5.302
REMARK  3 active torsions:
REMARK  status: ('A' for Active; 'I' for Inactive)
REMARK       I    between atoms: C2_2  and  N1_4 
REMARK    1  A    between atoms: N1_4  and  C3_5 
REMARK    2  A    between atoms: N1_4  and  C10_14 
REMARK    3  A    between atoms: C5_7  and  O2_8 
REMARK       I    between atoms: N2_16  and  C12_17 
ROOT
HETATM    1  C1  UNL     1     -32.256  -8.961  -2.010  1.00  0.00     0.118 C 
HETATM    2  C2  UNL     1     -30.846  -8.874  -1.600  1.00  0.00     0.225 C 
HETATM    3  O1  UNL     1     -30.021  -8.407  -2.460  1.00  0.00    -0.273 OA
HETATM    4  N1  UNL     1     -30.360  -9.259  -0.371  1.00  0.00    -0.280 N 
ENDROOT
BRANCH   4   5
HETATM    5  C3  UNL     1     -29.058  -9.224   0.127  1.00  0.00     0.051 A 
HETATM    6  C4  UNL     1     -28.279 -10.367   0.203  1.00  0.00     0.067 A 
HETATM    7  C5  UNL     1     -26.982 -10.334   0.698  1.00  0.00     0.067 A 
HETATM    8  C6  UNL     1     -26.469  -9.129   1.120  1.00  0.00     0.037 A 
HETATM    9  C7  UNL     1     -27.256  -7.971   1.043  1.00  0.00     0.012 A 
HETATM   10  C8  UNL     1     -28.549  -8.024   0.547  1.00  0.00    -0.035 A 
HETATM   11  C9  UNL     1     -29.336  -6.834   0.478  1.00  0.00     0.050 C 
BRANCH   7  12
HETATM   12  O2  UNL     1     -26.269 -11.525   0.740  1.00  0.00    -0.361 OA
ATOM     13  H2  UNL     1     -26.707 -12.295   1.083  1.00  0.00     0.217 HD
ENDBRANCH   7  12
ENDBRANCH   4   5
BRANCH   4  14
HETATM   14  C10 UNL     1     -31.366  -9.772   0.517  1.00  0.00     0.071 A 
HETATM   15  C11 UNL     1     -31.981  -9.124   1.544  1.00  0.00     0.131 A 
HETATM   16  N2  UNL     1     -32.883  -9.968   2.151  1.00  0.00    -0.290 N 
HETATM   17  C12 UNL     1     -33.690  -9.623   3.244  1.00  0.00     0.224 C 
HETATM   18  C14 UNL     1     -32.847 -11.163   1.512  1.00  0.00     0.054 A 
HETATM   19  C13 UNL     1     -34.667 -10.466   3.938  1.00  0.00     0.118 C 
HETATM   20  O3  UNL     1     -33.551  -8.416   3.690  1.00  0.00    -0.273 OA
HETATM   21  C15 UNL     1     -33.500 -12.366   1.657  1.00  0.00     0.031 A 
HETATM   22  C19 UNL     1     -31.911 -11.050   0.501  1.00  0.00     0.020 A 
HETATM   23  C16 UNL     1     -33.228 -13.444   0.808  1.00  0.00     0.002 A 
HETATM   24  C17 UNL     1     -32.293 -13.300  -0.187  1.00  0.00     0.001 A 
HETATM   25  C18 UNL     1     -31.643 -12.110  -0.334  1.00  0.00     0.016 A 
ENDBRANCH   4  14
TORSDOF 3
ENDMDL
