MODEL 5
REMARK VINA RESULT: -6.618890579      2.150      5.837
REMARK  3 active torsions:
REMARK  status: ('A' for Active; 'I' for Inactive)
REMARK       I    between atoms: C2_2  and  N1_4 
REMARK    1  A    between atoms: N1_4  and  C3_5 
REMARK    2  A    between atoms: N1_4  and  C10_14 
REMARK    3  A    between atoms: C5_7  and  O2_8 
REMARK       I    between atoms: N2_16  and  C12_17 
ROOT
HETATM    1  C1  UNL     1     -32.462  -9.549  -2.599  1.00  0.00     0.118 C 
HETATM    2  C2  UNL     1     -31.133  -9.234  -2.050  1.00  0.00     0.225 C 
HETATM    3  O1  UNL     1     -30.393  -8.451  -2.739  1.00  0.00    -0.273 OA
HETATM    4  N1  UNL     1     -30.639  -9.721  -0.861  1.00  0.00    -0.280 N 
ENDROOT
BRANCH   4   5
HETATM    5  C3  UNL     1     -29.409  -9.496  -0.244  1.00  0.00     0.051 A 
HETATM    6  C4  UNL     1     -28.476 -10.509  -0.094  1.00  0.00     0.067 A 
HETATM    7  C5  UNL     1     -27.250 -10.286   0.519  1.00  0.00     0.067 A 
HETATM    8  C6  UNL     1     -26.967  -9.022   0.985  1.00  0.00     0.037 A 
HETATM    9  C7  UNL     1     -27.910  -7.996   0.833  1.00  0.00     0.012 A 
HETATM   10  C8  UNL     1     -29.128  -8.238   0.219  1.00  0.00    -0.035 A 
HETATM   11  C9  UNL     1     -30.078  -7.180   0.074  1.00  0.00     0.050 C 
BRANCH   7  12
HETATM   12  O2  UNL     1     -26.372 -11.356   0.630  1.00  0.00    -0.361 OA
ATOM     13  H2  UNL     1     -26.642 -12.103   1.151  1.00  0.00     0.217 HD
ENDBRANCH   7  12
ENDBRANCH   4   5
BRANCH   4  14
HETATM   14  C10 UNL     1     -31.546 -10.593  -0.168  1.00  0.00     0.071 A 
HETATM   15  C11 UNL     1     -31.895 -11.866  -0.500  1.00  0.00     0.131 A 
HETATM   16  N2  UNL     1     -32.794 -12.356   0.421  1.00  0.00    -0.290 N 
HETATM   17  C12 UNL     1     -33.360 -13.637   0.382  1.00  0.00     0.224 C 
HETATM   18  C14 UNL     1     -33.022 -11.394   1.348  1.00  0.00     0.054 A 
HETATM   19  C13 UNL     1     -34.318 -14.223   1.323  1.00  0.00     0.118 C 
HETATM   20  O3  UNL     1     -32.990 -14.390  -0.605  1.00  0.00    -0.273 OA
HETATM   21  C15 UNL     1     -33.801 -11.295   2.479  1.00  0.00     0.031 A 
HETATM   22  C19 UNL     1     -32.255 -10.301   0.991  1.00  0.00     0.020 A 
HETATM   23  C16 UNL     1     -33.817 -10.126   3.246  1.00  0.00     0.002 A 
HETATM   24  C17 UNL     1     -33.044  -9.058   2.865  1.00  0.00     0.001 A 
HETATM   25  C18 UNL     1     -32.271  -9.151   1.745  1.00  0.00     0.016 A 
ENDBRANCH   4  14
TORSDOF 3
ENDMDL
