MODEL 6
REMARK VINA RESULT: -6.593521825      3.382      6.663
REMARK  3 active torsions:
REMARK  status: ('A' for Active; 'I' for Inactive)
REMARK       I    between atoms: C2_2  and  N1_4 
REMARK    1  A    between atoms: N1_4  and  C3_5 
REMARK    2  A    between atoms: N1_4  and  C10_14 
REMARK    3  A    between atoms: C5_7  and  O2_8 
REMARK       I    between atoms: N2_16  and  C12_17 
ROOT
HETATM    1  C1  UNL     1     -35.469 -12.770  -3.183  1.00  0.00     0.118 C 
HETATM    2  C2  UNL     1     -34.191 -12.044  -3.103  1.00  0.00     0.225 C 
HETATM    3  O1  UNL     1     -33.943 -11.203  -4.035  1.00  0.00    -0.273 OA
HETATM    4  N1  UNL     1     -33.255 -12.209  -2.106  1.00  0.00    -0.280 N 
ENDROOT
BRANCH   4   5
HETATM    5  C3  UNL     1     -32.022 -11.584  -1.926  1.00  0.00     0.051 A 
HETATM    6  C4  UNL     1     -30.837 -12.194  -2.305  1.00  0.00     0.067 A 
HETATM    7  C5  UNL     1     -29.608 -11.573  -2.127  1.00  0.00     0.067 A 
HETATM    8  C6  UNL     1     -29.579 -10.320  -1.559  1.00  0.00     0.037 A 
HETATM    9  C7  UNL     1     -30.778  -9.702  -1.174  1.00  0.00     0.012 A 
HETATM   10  C8  UNL     1     -31.994 -10.338  -1.360  1.00  0.00    -0.035 A 
HETATM   11  C9  UNL     1     -33.205  -9.692  -0.961  1.00  0.00     0.050 C 
BRANCH   7  12
HETATM   12  O2  UNL     1     -28.468 -12.253  -2.534  1.00  0.00    -0.361 OA
ATOM     13  H2  UNL     1     -27.979 -11.905  -3.270  1.00  0.00     0.217 HD
ENDBRANCH   7  12
ENDBRANCH   4   5
BRANCH   4  14
HETATM   14  C10 UNL     1     -33.628 -13.177  -1.113  1.00  0.00     0.071 A 
HETATM   15  C11 UNL     1     -34.179 -12.947   0.110  1.00  0.00     0.131 A 
HETATM   16  N2  UNL     1     -34.383 -14.144   0.759  1.00  0.00    -0.290 N 
HETATM   17  C12 UNL     1     -34.936 -14.274   2.040  1.00  0.00     0.224 C 
HETATM   18  C14 UNL     1     -33.962 -15.146  -0.051  1.00  0.00     0.054 A 
HETATM   19  C13 UNL     1     -35.182 -15.509   2.790  1.00  0.00     0.118 C 
HETATM   20  O3  UNL     1     -35.268 -13.169   2.628  1.00  0.00    -0.273 OA
HETATM   21  C15 UNL     1     -33.910 -16.519   0.044  1.00  0.00     0.031 A 
HETATM   22  C19 UNL     1     -33.493 -14.557  -1.209  1.00  0.00     0.020 A 
HETATM   23  C16 UNL     1     -33.400 -17.296  -1.001  1.00  0.00     0.002 A 
HETATM   24  C17 UNL     1     -32.942 -16.681  -2.139  1.00  0.00     0.001 A 
HETATM   25  C18 UNL     1     -32.991 -15.321  -2.237  1.00  0.00     0.016 A 
ENDBRANCH   4  14
TORSDOF 3
ENDMDL
