MODEL 3
REMARK VINA RESULT: -7.679142753      2.157      5.307
REMARK  7 active torsions:
REMARK  status: ('A' for Active; 'I' for Inactive)
REMARK       I    between atoms: C2_2  and  N1_4 
REMARK    1  A    between atoms: C4_6  and  N2_7 
REMARK    2  A    between atoms: N2_7  and  C5_8 
REMARK    3  A    between atoms: N2_7  and  C13_21 
REMARK    4  A    between atoms: C5_8  and  O2_9 
REMARK    5  A    between atoms: C5_8  and  C6_11 
REMARK    6  A    between atoms: C10_15  and  C11_16 
REMARK    7  A    between atoms: C15_23  and  O3_24 
ROOT
HETATM    1  N2  UNL     1     -31.019  -9.121  -1.792  1.00  0.00    -0.289 N 
ENDROOT
BRANCH   1   2
HETATM    2  C4  UNL     1     -31.682 -10.195  -1.064  1.00  0.00     0.070 A 
HETATM    3  C3  UNL     1     -32.297 -10.184   0.111  1.00  0.00     0.131 A 
HETATM    4  N1  UNL     1     -32.746 -11.446   0.347  1.00  0.00    -0.290 N 
HETATM    5  C2  UNL     1     -33.410 -11.847   1.517  1.00  0.00     0.224 C 
HETATM    6  C25 UNL     1     -32.400 -12.247  -0.703  1.00  0.00     0.054 A 
HETATM    7  C1  UNL     1     -33.699 -10.981   2.644  1.00  0.00     0.118 C 
HETATM    8  O1  UNL     1     -33.780 -13.077   1.594  1.00  0.00    -0.273 OA
HETATM    9  C20 UNL     1     -31.720 -11.490  -1.626  1.00  0.00     0.020 A 
HETATM   10  C24 UNL     1     -32.575 -13.591  -0.957  1.00  0.00     0.031 A 
HETATM   11  C21 UNL     1     -31.211 -11.975  -2.791  1.00  0.00     0.016 A 
HETATM   12  C22 UNL     1     -31.382 -13.314  -3.055  1.00  0.00     0.001 A 
HETATM   13  C23 UNL     1     -32.063 -14.103  -2.131  1.00  0.00     0.002 A 
ENDBRANCH   1   2
BRANCH   1  14
HETATM   14  C5  UNL     1     -29.643  -9.177  -1.835  1.00  0.00     0.158 C 
BRANCH  14  15
HETATM   15  O2  UNL     1     -29.179  -9.209  -3.070  1.00  0.00    -0.345 OA
ATOM     16  H2  UNL     1     -28.449  -9.808  -3.167  1.00  0.00     0.219 HD
ENDBRANCH  14  15
BRANCH  14  17
HETATM   17  C6  UNL     1     -28.626  -9.227  -0.838  1.00  0.00     0.016 A 
HETATM   18  C7  UNL     1     -28.320 -10.355  -0.091  1.00  0.00     0.016 A 
HETATM   19  C8  UNL     1     -27.301 -10.375   0.822  1.00  0.00     0.002 A 
HETATM   20  C9  UNL     1     -26.517  -9.252   1.046  1.00  0.00     0.016 A 
HETATM   21  C10 UNL     1     -26.787  -8.115   0.324  1.00  0.00     0.048 A 
HETATM   22  C12 UNL     1     -27.808  -8.114  -0.580  1.00  0.00     0.032 A 
BRANCH  21  23
HETATM   23  C11 UNL     1     -25.992  -6.902   0.488  1.00  0.00     0.417 C 
HETATM   24  F1  UNL     1     -26.345  -6.160   1.620  1.00  0.00    -0.166 F 
HETATM   25  F2  UNL     1     -24.625  -7.188   0.634  1.00  0.00    -0.166 F 
HETATM   26  F3  UNL     1     -26.094  -6.091  -0.631  1.00  0.00    -0.166 F 
ENDBRANCH  21  23
ENDBRANCH  14  17
ENDBRANCH   1  14
BRANCH   1  27
HETATM   27  C13 UNL     1     -31.917  -8.188  -2.341  1.00  0.00     0.050 A 
HETATM   28  C14 UNL     1     -32.567  -8.518  -3.505  1.00  0.00     0.067 A 
HETATM   29  C15 UNL     1     -33.427  -7.607  -4.131  1.00  0.00     0.067 A 
HETATM   30  C16 UNL     1     -33.639  -6.365  -3.596  1.00  0.00     0.037 A 
HETATM   31  C17 UNL     1     -32.968  -6.024  -2.400  1.00  0.00     0.012 A 
HETATM   32  C18 UNL     1     -32.120  -6.958  -1.800  1.00  0.00    -0.035 A 
HETATM   33  C19 UNL     1     -31.456  -6.613  -0.513  1.00  0.00     0.050 C 
BRANCH  29  34
HETATM   34  O3  UNL     1     -34.065  -8.007  -5.338  1.00  0.00    -0.361 OA
ATOM     35  H3  UNL     1     -34.799  -7.489  -5.651  1.00  0.00     0.217 HD
ENDBRANCH  29  34
ENDBRANCH   1  27
TORSDOF 7
ENDMDL
