MODEL 1
REMARK VINA RESULT: -7.926092165      0.000      0.000
REMARK  7 active torsions:
REMARK  status: ('A' for Active; 'I' for Inactive)
REMARK       I    between atoms: C2_2  and  N1_4 
REMARK    1  A    between atoms: C4_6  and  N2_7 
REMARK    2  A    between atoms: N2_7  and  C5_8 
REMARK    3  A    between atoms: N2_7  and  C13_21 
REMARK    4  A    between atoms: C5_8  and  O2_9 
REMARK    5  A    between atoms: C5_8  and  C6_11 
REMARK    6  A    between atoms: C10_15  and  C11_16 
REMARK    7  A    between atoms: C15_23  and  O3_24 
ROOT
HETATM    1  N2  UNL     1     -30.592 -11.593  -2.166  1.00  0.00    -0.289 N 
ENDROOT
BRANCH   1   2
HETATM    2  C4  UNL     1     -31.305 -11.051  -3.316  1.00  0.00     0.070 A 
HETATM    3  C3  UNL     1     -31.327 -11.451  -4.579  1.00  0.00     0.131 A 
HETATM    4  N1  UNL     1     -32.145 -10.605  -5.260  1.00  0.00    -0.290 N 
HETATM    5  C2  UNL     1     -32.390 -10.675  -6.640  1.00  0.00     0.224 C 
HETATM    6  C25 UNL     1     -32.635  -9.667  -4.397  1.00  0.00     0.054 A 
HETATM    7  C1  UNL     1     -31.795 -11.645  -7.540  1.00  0.00     0.118 C 
HETATM    8  O1  UNL     1     -33.194  -9.805  -7.143  1.00  0.00    -0.273 OA
HETATM    9  C20 UNL     1     -32.125  -9.914  -3.146  1.00  0.00     0.020 A 
HETATM   10  C24 UNL     1     -33.465  -8.578  -4.566  1.00  0.00     0.031 A 
HETATM   11  C21 UNL     1     -32.391  -9.158  -2.046  1.00  0.00     0.016 A 
HETATM   12  C22 UNL     1     -33.220  -8.071  -2.202  1.00  0.00     0.001 A 
HETATM   13  C23 UNL     1     -33.744  -7.797  -3.464  1.00  0.00     0.002 A 
ENDBRANCH   1   2
BRANCH   1  14
HETATM   14  C5  UNL     1     -29.282 -11.191  -2.021  1.00  0.00     0.158 C 
BRANCH  14  15
HETATM   15  O2  UNL     1     -28.431 -12.050  -2.549  1.00  0.00    -0.345 OA
ATOM     16  H2  UNL     1     -27.788 -11.626  -3.105  1.00  0.00     0.219 HD
ENDBRANCH  14  15
BRANCH  14  17
HETATM   17  C6  UNL     1     -28.657 -10.065  -1.410  1.00  0.00     0.016 A 
HETATM   18  C7  UNL     1     -29.055  -8.750  -1.606  1.00  0.00     0.016 A 
HETATM   19  C8  UNL     1     -28.458  -7.701  -0.961  1.00  0.00     0.002 A 
HETATM   20  C9  UNL     1     -27.415  -7.907  -0.070  1.00  0.00     0.016 A 
HETATM   21  C10 UNL     1     -26.994  -9.195   0.153  1.00  0.00     0.048 A 
HETATM   22  C12 UNL     1     -27.599 -10.228  -0.500  1.00  0.00     0.032 A 
BRANCH  21  23
HETATM   23  C11 UNL     1     -25.917  -9.492   1.094  1.00  0.00     0.417 C 
HETATM   24  F1  UNL     1     -25.964 -10.800   1.590  1.00  0.00    -0.166 F 
HETATM   25  F2  UNL     1     -24.652  -9.358   0.501  1.00  0.00    -0.166 F 
HETATM   26  F3  UNL     1     -25.936  -8.606   2.160  1.00  0.00    -0.166 F 
ENDBRANCH  21  23
ENDBRANCH  14  17
ENDBRANCH   1  14
BRANCH   1  27
HETATM   27  C13 UNL     1     -31.380 -12.453  -1.381  1.00  0.00     0.050 A 
HETATM   28  C14 UNL     1     -31.890 -13.584  -1.969  1.00  0.00     0.067 A 
HETATM   29  C15 UNL     1     -32.731 -14.449  -1.256  1.00  0.00     0.067 A 
HETATM   30  C16 UNL     1     -33.062 -14.185   0.046  1.00  0.00     0.037 A 
HETATM   31  C17 UNL     1     -32.538 -13.020   0.651  1.00  0.00     0.012 A 
HETATM   32  C18 UNL     1     -31.700 -12.181  -0.089  1.00  0.00    -0.035 A 
HETATM   33  C19 UNL     1     -31.110 -10.984   0.569  1.00  0.00     0.050 C 
BRANCH  29  34
HETATM   34  O3  UNL     1     -33.233 -15.600  -1.924  1.00  0.00    -0.361 OA
ATOM     35  H3  UNL     1     -33.022 -16.454  -1.567  1.00  0.00     0.217 HD
ENDBRANCH  29  34
ENDBRANCH   1  27
TORSDOF 7
ENDMDL
