MODEL 2
REMARK VINA RESULT: -7.757094837      2.893      5.926
REMARK  7 active torsions:
REMARK  status: ('A' for Active; 'I' for Inactive)
REMARK       I    between atoms: C2_2  and  N1_4 
REMARK    1  A    between atoms: C4_6  and  N2_7 
REMARK    2  A    between atoms: N2_7  and  C5_8 
REMARK    3  A    between atoms: N2_7  and  C13_21 
REMARK    4  A    between atoms: C5_8  and  O2_9 
REMARK    5  A    between atoms: C5_8  and  C6_11 
REMARK    6  A    between atoms: C10_15  and  C11_16 
REMARK    7  A    between atoms: C15_23  and  O3_24 
ROOT
HETATM    1  N2  UNL     1     -29.879  -9.424   0.017  1.00  0.00    -0.289 N 
ENDROOT
BRANCH   1   2
HETATM    2  C4  UNL     1     -30.883  -9.722   1.031  1.00  0.00     0.070 A 
HETATM    3  C3  UNL     1     -31.125  -9.139   2.197  1.00  0.00     0.131 A 
HETATM    4  N1  UNL     1     -32.168  -9.795   2.771  1.00  0.00    -0.290 N 
HETATM    5  C2  UNL     1     -32.691  -9.501   4.040  1.00  0.00     0.224 C 
HETATM    6  C25 UNL     1     -32.576 -10.800   1.941  1.00  0.00     0.054 A 
HETATM    7  C1  UNL     1     -32.186  -8.469   4.925  1.00  0.00     0.118 C 
HETATM    8  O1  UNL     1     -33.686 -10.208   4.448  1.00  0.00    -0.273 OA
HETATM    9  C20 UNL     1     -31.783 -10.789   0.819  1.00  0.00     0.020 A 
HETATM   10  C24 UNL     1     -33.551 -11.769   2.047  1.00  0.00     0.031 A 
HETATM   11  C21 UNL     1     -31.900 -11.669  -0.212  1.00  0.00     0.016 A 
HETATM   12  C22 UNL     1     -32.872 -12.639  -0.117  1.00  0.00     0.001 A 
HETATM   13  C23 UNL     1     -33.684 -12.674   1.015  1.00  0.00     0.002 A 
ENDBRANCH   1   2
BRANCH   1  14
HETATM   14  C5  UNL     1     -28.579  -9.746   0.339  1.00  0.00     0.158 C 
BRANCH  14  15
HETATM   15  O2  UNL     1     -28.450 -11.005   0.714  1.00  0.00    -0.345 OA
ATOM     16  H2  UNL     1     -27.701 -11.139   1.283  1.00  0.00     0.219 HD
ENDBRANCH  14  15
BRANCH  14  17
HETATM   17  C6  UNL     1     -27.359  -9.010   0.371  1.00  0.00     0.016 A 
HETATM   18  C7  UNL     1     -27.284  -7.626   0.414  1.00  0.00     0.016 A 
HETATM   19  C8  UNL     1     -26.091  -6.959   0.493  1.00  0.00     0.002 A 
HETATM   20  C9  UNL     1     -24.887  -7.647   0.535  1.00  0.00     0.016 A 
HETATM   21  C10 UNL     1     -24.920  -9.020   0.497  1.00  0.00     0.048 A 
HETATM   22  C12 UNL     1     -26.117  -9.667   0.415  1.00  0.00     0.032 A 
BRANCH  21  23
HETATM   23  C11 UNL     1     -23.695  -9.813   0.560  1.00  0.00     0.417 C 
HETATM   24  F1  UNL     1     -23.672 -10.706   1.637  1.00  0.00    -0.166 F 
HETATM   25  F2  UNL     1     -23.521 -10.600  -0.589  1.00  0.00    -0.166 F 
HETATM   26  F3  UNL     1     -22.580  -8.992   0.632  1.00  0.00    -0.166 F 
ENDBRANCH  21  23
ENDBRANCH  14  17
ENDBRANCH   1  14
BRANCH   1  27
HETATM   27  C13 UNL     1     -30.420  -8.846  -1.145  1.00  0.00     0.050 A 
HETATM   28  C14 UNL     1     -31.218  -7.737  -1.009  1.00  0.00     0.067 A 
HETATM   29  C15 UNL     1     -31.833  -7.152  -2.123  1.00  0.00     0.067 A 
HETATM   30  C16 UNL     1     -31.652  -7.675  -3.376  1.00  0.00     0.037 A 
HETATM   31  C17 UNL     1     -30.833  -8.818  -3.516  1.00  0.00     0.012 A 
HETATM   32  C18 UNL     1     -30.232  -9.374  -2.384  1.00  0.00    -0.035 A 
HETATM   33  C19 UNL     1     -29.329 -10.546  -2.544  1.00  0.00     0.050 C 
BRANCH  29  34
HETATM   34  O3  UNL     1     -32.653  -6.009  -1.915  1.00  0.00    -0.361 OA
ATOM     35  H3  UNL     1     -32.839  -5.448  -2.659  1.00  0.00     0.217 HD
ENDBRANCH  29  34
ENDBRANCH   1  27
TORSDOF 7
ENDMDL
