MODEL 3
REMARK VINA RESULT: -6.624953424      8.212     11.453
REMARK  6 active torsions:
REMARK  status: ('A' for Active; 'I' for Inactive)
REMARK    1  A    between atoms: C5_5  and  C6_6 
REMARK       I    between atoms: C6_6  and  N1_8 
REMARK    2  A    between atoms: N1_8  and  C7_10 
REMARK    3  A    between atoms: C12_15  and  C13_16 
REMARK    4  A    between atoms: C15_20  and  S1_21 
REMARK    5  A    between atoms: S1_21  and  N2_24 
REMARK    6  A    between atoms: N2_24  and  C16_26 
ROOT
HETATM    1  C1  UNL     1     -18.289  -9.847  19.747  1.00  0.00     0.050 C 
HETATM    2  C2  UNL     1     -17.150 -10.056  20.645  1.00  0.00    -0.039 A 
HETATM    3  C3  UNL     1     -16.719  -8.965  21.381  1.00  0.00     0.009 A 
HETATM    4  C4  UNL     1     -15.674  -9.072  22.268  1.00  0.00     0.017 A 
HETATM    5  C5  UNL     1     -15.059 -10.269  22.422  1.00  0.00     0.033 A 
HETATM    6  C14 UNL     1     -15.492 -11.330  21.691  1.00  0.00     0.042 A 
HETATM    7  C15 UNL     1     -16.551 -11.286  20.771  1.00  0.00     0.086 A 
ENDROOT
BRANCH   5   8
HETATM    8  C6  UNL     1     -13.931 -10.474  23.363  1.00  0.00     0.256 C 
HETATM    9  O1  UNL     1     -14.056 -10.099  24.558  1.00  0.00    -0.267 OA
HETATM   10  N1  UNL     1     -12.763 -11.089  22.846  1.00  0.00    -0.322 N 
ATOM     11  H1  UNL     1     -12.755 -11.349  21.860  1.00  0.00     0.169 HD
BRANCH  10  12
HETATM   12  C7  UNL     1     -11.618 -11.363  23.605  1.00  0.00     0.052 A 
HETATM   13  C8  UNL     1     -10.621 -10.420  23.734  1.00  0.00     0.030 A 
HETATM   14  C9  UNL     1      -9.531 -10.707  24.546  1.00  0.00     0.002 A 
HETATM   15  C10 UNL     1      -9.414 -11.886  25.218  1.00  0.00     0.001 A 
HETATM   16  C11 UNL     1     -10.395 -12.837  25.103  1.00  0.00     0.021 A 
HETATM   17  C12 UNL     1     -11.508 -12.574  24.288  1.00  0.00     0.067 A 
BRANCH  17  18
HETATM   18  C13 UNL     1     -12.461 -13.665  24.202  1.00  0.00     0.211 C 
HETATM   19  O2  UNL     1     -12.794 -14.339  25.231  1.00  0.00    -0.644 OA
HETATM   20  O3  UNL     1     -13.072 -14.065  23.047  1.00  0.00    -0.644 OA
ENDBRANCH  17  18
ENDBRANCH  10  12
ENDBRANCH   5   8
BRANCH   7  21
HETATM   21  S1  UNL     1     -16.983 -12.698  19.877  1.00  0.00     0.263 S 
HETATM   22  O4  UNL     1     -16.491 -13.964  20.604  1.00  0.00    -0.200 OA
HETATM   23  O5  UNL     1     -16.131 -12.721  18.609  1.00  0.00    -0.200 OA
BRANCH  21  24
HETATM   24  N2  UNL     1     -18.610 -12.852  19.434  1.00  0.00    -0.281 N 
ATOM     25  H2  UNL     1     -19.222 -12.107  19.769  1.00  0.00     0.179 HD
BRANCH  24  26
HETATM   26  C16 UNL     1     -19.245 -13.850  18.676  1.00  0.00     0.042 A 
HETATM   27  C17 UNL     1     -19.171 -13.840  17.304  1.00  0.00     0.031 A 
HETATM   28  C18 UNL     1     -19.821 -14.772  16.524  1.00  0.00     0.021 A 
HETATM   29  C19 UNL     1     -20.575 -15.755  17.118  1.00  0.00     0.011 A 
HETATM   30 BR1  UNL     1     -21.470 -17.043  16.002  1.00  0.00    -0.051 Br
HETATM   31  C20 UNL     1     -20.668 -15.793  18.478  1.00  0.00     0.021 A 
HETATM   32  C21 UNL     1     -20.017 -14.860  19.240  1.00  0.00     0.031 A 
ENDBRANCH  24  26
ENDBRANCH  21  24
ENDBRANCH   7  21
TORSDOF 6
ENDMDL
