MODEL 2
REMARK VINA RESULT: -6.723545058      1.805      2.276
REMARK  6 active torsions:
REMARK  status: ('A' for Active; 'I' for Inactive)
REMARK    1  A    between atoms: C5_5  and  C6_6 
REMARK       I    between atoms: C6_6  and  N1_8 
REMARK    2  A    between atoms: N1_8  and  C7_10 
REMARK    3  A    between atoms: C12_15  and  C13_16 
REMARK    4  A    between atoms: C15_20  and  S1_21 
REMARK    5  A    between atoms: S1_21  and  N2_24 
REMARK    6  A    between atoms: N2_24  and  C16_26 
ROOT
HETATM    1  C1  UNL     1      -6.189 -12.628  21.026  1.00  0.00     0.050 C 
HETATM    2  C2  UNL     1      -5.697 -11.401  21.657  1.00  0.00    -0.039 A 
HETATM    3  C3  UNL     1      -5.668 -10.259  20.875  1.00  0.00     0.009 A 
HETATM    4  C4  UNL     1      -5.246  -9.055  21.389  1.00  0.00     0.017 A 
HETATM    5  C5  UNL     1      -4.854  -8.990  22.683  1.00  0.00     0.033 A 
HETATM    6  C14 UNL     1      -4.886 -10.121  23.438  1.00  0.00     0.042 A 
HETATM    7  C15 UNL     1      -5.305 -11.378  22.974  1.00  0.00     0.086 A 
ENDROOT
BRANCH   5   8
HETATM    8  C6  UNL     1      -4.394  -7.732  23.319  1.00  0.00     0.256 C 
HETATM    9  O1  UNL     1      -4.802  -7.445  24.474  1.00  0.00    -0.267 OA
HETATM   10  N1  UNL     1      -3.508  -6.916  22.570  1.00  0.00    -0.322 N 
ATOM     11  H1  UNL     1      -3.242  -7.231  21.637  1.00  0.00     0.169 HD
BRANCH  10  12
HETATM   12  C7  UNL     1      -2.975  -5.706  23.031  1.00  0.00     0.052 A 
HETATM   13  C8  UNL     1      -3.728  -4.551  22.998  1.00  0.00     0.030 A 
HETATM   14  C9  UNL     1      -3.186  -3.384  23.521  1.00  0.00     0.002 A 
HETATM   15  C10 UNL     1      -1.938  -3.343  24.066  1.00  0.00     0.001 A 
HETATM   16  C11 UNL     1      -1.173  -4.480  24.108  1.00  0.00     0.021 A 
HETATM   17  C12 UNL     1      -1.696  -5.674  23.584  1.00  0.00     0.067 A 
BRANCH  17  18
HETATM   18  C13 UNL     1      -0.786  -6.802  23.638  1.00  0.00     0.211 C 
HETATM   19  O2  UNL     1      -0.210  -7.243  22.590  1.00  0.00    -0.644 OA
HETATM   20  O3  UNL     1      -0.469  -7.482  24.780  1.00  0.00    -0.644 OA
ENDBRANCH  17  18
ENDBRANCH  10  12
ENDBRANCH   5   8
BRANCH   7  21
HETATM   21  S1  UNL     1      -5.266 -12.747  24.024  1.00  0.00     0.263 S 
HETATM   22  O4  UNL     1      -4.397 -12.449  25.261  1.00  0.00    -0.200 OA
HETATM   23  O5  UNL     1      -4.452 -13.838  23.331  1.00  0.00    -0.200 OA
BRANCH  21  24
HETATM   24  N2  UNL     1      -6.761 -13.400  24.481  1.00  0.00    -0.281 N 
ATOM     25  H2  UNL     1      -6.747 -14.395  24.707  1.00  0.00     0.179 HD
BRANCH  24  26
HETATM   26  C16 UNL     1      -8.015 -12.779  24.596  1.00  0.00     0.042 A 
HETATM   27  C17 UNL     1      -9.153 -13.527  24.782  1.00  0.00     0.031 A 
HETATM   28  C18 UNL     1     -10.407 -12.959  24.849  1.00  0.00     0.021 A 
HETATM   29  C19 UNL     1     -10.548 -11.598  24.729  1.00  0.00     0.011 A 
HETATM   30 BR1  UNL     1     -12.311 -10.833  24.828  1.00  0.00    -0.051 Br
HETATM   31  C20 UNL     1      -9.438 -10.825  24.544  1.00  0.00     0.021 A 
HETATM   32  C21 UNL     1      -8.200 -11.405  24.480  1.00  0.00     0.031 A 
ENDBRANCH  24  26
ENDBRANCH  21  24
ENDBRANCH   7  21
TORSDOF 6
ENDMDL
