MODEL 1
REMARK VINA RESULT: -6.877572258      0.000      0.000
REMARK  6 active torsions:
REMARK  status: ('A' for Active; 'I' for Inactive)
REMARK    1  A    between atoms: C5_5  and  C6_6 
REMARK       I    between atoms: C6_6  and  N1_8 
REMARK    2  A    between atoms: N1_8  and  C7_10 
REMARK    3  A    between atoms: C12_15  and  C13_16 
REMARK    4  A    between atoms: C15_20  and  S1_21 
REMARK    5  A    between atoms: S1_21  and  N2_24 
REMARK    6  A    between atoms: N2_24  and  C16_26 
ROOT
HETATM    1  C1  UNL     1      -7.230 -14.039  24.026  1.00  0.00     0.050 C 
HETATM    2  C2  UNL     1      -6.553 -12.786  23.683  1.00  0.00    -0.039 A 
HETATM    3  C3  UNL     1      -6.152 -12.628  22.367  1.00  0.00     0.009 A 
HETATM    4  C4  UNL     1      -5.532 -11.474  21.946  1.00  0.00     0.017 A 
HETATM    5  C5  UNL     1      -5.312 -10.479  22.838  1.00  0.00     0.033 A 
HETATM    6  C14 UNL     1      -5.710 -10.650  24.127  1.00  0.00     0.042 A 
HETATM    7  C15 UNL     1      -6.347 -11.801  24.618  1.00  0.00     0.086 A 
ENDROOT
BRANCH   5   8
HETATM    8  C6  UNL     1      -4.659  -9.201  22.467  1.00  0.00     0.256 C 
HETATM    9  O1  UNL     1      -4.503  -8.924  21.248  1.00  0.00    -0.267 OA
HETATM   10  N1  UNL     1      -4.242  -8.356  23.527  1.00  0.00    -0.322 N 
ATOM     11  H1  UNL     1      -4.405  -8.674  24.482  1.00  0.00     0.169 HD
BRANCH  10  12
HETATM   12  C7  UNL     1      -3.622  -7.114  23.345  1.00  0.00     0.052 A 
HETATM   13  C8  UNL     1      -4.375  -5.983  23.113  1.00  0.00     0.030 A 
HETATM   14  C9  UNL     1      -3.726  -4.760  22.999  1.00  0.00     0.002 A 
HETATM   15  C10 UNL     1      -2.373  -4.641  23.109  1.00  0.00     0.001 A 
HETATM   16  C11 UNL     1      -1.607  -5.754  23.339  1.00  0.00     0.021 A 
HETATM   17  C12 UNL     1      -2.236  -7.004  23.457  1.00  0.00     0.067 A 
BRANCH  17  18
HETATM   18  C13 UNL     1      -1.328  -8.118  23.654  1.00  0.00     0.211 C 
HETATM   19  O2  UNL     1      -0.073  -7.993  23.469  1.00  0.00    -0.644 OA
HETATM   20  O3  UNL     1      -1.717  -9.369  24.042  1.00  0.00    -0.644 OA
ENDBRANCH  17  18
ENDBRANCH  10  12
ENDBRANCH   5   8
BRANCH   7  21
HETATM   21  S1  UNL     1      -6.773 -11.910  26.287  1.00  0.00     0.263 S 
HETATM   22  O4  UNL     1      -6.010 -10.851  27.105  1.00  0.00    -0.200 OA
HETATM   23  O5  UNL     1      -6.177 -13.208  26.832  1.00  0.00    -0.200 OA
BRANCH  21  24
HETATM   24  N2  UNL     1      -8.425 -11.882  26.656  1.00  0.00    -0.281 N 
ATOM     25  H2  UNL     1      -8.669 -12.246  27.578  1.00  0.00     0.179 HD
BRANCH  24  26
HETATM   26  C16 UNL     1      -9.510 -11.433  25.886  1.00  0.00     0.042 A 
HETATM   27  C17 UNL     1     -10.801 -11.628  26.313  1.00  0.00     0.031 A 
HETATM   28  C18 UNL     1     -11.893 -11.248  25.562  1.00  0.00     0.021 A 
HETATM   29  C19 UNL     1     -11.706 -10.649  24.340  1.00  0.00     0.011 A 
HETATM   30 BR1  UNL     1     -13.250 -10.127  23.315  1.00  0.00    -0.051 Br
HETATM   31  C20 UNL     1     -10.437 -10.440  23.886  1.00  0.00     0.021 A 
HETATM   32  C21 UNL     1      -9.363 -10.824  24.643  1.00  0.00     0.031 A 
ENDBRANCH  24  26
ENDBRANCH  21  24
ENDBRANCH   7  21
TORSDOF 6
ENDMDL
