MODEL 13
REMARK VINA RESULT: -6.208019638      4.970      9.464
REMARK  6 active torsions:
REMARK  status: ('A' for Active; 'I' for Inactive)
REMARK    1  A    between atoms: C5_5  and  C6_6 
REMARK       I    between atoms: C6_6  and  N1_8 
REMARK    2  A    between atoms: N1_8  and  C7_10 
REMARK    3  A    between atoms: C12_15  and  C13_16 
REMARK    4  A    between atoms: C15_20  and  S1_21 
REMARK    5  A    between atoms: S1_21  and  N2_24 
REMARK    6  A    between atoms: N2_24  and  C16_26 
ROOT
HETATM    1  C1  UNL     1      -9.015 -16.053  24.634  1.00  0.00     0.050 C 
HETATM    2  C2  UNL     1     -10.123 -15.109  24.468  1.00  0.00    -0.039 A 
HETATM    3  C3  UNL     1     -11.092 -15.433  23.533  1.00  0.00     0.009 A 
HETATM    4  C4  UNL     1     -12.182 -14.621  23.327  1.00  0.00     0.017 A 
HETATM    5  C5  UNL     1     -12.307 -13.485  24.055  1.00  0.00     0.033 A 
HETATM    6  C14 UNL     1     -11.347 -13.180  24.969  1.00  0.00     0.042 A 
HETATM    7  C15 UNL     1     -10.213 -13.966  25.226  1.00  0.00     0.086 A 
ENDROOT
BRANCH   5   8
HETATM    8  C6  UNL     1     -13.454 -12.558  23.903  1.00  0.00     0.256 C 
HETATM    9  O1  UNL     1     -14.151 -12.276  24.913  1.00  0.00    -0.267 OA
HETATM   10  N1  UNL     1     -13.700 -12.041  22.605  1.00  0.00    -0.322 N 
ATOM     11  H1  UNL     1     -13.084 -12.338  21.848  1.00  0.00     0.169 HD
BRANCH  10  12
HETATM   12  C7  UNL     1     -14.734 -11.149  22.298  1.00  0.00     0.052 A 
HETATM   13  C8  UNL     1     -14.633  -9.816  22.637  1.00  0.00     0.030 A 
HETATM   14  C9  UNL     1     -15.653  -8.952  22.259  1.00  0.00     0.002 A 
HETATM   15  C10 UNL     1     -16.746  -9.375  21.566  1.00  0.00     0.001 A 
HETATM   16  C11 UNL     1     -16.866 -10.697  21.220  1.00  0.00     0.021 A 
HETATM   17  C12 UNL     1     -15.850 -11.594  21.590  1.00  0.00     0.067 A 
BRANCH  17  18
HETATM   18  C13 UNL     1     -16.100 -12.972  21.214  1.00  0.00     0.211 C 
HETATM   19  O2  UNL     1     -16.303 -13.304  20.000  1.00  0.00    -0.644 OA
HETATM   20  O3  UNL     1     -16.143 -14.015  22.096  1.00  0.00    -0.644 OA
ENDBRANCH  17  18
ENDBRANCH  10  12
ENDBRANCH   5   8
BRANCH   7  21
HETATM   21  S1  UNL     1      -9.047 -13.451  26.389  1.00  0.00     0.263 S 
HETATM   22  O4  UNL     1      -9.001 -14.434  27.574  1.00  0.00    -0.200 OA
HETATM   23  O5  UNL     1      -9.587 -12.188  27.058  1.00  0.00    -0.200 OA
BRANCH  21  24
HETATM   24  N2  UNL     1      -7.487 -13.129  25.814  1.00  0.00    -0.281 N 
ATOM     25  H2  UNL     1      -6.728 -13.479  26.400  1.00  0.00     0.179 HD
BRANCH  24  26
HETATM   26  C16 UNL     1      -7.079 -12.452  24.652  1.00  0.00     0.042 A 
HETATM   27  C17 UNL     1      -7.479 -11.159  24.418  1.00  0.00     0.031 A 
HETATM   28  C18 UNL     1      -7.142 -10.480  23.267  1.00  0.00     0.021 A 
HETATM   29  C19 UNL     1      -6.379 -11.098  22.307  1.00  0.00     0.011 A 
HETATM   30 BR1  UNL     1      -5.923 -10.124  20.710  1.00  0.00    -0.051 Br
HETATM   31  C20 UNL     1      -5.965 -12.383  22.508  1.00  0.00     0.021 A 
HETATM   32  C21 UNL     1      -6.309 -13.044  23.656  1.00  0.00     0.031 A 
ENDBRANCH  24  26
ENDBRANCH  21  24
ENDBRANCH   7  21
TORSDOF 6
ENDMDL
