MODEL 2
REMARK VINA RESULT: -7.676294944      3.726      4.567
REMARK  14 active torsions:
REMARK  status: ('A' for Active; 'I' for Inactive)
REMARK    1  A    between atoms: O1_1  and  C1_3 
REMARK    2  A    between atoms: C1_3  and  C2_4 
REMARK    3  A    between atoms: C3_6  and  S1_7 
REMARK    4  A    between atoms: S1_7  and  C4_8 
REMARK    5  A    between atoms: C5_10  and  C6_11 
REMARK    6  A    between atoms: C6_11  and  O4_12 
REMARK    7  A    between atoms: C7_14  and  O5_15 
REMARK    8  A    between atoms: C8_17  and  N1_18 
REMARK    9  A    between atoms: C10_20  and  C11_21 
REMARK   10  A    between atoms: C17_31  and  O6_32 
REMARK   11  A    between atoms: C18_34  and  O7_35 
REMARK   12  A    between atoms: C19_37  and  N4_38 
REMARK   13  A    between atoms: C21_40  and  C22_41 
REMARK   14  A    between atoms: C28_52  and  O8_53 
ROOT
HETATM    1  C2  UNL     1      18.031  -8.176  -1.494  1.00  0.00     0.177 C 
HETATM    2  O2  UNL     1      17.559  -8.696  -2.682  1.00  0.00    -0.363 OA
HETATM    3  C3  UNL     1      16.305  -9.275  -2.568  1.00  0.00     0.216 C 
HETATM    4  C18 UNL     1      16.210 -10.177  -1.356  1.00  0.00     0.184 C 
HETATM    5  C19 UNL     1      16.136  -9.221  -0.163  1.00  0.00     0.172 C 
HETATM    6  C28 UNL     1      17.039  -8.077  -0.403  1.00  0.00     0.176 C 
ENDROOT
BRANCH   3   7
HETATM    7  S1  UNL     1      15.790 -10.075  -4.090  1.00  0.00    -0.100 SA
BRANCH   7   8
HETATM    8  C4  UNL     1      14.372  -9.111  -4.740  1.00  0.00     0.216 C 
HETATM    9  O3  UNL     1      14.620  -8.530  -5.936  1.00  0.00    -0.363 OA
HETATM   10  C5  UNL     1      14.549  -7.156  -6.015  1.00  0.00     0.177 C 
HETATM   11  C7  UNL     1      13.337  -6.545  -5.400  1.00  0.00     0.176 C 
HETATM   12  C8  UNL     1      12.718  -7.398  -4.318  1.00  0.00     0.169 C 
HETATM   13  C17 UNL     1      13.805  -8.199  -3.679  1.00  0.00     0.184 C 
BRANCH  10  14
HETATM   14  C6  UNL     1      15.824  -6.473  -5.596  1.00  0.00     0.198 C 
BRANCH  14  15
HETATM   15  O4  UNL     1      16.671  -6.416  -6.700  1.00  0.00    -0.398 OA
ATOM     16  H4  UNL     1      16.302  -5.806  -7.327  1.00  0.00     0.209 HD
ENDBRANCH  14  15
ENDBRANCH  10  14
BRANCH  11  17
HETATM   17  O5  UNL     1      13.640  -5.264  -4.931  1.00  0.00    -0.391 OA
ATOM     18  H5  UNL     1      12.844  -4.750  -4.863  1.00  0.00     0.210 HD
ENDBRANCH  11  17
BRANCH  12  19
HETATM   19  N1  UNL     1      11.947  -6.590  -3.402  1.00  0.00    -0.275 N 
HETATM   20  C9  UNL     1      10.703  -6.113  -3.571  1.00  0.00     0.140 A 
HETATM   21  C10 UNL     1      10.323  -5.377  -2.451  1.00  0.00     0.073 A 
HETATM   22  N2  UNL     1      11.384  -5.442  -1.629  1.00  0.00    -0.282 N 
HETATM   23  N3  UNL     1      12.333  -6.162  -2.206  1.00  0.00    -0.020 NA
ATOM     24  H2  UNL     1      11.448  -5.008  -0.709  1.00  0.00     0.184 HD
BRANCH  21  25
HETATM   25  C11 UNL     1       9.050  -4.700  -2.252  1.00  0.00    -0.004 A 
HETATM   26  C12 UNL     1       7.935  -5.407  -1.863  1.00  0.00     0.014 A 
HETATM   27  C13 UNL     1       6.723  -4.740  -1.678  1.00  0.00     0.004 A 
HETATM   28  C14 UNL     1       6.615  -3.386  -1.874  1.00  0.00     0.042 A 
HETATM   29  C15 UNL     1       7.729  -2.671  -2.265  1.00  0.00     0.117 A 
HETATM   30  F1  UNL     1       7.679  -1.318  -2.477  1.00  0.00    -0.206 F 
HETATM   31  C16 UNL     1       8.931  -3.343  -2.448  1.00  0.00     0.056 A 
ENDBRANCH  21  25
ENDBRANCH  12  19
BRANCH  13  32
HETATM   32  O6  UNL     1      13.188  -9.045  -2.726  1.00  0.00    -0.390 OA
ATOM     33  H6  UNL     1      12.544  -8.509  -2.278  1.00  0.00     0.210 HD
ENDBRANCH  13  32
ENDBRANCH   7   8
ENDBRANCH   3   7
BRANCH   4  34
HETATM   34  O7  UNL     1      14.979 -10.860  -1.479  1.00  0.00    -0.390 OA
ATOM     35  H7  UNL     1      14.455 -10.585  -0.735  1.00  0.00     0.210 HD
ENDBRANCH   4  34
BRANCH   1  36
HETATM   36  C1  UNL     1      19.326  -8.864  -1.118  1.00  0.00     0.198 C 
BRANCH  36  37
HETATM   37  O1  UNL     1      20.246  -7.965  -0.583  1.00  0.00    -0.398 OA
ATOM     38  H1  UNL     1      20.627  -8.295   0.222  1.00  0.00     0.209 HD
ENDBRANCH  36  37
ENDBRANCH   1  36
BRANCH   5  39
HETATM   39  N4  UNL     1      16.308  -9.907   1.077  1.00  0.00    -0.277 N 
HETATM   40  C20 UNL     1      17.119 -10.929   1.342  1.00  0.00     0.144 A 
HETATM   41  C21 UNL     1      16.960 -11.285   2.689  1.00  0.00     0.076 A 
HETATM   42  N5  UNL     1      16.038 -10.433   3.170  1.00  0.00    -0.284 N 
HETATM   43  N6  UNL     1      15.678  -9.643   2.202  1.00  0.00    -0.240 N 
ATOM     44  H5  UNL     1      15.682 -10.411   4.125  1.00  0.00     0.188 HD
ATOM     45  H6  UNL     1      14.986  -8.900   2.303  1.00  0.00     0.208 HD
BRANCH  41  46
HETATM   46  C22 UNL     1      17.660 -12.355   3.384  1.00  0.00    -0.004 A 
HETATM   47  C23 UNL     1      18.860 -12.811   2.903  1.00  0.00     0.014 A 
HETATM   48  C24 UNL     1      19.568 -13.835   3.533  1.00  0.00     0.004 A 
HETATM   49  C25 UNL     1      19.029 -14.389   4.668  1.00  0.00     0.042 A 
HETATM   50  C26 UNL     1      17.822 -13.931   5.152  1.00  0.00     0.117 A 
HETATM   51  F2  UNL     1      17.321 -14.506   6.277  1.00  0.00    -0.206 F 
HETATM   52  C27 UNL     1      17.122 -12.907   4.515  1.00  0.00     0.056 A 
ENDBRANCH  41  46
ENDBRANCH   5  39
BRANCH   6  53
HETATM   53  O8  UNL     1      17.771  -7.848   0.789  1.00  0.00    -0.391 OA
ATOM     54  H8  UNL     1      17.156  -7.938   1.507  1.00  0.00     0.210 HD
ENDBRANCH   6  53
TORSDOF 14
ENDMDL
