MODEL 1
REMARK VINA RESULT: -8.402275032      0.000      0.000
REMARK  14 active torsions:
REMARK  status: ('A' for Active; 'I' for Inactive)
REMARK    1  A    between atoms: O1_1  and  C1_3 
REMARK    2  A    between atoms: C1_3  and  C2_4 
REMARK    3  A    between atoms: C3_6  and  S1_7 
REMARK    4  A    between atoms: S1_7  and  C4_8 
REMARK    5  A    between atoms: C5_10  and  C6_11 
REMARK    6  A    between atoms: C6_11  and  O4_12 
REMARK    7  A    between atoms: C7_14  and  O5_15 
REMARK    8  A    between atoms: C8_17  and  N1_18 
REMARK    9  A    between atoms: C10_20  and  C11_21 
REMARK   10  A    between atoms: C17_31  and  O6_32 
REMARK   11  A    between atoms: C18_34  and  O7_35 
REMARK   12  A    between atoms: C19_37  and  N4_38 
REMARK   13  A    between atoms: C21_40  and  C22_41 
REMARK   14  A    between atoms: C28_52  and  O8_53 
ROOT
HETATM    1  C2  UNL     1      16.991  -7.282  -1.104  1.00  0.00     0.177 C 
HETATM    2  O2  UNL     1      16.198  -7.485  -2.216  1.00  0.00    -0.363 OA
HETATM    3  C3  UNL     1      15.219  -8.447  -2.024  1.00  0.00     0.216 C 
HETATM    4  C18 UNL     1      15.775  -9.689  -1.361  1.00  0.00     0.184 C 
HETATM    5  C19 UNL     1      15.996  -9.287   0.099  1.00  0.00     0.172 C 
HETATM    6  C28 UNL     1      16.504  -7.900   0.146  1.00  0.00     0.176 C 
ENDROOT
BRANCH   3   7
HETATM    7  S1  UNL     1      14.309  -8.793  -3.531  1.00  0.00    -0.100 SA
BRANCH   7   8
HETATM    8  C4  UNL     1      12.576  -8.274  -3.233  1.00  0.00     0.216 C 
HETATM    9  O3  UNL     1      12.349  -6.970  -3.516  1.00  0.00    -0.363 OA
HETATM   10  C5  UNL     1      11.918  -6.152  -2.494  1.00  0.00     0.177 C 
HETATM   11  C7  UNL     1      10.796  -6.694  -1.677  1.00  0.00     0.176 C 
HETATM   12  C8  UNL     1      10.715  -8.202  -1.691  1.00  0.00     0.169 C 
HETATM   13  C17 UNL     1      12.096  -8.739  -1.880  1.00  0.00     0.184 C 
BRANCH  10  14
HETATM   14  C6  UNL     1      13.044  -5.612  -1.654  1.00  0.00     0.198 C 
BRANCH  14  15
HETATM   15  O4  UNL     1      13.370  -4.342  -2.126  1.00  0.00    -0.398 OA
ATOM     16  H4  UNL     1      14.283  -4.349  -2.389  1.00  0.00     0.209 HD
ENDBRANCH  14  15
ENDBRANCH  10  14
BRANCH  11  17
HETATM   17  O5  UNL     1      10.880  -6.198  -0.372  1.00  0.00    -0.391 OA
ATOM     18  H5  UNL     1      10.518  -5.319  -0.339  1.00  0.00     0.210 HD
ENDBRANCH  11  17
BRANCH  12  19
HETATM   19  N1  UNL     1      10.033  -8.693  -0.516  1.00  0.00    -0.275 N 
HETATM   20  C9  UNL     1       8.796  -9.207  -0.437  1.00  0.00     0.140 A 
HETATM   21  C10 UNL     1       8.514  -9.561   0.880  1.00  0.00     0.073 A 
HETATM   22  N2  UNL     1       9.626  -9.236   1.561  1.00  0.00    -0.282 N 
HETATM   23  N3  UNL     1      10.512  -8.725   0.722  1.00  0.00    -0.020 NA
ATOM     24  H2  UNL     1       9.764  -9.363   2.564  1.00  0.00     0.184 HD
BRANCH  21  25
HETATM   25  C11 UNL     1       7.277 -10.150   1.373  1.00  0.00    -0.004 A 
HETATM   26  C12 UNL     1       6.064  -9.560   1.101  1.00  0.00     0.014 A 
HETATM   27  C13 UNL     1       4.889 -10.141   1.583  1.00  0.00     0.004 A 
HETATM   28  C14 UNL     1       4.915 -11.293   2.327  1.00  0.00     0.042 A 
HETATM   29  C15 UNL     1       6.128 -11.890   2.604  1.00  0.00     0.117 A 
HETATM   30  F1  UNL     1       6.213 -13.041   3.343  1.00  0.00    -0.206 F 
HETATM   31  C16 UNL     1       7.292 -11.306   2.121  1.00  0.00     0.056 A 
ENDBRANCH  21  25
ENDBRANCH  12  19
BRANCH  13  32
HETATM   32  O6  UNL     1      11.982 -10.148  -1.969  1.00  0.00    -0.390 OA
ATOM     33  H6  UNL     1      11.673 -10.439  -1.120  1.00  0.00     0.210 HD
ENDBRANCH  13  32
ENDBRANCH   7   8
ENDBRANCH   3   7
BRANCH   4  34
HETATM   34  O7  UNL     1      14.743 -10.653  -1.424  1.00  0.00    -0.390 OA
ATOM     35  H7  UNL     1      15.073 -11.416  -0.963  1.00  0.00     0.210 HD
ENDBRANCH   4  34
BRANCH   1  36
HETATM   36  C1  UNL     1      18.433  -7.589  -1.448  1.00  0.00     0.198 C 
BRANCH  36  37
HETATM   37  O1  UNL     1      19.296  -6.616  -0.948  1.00  0.00    -0.398 OA
ATOM     38  H1  UNL     1      19.952  -6.369  -1.590  1.00  0.00     0.209 HD
ENDBRANCH  36  37
ENDBRANCH   1  36
BRANCH   5  39
HETATM   39  N4  UNL     1      16.763 -10.261   0.807  1.00  0.00    -0.277 N 
HETATM   40  C20 UNL     1      16.505 -10.802   1.995  1.00  0.00     0.144 A 
HETATM   41  C21 UNL     1      17.527 -11.711   2.302  1.00  0.00     0.076 A 
HETATM   42  N5  UNL     1      18.365 -11.663   1.252  1.00  0.00    -0.284 N 
HETATM   43  N6  UNL     1      17.888 -10.806   0.397  1.00  0.00    -0.240 N 
ATOM     44  H5  UNL     1      19.223 -12.203   1.144  1.00  0.00     0.188 HD
ATOM     45  H6  UNL     1      18.337 -10.581  -0.491  1.00  0.00     0.208 HD
BRANCH  41  46
HETATM   46  C22 UNL     1      17.629 -12.516   3.511  1.00  0.00    -0.004 A 
HETATM   47  C23 UNL     1      16.592 -12.535   4.407  1.00  0.00     0.014 A 
HETATM   48  C24 UNL     1      16.642 -13.290   5.579  1.00  0.00     0.004 A 
HETATM   49  C25 UNL     1      17.774 -14.029   5.823  1.00  0.00     0.042 A 
HETATM   50  C26 UNL     1      18.816 -14.009   4.923  1.00  0.00     0.117 A 
HETATM   51  F2  UNL     1      19.921 -14.752   5.201  1.00  0.00    -0.206 F 
HETATM   52  C27 UNL     1      18.757 -13.251   3.754  1.00  0.00     0.056 A 
ENDBRANCH  41  46
ENDBRANCH   5  39
BRANCH   6  53
HETATM   53  O8  UNL     1      17.588  -7.870   1.061  1.00  0.00    -0.391 OA
ATOM     54  H8  UNL     1      17.960  -6.997   1.012  1.00  0.00     0.210 HD
ENDBRANCH   6  53
TORSDOF 14
ENDMDL
