MODEL 3
REMARK VINA RESULT: -7.623067252      1.877      2.780
REMARK  14 active torsions:
REMARK  status: ('A' for Active; 'I' for Inactive)
REMARK    1  A    between atoms: O1_1  and  C1_3 
REMARK    2  A    between atoms: C1_3  and  C2_4 
REMARK    3  A    between atoms: C3_6  and  S1_7 
REMARK    4  A    between atoms: S1_7  and  C4_8 
REMARK    5  A    between atoms: C5_10  and  C6_11 
REMARK    6  A    between atoms: C6_11  and  O4_12 
REMARK    7  A    between atoms: C7_14  and  O5_15 
REMARK    8  A    between atoms: C8_17  and  N1_18 
REMARK    9  A    between atoms: C10_20  and  C11_21 
REMARK   10  A    between atoms: C17_31  and  O6_32 
REMARK   11  A    between atoms: C18_34  and  O7_35 
REMARK   12  A    between atoms: C19_37  and  N4_38 
REMARK   13  A    between atoms: C21_40  and  C22_41 
REMARK   14  A    between atoms: C28_52  and  O8_53 
ROOT
HETATM    1  C2  UNL     1      17.149 -11.219  -2.484  1.00  0.00     0.177 C 
HETATM    2  O2  UNL     1      16.558  -9.971  -2.505  1.00  0.00    -0.363 OA
HETATM    3  C3  UNL     1      17.164  -9.062  -1.653  1.00  0.00     0.216 C 
HETATM    4  C18 UNL     1      17.422  -9.659  -0.285  1.00  0.00     0.184 C 
HETATM    5  C19 UNL     1      18.603 -10.610  -0.491  1.00  0.00     0.172 C 
HETATM    6  C28 UNL     1      18.452 -11.294  -1.792  1.00  0.00     0.176 C 
ENDROOT
BRANCH   3   7
HETATM    7  S1  UNL     1      16.279  -7.502  -1.591  1.00  0.00    -0.100 SA
BRANCH   7   8
HETATM    8  C4  UNL     1      14.534  -7.867  -2.016  1.00  0.00     0.216 C 
HETATM    9  O3  UNL     1      14.034  -7.059  -2.979  1.00  0.00    -0.363 OA
HETATM   10  C5  UNL     1      12.947  -6.272  -2.664  1.00  0.00     0.177 C 
HETATM   11  C7  UNL     1      11.833  -6.977  -1.969  1.00  0.00     0.176 C 
HETATM   12  C8  UNL     1      12.278  -8.207  -1.215  1.00  0.00     0.169 C 
HETATM   13  C17 UNL     1      13.688  -7.996  -0.773  1.00  0.00     0.184 C 
BRANCH  10  14
HETATM   14  C6  UNL     1      13.328  -4.978  -1.995  1.00  0.00     0.198 C 
BRANCH  14  15
HETATM   15  O4  UNL     1      12.684  -3.938  -2.660  1.00  0.00    -0.398 OA
ATOM     16  H4  UNL     1      13.185  -3.143  -2.524  1.00  0.00     0.209 HD
ENDBRANCH  14  15
ENDBRANCH  10  14
BRANCH  11  17
HETATM   17  O5  UNL     1      11.156  -6.081  -1.136  1.00  0.00    -0.391 OA
ATOM     18  H5  UNL     1      11.304  -6.315  -0.226  1.00  0.00     0.210 HD
ENDBRANCH  11  17
BRANCH  12  19
HETATM   19  N1  UNL     1      11.353  -8.522  -0.151  1.00  0.00    -0.275 N 
HETATM   20  C9  UNL     1      10.329  -9.390  -0.179  1.00  0.00     0.140 A 
HETATM   21  C10 UNL     1       9.681  -9.398   1.054  1.00  0.00     0.073 A 
HETATM   22  N2  UNL     1      10.361  -8.508   1.797  1.00  0.00    -0.282 N 
HETATM   23  N3  UNL     1      11.344  -8.001   1.070  1.00  0.00    -0.020 NA
ATOM     24  H2  UNL     1      10.153  -8.264   2.765  1.00  0.00     0.184 HD
BRANCH  21  25
HETATM   25  C11 UNL     1       8.526 -10.205   1.420  1.00  0.00    -0.004 A 
HETATM   26  C12 UNL     1       8.680 -11.344   2.176  1.00  0.00     0.014 A 
HETATM   27  C13 UNL     1       7.560 -12.105   2.516  1.00  0.00     0.004 A 
HETATM   28  C14 UNL     1       6.300 -11.742   2.111  1.00  0.00     0.042 A 
HETATM   29  C15 UNL     1       6.139 -10.601   1.351  1.00  0.00     0.117 A 
HETATM   30  F1  UNL     1       4.904 -10.192   0.919  1.00  0.00    -0.206 F 
HETATM   31  C16 UNL     1       7.259  -9.850   1.017  1.00  0.00     0.056 A 
ENDBRANCH  21  25
ENDBRANCH  12  19
BRANCH  13  32
HETATM   32  O6  UNL     1      14.105  -9.192  -0.139  1.00  0.00    -0.390 OA
ATOM     33  H6  UNL     1      13.387  -9.805  -0.239  1.00  0.00     0.210 HD
ENDBRANCH  13  32
ENDBRANCH   7   8
ENDBRANCH   3   7
BRANCH   4  34
HETATM   34  O7  UNL     1      17.831  -8.583   0.534  1.00  0.00    -0.390 OA
ATOM     35  H7  UNL     1      17.498  -8.778   1.403  1.00  0.00     0.210 HD
ENDBRANCH   4  34
BRANCH   1  36
HETATM   36  C1  UNL     1      16.134 -12.253  -2.046  1.00  0.00     0.198 C 
BRANCH  36  37
HETATM   37  O1  UNL     1      14.880 -11.682  -1.839  1.00  0.00    -0.398 OA
ATOM     38  H1  UNL     1      14.949 -10.832  -1.418  1.00  0.00     0.209 HD
ENDBRANCH  36  37
ENDBRANCH   1  36
BRANCH   5  39
HETATM   39  N4  UNL     1      18.807 -11.454   0.642  1.00  0.00    -0.277 N 
HETATM   40  C20 UNL     1      17.969 -11.691   1.648  1.00  0.00     0.144 A 
HETATM   41  C21 UNL     1      18.584 -12.582   2.540  1.00  0.00     0.076 A 
HETATM   42  N5  UNL     1      19.790 -12.835   2.004  1.00  0.00    -0.284 N 
HETATM   43  N6  UNL     1      19.887 -12.161   0.896  1.00  0.00    -0.240 N 
ATOM     44  H5  UNL     1      20.504 -13.450   2.396  1.00  0.00     0.188 HD
ATOM     45  H6  UNL     1      20.710 -12.177   0.292  1.00  0.00     0.208 HD
BRANCH  41  46
HETATM   46  C22 UNL     1      18.010 -13.098   3.774  1.00  0.00    -0.004 A 
HETATM   47  C23 UNL     1      18.830 -13.433   4.820  1.00  0.00     0.014 A 
HETATM   48  C24 UNL     1      18.327 -13.932   6.022  1.00  0.00     0.004 A 
HETATM   49  C25 UNL     1      16.968 -14.087   6.139  1.00  0.00     0.042 A 
HETATM   50  C26 UNL     1      16.144 -13.751   5.087  1.00  0.00     0.117 A 
HETATM   51  F2  UNL     1      14.803 -13.920   5.241  1.00  0.00    -0.206 F 
HETATM   52  C27 UNL     1      16.655 -13.252   3.890  1.00  0.00     0.056 A 
ENDBRANCH  41  46
ENDBRANCH   5  39
BRANCH   6  53
HETATM   53  O8  UNL     1      18.723 -12.671  -1.588  1.00  0.00    -0.391 OA
ATOM     54  H8  UNL     1      19.497 -12.717  -1.039  1.00  0.00     0.210 HD
ENDBRANCH   6  53
TORSDOF 14
ENDMDL
