MODEL 2
REMARK VINA RESULT: -9.299531917      0.724      1.047
REMARK  8 active torsions:
REMARK  status: ('A' for Active; 'I' for Inactive)
REMARK    1  A    between atoms: N4_10  and  C5_11 
REMARK    2  A    between atoms: C6_13  and  C7_14 
REMARK    3  A    between atoms: C7_14  and  O2_15 
REMARK    4  A    between atoms: O2_15  and  P1_16 
REMARK    5  A    between atoms: P1_16  and  O5_19 
REMARK    6  A    between atoms: O5_19  and  P2_20 
REMARK    7  A    between atoms: C8_24  and  O9_25 
REMARK    8  A    between atoms: C9_27  and  O10_28 
ROOT
HETATM    1  C5  UNL     1      25.420  30.882  26.751  1.00  0.00     0.262 C 
HETATM    2  O1  UNL     1      26.724  30.477  26.565  1.00  0.00    -0.353 OA
HETATM    3  C6  UNL     1      27.419  30.972  27.637  1.00  0.00     0.180 C 
HETATM    4  C8  UNL     1      26.530  30.606  28.808  1.00  0.00     0.182 C 
HETATM    5  C9  UNL     1      25.157  30.892  28.241  1.00  0.00     0.198 C 
ENDROOT
BRANCH   1   6
HETATM    6  N4  UNL     1      24.552  29.907  26.148  1.00  0.00    -0.297 N 
HETATM    7  C2  UNL     1      23.311  30.194  25.678  1.00  0.00     0.146 A 
HETATM    8  N2  UNL     1      22.586  31.333  25.633  1.00  0.00    -0.314 N 
HETATM    9  C3  UNL     1      22.815  29.018  25.187  1.00  0.00     0.146 A 
HETATM   10  C1  UNL     1      21.352  31.359  25.106  1.00  0.00     0.196 A 
ATOM     11  H2  UNL     1      22.986  32.193  26.008  1.00  0.00     0.170 HD
HETATM   12  N1  UNL     1      20.568  32.540  25.045  1.00  0.00    -0.063 NA
HETATM   13  N5  UNL     1      20.859  30.186  24.617  1.00  0.00    -0.295 N 
HETATM   14  C10 UNL     1      21.550  29.044  24.646  1.00  0.00     0.278 A 
ATOM     15  H5  UNL     1      19.922  30.181  24.211  1.00  0.00     0.171 HD
HETATM   16  O11 UNL     1      21.053  27.970  24.179  1.00  0.00    -0.265 OA
HETATM   17  N3  UNL     1      23.736  28.068  25.362  1.00  0.00    -0.345 N 
HETATM   18  C4  UNL     1      24.811  28.604  25.953  1.00  0.00     0.188 A 
ATOM     19  H3  UNL     1      23.637  27.090  25.090  1.00  0.00     0.167 HD
ENDBRANCH   1   6
BRANCH   5  20
HETATM   20  O10 UNL     1      24.790  32.175  28.691  1.00  0.00    -0.388 OA
ATOM     21  H10 UNL     1      24.261  32.128  29.478  1.00  0.00     0.210 HD
ENDBRANCH   5  20
BRANCH   3  22
HETATM   22  C7  UNL     1      28.740  30.232  27.862  1.00  0.00     0.216 C 
BRANCH  22  23
HETATM   23  O2  UNL     1      28.544  29.436  28.975  1.00  0.00    -0.287 OA
BRANCH  23  24
HETATM   24  P1  UNL     1      29.966  28.866  29.653  1.00  0.00     0.418 P 
HETATM   25  O3  UNL     1      29.566  27.731  30.601  1.00  0.00    -0.624 OA
HETATM   26  O4  UNL     1      30.795  30.058  30.519  1.00  0.00    -0.624 OA
BRANCH  24  27
HETATM   27  O5  UNL     1      30.966  28.319  28.422  1.00  0.00    -0.173 OA
BRANCH  27  28
HETATM   28  P2  UNL     1      30.578  26.804  27.857  1.00  0.00     0.431 P 
HETATM   29  O6  UNL     1      31.432  25.793  28.628  1.00  0.00    -0.616 OA
HETATM   30  O7  UNL     1      31.064  26.658  26.229  1.00  0.00    -0.616 OA
HETATM   31  O8  UNL     1      28.983  26.370  28.070  1.00  0.00    -0.616 OA
ENDBRANCH  27  28
ENDBRANCH  24  27
ENDBRANCH  23  24
ENDBRANCH  22  23
ENDBRANCH   3  22
BRANCH   4  32
HETATM   32  O9  UNL     1      26.802  31.387  29.924  1.00  0.00    -0.390 OA
ATOM     33  H9  UNL     1      27.462  30.990  30.479  1.00  0.00     0.210 HD
ENDBRANCH   4  32
TORSDOF 8
ENDMDL
