MODEL 4
REMARK VINA RESULT: -8.988760421      0.842      1.414
REMARK  8 active torsions:
REMARK  status: ('A' for Active; 'I' for Inactive)
REMARK    1  A    between atoms: N4_10  and  C5_11 
REMARK    2  A    between atoms: C6_13  and  C7_14 
REMARK    3  A    between atoms: C7_14  and  O2_15 
REMARK    4  A    between atoms: O2_15  and  P1_16 
REMARK    5  A    between atoms: P1_16  and  O5_19 
REMARK    6  A    between atoms: O5_19  and  P2_20 
REMARK    7  A    between atoms: C8_24  and  O9_25 
REMARK    8  A    between atoms: C9_27  and  O10_28 
ROOT
HETATM    1  C5  UNL     1      25.461  30.425  26.900  1.00  0.00     0.262 C 
HETATM    2  O1  UNL     1      26.747  30.102  26.526  1.00  0.00    -0.353 OA
HETATM    3  C6  UNL     1      27.528  30.390  27.614  1.00  0.00     0.180 C 
HETATM    4  C8  UNL     1      26.750  29.773  28.757  1.00  0.00     0.182 C 
HETATM    5  C9  UNL     1      25.330  30.129  28.378  1.00  0.00     0.198 C 
ENDROOT
BRANCH   1   6
HETATM    6  N4  UNL     1      24.553  29.567  26.187  1.00  0.00    -0.297 N 
HETATM    7  C2  UNL     1      23.358  29.982  25.693  1.00  0.00     0.146 A 
HETATM    8  N2  UNL     1      22.720  31.173  25.710  1.00  0.00    -0.314 N 
HETATM    9  C3  UNL     1      22.801  28.888  25.091  1.00  0.00     0.146 A 
HETATM   10  C1  UNL     1      21.516  31.332  25.139  1.00  0.00     0.196 A 
ATOM     11  H2  UNL     1      23.163  31.969  26.168  1.00  0.00     0.170 HD
HETATM   12  N1  UNL     1      20.824  32.570  25.141  1.00  0.00    -0.063 NA
HETATM   13  N5  UNL     1      20.962  30.240  24.539  1.00  0.00    -0.295 N 
HETATM   14  C10 UNL     1      21.567  29.051  24.505  1.00  0.00     0.278 A 
ATOM     15  H5  UNL     1      20.047  30.337  24.097  1.00  0.00     0.171 HD
HETATM   16  O11 UNL     1      21.015  28.056  23.934  1.00  0.00    -0.265 OA
HETATM   17  N3  UNL     1      23.642  27.860  25.226  1.00  0.00    -0.345 N 
HETATM   18  C4  UNL     1      24.725  28.267  25.899  1.00  0.00     0.188 A 
ATOM     19  H3  UNL     1      23.485  26.916  24.873  1.00  0.00     0.167 HD
ENDBRANCH   1   6
BRANCH   5  20
HETATM   20  O10 UNL     1      24.991  31.284  29.106  1.00  0.00    -0.388 OA
ATOM     21  H10 UNL     1      24.144  31.195  29.526  1.00  0.00     0.210 HD
ENDBRANCH   5  20
BRANCH   3  22
HETATM   22  C7  UNL     1      28.872  29.657  27.572  1.00  0.00     0.216 C 
BRANCH  22  23
HETATM   23  O2  UNL     1      28.810  28.696  28.565  1.00  0.00    -0.287 OA
BRANCH  23  24
HETATM   24  P1  UNL     1      30.245  28.509  29.409  1.00  0.00     0.418 P 
HETATM   25  O3  UNL     1      29.952  28.925  30.854  1.00  0.00    -0.624 OA
HETATM   26  O4  UNL     1      31.492  29.467  28.789  1.00  0.00    -0.624 OA
BRANCH  24  27
HETATM   27  O5  UNL     1      30.718  26.902  29.314  1.00  0.00    -0.173 OA
BRANCH  27  28
HETATM   28  P2  UNL     1      31.427  26.490  27.867  1.00  0.00     0.431 P 
HETATM   29  O6  UNL     1      31.421  24.962  27.771  1.00  0.00    -0.616 OA
HETATM   30  O7  UNL     1      33.074  26.936  27.889  1.00  0.00    -0.616 OA
HETATM   31  O8  UNL     1      30.644  27.076  26.518  1.00  0.00    -0.616 OA
ENDBRANCH  27  28
ENDBRANCH  24  27
ENDBRANCH  23  24
ENDBRANCH  22  23
ENDBRANCH   3  22
BRANCH   4  32
HETATM   32  O9  UNL     1      27.112  30.322  29.981  1.00  0.00    -0.390 OA
ATOM     33  H9  UNL     1      26.764  29.820  30.708  1.00  0.00     0.210 HD
ENDBRANCH   4  32
TORSDOF 8
ENDMDL
