MODEL 1
REMARK VINA RESULT: -10.094038130      0.000      0.000
REMARK  8 active torsions:
REMARK  status: ('A' for Active; 'I' for Inactive)
REMARK    1  A    between atoms: N4_10  and  C5_11 
REMARK    2  A    between atoms: C6_13  and  C7_14 
REMARK    3  A    between atoms: C7_14  and  O2_15 
REMARK    4  A    between atoms: O2_15  and  P1_16 
REMARK    5  A    between atoms: P1_16  and  O5_19 
REMARK    6  A    between atoms: O5_19  and  P2_20 
REMARK    7  A    between atoms: C8_24  and  O9_25 
REMARK    8  A    between atoms: C9_27  and  O10_28 
ROOT
HETATM    1  C5  UNL     1      25.434  30.851  26.766  1.00  0.00     0.262 C 
HETATM    2  O1  UNL     1      26.725  30.381  26.665  1.00  0.00    -0.353 OA
HETATM    3  C6  UNL     1      27.386  30.884  27.755  1.00  0.00     0.180 C 
HETATM    4  C8  UNL     1      26.421  30.602  28.888  1.00  0.00     0.182 C 
HETATM    5  C9  UNL     1      25.095  30.928  28.239  1.00  0.00     0.198 C 
ENDROOT
BRANCH   1   6
HETATM    6  N4  UNL     1      24.555  29.894  26.152  1.00  0.00    -0.297 N 
HETATM    7  C2  UNL     1      23.319  30.203  25.680  1.00  0.00     0.146 A 
HETATM    8  N2  UNL     1      22.610  31.352  25.642  1.00  0.00    -0.314 N 
HETATM    9  C3  UNL     1      22.808  29.037  25.178  1.00  0.00     0.146 A 
HETATM   10  C1  UNL     1      21.379  31.401  25.112  1.00  0.00     0.196 A 
ATOM     11  H2  UNL     1      23.021  32.203  26.026  1.00  0.00     0.170 HD
HETATM   12  N1  UNL     1      20.613  32.593  25.058  1.00  0.00    -0.063 NA
HETATM   13  N5  UNL     1      20.870  30.239  24.611  1.00  0.00    -0.295 N 
HETATM   14  C10 UNL     1      21.545  29.087  24.633  1.00  0.00     0.278 A 
ATOM     15  H5  UNL     1      19.936  30.250  24.202  1.00  0.00     0.171 HD
HETATM   16  O11 UNL     1      21.034  28.024  24.154  1.00  0.00    -0.265 OA
HETATM   17  N3  UNL     1      23.715  28.073  25.347  1.00  0.00    -0.345 N 
HETATM   18  C4  UNL     1      24.795  28.588  25.946  1.00  0.00     0.188 A 
ATOM     19  H3  UNL     1      23.603  27.099  25.066  1.00  0.00     0.167 HD
ENDBRANCH   1   6
BRANCH   5  20
HETATM   20  O10 UNL     1      24.765  32.241  28.623  1.00  0.00    -0.388 OA
ATOM     21  H10 UNL     1      24.118  32.248  29.318  1.00  0.00     0.210 HD
ENDBRANCH   5  20
BRANCH   3  22
HETATM   22  C7  UNL     1      28.658  30.095  28.076  1.00  0.00     0.216 C 
BRANCH  22  23
HETATM   23  O2  UNL     1      28.250  29.013  28.835  1.00  0.00    -0.287 OA
BRANCH  23  24
HETATM   24  P1  UNL     1      29.307  27.714  28.774  1.00  0.00     0.418 P 
HETATM   25  O3  UNL     1      28.457  26.482  28.447  1.00  0.00    -0.624 OA
HETATM   26  O4  UNL     1      30.115  27.467  30.239  1.00  0.00    -0.624 OA
BRANCH  24  27
HETATM   27  O5  UNL     1      30.452  28.008  27.584  1.00  0.00    -0.173 OA
BRANCH  27  28
HETATM   28  P2  UNL     1      31.397  26.691  27.213  1.00  0.00     0.431 P 
HETATM   29  O6  UNL     1      32.849  27.065  27.521  1.00  0.00    -0.616 OA
HETATM   30  O7  UNL     1      31.349  26.407  25.532  1.00  0.00    -0.616 OA
HETATM   31  O8  UNL     1      31.044  25.315  28.084  1.00  0.00    -0.616 OA
ENDBRANCH  27  28
ENDBRANCH  24  27
ENDBRANCH  23  24
ENDBRANCH  22  23
ENDBRANCH   3  22
BRANCH   4  32
HETATM   32  O9  UNL     1      26.671  31.412  29.989  1.00  0.00    -0.390 OA
ATOM     33  H9  UNL     1      26.283  32.272  29.888  1.00  0.00     0.210 HD
ENDBRANCH   4  32
TORSDOF 8
ENDMDL
