MODEL 2
REMARK VINA RESULT: -3.784903922      3.036      4.084
REMARK  5 active torsions:
REMARK  status: ('A' for Active; 'I' for Inactive)
REMARK    1  A    between atoms: C4_6  and  C5_7 
REMARK    2  A    between atoms: C5_7  and  O1_8 
REMARK    3  A    between atoms: C6_10  and  C7_11 
REMARK    4  A    between atoms: C7_11  and  O2_12 
REMARK    5  A    between atoms: C8_14  and  O3_15 
ROOT
HETATM    1  C1  UNL     1      22.334   2.218  38.138  1.00  0.00     0.071 C 
HETATM    2  C2  UNL     1      23.737   2.047  37.681  1.00  0.00     0.039 A 
HETATM    3  N1  UNL     1      24.460   0.957  37.879  1.00  0.00    -0.367 N 
ATOM      4  H1  UNL     1      24.007   0.167  38.339  1.00  0.00     0.165 HD
HETATM    5  C3  UNL     1      25.698   0.817  37.532  1.00  0.00     0.098 A 
HETATM    6  C4  UNL     1      26.349   1.874  36.905  1.00  0.00    -0.008 A 
HETATM    7  C6  UNL     1      25.611   3.092  36.700  1.00  0.00     0.010 A 
HETATM    8  C8  UNL     1      24.351   3.143  37.050  1.00  0.00     0.096 A 
ENDROOT
BRANCH   6   9
HETATM    9  C5  UNL     1      27.750   1.767  36.430  1.00  0.00     0.205 C 
BRANCH   9  10
HETATM   10  O1  UNL     1      28.620   1.932  37.523  1.00  0.00    -0.396 OA
ATOM     11  H1  UNL     1      29.515   1.971  37.205  1.00  0.00     0.209 HD
ENDBRANCH   9  10
ENDBRANCH   6   9
BRANCH   7  12
HETATM   12  C7  UNL     1      26.424   4.255  36.257  1.00  0.00     0.206 C 
BRANCH  12  13
HETATM   13  O2  UNL     1      25.685   4.858  35.244  1.00  0.00    -0.396 OA
ATOM     14  H2  UNL     1      26.235   5.557  34.913  1.00  0.00     0.209 HD
ENDBRANCH  12  13
ENDBRANCH   7  12
BRANCH   8  15
HETATM   15  O3  UNL     1      23.537   4.149  36.792  1.00  0.00    -0.358 OA
ATOM     16  H3  UNL     1      23.731   4.615  35.987  1.00  0.00     0.217 HD
ENDBRANCH   8  15
TORSDOF 5
ENDMDL
