MODEL 3
REMARK VINA RESULT: -3.727123493      2.780      4.523
REMARK  5 active torsions:
REMARK  status: ('A' for Active; 'I' for Inactive)
REMARK    1  A    between atoms: C4_6  and  C5_7 
REMARK    2  A    between atoms: C5_7  and  O1_8 
REMARK    3  A    between atoms: C6_10  and  C7_11 
REMARK    4  A    between atoms: C7_11  and  O2_12 
REMARK    5  A    between atoms: C8_14  and  O3_15 
ROOT
HETATM    1  C1  UNL     1      24.833   4.179  31.771  1.00  0.00     0.071 C 
HETATM    2  C2  UNL     1      25.517   3.592  32.952  1.00  0.00     0.039 A 
HETATM    3  N1  UNL     1      26.673   2.951  32.904  1.00  0.00    -0.367 N 
ATOM      4  H1  UNL     1      27.144   2.893  32.001  1.00  0.00     0.165 HD
HETATM    5  C3  UNL     1      27.251   2.391  33.916  1.00  0.00     0.098 A 
HETATM    6  C4  UNL     1      26.637   2.447  35.163  1.00  0.00    -0.008 A 
HETATM    7  C6  UNL     1      25.361   3.106  35.255  1.00  0.00     0.010 A 
HETATM    8  C8  UNL     1      24.858   3.677  34.190  1.00  0.00     0.096 A 
ENDROOT
BRANCH   6   9
HETATM    9  C5  UNL     1      27.266   1.876  36.378  1.00  0.00     0.205 C 
BRANCH   9  10
HETATM   10  O1  UNL     1      28.237   2.773  36.859  1.00  0.00    -0.396 OA
ATOM     11  H1  UNL     1      29.094   2.495  36.558  1.00  0.00     0.209 HD
ENDBRANCH   9  10
ENDBRANCH   6   9
BRANCH   7  12
HETATM   12  C7  UNL     1      24.646   2.919  36.545  1.00  0.00     0.206 C 
BRANCH  12  13
HETATM   13  O2  UNL     1      24.160   4.177  36.883  1.00  0.00    -0.396 OA
ATOM     14  H2  UNL     1      23.240   4.048  37.079  1.00  0.00     0.209 HD
ENDBRANCH  12  13
ENDBRANCH   7  12
BRANCH   8  15
HETATM   15  O3  UNL     1      23.769   4.423  34.178  1.00  0.00    -0.358 OA
ATOM     16  H3  UNL     1      23.062   4.095  34.721  1.00  0.00     0.217 HD
ENDBRANCH   8  15
TORSDOF 5
ENDMDL
