MODEL 9
REMARK VINA RESULT: -3.568913540      7.567      9.452
REMARK  5 active torsions:
REMARK  status: ('A' for Active; 'I' for Inactive)
REMARK    1  A    between atoms: C4_6  and  C5_7 
REMARK    2  A    between atoms: C5_7  and  O1_8 
REMARK    3  A    between atoms: C6_10  and  C7_11 
REMARK    4  A    between atoms: C7_11  and  O2_12 
REMARK    5  A    between atoms: C8_14  and  O3_15 
ROOT
HETATM    1  C1  UNL     1      26.397   9.503  30.839  1.00  0.00     0.071 C 
HETATM    2  C2  UNL     1      25.764   8.241  31.301  1.00  0.00     0.039 A 
HETATM    3  N1  UNL     1      26.086   7.609  32.418  1.00  0.00    -0.367 N 
ATOM      4  H1  UNL     1      26.787   8.041  33.020  1.00  0.00     0.165 HD
HETATM    5  C3  UNL     1      25.578   6.484  32.803  1.00  0.00     0.098 A 
HETATM    6  C4  UNL     1      24.623   5.863  32.006  1.00  0.00    -0.008 A 
HETATM    7  C6  UNL     1      24.266   6.499  30.765  1.00  0.00     0.010 A 
HETATM    8  C8  UNL     1      24.801   7.655  30.463  1.00  0.00     0.096 A 
ENDROOT
BRANCH   6   9
HETATM    9  C5  UNL     1      23.958   4.601  32.410  1.00  0.00     0.205 C 
BRANCH   9  10
HETATM   10  O1  UNL     1      23.649   4.661  33.781  1.00  0.00    -0.396 OA
ATOM     11  H1  UNL     1      23.557   3.777  34.118  1.00  0.00     0.209 HD
ENDBRANCH   9  10
ENDBRANCH   6   9
BRANCH   7  12
HETATM   12  C7  UNL     1      23.434   5.675  29.850  1.00  0.00     0.206 C 
BRANCH  12  13
HETATM   13  O2  UNL     1      24.084   5.718  28.621  1.00  0.00    -0.396 OA
ATOM     14  H2  UNL     1      23.810   4.931  28.164  1.00  0.00     0.209 HD
ENDBRANCH  12  13
ENDBRANCH   7  12
BRANCH   8  15
HETATM   15  O3  UNL     1      24.457   8.397  29.427  1.00  0.00    -0.358 OA
ATOM     16  H3  UNL     1      23.983   7.929  28.749  1.00  0.00     0.217 HD
ENDBRANCH   8  15
TORSDOF 5
ENDMDL
