MODEL 1
REMARK VINA RESULT: -3.836232242      0.000      0.000
REMARK  5 active torsions:
REMARK  status: ('A' for Active; 'I' for Inactive)
REMARK    1  A    between atoms: C4_6  and  C5_7 
REMARK    2  A    between atoms: C5_7  and  O1_8 
REMARK    3  A    between atoms: C6_10  and  C7_11 
REMARK    4  A    between atoms: C7_11  and  O2_12 
REMARK    5  A    between atoms: C8_14  and  O3_15 
ROOT
HETATM    1  C1  UNL     1      26.404   2.665  34.887  1.00  0.00     0.071 C 
HETATM    2  C2  UNL     1      26.887   1.563  35.759  1.00  0.00     0.039 A 
HETATM    3  N1  UNL     1      26.522   0.298  35.634  1.00  0.00    -0.367 N 
ATOM      4  H1  UNL     1      25.899   0.060  34.862  1.00  0.00     0.165 HD
HETATM    5  C3  UNL     1      26.895  -0.660  36.419  1.00  0.00     0.098 A 
HETATM    6  C4  UNL     1      27.741  -0.373  37.484  1.00  0.00    -0.008 A 
HETATM    7  C6  UNL     1      28.138   0.998  37.677  1.00  0.00     0.010 A 
HETATM    8  C8  UNL     1      27.743   1.904  36.819  1.00  0.00     0.096 A 
ENDROOT
BRANCH   6   9
HETATM    9  C5  UNL     1      28.253  -1.427  38.391  1.00  0.00     0.205 C 
BRANCH   9  10
HETATM   10  O1  UNL     1      29.405  -2.003  37.825  1.00  0.00    -0.396 OA
ATOM     11  H1  UNL     1      29.709  -2.708  38.385  1.00  0.00     0.209 HD
ENDBRANCH   9  10
ENDBRANCH   6   9
BRANCH   7  12
HETATM   12  C7  UNL     1      28.832   1.278  38.961  1.00  0.00     0.206 C 
BRANCH  12  13
HETATM   13  O2  UNL     1      29.951   2.030  38.619  1.00  0.00    -0.396 OA
ATOM     14  H2  UNL     1      30.481   1.460  38.075  1.00  0.00     0.209 HD
ENDBRANCH  12  13
ENDBRANCH   7  12
BRANCH   8  15
HETATM   15  O3  UNL     1      28.148   3.160  36.811  1.00  0.00    -0.358 OA
ATOM     16  H3  UNL     1      29.070   3.274  36.612  1.00  0.00     0.217 HD
ENDBRANCH   8  15
TORSDOF 5
ENDMDL
