MODEL 19
REMARK VINA RESULT: -3.415248451      6.034      8.350
REMARK  5 active torsions:
REMARK  status: ('A' for Active; 'I' for Inactive)
REMARK    1  A    between atoms: C4_6  and  C5_7 
REMARK    2  A    between atoms: C5_7  and  O1_8 
REMARK    3  A    between atoms: C6_10  and  C7_11 
REMARK    4  A    between atoms: C7_11  and  O2_12 
REMARK    5  A    between atoms: C8_14  and  O3_15 
ROOT
HETATM    1  C1  UNL     1      24.524   8.205  29.841  1.00  0.00     0.071 C 
HETATM    2  C2  UNL     1      24.780   7.226  30.929  1.00  0.00     0.039 A 
HETATM    3  N1  UNL     1      25.580   7.445  31.958  1.00  0.00    -0.367 N 
ATOM      4  H1  UNL     1      26.018   8.364  32.029  1.00  0.00     0.165 HD
HETATM    5  C3  UNL     1      25.850   6.581  32.883  1.00  0.00     0.098 A 
HETATM    6  C4  UNL     1      25.275   5.317  32.817  1.00  0.00    -0.008 A 
HETATM    7  C6  UNL     1      24.423   5.023  31.694  1.00  0.00     0.010 A 
HETATM    8  C8  UNL     1      24.173   5.964  30.819  1.00  0.00     0.096 A 
ENDROOT
BRANCH   6   9
HETATM    9  C5  UNL     1      25.494   4.295  33.868  1.00  0.00     0.205 C 
BRANCH   9  10
HETATM   10  O1  UNL     1      25.591   4.933  35.118  1.00  0.00    -0.396 OA
ATOM     11  H1  UNL     1      25.702   4.275  35.795  1.00  0.00     0.209 HD
ENDBRANCH   9  10
ENDBRANCH   6   9
BRANCH   7  12
HETATM   12  C7  UNL     1      24.041   3.595  31.550  1.00  0.00     0.206 C 
BRANCH  12  13
HETATM   13  O2  UNL     1      24.484   3.220  30.286  1.00  0.00    -0.396 OA
ATOM     14  H2  UNL     1      24.799   2.329  30.383  1.00  0.00     0.209 HD
ENDBRANCH  12  13
ENDBRANCH   7  12
BRANCH   8  15
HETATM   15  O3  UNL     1      23.306   5.860  29.828  1.00  0.00    -0.358 OA
ATOM     16  H3  UNL     1      22.913   5.000  29.739  1.00  0.00     0.217 HD
ENDBRANCH   8  15
TORSDOF 5
ENDMDL
