MODEL 2
REMARK VINA RESULT: -9.004645419      0.888      1.351
REMARK  9 active torsions:
REMARK  status: ('A' for Active; 'I' for Inactive)
REMARK    1  A    between atoms: N1_5  and  C4_6 
REMARK    2  A    between atoms: C6_8  and  O2_9 
REMARK    3  A    between atoms: C7_11  and  C8_12 
REMARK    4  A    between atoms: C8_12  and  O3_13 
REMARK    5  A    between atoms: O3_13  and  P1_14 
REMARK    6  A    between atoms: P1_14  and  N2_17 
REMARK    7  A    between atoms: N2_17  and  P2_19 
REMARK    8  A    between atoms: P2_19  and  O8_22 
REMARK    9  A    between atoms: O8_22  and  P3_23 
ROOT
HETATM    1  C4  UNL     1     -13.111  11.680   2.082  1.00  0.00     0.235 C 
HETATM    2  C5  UNL     1     -13.243  11.766   3.583  1.00  0.00     0.088 C 
HETATM    3  C6  UNL     1     -13.859  10.418   3.901  1.00  0.00     0.153 C 
HETATM    4  C7  UNL     1     -13.200   9.572   2.821  1.00  0.00     0.177 C 
HETATM    5  O12 UNL     1     -13.333  10.373   1.715  1.00  0.00    -0.356 OA
ENDROOT
BRANCH   4   6
HETATM    6  C8  UNL     1     -13.870   8.258   2.660  1.00  0.00     0.215 C 
BRANCH   6   7
HETATM    7  O3  UNL     1     -15.232   8.291   2.957  1.00  0.00    -0.293 OA
BRANCH   7   8
HETATM    8  P1  UNL     1     -16.268   7.680   1.993  1.00  0.00     0.368 P 
HETATM    9  O4  UNL     1     -16.362   9.265   1.348  1.00  0.00    -0.629 OA
HETATM   10  O5  UNL     1     -17.578   7.439   1.181  1.00  0.00    -0.629 OA
BRANCH   8  11
HETATM   11  N2  UNL     1     -15.313   6.577   1.255  1.00  0.00    -0.225 N 
ATOM     12  H2  UNL     1     -14.411   6.329   1.664  1.00  0.00     0.178 HD
BRANCH  11  13
HETATM   13  P2  UNL     1     -15.820   5.844  -0.189  1.00  0.00     0.378 P 
HETATM   14  O6  UNL     1     -16.801   4.836   0.449  1.00  0.00    -0.629 OA
HETATM   15  O7  UNL     1     -14.971   6.662  -1.192  1.00  0.00    -0.629 OA
BRANCH  13  16
HETATM   16  O8  UNL     1     -14.935   4.558  -0.662  1.00  0.00    -0.178 OA
BRANCH  16  17
HETATM   17  P3  UNL     1     -13.750   3.967   0.076  1.00  0.00     0.431 P 
HETATM   18  O9  UNL     1     -12.896   5.307   0.107  1.00  0.00    -0.616 OA
HETATM   19  O10 UNL     1     -14.773   3.517   1.329  1.00  0.00    -0.616 OA
HETATM   20  O11 UNL     1     -13.525   2.866  -1.182  1.00  0.00    -0.616 OA
ENDBRANCH  16  17
ENDBRANCH  13  16
ENDBRANCH  11  13
ENDBRANCH   8  11
ENDBRANCH   7   8
ENDBRANCH   6   7
ENDBRANCH   4   6
BRANCH   3  21
HETATM   21  O2  UNL     1     -13.513   9.976   5.174  1.00  0.00    -0.393 OA
ATOM     22  H2  UNL     1     -13.039   9.153   5.147  1.00  0.00     0.210 HD
ENDBRANCH   3  21
BRANCH   1  23
HETATM   23  N1  UNL     1     -14.093  12.588   1.511  1.00  0.00    -0.282 N 
HETATM   24  C3  UNL     1     -15.408  12.300   1.508  1.00  0.00     0.104 A 
HETATM   25  C2  UNL     1     -16.312  13.184   0.958  1.00  0.00     0.092 A 
HETATM   26  C1  UNL     1     -15.882  14.376   0.401  1.00  0.00     0.250 A 
HETATM   27  O1  UNL     1     -16.726  15.175  -0.099  1.00  0.00    -0.268 OA
HETATM   28  N3  UNL     1     -14.568  14.634   0.418  1.00  0.00    -0.275 N 
HETATM   29  C9  UNL     1     -13.718  13.755   0.961  1.00  0.00     0.331 A 
ATOM     30  H3  UNL     1     -14.215  15.503   0.018  1.00  0.00     0.173 HD
HETATM   31  O13 UNL     1     -12.464  13.995   0.981  1.00  0.00    -0.246 OA
ENDBRANCH   1  23
TORSDOF 9
ENDMDL
