MODEL 12
REMARK VINA RESULT: -8.449521074      3.133      4.558
REMARK  9 active torsions:
REMARK  status: ('A' for Active; 'I' for Inactive)
REMARK    1  A    between atoms: N1_5  and  C4_6 
REMARK    2  A    between atoms: C6_8  and  O2_9 
REMARK    3  A    between atoms: C7_11  and  C8_12 
REMARK    4  A    between atoms: C8_12  and  O3_13 
REMARK    5  A    between atoms: O3_13  and  P1_14 
REMARK    6  A    between atoms: P1_14  and  N2_17 
REMARK    7  A    between atoms: N2_17  and  P2_19 
REMARK    8  A    between atoms: P2_19  and  O8_22 
REMARK    9  A    between atoms: O8_22  and  P3_23 
ROOT
HETATM    1  C4  UNL     1     -13.699  13.249  -0.896  1.00  0.00     0.235 C 
HETATM    2  C5  UNL     1     -15.151  13.096  -0.513  1.00  0.00     0.088 C 
HETATM    3  C6  UNL     1     -15.027  12.429   0.843  1.00  0.00     0.153 C 
HETATM    4  C7  UNL     1     -13.739  13.076   1.332  1.00  0.00     0.177 C 
HETATM    5  O12 UNL     1     -12.940  12.988   0.221  1.00  0.00    -0.356 OA
ENDROOT
BRANCH   4   6
HETATM    6  C8  UNL     1     -13.171  12.364   2.504  1.00  0.00     0.215 C 
BRANCH   6   7
HETATM    7  O3  UNL     1     -14.089  11.533   3.144  1.00  0.00    -0.293 OA
BRANCH   7   8
HETATM    8  P1  UNL     1     -13.636  10.220   3.813  1.00  0.00     0.368 P 
HETATM    9  O4  UNL     1     -13.513  11.175   5.230  1.00  0.00    -0.629 OA
HETATM   10  O5  UNL     1     -12.809   9.179   4.629  1.00  0.00    -0.629 OA
BRANCH   8  11
HETATM   11  N2  UNL     1     -14.985   9.329   3.569  1.00  0.00    -0.225 N 
ATOM     12  H2  UNL     1     -15.789   9.441   4.187  1.00  0.00     0.178 HD
BRANCH  11  13
HETATM   13  P2  UNL     1     -15.048   8.217   2.288  1.00  0.00     0.378 P 
HETATM   14  O6  UNL     1     -16.062   7.248   2.933  1.00  0.00    -0.629 OA
HETATM   15  O7  UNL     1     -14.052   8.900   1.319  1.00  0.00    -0.629 OA
BRANCH  13  16
HETATM   16  O8  UNL     1     -13.961   7.003   2.369  1.00  0.00    -0.178 OA
BRANCH  16  17
HETATM   17  P3  UNL     1     -13.708   5.956   1.302  1.00  0.00     0.431 P 
HETATM   18  O9  UNL     1     -14.791   6.507   0.277  1.00  0.00    -0.616 OA
HETATM   19  O10 UNL     1     -12.095   6.420   1.249  1.00  0.00    -0.616 OA
HETATM   20  O11 UNL     1     -14.137   4.747   2.396  1.00  0.00    -0.616 OA
ENDBRANCH  16  17
ENDBRANCH  13  16
ENDBRANCH  11  13
ENDBRANCH   8  11
ENDBRANCH   7   8
ENDBRANCH   6   7
ENDBRANCH   4   6
BRANCH   3  21
HETATM   21  O2  UNL     1     -16.099  12.740   1.673  1.00  0.00    -0.393 OA
ATOM     22  H2  UNL     1     -16.107  12.203   2.457  1.00  0.00     0.210 HD
ENDBRANCH   3  21
BRANCH   1  23
HETATM   23  N1  UNL     1     -13.437  12.309  -1.974  1.00  0.00    -0.282 N 
HETATM   24  C3  UNL     1     -12.459  11.387  -1.889  1.00  0.00     0.104 A 
HETATM   25  C2  UNL     1     -12.237  10.510  -2.929  1.00  0.00     0.092 A 
HETATM   26  C1  UNL     1     -13.013  10.567  -4.074  1.00  0.00     0.250 A 
HETATM   27  O1  UNL     1     -12.795   9.754  -5.020  1.00  0.00    -0.268 OA
HETATM   28  N3  UNL     1     -13.977  11.494  -4.130  1.00  0.00    -0.275 N 
HETATM   29  C9  UNL     1     -14.166  12.329  -3.102  1.00  0.00     0.331 A 
ATOM     30  H3  UNL     1     -14.569  11.564  -4.958  1.00  0.00     0.173 HD
HETATM   31  O13 UNL     1     -15.083  13.215  -3.149  1.00  0.00    -0.246 OA
ENDBRANCH   1  23
TORSDOF 9
ENDMDL
