MODEL 3
REMARK VINA RESULT: -8.929388757      1.154      2.009
REMARK  9 active torsions:
REMARK  status: ('A' for Active; 'I' for Inactive)
REMARK    1  A    between atoms: N1_5  and  C4_6 
REMARK    2  A    between atoms: C6_8  and  O2_9 
REMARK    3  A    between atoms: C7_11  and  C8_12 
REMARK    4  A    between atoms: C8_12  and  O3_13 
REMARK    5  A    between atoms: O3_13  and  P1_14 
REMARK    6  A    between atoms: P1_14  and  N2_17 
REMARK    7  A    between atoms: N2_17  and  P2_19 
REMARK    8  A    between atoms: P2_19  and  O8_22 
REMARK    9  A    between atoms: O8_22  and  P3_23 
ROOT
HETATM    1  C4  UNL     1     -13.006  11.531   1.900  1.00  0.00     0.235 C 
HETATM    2  C5  UNL     1     -13.119  11.498   3.405  1.00  0.00     0.088 C 
HETATM    3  C6  UNL     1     -13.712  10.120   3.623  1.00  0.00     0.153 C 
HETATM    4  C7  UNL     1     -13.057   9.370   2.472  1.00  0.00     0.177 C 
HETATM    5  O12 UNL     1     -13.215  10.254   1.435  1.00  0.00    -0.356 OA
ENDROOT
BRANCH   4   6
HETATM    6  C8  UNL     1     -13.710   8.063   2.216  1.00  0.00     0.215 C 
BRANCH   6   7
HETATM    7  O3  UNL     1     -15.024   8.002   2.679  1.00  0.00    -0.293 OA
BRANCH   7   8
HETATM    8  P1  UNL     1     -16.171   7.555   1.751  1.00  0.00     0.368 P 
HETATM    9  O4  UNL     1     -16.649   9.199   1.820  1.00  0.00    -0.629 OA
HETATM   10  O5  UNL     1     -17.595   7.327   1.156  1.00  0.00    -0.629 OA
BRANCH   8  11
HETATM   11  N2  UNL     1     -15.284   7.037   0.479  1.00  0.00    -0.225 N 
ATOM     12  H2  UNL     1     -14.577   7.648   0.069  1.00  0.00     0.178 HD
BRANCH  11  13
HETATM   13  P2  UNL     1     -15.539   5.485  -0.159  1.00  0.00     0.378 P 
HETATM   14  O6  UNL     1     -14.818   4.704   0.960  1.00  0.00    -0.629 OA
HETATM   15  O7  UNL     1     -16.323   5.870  -1.437  1.00  0.00    -0.629 OA
BRANCH  13  16
HETATM   16  O8  UNL     1     -14.376   4.951  -1.170  1.00  0.00    -0.178 OA
BRANCH  16  17
HETATM   17  P3  UNL     1     -13.069   5.653  -1.480  1.00  0.00     0.431 P 
HETATM   18  O9  UNL     1     -13.715   7.076  -1.767  1.00  0.00    -0.616 OA
HETATM   19  O10 UNL     1     -12.489   5.212   0.034  1.00  0.00    -0.616 OA
HETATM   20  O11 UNL     1     -12.806   4.584  -2.758  1.00  0.00    -0.616 OA
ENDBRANCH  16  17
ENDBRANCH  13  16
ENDBRANCH  11  13
ENDBRANCH   8  11
ENDBRANCH   7   8
ENDBRANCH   6   7
ENDBRANCH   4   6
BRANCH   3  21
HETATM   21  O2  UNL     1     -13.344   9.585   4.853  1.00  0.00    -0.393 OA
ATOM     22  H2  UNL     1     -13.723   8.725   4.993  1.00  0.00     0.210 HD
ENDBRANCH   3  21
BRANCH   1  23
HETATM   23  N1  UNL     1     -14.007  12.467   1.414  1.00  0.00    -0.282 N 
HETATM   24  C3  UNL     1     -15.322  12.179   1.446  1.00  0.00     0.104 A 
HETATM   25  C2  UNL     1     -16.245  13.089   0.977  1.00  0.00     0.092 A 
HETATM   26  C1  UNL     1     -15.834  14.308   0.465  1.00  0.00     0.250 A 
HETATM   27  O1  UNL     1     -16.695  15.132   0.039  1.00  0.00    -0.268 OA
HETATM   28  N3  UNL     1     -14.520  14.566   0.445  1.00  0.00    -0.275 N 
HETATM   29  C9  UNL     1     -13.651  13.660   0.910  1.00  0.00     0.331 A 
ATOM     30  H3  UNL     1     -14.181  15.454   0.076  1.00  0.00     0.173 HD
HETATM   31  O13 UNL     1     -12.397  13.899   0.893  1.00  0.00    -0.246 OA
ENDBRANCH   1  23
TORSDOF 9
ENDMDL
