MODEL 5
REMARK VINA RESULT: -8.860196290      1.273      1.977
REMARK  9 active torsions:
REMARK  status: ('A' for Active; 'I' for Inactive)
REMARK    1  A    between atoms: N1_5  and  C4_6 
REMARK    2  A    between atoms: C6_8  and  O2_9 
REMARK    3  A    between atoms: C7_11  and  C8_12 
REMARK    4  A    between atoms: C8_12  and  O3_13 
REMARK    5  A    between atoms: O3_13  and  P1_14 
REMARK    6  A    between atoms: P1_14  and  N2_17 
REMARK    7  A    between atoms: N2_17  and  P2_19 
REMARK    8  A    between atoms: P2_19  and  O8_22 
REMARK    9  A    between atoms: O8_22  and  P3_23 
ROOT
HETATM    1  C4  UNL     1     -12.931  11.888   2.286  1.00  0.00     0.235 C 
HETATM    2  C5  UNL     1     -13.277  11.826   3.755  1.00  0.00     0.088 C 
HETATM    3  C6  UNL     1     -13.686  10.374   3.897  1.00  0.00     0.153 C 
HETATM    4  C7  UNL     1     -12.751   9.740   2.877  1.00  0.00     0.177 C 
HETATM    5  O12 UNL     1     -12.872  10.598   1.814  1.00  0.00    -0.356 OA
ENDROOT
BRANCH   4   6
HETATM    6  C8  UNL     1     -13.155   8.352   2.542  1.00  0.00     0.215 C 
BRANCH   6   7
HETATM    7  O3  UNL     1     -14.412   8.006   3.038  1.00  0.00    -0.293 OA
BRANCH   7   8
HETATM    8  P1  UNL     1     -15.442   7.283   2.149  1.00  0.00     0.368 P 
HETATM    9  O4  UNL     1     -15.801   8.855   1.568  1.00  0.00    -0.629 OA
HETATM   10  O5  UNL     1     -16.778   6.888   1.448  1.00  0.00    -0.629 OA
BRANCH   8  11
HETATM   11  N2  UNL     1     -14.423   6.333   1.295  1.00  0.00    -0.225 N 
ATOM     12  H2  UNL     1     -13.453   6.228   1.595  1.00  0.00     0.178 HD
BRANCH  11  13
HETATM   13  P2  UNL     1     -14.977   5.521  -0.089  1.00  0.00     0.378 P 
HETATM   14  O6  UNL     1     -15.247   4.161   0.590  1.00  0.00    -0.629 OA
HETATM   15  O7  UNL     1     -14.847   6.671  -1.117  1.00  0.00    -0.629 OA
BRANCH  13  16
HETATM   16  O8  UNL     1     -13.822   4.766  -0.958  1.00  0.00    -0.178 OA
BRANCH  16  17
HETATM   17  P3  UNL     1     -14.009   4.104  -2.310  1.00  0.00     0.431 P 
HETATM   18  O9  UNL     1     -15.544   4.486  -2.464  1.00  0.00    -0.616 OA
HETATM   19  O10 UNL     1     -12.773   5.057  -2.931  1.00  0.00    -0.616 OA
HETATM   20  O11 UNL     1     -13.584   2.619  -1.633  1.00  0.00    -0.616 OA
ENDBRANCH  16  17
ENDBRANCH  13  16
ENDBRANCH  11  13
ENDBRANCH   8  11
ENDBRANCH   7   8
ENDBRANCH   6   7
ENDBRANCH   4   6
BRANCH   3  21
HETATM   21  O2  UNL     1     -13.443   9.890   5.179  1.00  0.00    -0.393 OA
ATOM     22  H2  UNL     1     -14.078   9.232   5.435  1.00  0.00     0.210 HD
ENDBRANCH   3  21
BRANCH   1  23
HETATM   23  N1  UNL     1     -13.969  12.668   1.632  1.00  0.00    -0.282 N 
HETATM   24  C3  UNL     1     -15.244  12.240   1.567  1.00  0.00     0.104 A 
HETATM   25  C2  UNL     1     -16.204  13.004   0.940  1.00  0.00     0.092 A 
HETATM   26  C1  UNL     1     -15.872  14.220   0.367  1.00  0.00     0.250 A 
HETATM   27  O1  UNL     1     -16.766  14.909  -0.205  1.00  0.00    -0.268 OA
HETATM   28  N3  UNL     1     -14.596  14.620   0.447  1.00  0.00    -0.275 N 
HETATM   29  C9  UNL     1     -13.690  13.853   1.064  1.00  0.00     0.331 A 
ATOM     30  H3  UNL     1     -14.315  15.510   0.036  1.00  0.00     0.173 HD
HETATM   31  O13 UNL     1     -12.472  14.228   1.144  1.00  0.00    -0.246 OA
ENDBRANCH   1  23
TORSDOF 9
ENDMDL
