MODEL 1
REMARK VINA RESULT: -9.013425881      0.000      0.000
REMARK  9 active torsions:
REMARK  status: ('A' for Active; 'I' for Inactive)
REMARK    1  A    between atoms: N1_5  and  C4_6 
REMARK    2  A    between atoms: C6_8  and  O2_9 
REMARK    3  A    between atoms: C7_11  and  C8_12 
REMARK    4  A    between atoms: C8_12  and  O3_13 
REMARK    5  A    between atoms: O3_13  and  P1_14 
REMARK    6  A    between atoms: P1_14  and  N2_17 
REMARK    7  A    between atoms: N2_17  and  P2_19 
REMARK    8  A    between atoms: P2_19  and  O8_22 
REMARK    9  A    between atoms: O8_22  and  P3_23 
ROOT
HETATM    1  C4  UNL     1     -12.948  11.558   1.850  1.00  0.00     0.235 C 
HETATM    2  C5  UNL     1     -13.095  11.424   3.346  1.00  0.00     0.088 C 
HETATM    3  C6  UNL     1     -13.637  10.013   3.461  1.00  0.00     0.153 C 
HETATM    4  C7  UNL     1     -12.926   9.365   2.282  1.00  0.00     0.177 C 
HETATM    5  O12 UNL     1     -13.095  10.306   1.299  1.00  0.00    -0.356 OA
ENDROOT
BRANCH   4   6
HETATM    6  C8  UNL     1     -13.521   8.053   1.928  1.00  0.00     0.215 C 
BRANCH   6   7
HETATM    7  O3  UNL     1     -14.806   7.872   2.439  1.00  0.00    -0.293 OA
BRANCH   7   8
HETATM    8  P1  UNL     1     -15.973   7.463   1.520  1.00  0.00     0.368 P 
HETATM    9  O4  UNL     1     -16.390   9.124   1.583  1.00  0.00    -0.629 OA
HETATM   10  O5  UNL     1     -17.408   7.285   0.934  1.00  0.00    -0.629 OA
BRANCH   8  11
HETATM   11  N2  UNL     1     -15.114   6.907   0.246  1.00  0.00    -0.225 N 
ATOM     12  H2  UNL     1     -14.797   7.554  -0.477  1.00  0.00     0.178 HD
BRANCH  11  13
HETATM   13  P2  UNL     1     -14.748   5.254   0.124  1.00  0.00     0.378 P 
HETATM   14  O6  UNL     1     -16.205   4.743   0.093  1.00  0.00    -0.629 OA
HETATM   15  O7  UNL     1     -13.203   5.342   0.126  1.00  0.00    -0.629 OA
BRANCH  13  16
HETATM   16  O8  UNL     1     -14.591   4.472   1.547  1.00  0.00    -0.178 OA
BRANCH  16  17
HETATM   17  P3  UNL     1     -14.118   3.044   1.736  1.00  0.00     0.431 P 
HETATM   18  O9  UNL     1     -13.660   2.826   0.230  1.00  0.00    -0.616 OA
HETATM   19  O10 UNL     1     -13.065   3.566   2.936  1.00  0.00    -0.616 OA
HETATM   20  O11 UNL     1     -15.676   2.598   2.205  1.00  0.00    -0.616 OA
ENDBRANCH  16  17
ENDBRANCH  13  16
ENDBRANCH  11  13
ENDBRANCH   8  11
ENDBRANCH   7   8
ENDBRANCH   6   7
ENDBRANCH   4   6
BRANCH   3  21
HETATM   21  O2  UNL     1     -13.276   9.415   4.664  1.00  0.00    -0.393 OA
ATOM     22  H2  UNL     1     -13.772   8.622   4.829  1.00  0.00     0.210 HD
ENDBRANCH   3  21
BRANCH   1  23
HETATM   23  N1  UNL     1     -13.974  12.484   1.398  1.00  0.00    -0.282 N 
HETATM   24  C3  UNL     1     -15.283  12.171   1.446  1.00  0.00     0.104 A 
HETATM   25  C2  UNL     1     -16.230  13.072   1.010  1.00  0.00     0.092 A 
HETATM   26  C1  UNL     1     -15.850  14.309   0.516  1.00  0.00     0.250 A 
HETATM   27  O1  UNL     1     -16.734  15.124   0.120  1.00  0.00    -0.268 OA
HETATM   28  N3  UNL     1     -14.542  14.592   0.480  1.00  0.00    -0.275 N 
HETATM   29  C9  UNL     1     -13.649  13.694   0.913  1.00  0.00     0.331 A 
ATOM     30  H3  UNL     1     -14.226  15.493   0.123  1.00  0.00     0.173 HD
HETATM   31  O13 UNL     1     -12.401  13.957   0.881  1.00  0.00    -0.246 OA
ENDBRANCH   1  23
TORSDOF 9
ENDMDL
