MODEL 9
REMARK VINA RESULT: -8.553908419      1.286      1.941
REMARK  9 active torsions:
REMARK  status: ('A' for Active; 'I' for Inactive)
REMARK    1  A    between atoms: N1_5  and  C4_6 
REMARK    2  A    between atoms: C6_8  and  O2_9 
REMARK    3  A    between atoms: C7_11  and  C8_12 
REMARK    4  A    between atoms: C8_12  and  O3_13 
REMARK    5  A    between atoms: O3_13  and  P1_14 
REMARK    6  A    between atoms: P1_14  and  N2_17 
REMARK    7  A    between atoms: N2_17  and  P2_19 
REMARK    8  A    between atoms: P2_19  and  O8_22 
REMARK    9  A    between atoms: O8_22  and  P3_23 
ROOT
HETATM    1  C4  UNL     1     -13.266  11.215   1.639  1.00  0.00     0.235 C 
HETATM    2  C5  UNL     1     -13.085  11.226   3.138  1.00  0.00     0.088 C 
HETATM    3  C6  UNL     1     -13.866   9.989   3.535  1.00  0.00     0.153 C 
HETATM    4  C7  UNL     1     -13.599   9.112   2.320  1.00  0.00     0.177 C 
HETATM    5  O12 UNL     1     -13.794   9.994   1.288  1.00  0.00    -0.356 OA
ENDROOT
BRANCH   4   6
HETATM    6  C8  UNL     1     -14.519   7.950   2.262  1.00  0.00     0.215 C 
BRANCH   6   7
HETATM    7  O3  UNL     1     -15.512   8.079   1.291  1.00  0.00    -0.293 OA
BRANCH   7   8
HETATM    8  P1  UNL     1     -16.651   7.046   1.182  1.00  0.00     0.368 P 
HETATM    9  O4  UNL     1     -17.666   8.421   1.054  1.00  0.00    -0.629 OA
HETATM   10  O5  UNL     1     -17.986   6.277   1.431  1.00  0.00    -0.629 OA
BRANCH   8  11
HETATM   11  N2  UNL     1     -16.174   6.280  -0.181  1.00  0.00    -0.225 N 
ATOM     12  H2  UNL     1     -16.818   6.189  -0.967  1.00  0.00     0.178 HD
BRANCH  11  13
HETATM   13  P2  UNL     1     -14.607   5.637  -0.289  1.00  0.00     0.378 P 
HETATM   14  O6  UNL     1     -14.137   6.492  -1.485  1.00  0.00    -0.629 OA
HETATM   15  O7  UNL     1     -14.677   4.619   0.876  1.00  0.00    -0.629 OA
BRANCH  13  16
HETATM   16  O8  UNL     1     -14.456   4.338  -1.263  1.00  0.00    -0.178 OA
BRANCH  16  17
HETATM   17  P3  UNL     1     -13.160   3.648  -1.642  1.00  0.00     0.431 P 
HETATM   18  O9  UNL     1     -12.206   4.692  -0.917  1.00  0.00    -0.616 OA
HETATM   19  O10 UNL     1     -13.703   2.247  -0.891  1.00  0.00    -0.616 OA
HETATM   20  O11 UNL     1     -13.534   3.855  -3.273  1.00  0.00    -0.616 OA
ENDBRANCH  16  17
ENDBRANCH  13  16
ENDBRANCH  11  13
ENDBRANCH   8  11
ENDBRANCH   7   8
ENDBRANCH   6   7
ENDBRANCH   4   6
BRANCH   3  21
HETATM   21  O2  UNL     1     -13.367   9.412   4.698  1.00  0.00    -0.393 OA
ATOM     22  H2  UNL     1     -14.022   9.375   5.385  1.00  0.00     0.210 HD
ENDBRANCH   3  21
BRANCH   1  23
HETATM   23  N1  UNL     1     -14.154  12.317   1.305  1.00  0.00    -0.282 N 
HETATM   24  C3  UNL     1     -15.491  12.209   1.418  1.00  0.00     0.104 A 
HETATM   25  C2  UNL     1     -16.305  13.274   1.093  1.00  0.00     0.092 A 
HETATM   26  C1  UNL     1     -15.760  14.465   0.646  1.00  0.00     0.250 A 
HETATM   27  O1  UNL     1     -16.522  15.432   0.351  1.00  0.00    -0.268 OA
HETATM   28  N3  UNL     1     -14.427  14.542   0.543  1.00  0.00    -0.275 N 
HETATM   29  C9  UNL     1     -13.667  13.490   0.868  1.00  0.00     0.331 A 
ATOM     30  H3  UNL     1     -13.990  15.405   0.217  1.00  0.00     0.173 HD
HETATM   31  O13 UNL     1     -12.396  13.557   0.772  1.00  0.00    -0.246 OA
ENDBRANCH   1  23
TORSDOF 9
ENDMDL
