MODEL 4
REMARK VINA RESULT: -8.475901000      2.542      3.589
REMARK  1 active torsions:
REMARK  status: ('A' for Active; 'I' for Inactive)
REMARK    1  A    between atoms: C16_19  and  C17_20 
ROOT
HETATM    1  C1  UNL     1       3.797   7.825  14.688  1.00  0.00     0.069 C 
HETATM    2  C2  UNL     1       3.830   7.618  16.180  1.00  0.00     0.023 A 
HETATM    3  N1  UNL     1       2.965   6.804  16.792  1.00  0.00    -0.358 N 
ATOM      4  H1  UNL     1       2.266   6.312  16.236  1.00  0.00     0.166 HD
HETATM    5  C3  UNL     1       2.993   6.620  18.113  1.00  0.00     0.043 A 
HETATM    6  C4  UNL     1       2.083   5.763  18.725  1.00  0.00     0.032 A 
HETATM    7  C5  UNL     1       2.151   5.602  20.082  1.00  0.00     0.026 A 
HETATM    8  C6  UNL     1       3.089   6.259  20.853  1.00  0.00     0.035 A 
HETATM    9 CL1  UNL     1       3.186   6.057  22.587  1.00  0.00    -0.084 Cl
HETATM   10  C7  UNL     1       3.989   7.104  20.263  1.00  0.00     0.038 A 
HETATM   11  C8  UNL     1       3.940   7.284  18.892  1.00  0.00     0.004 A 
HETATM   12  C9  UNL     1       4.860   8.140  18.282  1.00  0.00     0.006 A 
HETATM   13  C10 UNL     1       5.839   8.806  19.109  1.00  0.00    -0.024 A 
HETATM   14  C11 UNL     1       6.867   8.009  19.637  1.00  0.00     0.012 A 
HETATM   15  C12 UNL     1       7.870   8.523  20.431  1.00  0.00     0.001 A 
HETATM   16  C13 UNL     1       7.889   9.867  20.734  1.00  0.00     0.000 A 
HETATM   17  C14 UNL     1       6.890  10.655  20.221  1.00  0.00     0.001 A 
HETATM   18  C15 UNL     1       5.885  10.132  19.424  1.00  0.00     0.012 A 
HETATM   19  C16 UNL     1       4.784   8.292  16.924  1.00  0.00     0.074 A 
ENDROOT
BRANCH  19  20
HETATM   20  C17 UNL     1       5.738   9.199  16.287  1.00  0.00     0.212 C 
HETATM   21  O1  UNL     1       6.859   8.759  15.964  1.00  0.00    -0.644 OA
HETATM   22  O2  UNL     1       5.357  10.533  16.061  1.00  0.00    -0.644 OA
ENDBRANCH  19  20
TORSDOF 1
ENDMDL
