MODEL 6
REMARK VINA RESULT: -7.970845267      3.077      4.490
REMARK  1 active torsions:
REMARK  status: ('A' for Active; 'I' for Inactive)
REMARK    1  A    between atoms: C16_19  and  C17_20 
ROOT
HETATM    1  C1  UNL     1       3.603   6.491  24.086  1.00  0.00     0.069 C 
HETATM    2  C2  UNL     1       3.649   6.536  22.581  1.00  0.00     0.023 A 
HETATM    3  N1  UNL     1       2.673   6.008  21.836  1.00  0.00    -0.358 N 
ATOM      4  H1  UNL     1       1.879   5.565  22.297  1.00  0.00     0.166 HD
HETATM    5  C3  UNL     1       2.713   6.046  20.502  1.00  0.00     0.043 A 
HETATM    6  C4  UNL     1       1.683   5.493  19.750  1.00  0.00     0.032 A 
HETATM    7  C5  UNL     1       1.764   5.559  18.386  1.00  0.00     0.026 A 
HETATM    8  C6  UNL     1       2.831   6.152  17.742  1.00  0.00     0.035 A 
HETATM    9 CL1  UNL     1       2.941   6.244  16.000  1.00  0.00    -0.084 Cl
HETATM   10  C7  UNL     1       3.851   6.701  18.471  1.00  0.00     0.038 A 
HETATM   11  C8  UNL     1       3.791   6.647  19.852  1.00  0.00     0.004 A 
HETATM   12  C9  UNL     1       4.826   7.209  20.603  1.00  0.00     0.006 A 
HETATM   13  C10 UNL     1       5.925   7.836  19.906  1.00  0.00    -0.024 A 
HETATM   14  C11 UNL     1       5.657   9.063  19.277  1.00  0.00     0.012 A 
HETATM   15  C12 UNL     1       6.620   9.770  18.590  1.00  0.00     0.001 A 
HETATM   16  C13 UNL     1       7.903   9.277  18.500  1.00  0.00     0.000 A 
HETATM   17  C14 UNL     1       8.177   8.079  19.112  1.00  0.00     0.001 A 
HETATM   18  C15 UNL     1       7.204   7.375  19.801  1.00  0.00     0.012 A 
HETATM   19  C16 UNL     1       4.733   7.140  21.967  1.00  0.00     0.074 A 
ENDROOT
BRANCH  19  20
HETATM   20  C17 UNL     1       5.824   7.717  22.753  1.00  0.00     0.212 C 
HETATM   21  O1  UNL     1       5.835   8.947  22.947  1.00  0.00    -0.644 OA
HETATM   22  O2  UNL     1       6.818   6.862  23.261  1.00  0.00    -0.644 OA
ENDBRANCH  19  20
TORSDOF 1
ENDMDL
