MODEL 5
REMARK VINA RESULT: -8.409733277      3.190      4.636
REMARK  1 active torsions:
REMARK  status: ('A' for Active; 'I' for Inactive)
REMARK    1  A    between atoms: C16_19  and  C17_20 
ROOT
HETATM    1  C1  UNL     1       6.674   7.720  23.283  1.00  0.00     0.069 C 
HETATM    2  C2  UNL     1       5.647   7.567  22.192  1.00  0.00     0.023 A 
HETATM    3  N1  UNL     1       4.734   6.591  22.223  1.00  0.00    -0.358 N 
ATOM      4  H1  UNL     1       4.732   5.936  23.005  1.00  0.00     0.166 HD
HETATM    5  C3  UNL     1       3.824   6.454  21.256  1.00  0.00     0.043 A 
HETATM    6  C4  UNL     1       2.882   5.432  21.315  1.00  0.00     0.032 A 
HETATM    7  C5  UNL     1       1.966   5.331  20.304  1.00  0.00     0.026 A 
HETATM    8  C6  UNL     1       1.952   6.207  19.237  1.00  0.00     0.035 A 
HETATM    9 CL1  UNL     1       0.783   6.088  17.942  1.00  0.00    -0.084 Cl
HETATM   10  C7  UNL     1       2.873   7.216  19.168  1.00  0.00     0.038 A 
HETATM   11  C8  UNL     1       3.810   7.339  20.178  1.00  0.00     0.004 A 
HETATM   12  C9  UNL     1       4.750   8.370  20.117  1.00  0.00     0.006 A 
HETATM   13  C10 UNL     1       4.707   9.281  18.997  1.00  0.00    -0.024 A 
HETATM   14  C11 UNL     1       3.640  10.194  18.966  1.00  0.00     0.012 A 
HETATM   15  C12 UNL     1       3.489  11.124  17.960  1.00  0.00     0.001 A 
HETATM   16  C13 UNL     1       4.404  11.181  16.933  1.00  0.00     0.000 A 
HETATM   17  C14 UNL     1       5.451  10.294  16.954  1.00  0.00     0.001 A 
HETATM   18  C15 UNL     1       5.597   9.363  17.968  1.00  0.00     0.012 A 
HETATM   19  C16 UNL     1       5.660   8.463  21.136  1.00  0.00     0.074 A 
ENDROOT
BRANCH  19  20
HETATM   20  C17 UNL     1       6.654   9.534  21.064  1.00  0.00     0.212 C 
HETATM   21  O1  UNL     1       6.335  10.671  21.461  1.00  0.00    -0.644 OA
HETATM   22  O2  UNL     1       7.930   9.242  20.552  1.00  0.00    -0.644 OA
ENDBRANCH  19  20
TORSDOF 1
ENDMDL
