MODEL 2
REMARK VINA RESULT: -9.112569806      1.749      4.281
REMARK  1 active torsions:
REMARK  status: ('A' for Active; 'I' for Inactive)
REMARK    1  A    between atoms: C16_19  and  C17_20 
ROOT
HETATM    1  C1  UNL     1       6.979   7.694  17.045  1.00  0.00     0.069 C 
HETATM    2  C2  UNL     1       6.118   7.447  18.256  1.00  0.00     0.023 A 
HETATM    3  N1  UNL     1       6.562   7.699  19.492  1.00  0.00    -0.358 N 
ATOM      4  H1  UNL     1       7.505   8.067  19.616  1.00  0.00     0.166 HD
HETATM    5  C3  UNL     1       5.801   7.480  20.566  1.00  0.00     0.043 A 
HETATM    6  C4  UNL     1       6.286   7.754  21.841  1.00  0.00     0.032 A 
HETATM    7  C5  UNL     1       5.470   7.518  22.913  1.00  0.00     0.026 A 
HETATM    8  C6  UNL     1       4.191   7.019  22.766  1.00  0.00     0.035 A 
HETATM    9 CL1  UNL     1       3.140   6.718  24.130  1.00  0.00    -0.084 Cl
HETATM   10  C7  UNL     1       3.703   6.746  21.517  1.00  0.00     0.038 A 
HETATM   11  C8  UNL     1       4.509   6.976  20.417  1.00  0.00     0.004 A 
HETATM   12  C9  UNL     1       4.015   6.705  19.139  1.00  0.00     0.006 A 
HETATM   13  C10 UNL     1       2.670   6.196  19.010  1.00  0.00    -0.024 A 
HETATM   14  C11 UNL     1       1.626   7.098  19.269  1.00  0.00     0.012 A 
HETATM   15  C12 UNL     1       0.297   6.743  19.170  1.00  0.00     0.001 A 
HETATM   16  C13 UNL     1      -0.047   5.460  18.807  1.00  0.00     0.000 A 
HETATM   17  C14 UNL     1       0.966   4.570  18.551  1.00  0.00     0.001 A 
HETATM   18  C15 UNL     1       2.298   4.934  18.652  1.00  0.00     0.012 A 
HETATM   19  C16 UNL     1       4.840   6.947  18.073  1.00  0.00     0.074 A 
ENDROOT
BRANCH  19  20
HETATM   20  C17 UNL     1       4.328   6.650  16.736  1.00  0.00     0.212 C 
HETATM   21  O1  UNL     1       4.693   5.598  16.177  1.00  0.00    -0.644 OA
HETATM   22  O2  UNL     1       3.443   7.559  16.131  1.00  0.00    -0.644 OA
ENDBRANCH  19  20
TORSDOF 1
ENDMDL
