MODEL 2
REMARK VINA RESULT: -10.002339452      0.231      1.006
REMARK  2 active torsions:
REMARK  status: ('A' for Active; 'I' for Inactive)
REMARK    1  A    between atoms: C1_2  and  C2_4 
REMARK    2  A    between atoms: C3_5  and  N1_6 
ROOT
HETATM    1  C2  UNL     1       4.420   6.780  18.508  1.00  0.00     0.096 A 
HETATM    2  C3  UNL     1       5.623   7.352  18.804  1.00  0.00     0.122 A 
HETATM    3  N2  UNL     1       6.014   7.574  20.095  1.00  0.00    -0.341 N 
ATOM      4  H2  UNL     1       6.917   8.002  20.296  1.00  0.00     0.167 HD
HETATM    5  C9  UNL     1       5.185   7.216  21.101  1.00  0.00     0.044 A 
HETATM    6  C10 UNL     1       5.546   7.429  22.426  1.00  0.00     0.032 A 
HETATM    7  C11 UNL     1       4.741   7.089  23.494  1.00  0.00     0.026 A 
HETATM    8  C12 UNL     1       3.521   6.511  23.246  1.00  0.00     0.035 A 
HETATM    9 CL1  UNL     1       2.479   6.068  24.567  1.00  0.00    -0.084 Cl
HETATM   10  C13 UNL     1       3.137   6.288  21.960  1.00  0.00     0.038 A 
HETATM   11  C14 UNL     1       3.954   6.635  20.888  1.00  0.00     0.004 A 
HETATM   12  C15 UNL     1       3.599   6.428  19.563  1.00  0.00     0.007 A 
HETATM   13  C16 UNL     1       2.309   5.817  19.326  1.00  0.00    -0.024 A 
HETATM   14  C17 UNL     1       1.255   6.589  18.899  1.00  0.00     0.012 A 
HETATM   15  C18 UNL     1       0.016   6.026  18.679  1.00  0.00     0.001 A 
HETATM   16  C19 UNL     1      -0.197   4.686  18.880  1.00  0.00     0.000 A 
HETATM   17  C20 UNL     1       0.871   3.906  19.311  1.00  0.00     0.001 A 
HETATM   18  C21 UNL     1       2.102   4.477  19.528  1.00  0.00     0.012 A 
ENDROOT
BRANCH   2  19
HETATM   19  N1  UNL     1       6.510   7.767  17.774  1.00  0.00    -0.366 N 
HETATM   20  C4  UNL     1       7.259   6.757  17.076  1.00  0.00     0.124 C 
HETATM   21  C5  UNL     1       8.467   7.289  16.374  1.00  0.00     0.020 C 
HETATM   22  C6  UNL     1       8.068   8.542  15.623  1.00  0.00     0.003 C 
HETATM   23  C7  UNL     1       7.744   9.588  16.651  1.00  0.00     0.020 C 
HETATM   24  C8  UNL     1       6.585   9.192  17.534  1.00  0.00     0.124 C 
ENDBRANCH   2  19
BRANCH   1  25
HETATM   25  C1  UNL     1       3.987   6.523  17.145  1.00  0.00     0.214 C 
HETATM   26  O1  UNL     1       3.476   7.373  16.371  1.00  0.00    -0.644 OA
HETATM   27  O2  UNL     1       4.136   5.227  16.609  1.00  0.00    -0.644 OA
ENDBRANCH   1  25
TORSDOF 2
ENDMDL
