MODEL 3
REMARK VINA RESULT: -9.445762269      3.223      5.273
REMARK  2 active torsions:
REMARK  status: ('A' for Active; 'I' for Inactive)
REMARK    1  A    between atoms: C1_2  and  C2_4 
REMARK    2  A    between atoms: C3_5  and  N1_6 
ROOT
HETATM    1  C2  UNL     1       4.513   9.512  18.574  1.00  0.00     0.096 A 
HETATM    2  C3  UNL     1       3.743   9.729  17.468  1.00  0.00     0.122 A 
HETATM    3  N2  UNL     1       2.859   8.791  17.013  1.00  0.00    -0.341 N 
ATOM      4  H2  UNL     1       2.292   8.973  16.185  1.00  0.00     0.167 HD
HETATM    5  C9  UNL     1       2.748   7.619  17.678  1.00  0.00     0.044 A 
HETATM    6  C10 UNL     1       1.863   6.639  17.243  1.00  0.00     0.032 A 
HETATM    7  C11 UNL     1       1.710   5.424  17.877  1.00  0.00     0.026 A 
HETATM    8  C12 UNL     1       2.462   5.158  18.993  1.00  0.00     0.035 A 
HETATM    9 CL1  UNL     1       2.295   3.636  19.820  1.00  0.00    -0.084 Cl
HETATM   10  C13 UNL     1       3.338   6.096  19.446  1.00  0.00     0.038 A 
HETATM   11  C14 UNL     1       3.488   7.320  18.800  1.00  0.00     0.004 A 
HETATM   12  C15 UNL     1       4.372   8.301  19.227  1.00  0.00     0.007 A 
HETATM   13  C16 UNL     1       5.155   8.000  20.405  1.00  0.00    -0.024 A 
HETATM   14  C17 UNL     1       6.480   7.658  20.277  1.00  0.00     0.012 A 
HETATM   15  C18 UNL     1       7.239   7.356  21.388  1.00  0.00     0.001 A 
HETATM   16  C19 UNL     1       6.693   7.389  22.646  1.00  0.00     0.000 A 
HETATM   17  C20 UNL     1       5.352   7.736  22.775  1.00  0.00     0.001 A 
HETATM   18  C21 UNL     1       4.605   8.035  21.660  1.00  0.00     0.012 A 
ENDROOT
BRANCH   2  19
HETATM   19  N1  UNL     1       3.851  10.937  16.728  1.00  0.00    -0.366 N 
HETATM   20  C4  UNL     1       3.430  12.160  17.358  1.00  0.00     0.124 C 
HETATM   21  C5  UNL     1       3.137  13.259  16.388  1.00  0.00     0.020 C 
HETATM   22  C6  UNL     1       4.263  13.317  15.377  1.00  0.00     0.003 C 
HETATM   23  C7  UNL     1       4.181  12.063  14.554  1.00  0.00     0.020 C 
HETATM   24  C8  UNL     1       4.367  10.814  15.381  1.00  0.00     0.124 C 
ENDBRANCH   2  19
BRANCH   1  25
HETATM   25  C1  UNL     1       5.451  10.498  19.084  1.00  0.00     0.214 C 
HETATM   26  O1  UNL     1       5.244  11.259  20.064  1.00  0.00    -0.644 OA
HETATM   27  O2  UNL     1       6.705  10.643  18.457  1.00  0.00    -0.644 OA
ENDBRANCH   1  25
TORSDOF 2
ENDMDL
