MODEL 1
REMARK VINA RESULT: -10.059252078      0.000      0.000
REMARK  2 active torsions:
REMARK  status: ('A' for Active; 'I' for Inactive)
REMARK    1  A    between atoms: C1_2  and  C2_4 
REMARK    2  A    between atoms: C3_5  and  N1_6 
ROOT
HETATM    1  C2  UNL     1       4.485   6.795  18.582  1.00  0.00     0.096 A 
HETATM    2  C3  UNL     1       5.682   7.362  18.914  1.00  0.00     0.122 A 
HETATM    3  N2  UNL     1       6.041   7.570  20.217  1.00  0.00    -0.341 N 
ATOM      4  H2  UNL     1       6.939   7.995  20.444  1.00  0.00     0.167 HD
HETATM    5  C9  UNL     1       5.185   7.204  21.198  1.00  0.00     0.044 A 
HETATM    6  C10 UNL     1       5.513   7.405  22.534  1.00  0.00     0.032 A 
HETATM    7  C11 UNL     1       4.681   7.056  23.577  1.00  0.00     0.026 A 
HETATM    8  C12 UNL     1       3.467   6.482  23.294  1.00  0.00     0.035 A 
HETATM    9 CL1  UNL     1       2.391   6.028  24.584  1.00  0.00    -0.084 Cl
HETATM   10  C13 UNL     1       3.115   6.272  21.996  1.00  0.00     0.038 A 
HETATM   11  C14 UNL     1       3.960   6.628  20.949  1.00  0.00     0.004 A 
HETATM   12  C15 UNL     1       3.637   6.434  19.613  1.00  0.00     0.007 A 
HETATM   13  C16 UNL     1       2.354   5.828  19.337  1.00  0.00    -0.024 A 
HETATM   14  C17 UNL     1       1.311   6.605  18.891  1.00  0.00     0.012 A 
HETATM   15  C18 UNL     1       0.077   6.047  18.635  1.00  0.00     0.001 A 
HETATM   16  C19 UNL     1      -0.143   4.706  18.817  1.00  0.00     0.000 A 
HETATM   17  C20 UNL     1       0.913   3.919  19.268  1.00  0.00     0.001 A 
HETATM   18  C21 UNL     1       2.139   4.486  19.521  1.00  0.00     0.012 A 
ENDROOT
BRANCH   2  19
HETATM   19  N1  UNL     1       6.595   7.784  17.911  1.00  0.00    -0.366 N 
HETATM   20  C4  UNL     1       6.752   9.197  17.687  1.00  0.00     0.124 C 
HETATM   21  C5  UNL     1       7.339   9.527  16.353  1.00  0.00     0.020 C 
HETATM   22  C6  UNL     1       8.529   8.620  16.117  1.00  0.00     0.003 C 
HETATM   23  C7  UNL     1       7.996   7.226  15.954  1.00  0.00     0.020 C 
HETATM   24  C8  UNL     1       7.278   6.733  17.187  1.00  0.00     0.124 C 
ENDBRANCH   2  19
BRANCH   1  25
HETATM   25  C1  UNL     1       4.087   6.551  17.206  1.00  0.00     0.214 C 
HETATM   26  O1  UNL     1       3.623   7.416  16.419  1.00  0.00    -0.644 OA
HETATM   27  O2  UNL     1       4.216   5.253  16.672  1.00  0.00    -0.644 OA
ENDBRANCH   1  25
TORSDOF 2
ENDMDL
