MODEL 5
REMARK VINA RESULT: -9.091316445      1.910      5.627
REMARK  2 active torsions:
REMARK  status: ('A' for Active; 'I' for Inactive)
REMARK    1  A    between atoms: C1_2  and  C2_4 
REMARK    2  A    between atoms: C3_5  and  N1_6 
ROOT
HETATM    1  C2  UNL     1       4.103   6.890  18.904  1.00  0.00     0.096 A 
HETATM    2  C3  UNL     1       3.248   6.313  19.797  1.00  0.00     0.122 A 
HETATM    3  N2  UNL     1       3.518   6.289  21.137  1.00  0.00    -0.341 N 
ATOM      4  H2  UNL     1       2.866   5.854  21.789  1.00  0.00     0.167 HD
HETATM    5  C9  UNL     1       4.664   6.852  21.585  1.00  0.00     0.044 A 
HETATM    6  C10 UNL     1       4.975   6.842  22.939  1.00  0.00     0.032 A 
HETATM    7  C11 UNL     1       6.129   7.396  23.453  1.00  0.00     0.026 A 
HETATM    8  C12 UNL     1       7.020   7.987  22.595  1.00  0.00     0.035 A 
HETATM    9 CL1  UNL     1       8.487   8.697  23.207  1.00  0.00    -0.084 Cl
HETATM   10  C13 UNL     1       6.746   8.014  21.262  1.00  0.00     0.038 A 
HETATM   11  C14 UNL     1       5.580   7.452  20.750  1.00  0.00     0.004 A 
HETATM   12  C15 UNL     1       5.265   7.454  19.399  1.00  0.00     0.007 A 
HETATM   13  C16 UNL     1       6.218   8.084  18.512  1.00  0.00    -0.024 A 
HETATM   14  C17 UNL     1       7.049   7.307  17.739  1.00  0.00     0.012 A 
HETATM   15  C18 UNL     1       7.972   7.889  16.896  1.00  0.00     0.001 A 
HETATM   16  C19 UNL     1       8.086   9.253  16.808  1.00  0.00     0.000 A 
HETATM   17  C20 UNL     1       7.245  10.038  17.590  1.00  0.00     0.001 A 
HETATM   18  C21 UNL     1       6.328   9.447  18.427  1.00  0.00     0.012 A 
ENDROOT
BRANCH   2  19
HETATM   19  N1  UNL     1       2.048   5.689  19.363  1.00  0.00    -0.366 N 
HETATM   20  C4  UNL     1       2.051   4.261  19.186  1.00  0.00     0.124 C 
HETATM   21  C5  UNL     1       0.948   3.767  18.306  1.00  0.00     0.020 C 
HETATM   22  C6  UNL     1      -0.340   4.440  18.733  1.00  0.00     0.003 C 
HETATM   23  C7  UNL     1      -0.212   5.896  18.388  1.00  0.00     0.020 C 
HETATM   24  C8  UNL     1       0.924   6.567  19.121  1.00  0.00     0.124 C 
ENDBRANCH   2  19
BRANCH   1  25
HETATM   25  C1  UNL     1       3.832   6.940  17.477  1.00  0.00     0.214 C 
HETATM   26  O1  UNL     1       3.342   7.923  16.864  1.00  0.00    -0.644 OA
HETATM   27  O2  UNL     1       4.130   5.815  16.681  1.00  0.00    -0.644 OA
ENDBRANCH   1  25
TORSDOF 2
ENDMDL
