MODEL 6
REMARK VINA RESULT: -9.081528133      3.314      5.434
REMARK  2 active torsions:
REMARK  status: ('A' for Active; 'I' for Inactive)
REMARK    1  A    between atoms: C1_2  and  C2_4 
REMARK    2  A    between atoms: C3_5  and  N1_6 
ROOT
HETATM    1  C2  UNL     1       4.416   9.656  18.428  1.00  0.00     0.096 A 
HETATM    2  C3  UNL     1       3.543   9.867  17.399  1.00  0.00     0.122 A 
HETATM    3  N2  UNL     1       2.620   8.925  17.036  1.00  0.00    -0.341 N 
ATOM      4  H2  UNL     1       1.977   9.102  16.265  1.00  0.00     0.167 HD
HETATM    5  C9  UNL     1       2.575   7.757  17.715  1.00  0.00     0.044 A 
HETATM    6  C10 UNL     1       1.654   6.774  17.372  1.00  0.00     0.032 A 
HETATM    7  C11 UNL     1       1.563   5.562  18.025  1.00  0.00     0.026 A 
HETATM    8  C12 UNL     1       2.418   5.304  19.066  1.00  0.00     0.035 A 
HETATM    9 CL1  UNL     1       2.333   3.786  19.913  1.00  0.00    -0.084 Cl
HETATM   10  C13 UNL     1       3.333   6.244  19.428  1.00  0.00     0.038 A 
HETATM   11  C14 UNL     1       3.419   7.465  18.763  1.00  0.00     0.004 A 
HETATM   12  C15 UNL     1       4.339   8.449  19.098  1.00  0.00     0.007 A 
HETATM   13  C16 UNL     1       5.230   8.155  20.198  1.00  0.00    -0.024 A 
HETATM   14  C17 UNL     1       6.538   7.813  19.946  1.00  0.00     0.012 A 
HETATM   15  C18 UNL     1       7.399   7.518  20.981  1.00  0.00     0.001 A 
HETATM   16  C19 UNL     1       6.976   7.558  22.286  1.00  0.00     0.000 A 
HETATM   17  C20 UNL     1       5.653   7.905  22.540  1.00  0.00     0.001 A 
HETATM   18  C21 UNL     1       4.803   8.197  21.500  1.00  0.00     0.012 A 
ENDROOT
BRANCH   2  19
HETATM   19  N1  UNL     1       3.578  11.070  16.645  1.00  0.00    -0.366 N 
HETATM   20  C4  UNL     1       4.122  11.021  15.314  1.00  0.00     0.124 C 
HETATM   21  C5  UNL     1       4.547  12.357  14.795  1.00  0.00     0.020 C 
HETATM   22  C6  UNL     1       3.448  13.356  15.091  1.00  0.00     0.003 C 
HETATM   23  C7  UNL     1       3.403  13.533  16.582  1.00  0.00     0.020 C 
HETATM   24  C8  UNL     1       3.070  12.252  17.307  1.00  0.00     0.124 C 
ENDBRANCH   2  19
BRANCH   1  25
HETATM   25  C1  UNL     1       5.396  10.645  18.841  1.00  0.00     0.214 C 
HETATM   26  O1  UNL     1       5.269  11.433  19.812  1.00  0.00    -0.644 OA
HETATM   27  O2  UNL     1       6.601  10.761  18.119  1.00  0.00    -0.644 OA
ENDBRANCH   1  25
TORSDOF 2
ENDMDL
