MODEL 4
REMARK VINA RESULT: -9.180609134      1.306      1.531
REMARK  2 active torsions:
REMARK  status: ('A' for Active; 'I' for Inactive)
REMARK    1  A    between atoms: C1_2  and  C2_4 
REMARK    2  A    between atoms: C3_5  and  N1_6 
ROOT
HETATM    1  C2  UNL     1       4.281   6.433  17.501  1.00  0.00     0.096 A 
HETATM    2  C3  UNL     1       5.485   7.071  17.426  1.00  0.00     0.122 A 
HETATM    3  N2  UNL     1       6.114   7.550  18.542  1.00  0.00    -0.341 N 
ATOM      4  H2  UNL     1       7.014   8.024  18.466  1.00  0.00     0.167 HD
HETATM    5  C9  UNL     1       5.525   7.384  19.748  1.00  0.00     0.044 A 
HETATM    6  C10 UNL     1       6.132   7.861  20.904  1.00  0.00     0.032 A 
HETATM    7  C11 UNL     1       5.578   7.726  22.160  1.00  0.00     0.026 A 
HETATM    8  C12 UNL     1       4.369   7.091  22.286  1.00  0.00     0.035 A 
HETATM    9 CL1  UNL     1       3.639   6.901  23.854  1.00  0.00    -0.084 Cl
HETATM   10  C13 UNL     1       3.747   6.612  21.174  1.00  0.00     0.038 A 
HETATM   11  C14 UNL     1       4.312   6.753  19.910  1.00  0.00     0.004 A 
HETATM   12  C15 UNL     1       3.710   6.283  18.751  1.00  0.00     0.007 A 
HETATM   13  C16 UNL     1       2.436   5.616  18.908  1.00  0.00    -0.024 A 
HETATM   14  C17 UNL     1       1.275   6.272  18.571  1.00  0.00     0.012 A 
HETATM   15  C18 UNL     1       0.050   5.657  18.725  1.00  0.00     0.001 A 
HETATM   16  C19 UNL     1      -0.042   4.380  19.216  1.00  0.00     0.000 A 
HETATM   17  C20 UNL     1       1.133   3.717  19.556  1.00  0.00     0.001 A 
HETATM   18  C21 UNL     1       2.349   4.340  19.399  1.00  0.00     0.012 A 
ENDROOT
BRANCH   2  19
HETATM   19  N1  UNL     1       6.122   7.288  16.175  1.00  0.00    -0.366 N 
HETATM   20  C4  UNL     1       5.739   8.445  15.409  1.00  0.00     0.124 C 
HETATM   21  C5  UNL     1       6.088   8.342  13.960  1.00  0.00     0.020 C 
HETATM   22  C6  UNL     1       7.511   7.838  13.846  1.00  0.00     0.003 C 
HETATM   23  C7  UNL     1       7.517   6.417  14.332  1.00  0.00     0.020 C 
HETATM   24  C8  UNL     1       7.100   6.298  15.778  1.00  0.00     0.124 C 
ENDBRANCH   2  19
BRANCH   1  25
HETATM   25  C1  UNL     1       3.599   5.904  16.332  1.00  0.00     0.214 C 
HETATM   26  O1  UNL     1       2.688   6.492  15.694  1.00  0.00    -0.644 OA
HETATM   27  O2  UNL     1       3.958   4.632  15.843  1.00  0.00    -0.644 OA
ENDBRANCH   1  25
TORSDOF 2
ENDMDL
