MODEL 7
REMARK VINA RESULT: -7.644288360      2.962      4.604
REMARK  9 active torsions:
REMARK  status: ('A' for Active; 'I' for Inactive)
REMARK    1  A    between atoms: N1_5  and  C4_6 
REMARK    2  A    between atoms: C6_8  and  O2_9 
REMARK    3  A    between atoms: C7_11  and  C8_12 
REMARK    4  A    between atoms: C8_12  and  O3_13 
REMARK    5  A    between atoms: O3_13  and  P1_14 
REMARK    6  A    between atoms: P1_14  and  N2_17 
REMARK    7  A    between atoms: N2_17  and  P2_19 
REMARK    8  A    between atoms: P2_19  and  O8_22 
REMARK    9  A    between atoms: O8_22  and  P3_23 
ROOT
HETATM    1  C4  UNL     1      18.339  -5.177   1.797  1.00  0.00     0.235 C 
HETATM    2  C5  UNL     1      19.020  -6.465   1.400  1.00  0.00     0.088 C 
HETATM    3  C6  UNL     1      18.401  -6.714   0.039  1.00  0.00     0.153 C 
HETATM    4  C7  UNL     1      18.226  -5.278  -0.433  1.00  0.00     0.177 C 
HETATM    5  O12 UNL     1      17.705  -4.677   0.684  1.00  0.00    -0.356 OA
ENDROOT
BRANCH   4   6
HETATM    6  C8  UNL     1      17.324  -5.186  -1.607  1.00  0.00     0.215 C 
BRANCH   6   7
HETATM    7  O3  UNL     1      17.101  -6.413  -2.232  1.00  0.00    -0.293 OA
BRANCH   7   8
HETATM    8  P1  UNL     1      15.683  -6.836  -2.662  1.00  0.00     0.368 P 
HETATM    9  O4  UNL     1      16.242  -6.503  -4.248  1.00  0.00    -0.629 OA
HETATM   10  O5  UNL     1      14.272  -6.834  -3.327  1.00  0.00    -0.629 OA
BRANCH   8  11
HETATM   11  N2  UNL     1      15.700  -8.379  -2.121  1.00  0.00    -0.225 N 
ATOM     12  H2  UNL     1      16.541  -8.947  -2.227  1.00  0.00     0.178 HD
BRANCH  11  13
HETATM   13  P2  UNL     1      14.319  -9.036  -1.385  1.00  0.00     0.378 P 
HETATM   14  O6  UNL     1      14.220  -8.014  -0.231  1.00  0.00    -0.629 OA
HETATM   15  O7  UNL     1      14.067 -10.222  -2.347  1.00  0.00    -0.629 OA
BRANCH  13  16
HETATM   16  O8  UNL     1      14.612 -10.168  -0.248  1.00  0.00    -0.178 OA
BRANCH  16  17
HETATM   17  P3  UNL     1      13.592 -11.110   0.361  1.00  0.00     0.431 P 
HETATM   18  O9  UNL     1      12.340 -10.514  -0.416  1.00  0.00    -0.616 OA
HETATM   19  O10 UNL     1      14.476 -12.417  -0.216  1.00  0.00    -0.616 OA
HETATM   20  O11 UNL     1      13.975 -10.524   1.895  1.00  0.00    -0.616 OA
ENDBRANCH  16  17
ENDBRANCH  13  16
ENDBRANCH  11  13
ENDBRANCH   8  11
ENDBRANCH   7   8
ENDBRANCH   6   7
ENDBRANCH   4   6
BRANCH   3  21
HETATM   21  O2  UNL     1      19.258  -7.424  -0.797  1.00  0.00    -0.393 OA
ATOM     22  H2  UNL     1      18.785  -8.025  -1.361  1.00  0.00     0.210 HD
ENDBRANCH   3  21
BRANCH   1  23
HETATM   23  N1  UNL     1      17.407  -5.495   2.867  1.00  0.00    -0.282 N 
HETATM   24  C3  UNL     1      16.104  -5.169   2.793  1.00  0.00     0.104 A 
HETATM   25  C2  UNL     1      15.247  -5.485   3.826  1.00  0.00     0.092 A 
HETATM   26  C1  UNL     1      15.715  -6.139   4.952  1.00  0.00     0.250 A 
HETATM   27  O1  UNL     1      14.914  -6.421   5.891  1.00  0.00    -0.268 OA
HETATM   28  N3  UNL     1      17.016  -6.450   4.998  1.00  0.00    -0.275 N 
HETATM   29  C9  UNL     1      17.819  -6.130   3.977  1.00  0.00     0.331 A 
ATOM     30  H3  UNL     1      17.395  -6.933   5.813  1.00  0.00     0.173 HD
HETATM   31  O13 UNL     1      19.061  -6.423   4.015  1.00  0.00    -0.246 OA
ENDBRANCH   1  23
TORSDOF 9
ENDMDL
