MODEL 6
REMARK VINA RESULT: -7.672477675      0.904      1.342
REMARK  9 active torsions:
REMARK  status: ('A' for Active; 'I' for Inactive)
REMARK    1  A    between atoms: N1_5  and  C4_6 
REMARK    2  A    between atoms: C6_8  and  O2_9 
REMARK    3  A    between atoms: C7_11  and  C8_12 
REMARK    4  A    between atoms: C8_12  and  O3_13 
REMARK    5  A    between atoms: O3_13  and  P1_14 
REMARK    6  A    between atoms: P1_14  and  N2_17 
REMARK    7  A    between atoms: N2_17  and  P2_19 
REMARK    8  A    between atoms: P2_19  and  O8_22 
REMARK    9  A    between atoms: O8_22  and  P3_23 
ROOT
HETATM    1  C4  UNL     1      16.787  -5.598  -1.239  1.00  0.00     0.235 C 
HETATM    2  C5  UNL     1      16.937  -5.679  -2.739  1.00  0.00     0.088 C 
HETATM    3  C6  UNL     1      16.074  -6.884  -3.054  1.00  0.00     0.153 C 
HETATM    4  C7  UNL     1      15.006  -6.726  -1.981  1.00  0.00     0.177 C 
HETATM    5  O12 UNL     1      15.761  -6.437  -0.873  1.00  0.00    -0.356 OA
ENDROOT
BRANCH   4   6
HETATM    6  C8  UNL     1      14.196  -7.959  -1.818  1.00  0.00     0.215 C 
BRANCH   6   7
HETATM    7  O3  UNL     1      14.487  -8.660  -0.648  1.00  0.00    -0.293 OA
BRANCH   7   8
HETATM    8  P1  UNL     1      14.562 -10.200  -0.646  1.00  0.00     0.368 P 
HETATM    9  O4  UNL     1      16.257  -9.955  -0.591  1.00  0.00    -0.629 OA
HETATM   10  O5  UNL     1      14.942 -11.667  -1.015  1.00  0.00    -0.629 OA
BRANCH   8  11
HETATM   11  N2  UNL     1      13.755 -10.494   0.745  1.00  0.00    -0.225 N 
ATOM     12  H2  UNL     1      14.062 -11.247   1.362  1.00  0.00     0.178 HD
BRANCH  11  13
HETATM   13  P2  UNL     1      12.410  -9.549   1.163  1.00  0.00     0.378 P 
HETATM   14  O6  UNL     1      13.019  -8.906   2.427  1.00  0.00    -0.629 OA
HETATM   15  O7  UNL     1      11.458  -9.950   0.009  1.00  0.00    -0.629 OA
BRANCH  13  16
HETATM   16  O8  UNL     1      11.333 -10.273   2.151  1.00  0.00    -0.178 OA
BRANCH  16  17
HETATM   17  P3  UNL     1      10.095  -9.633   2.749  1.00  0.00     0.431 P 
HETATM   18  O9  UNL     1      10.435  -8.155   2.276  1.00  0.00    -0.616 OA
HETATM   19  O10 UNL     1       9.136 -10.675   1.844  1.00  0.00    -0.616 OA
HETATM   20  O11 UNL     1      10.577 -10.149   4.280  1.00  0.00    -0.616 OA
ENDBRANCH  16  17
ENDBRANCH  13  16
ENDBRANCH  11  13
ENDBRANCH   8  11
ENDBRANCH   7   8
ENDBRANCH   6   7
ENDBRANCH   4   6
BRANCH   3  21
HETATM   21  O2  UNL     1      15.526  -6.811  -4.331  1.00  0.00    -0.393 OA
ATOM     22  H2  UNL     1      14.577  -6.776  -4.308  1.00  0.00     0.210 HD
ENDBRANCH   3  21
BRANCH   1  23
HETATM   23  N1  UNL     1      18.059  -5.996  -0.658  1.00  0.00    -0.282 N 
HETATM   24  C3  UNL     1      18.449  -7.284  -0.616  1.00  0.00     0.104 A 
HETATM   25  C2  UNL     1      19.661  -7.627  -0.058  1.00  0.00     0.092 A 
HETATM   26  C1  UNL     1      20.494  -6.654   0.469  1.00  0.00     0.250 A 
HETATM   27  O1  UNL     1      21.604  -6.987   0.978  1.00  0.00    -0.268 OA
HETATM   28  N3  UNL     1      20.080  -5.381   0.414  1.00  0.00    -0.275 N 
HETATM   29  C9  UNL     1      18.897  -5.084  -0.136  1.00  0.00     0.331 A 
ATOM     30  H3  UNL     1      20.667  -4.638   0.792  1.00  0.00     0.173 HD
HETATM   31  O13 UNL     1      18.496  -3.873  -0.191  1.00  0.00    -0.246 OA
ENDBRANCH   1  23
TORSDOF 9
ENDMDL
