MODEL 12
REMARK VINA RESULT: -7.497073664      3.356      5.006
REMARK  9 active torsions:
REMARK  status: ('A' for Active; 'I' for Inactive)
REMARK    1  A    between atoms: N1_5  and  C4_6 
REMARK    2  A    between atoms: C6_8  and  O2_9 
REMARK    3  A    between atoms: C7_11  and  C8_12 
REMARK    4  A    between atoms: C8_12  and  O3_13 
REMARK    5  A    between atoms: O3_13  and  P1_14 
REMARK    6  A    between atoms: P1_14  and  N2_17 
REMARK    7  A    between atoms: N2_17  and  P2_19 
REMARK    8  A    between atoms: P2_19  and  O8_22 
REMARK    9  A    between atoms: O8_22  and  P3_23 
ROOT
HETATM    1  C4  UNL     1      15.907  -4.315   1.748  1.00  0.00     0.235 C 
HETATM    2  C5  UNL     1      17.317  -3.801   1.905  1.00  0.00     0.088 C 
HETATM    3  C6  UNL     1      18.086  -4.794   1.056  1.00  0.00     0.153 C 
HETATM    4  C7  UNL     1      17.046  -5.077  -0.019  1.00  0.00     0.177 C 
HETATM    5  O12 UNL     1      15.907  -5.239   0.729  1.00  0.00    -0.356 OA
ENDROOT
BRANCH   4   6
HETATM    6  C8  UNL     1      17.385  -6.282  -0.816  1.00  0.00     0.215 C 
BRANCH   6   7
HETATM    7  O3  UNL     1      16.983  -6.194  -2.148  1.00  0.00    -0.293 OA
BRANCH   7   8
HETATM    8  P1  UNL     1      15.640  -6.791  -2.611  1.00  0.00     0.368 P 
HETATM    9  O4  UNL     1      16.274  -6.575  -4.189  1.00  0.00    -0.629 OA
HETATM   10  O5  UNL     1      14.282  -6.990  -3.353  1.00  0.00    -0.629 OA
BRANCH   8  11
HETATM   11  N2  UNL     1      15.753  -8.259  -1.902  1.00  0.00    -0.225 N 
ATOM     12  H2  UNL     1      16.662  -8.718  -1.824  1.00  0.00     0.178 HD
BRANCH  11  13
HETATM   13  P2  UNL     1      14.363  -9.020  -1.297  1.00  0.00     0.378 P 
HETATM   14  O6  UNL     1      14.091  -8.025  -0.149  1.00  0.00    -0.629 OA
HETATM   15  O7  UNL     1      14.280 -10.207  -2.288  1.00  0.00    -0.629 OA
BRANCH  13  16
HETATM   16  O8  UNL     1      14.632 -10.146  -0.148  1.00  0.00    -0.178 OA
BRANCH  16  17
HETATM   17  P3  UNL     1      13.618 -11.137   0.390  1.00  0.00     0.431 P 
HETATM   18  O9  UNL     1      12.374 -10.533  -0.392  1.00  0.00    -0.616 OA
HETATM   19  O10 UNL     1      14.546 -12.397  -0.222  1.00  0.00    -0.616 OA
HETATM   20  O11 UNL     1      13.949 -10.614   1.958  1.00  0.00    -0.616 OA
ENDBRANCH  16  17
ENDBRANCH  13  16
ENDBRANCH  11  13
ENDBRANCH   8  11
ENDBRANCH   7   8
ENDBRANCH   6   7
ENDBRANCH   4   6
BRANCH   3  21
HETATM   21  O2  UNL     1      19.237  -4.231   0.513  1.00  0.00    -0.393 OA
ATOM     22  H2  UNL     1      19.848  -3.956   1.186  1.00  0.00     0.210 HD
ENDBRANCH   3  21
BRANCH   1  23
HETATM   23  N1  UNL     1      15.517  -4.898   3.021  1.00  0.00    -0.282 N 
HETATM   24  C3  UNL     1      16.402  -5.540   3.808  1.00  0.00     0.104 A 
HETATM   25  C2  UNL     1      16.000  -6.082   5.010  1.00  0.00     0.092 A 
HETATM   26  C1  UNL     1      14.683  -5.976   5.424  1.00  0.00     0.250 A 
HETATM   27  O1  UNL     1      14.331  -6.480   6.530  1.00  0.00    -0.268 OA
HETATM   28  N3  UNL     1      13.826  -5.333   4.620  1.00  0.00    -0.275 N 
HETATM   29  C9  UNL     1      14.250  -4.819   3.460  1.00  0.00     0.331 A 
ATOM     30  H3  UNL     1      12.848  -5.236   4.893  1.00  0.00     0.173 HD
HETATM   31  O13 UNL     1      13.438  -4.205   2.690  1.00  0.00    -0.246 OA
ENDBRANCH   1  23
TORSDOF 9
ENDMDL
