MODEL 1
REMARK VINA RESULT: -8.111718721      0.000      0.000
REMARK  9 active torsions:
REMARK  status: ('A' for Active; 'I' for Inactive)
REMARK    1  A    between atoms: N1_5  and  C4_6 
REMARK    2  A    between atoms: C6_8  and  O2_9 
REMARK    3  A    between atoms: C7_11  and  C8_12 
REMARK    4  A    between atoms: C8_12  and  O3_13 
REMARK    5  A    between atoms: O3_13  and  P1_14 
REMARK    6  A    between atoms: P1_14  and  N2_17 
REMARK    7  A    between atoms: N2_17  and  P2_19 
REMARK    8  A    between atoms: P2_19  and  O8_22 
REMARK    9  A    between atoms: O8_22  and  P3_23 
ROOT
HETATM    1  C4  UNL     1      16.762  -5.504  -1.257  1.00  0.00     0.235 C 
HETATM    2  C5  UNL     1      16.886  -5.678  -2.752  1.00  0.00     0.088 C 
HETATM    3  C6  UNL     1      15.956  -6.852  -2.987  1.00  0.00     0.153 C 
HETATM    4  C7  UNL     1      14.913  -6.577  -1.913  1.00  0.00     0.177 C 
HETATM    5  O12 UNL     1      15.698  -6.266  -0.832  1.00  0.00    -0.356 OA
ENDROOT
BRANCH   4   6
HETATM    6  C8  UNL     1      14.043  -7.753  -1.670  1.00  0.00     0.215 C 
BRANCH   6   7
HETATM    7  O3  UNL     1      14.554  -8.938  -2.199  1.00  0.00    -0.293 OA
BRANCH   7   8
HETATM    8  P1  UNL     1      14.569 -10.235  -1.367  1.00  0.00     0.368 P 
HETATM    9  O4  UNL     1      16.252  -9.937  -1.234  1.00  0.00    -0.629 OA
HETATM   10  O5  UNL     1      14.938 -11.658  -0.843  1.00  0.00    -0.629 OA
BRANCH   8  11
HETATM   11  N2  UNL     1      13.581  -9.771  -0.150  1.00  0.00    -0.225 N 
ATOM     12  H2  UNL     1      13.393  -8.780   0.004  1.00  0.00     0.178 HD
BRANCH  11  13
HETATM   13  P2  UNL     1      12.868 -10.936   0.857  1.00  0.00     0.378 P 
HETATM   14  O6  UNL     1      11.626 -11.205  -0.020  1.00  0.00    -0.629 OA
HETATM   15  O7  UNL     1      13.925 -10.964   1.988  1.00  0.00    -0.629 OA
BRANCH  13  16
HETATM   16  O8  UNL     1      11.845 -10.348   1.983  1.00  0.00    -0.178 OA
BRANCH  16  17
HETATM   17  P3  UNL     1      11.606  -8.884   2.297  1.00  0.00     0.431 P 
HETATM   18  O9  UNL     1      13.142  -8.481   2.364  1.00  0.00    -0.616 OA
HETATM   19  O10 UNL     1      10.696  -8.745   0.892  1.00  0.00    -0.616 OA
HETATM   20  O11 UNL     1      10.799  -9.326   3.710  1.00  0.00    -0.616 OA
ENDBRANCH  16  17
ENDBRANCH  13  16
ENDBRANCH  11  13
ENDBRANCH   8  11
ENDBRANCH   7   8
ENDBRANCH   6   7
ENDBRANCH   4   6
BRANCH   3  21
HETATM   21  O2  UNL     1      15.395  -6.823  -4.260  1.00  0.00    -0.393 OA
ATOM     22  H2  UNL     1      15.348  -7.689  -4.647  1.00  0.00     0.210 HD
ENDBRANCH   3  21
BRANCH   1  23
HETATM   23  N1  UNL     1      18.019  -5.935  -0.668  1.00  0.00    -0.282 N 
HETATM   24  C3  UNL     1      18.377  -7.232  -0.629  1.00  0.00     0.104 A 
HETATM   25  C2  UNL     1      19.577  -7.607  -0.063  1.00  0.00     0.092 A 
HETATM   26  C1  UNL     1      20.428  -6.657   0.473  1.00  0.00     0.250 A 
HETATM   27  O1  UNL     1      21.526  -7.019   0.989  1.00  0.00    -0.268 OA
HETATM   28  N3  UNL     1      20.046  -5.375   0.421  1.00  0.00    -0.275 N 
HETATM   29  C9  UNL     1      18.875  -5.046  -0.137  1.00  0.00     0.331 A 
ATOM     30  H3  UNL     1      20.649  -4.648   0.806  1.00  0.00     0.173 HD
HETATM   31  O13 UNL     1      18.504  -3.826  -0.190  1.00  0.00    -0.246 OA
ENDBRANCH   1  23
TORSDOF 9
ENDMDL
