MODEL 13
REMARK VINA RESULT: -7.442297914      2.993      4.553
REMARK  9 active torsions:
REMARK  status: ('A' for Active; 'I' for Inactive)
REMARK    1  A    between atoms: N1_5  and  C4_6 
REMARK    2  A    between atoms: C6_8  and  O2_9 
REMARK    3  A    between atoms: C7_11  and  C8_12 
REMARK    4  A    between atoms: C8_12  and  O3_13 
REMARK    5  A    between atoms: O3_13  and  P1_14 
REMARK    6  A    between atoms: P1_14  and  N2_17 
REMARK    7  A    between atoms: N2_17  and  P2_19 
REMARK    8  A    between atoms: P2_19  and  O8_22 
REMARK    9  A    between atoms: O8_22  and  P3_23 
ROOT
HETATM    1  C4  UNL     1      17.429  -3.951   1.077  1.00  0.00     0.235 C 
HETATM    2  C5  UNL     1      18.468  -5.016   1.332  1.00  0.00     0.088 C 
HETATM    3  C6  UNL     1      18.107  -6.037   0.271  1.00  0.00     0.153 C 
HETATM    4  C7  UNL     1      17.618  -5.106  -0.828  1.00  0.00     0.177 C 
HETATM    5  O12 UNL     1      16.826  -4.234  -0.126  1.00  0.00    -0.356 OA
ENDROOT
BRANCH   4   6
HETATM    6  C8  UNL     1      16.872  -5.836  -1.883  1.00  0.00     0.215 C 
BRANCH   6   7
HETATM    7  O3  UNL     1      16.421  -7.090  -1.473  1.00  0.00    -0.293 OA
BRANCH   7   8
HETATM    8  P1  UNL     1      15.144  -7.708  -2.076  1.00  0.00     0.368 P 
HETATM    9  O4  UNL     1      15.252  -6.424  -3.206  1.00  0.00    -0.629 OA
HETATM   10  O5  UNL     1      13.697  -7.872  -2.636  1.00  0.00    -0.629 OA
BRANCH   8  11
HETATM   11  N2  UNL     1      15.735  -9.177  -2.482  1.00  0.00    -0.225 N 
ATOM     12  H2  UNL     1      16.349  -9.273  -3.291  1.00  0.00     0.178 HD
BRANCH  11  13
HETATM   13  P2  UNL     1      15.330 -10.541  -1.558  1.00  0.00     0.378 P 
HETATM   14  O6  UNL     1      14.328 -11.154  -2.560  1.00  0.00    -0.629 OA
HETATM   15  O7  UNL     1      16.224 -10.277  -0.322  1.00  0.00    -0.629 OA
BRANCH  13  16
HETATM   16  O8  UNL     1      14.067 -10.342  -0.544  1.00  0.00    -0.178 OA
BRANCH  16  17
HETATM   17  P3  UNL     1      13.538 -11.368   0.439  1.00  0.00     0.431 P 
HETATM   18  O9  UNL     1      14.385 -12.586  -0.130  1.00  0.00    -0.616 OA
HETATM   19  O10 UNL     1      14.073 -10.408   1.708  1.00  0.00    -0.616 OA
HETATM   20  O11 UNL     1      11.975 -11.102  -0.136  1.00  0.00    -0.616 OA
ENDBRANCH  16  17
ENDBRANCH  13  16
ENDBRANCH  11  13
ENDBRANCH   8  11
ENDBRANCH   7   8
ENDBRANCH   6   7
ENDBRANCH   4   6
BRANCH   3  21
HETATM   21  O2  UNL     1      19.215  -6.771  -0.140  1.00  0.00    -0.393 OA
ATOM     22  H2  UNL     1      19.607  -6.410  -0.926  1.00  0.00     0.210 HD
ENDBRANCH   3  21
BRANCH   1  23
HETATM   23  N1  UNL     1      16.492  -3.989   2.188  1.00  0.00    -0.282 N 
HETATM   24  C3  UNL     1      16.387  -5.065   2.990  1.00  0.00     0.104 A 
HETATM   25  C2  UNL     1      15.488  -5.068   4.035  1.00  0.00     0.092 A 
HETATM   26  C1  UNL     1      14.681  -3.969   4.272  1.00  0.00     0.250 A 
HETATM   27  O1  UNL     1      13.860  -3.989   5.236  1.00  0.00    -0.268 OA
HETATM   28  N3  UNL     1      14.807  -2.914   3.457  1.00  0.00    -0.275 N 
HETATM   29  C9  UNL     1      15.691  -2.944   2.453  1.00  0.00     0.331 A 
ATOM     30  H3  UNL     1      14.229  -2.086   3.602  1.00  0.00     0.173 HD
HETATM   31  O13 UNL     1      15.816  -1.942   1.672  1.00  0.00    -0.246 OA
ENDBRANCH   1  23
TORSDOF 9
ENDMDL
