MODEL 2
REMARK VINA RESULT: -8.026903216      0.804      1.046
REMARK  9 active torsions:
REMARK  status: ('A' for Active; 'I' for Inactive)
REMARK    1  A    between atoms: N1_5  and  C4_6 
REMARK    2  A    between atoms: C6_8  and  O2_9 
REMARK    3  A    between atoms: C7_11  and  C8_12 
REMARK    4  A    between atoms: C8_12  and  O3_13 
REMARK    5  A    between atoms: O3_13  and  P1_14 
REMARK    6  A    between atoms: P1_14  and  N2_17 
REMARK    7  A    between atoms: N2_17  and  P2_19 
REMARK    8  A    between atoms: P2_19  and  O8_22 
REMARK    9  A    between atoms: O8_22  and  P3_23 
ROOT
HETATM    1  C4  UNL     1      16.843  -5.564  -1.289  1.00  0.00     0.235 C 
HETATM    2  C5  UNL     1      17.011  -5.642  -2.788  1.00  0.00     0.088 C 
HETATM    3  C6  UNL     1      16.164  -6.857  -3.112  1.00  0.00     0.153 C 
HETATM    4  C7  UNL     1      15.083  -6.711  -2.052  1.00  0.00     0.177 C 
HETATM    5  O12 UNL     1      15.822  -6.414  -0.935  1.00  0.00    -0.356 OA
ENDROOT
BRANCH   4   6
HETATM    6  C8  UNL     1      14.285  -7.952  -1.897  1.00  0.00     0.215 C 
BRANCH   6   7
HETATM    7  O3  UNL     1      15.011  -9.113  -2.160  1.00  0.00    -0.293 OA
BRANCH   7   8
HETATM    8  P1  UNL     1      15.013 -10.289  -1.164  1.00  0.00     0.368 P 
HETATM    9  O4  UNL     1      16.416  -9.536  -0.529  1.00  0.00    -0.629 OA
HETATM   10  O5  UNL     1      15.474 -11.513  -0.315  1.00  0.00    -0.629 OA
BRANCH   8  11
HETATM   11  N2  UNL     1      13.570 -10.017  -0.445  1.00  0.00    -0.225 N 
ATOM     12  H2  UNL     1      12.888  -9.400  -0.887  1.00  0.00     0.178 HD
BRANCH  11  13
HETATM   13  P2  UNL     1      13.206 -10.762   1.036  1.00  0.00     0.378 P 
HETATM   14  O6  UNL     1      12.807 -12.138   0.459  1.00  0.00    -0.629 OA
HETATM   15  O7  UNL     1      13.509  -9.580   1.988  1.00  0.00    -0.629 OA
BRANCH  13  16
HETATM   16  O8  UNL     1      11.657 -10.611   1.526  1.00  0.00    -0.178 OA
BRANCH  16  17
HETATM   17  P3  UNL     1      10.548  -9.897   0.778  1.00  0.00     0.431 P 
HETATM   18  O9  UNL     1      11.240  -8.467   0.790  1.00  0.00    -0.616 OA
HETATM   19  O10 UNL     1      10.728 -10.979  -0.493  1.00  0.00    -0.616 OA
HETATM   20  O11 UNL     1       9.466 -10.309   2.006  1.00  0.00    -0.616 OA
ENDBRANCH  16  17
ENDBRANCH  13  16
ENDBRANCH  11  13
ENDBRANCH   8  11
ENDBRANCH   7   8
ENDBRANCH   6   7
ENDBRANCH   4   6
BRANCH   3  21
HETATM   21  O2  UNL     1      15.631  -6.789  -4.395  1.00  0.00    -0.393 OA
ATOM     22  H2  UNL     1      15.242  -5.941  -4.573  1.00  0.00     0.210 HD
ENDBRANCH   3  21
BRANCH   1  23
HETATM   23  N1  UNL     1      18.113  -5.947  -0.694  1.00  0.00    -0.282 N 
HETATM   24  C3  UNL     1      18.533  -7.226  -0.683  1.00  0.00     0.104 A 
HETATM   25  C2  UNL     1      19.743  -7.557  -0.110  1.00  0.00     0.092 A 
HETATM   26  C1  UNL     1      20.540  -6.580   0.463  1.00  0.00     0.250 A 
HETATM   27  O1  UNL     1      21.647  -6.901   0.985  1.00  0.00    -0.268 OA
HETATM   28  N3  UNL     1      20.095  -5.317   0.438  1.00  0.00    -0.275 N 
HETATM   29  C9  UNL     1      18.917  -5.032  -0.128  1.00  0.00     0.331 A 
ATOM     30  H3  UNL     1      20.656  -4.572   0.850  1.00  0.00     0.173 HD
HETATM   31  O13 UNL     1      18.487  -3.830  -0.155  1.00  0.00    -0.246 OA
ENDBRANCH   1  23
TORSDOF 9
ENDMDL
