MODEL 2
REMARK VINA RESULT: -7.227038311      2.122      2.582
REMARK  5 active torsions:
REMARK  status: ('A' for Active; 'I' for Inactive)
REMARK    1  A    between atoms: C3_3  and  C4_4 
REMARK    2  A    between atoms: C4_4  and  C5_5 
REMARK    3  A    between atoms: C5_5  and  O1_6 
REMARK    4  A    between atoms: N1_10  and  C7_11 
REMARK    5  A    between atoms: C7_11  and  C8_12 
ROOT
HETATM    1  C7  UNL     1       9.658  19.787  58.471  1.00  0.00     0.108 C 
ENDROOT
BRANCH   1   2
HETATM    2  N1  UNL     1       9.721  18.748  57.455  1.00  0.00    -0.349 N 
HETATM    3  C2  UNL     1      10.844  18.038  56.994  1.00  0.00     0.021 C 
HETATM    4  C1  UNL     1      12.197  18.694  56.874  1.00  0.00     0.069 C 
HETATM    5  C3  UNL     1      10.643  16.780  56.694  1.00  0.00     0.004 C 
HETATM    6  S1  UNL     1       8.869  16.499  56.973  1.00  0.00    -0.112 SA
HETATM    7  C6  UNL     1       8.485  18.310  56.772  1.00  0.00     0.207 C 
BRANCH   5   8
HETATM    8  C4  UNL     1      11.521  15.701  56.207  1.00  0.00     0.074 C 
BRANCH   8   9
HETATM    9  C5  UNL     1      11.527  15.689  54.687  1.00  0.00     0.169 C 
BRANCH   9  10
HETATM   10  O1  UNL     1      12.740  16.210  54.255  1.00  0.00    -0.401 OA
ATOM     11  H1  UNL     1      12.591  16.667  53.435  1.00  0.00     0.209 HD
ENDBRANCH   9  10
ENDBRANCH   8   9
ENDBRANCH   5   8
ENDBRANCH   1   2
BRANCH   1  12
HETATM   12  C8  UNL     1       8.713  19.605  59.540  1.00  0.00     0.036 A 
HETATM   13  C9  UNL     1       7.588  20.352  59.686  1.00  0.00     0.105 A 
HETATM   14  N2  UNL     1       6.752  20.135  60.719  1.00  0.00    -0.355 N 
HETATM   15  C10 UNL     1       7.036  19.181  61.600  1.00  0.00     0.078 A 
ATOM     16  H2  UNL     1       5.908  20.698  60.824  1.00  0.00     0.166 HD
HETATM   17  C11 UNL     1       6.096  18.960  62.736  1.00  0.00     0.089 C 
HETATM   18  N3  UNL     1       8.129  18.427  61.492  1.00  0.00    -0.334 N 
HETATM   19  C12 UNL     1       8.969  18.626  60.476  1.00  0.00     0.130 A 
ATOM     20  H3  UNL     1       8.323  17.702  62.183  1.00  0.00     0.168 HD
HETATM   21  N4  UNL     1      10.125  17.787  60.411  1.00  0.00    -0.082 NA
ENDBRANCH   1  12
TORSDOF 5
ENDMDL
