MODEL 15
REMARK VINA RESULT: -6.361526722      4.645      7.806
REMARK  5 active torsions:
REMARK  status: ('A' for Active; 'I' for Inactive)
REMARK    1  A    between atoms: C3_3  and  C4_4 
REMARK    2  A    between atoms: C4_4  and  C5_5 
REMARK    3  A    between atoms: C5_5  and  O1_6 
REMARK    4  A    between atoms: N1_10  and  C7_11 
REMARK    5  A    between atoms: C7_11  and  C8_12 
ROOT
HETATM    1  C7  UNL     1      10.887  17.445  54.117  1.00  0.00     0.108 C 
ENDROOT
BRANCH   1   2
HETATM    2  N1  UNL     1      10.808  17.263  55.557  1.00  0.00    -0.349 N 
HETATM    3  C2  UNL     1      11.155  18.167  56.577  1.00  0.00     0.021 C 
HETATM    4  C1  UNL     1      12.323  19.111  56.431  1.00  0.00     0.069 C 
HETATM    5  C3  UNL     1      10.395  18.148  57.642  1.00  0.00     0.004 C 
HETATM    6  S1  UNL     1       9.177  16.833  57.338  1.00  0.00    -0.112 SA
HETATM    7  C6  UNL     1      10.298  15.991  56.111  1.00  0.00     0.207 C 
BRANCH   5   8
HETATM    8  C4  UNL     1      10.392  18.917  58.899  1.00  0.00     0.074 C 
BRANCH   8   9
HETATM    9  C5  UNL     1       9.269  18.427  59.800  1.00  0.00     0.169 C 
BRANCH   9  10
HETATM   10  O1  UNL     1       9.834  17.682  60.828  1.00  0.00    -0.401 OA
ATOM     11  H1  UNL     1       9.940  16.789  60.522  1.00  0.00     0.209 HD
ENDBRANCH   9  10
ENDBRANCH   8   9
ENDBRANCH   5   8
ENDBRANCH   1   2
BRANCH   1  12
HETATM   12  C8  UNL     1      12.055  16.933  53.451  1.00  0.00     0.036 A 
HETATM   13  C9  UNL     1      12.454  15.637  53.522  1.00  0.00     0.105 A 
HETATM   14  N2  UNL     1      13.566  15.227  52.882  1.00  0.00    -0.355 N 
HETATM   15  C10 UNL     1      14.274  16.104  52.178  1.00  0.00     0.078 A 
ATOM     16  H2  UNL     1      13.861  14.253  52.937  1.00  0.00     0.166 HD
HETATM   17  C11 UNL     1      15.501  15.627  51.478  1.00  0.00     0.089 C 
HETATM   18  N3  UNL     1      13.917  17.383  52.084  1.00  0.00    -0.334 N 
HETATM   19  C12 UNL     1      12.819  17.809  52.709  1.00  0.00     0.130 A 
ATOM     20  H3  UNL     1      14.479  18.035  51.536  1.00  0.00     0.168 HD
HETATM   21  N4  UNL     1      12.484  19.192  52.573  1.00  0.00    -0.082 NA
ENDBRANCH   1  12
TORSDOF 5
ENDMDL
