MODEL 8
REMARK VINA RESULT: -6.825824456      3.319      6.071
REMARK  5 active torsions:
REMARK  status: ('A' for Active; 'I' for Inactive)
REMARK    1  A    between atoms: C3_3  and  C4_4 
REMARK    2  A    between atoms: C4_4  and  C5_5 
REMARK    3  A    between atoms: C5_5  and  O1_6 
REMARK    4  A    between atoms: N1_10  and  C7_11 
REMARK    5  A    between atoms: C7_11  and  C8_12 
ROOT
HETATM    1  C7  UNL     1       8.188  16.485  57.698  1.00  0.00     0.108 C 
ENDROOT
BRANCH   1   2
HETATM    2  N1  UNL     1       8.175  17.918  57.452  1.00  0.00    -0.349 N 
HETATM    3  C2  UNL     1       9.141  18.879  57.802  1.00  0.00     0.021 C 
HETATM    4  C1  UNL     1       9.926  18.775  59.086  1.00  0.00     0.069 C 
HETATM    5  C3  UNL     1       9.323  19.847  56.942  1.00  0.00     0.004 C 
HETATM    6  S1  UNL     1       8.128  19.535  55.608  1.00  0.00    -0.112 SA
HETATM    7  C6  UNL     1       7.036  18.531  56.735  1.00  0.00     0.207 C 
BRANCH   5   8
HETATM    8  C4  UNL     1      10.221  21.016  56.906  1.00  0.00     0.074 C 
BRANCH   8   9
HETATM    9  C5  UNL     1      11.105  20.948  55.670  1.00  0.00     0.169 C 
BRANCH   9  10
HETATM   10  O1  UNL     1      10.908  22.108  54.933  1.00  0.00    -0.401 OA
ATOM     11  H1  UNL     1      11.519  22.765  55.246  1.00  0.00     0.209 HD
ENDBRANCH   9  10
ENDBRANCH   8   9
ENDBRANCH   5   8
ENDBRANCH   1   2
BRANCH   1  12
HETATM   12  C8  UNL     1       8.265  15.621  56.552  1.00  0.00     0.036 A 
HETATM   13  C9  UNL     1       7.183  15.037  55.974  1.00  0.00     0.105 A 
HETATM   14  N2  UNL     1       7.329  14.229  54.908  1.00  0.00    -0.355 N 
HETATM   15  C10 UNL     1       8.545  14.002  54.421  1.00  0.00     0.078 A 
ATOM     16  H2  UNL     1       6.514  13.793  54.477  1.00  0.00     0.166 HD
HETATM   17  C11 UNL     1       8.682  13.103  53.240  1.00  0.00     0.089 C 
HETATM   18  N3  UNL     1       9.631  14.555  54.959  1.00  0.00    -0.334 N 
HETATM   19  C12 UNL     1       9.508  15.359  56.015  1.00  0.00     0.130 A 
ATOM     20  H3  UNL     1      10.553  14.364  54.565  1.00  0.00     0.168 HD
HETATM   21  N4  UNL     1      10.707  15.924  56.550  1.00  0.00    -0.082 NA
ENDBRANCH   1  12
TORSDOF 5
ENDMDL
