MODEL 6
REMARK VINA RESULT: -6.898512527      3.501      6.419
REMARK  5 active torsions:
REMARK  status: ('A' for Active; 'I' for Inactive)
REMARK    1  A    between atoms: C3_3  and  C4_4 
REMARK    2  A    between atoms: C4_4  and  C5_5 
REMARK    3  A    between atoms: C5_5  and  O1_6 
REMARK    4  A    between atoms: N1_10  and  C7_11 
REMARK    5  A    between atoms: C7_11  and  C8_12 
ROOT
HETATM    1  C7  UNL     1       8.732  16.263  57.310  1.00  0.00     0.108 C 
ENDROOT
BRANCH   1   2
HETATM    2  N1  UNL     1       8.531  17.698  57.191  1.00  0.00    -0.349 N 
HETATM    3  C2  UNL     1       9.376  18.742  57.608  1.00  0.00     0.021 C 
HETATM    4  C1  UNL     1      10.204  18.632  58.864  1.00  0.00     0.069 C 
HETATM    5  C3  UNL     1       9.410  19.796  56.834  1.00  0.00     0.004 C 
HETATM    6  S1  UNL     1       8.228  19.447  55.498  1.00  0.00    -0.112 SA
HETATM    7  C6  UNL     1       7.304  18.219  56.550  1.00  0.00     0.207 C 
BRANCH   5   8
HETATM    8  C4  UNL     1      10.152  21.069  56.885  1.00  0.00     0.074 C 
BRANCH   8   9
HETATM    9  C5  UNL     1      11.205  21.096  55.789  1.00  0.00     0.169 C 
BRANCH   9  10
HETATM   10  O1  UNL     1      10.879  22.116  54.903  1.00  0.00    -0.401 OA
ATOM     11  H1  UNL     1       9.936  22.228  54.915  1.00  0.00     0.209 HD
ENDBRANCH   9  10
ENDBRANCH   8   9
ENDBRANCH   5   8
ENDBRANCH   1   2
BRANCH   1  12
HETATM   12  C8  UNL     1       8.845  15.511  56.090  1.00  0.00     0.036 A 
HETATM   13  C9  UNL     1       9.933  15.550  55.278  1.00  0.00     0.105 A 
HETATM   14  N2  UNL     1       9.967  14.827  54.143  1.00  0.00    -0.355 N 
HETATM   15  C10 UNL     1       8.923  14.071  53.819  1.00  0.00     0.078 A 
ATOM     16  H2  UNL     1      10.786  14.860  53.537  1.00  0.00     0.166 HD
HETATM   17  C11 UNL     1       8.983  13.280  52.556  1.00  0.00     0.089 C 
HETATM   18  N3  UNL     1       7.837  14.006  54.587  1.00  0.00    -0.334 N 
HETATM   19  C12 UNL     1       7.784  14.713  55.716  1.00  0.00     0.130 A 
ATOM     20  H3  UNL     1       7.050  13.417  54.314  1.00  0.00     0.168 HD
HETATM   21  N4  UNL     1       6.594  14.603  56.500  1.00  0.00    -0.082 NA
ENDBRANCH   1  12
TORSDOF 5
ENDMDL
