MODEL 3
REMARK VINA RESULT: -8.812627052      8.283     11.314
REMARK  9 active torsions:
REMARK  status: ('A' for Active; 'I' for Inactive)
REMARK    1  A    between atoms: O1_2  and  C2_3 
REMARK    2  A    between atoms: C7_8  and  C8_9 
REMARK    3  A    between atoms: C10_11  and  C11_12 
REMARK    4  A    between atoms: N2_22  and  C17_23 
REMARK    5  A    between atoms: C17_23  and  C19_25 
REMARK    6  A    between atoms: C22_28  and  C23_29 
REMARK       I    between atoms: C23_29  and  N3_31 
REMARK    7  A    between atoms: N3_31  and  C24_33 
REMARK    8  A    between atoms: C24_33  and  C25_34 
REMARK    9  A    between atoms: C25_34  and  C26_35 
ROOT
HETATM    1  C8  UNL     1     -32.372   6.888 -30.080  1.00  0.00     0.064 A 
HETATM    2  C9  UNL     1     -32.851   7.822 -29.154  1.00  0.00     0.064 A 
HETATM    3  C10 UNL     1     -32.631   9.092 -29.624  1.00  0.00     0.060 A 
HETATM    4  N1  UNL     1     -32.034   8.920 -30.807  1.00  0.00    -0.297 N 
ATOM      5  H1  UNL     1     -31.735   9.677 -31.422  1.00  0.00     0.187 HD
HETATM    6  N2  UNL     1     -31.880   7.598 -31.078  1.00  0.00    -0.282 N 
ENDROOT
BRANCH   6   7
HETATM    7  C17 UNL     1     -31.291   7.216 -32.332  1.00  0.00     0.137 C 
HETATM    8  C18 UNL     1     -31.477   8.424 -33.333  1.00  0.00     0.039 C 
BRANCH   7   9
HETATM    9  C19 UNL     1     -29.820   7.086 -32.263  1.00  0.00    -0.034 A 
HETATM   10  C20 UNL     1     -29.127   7.338 -31.104  1.00  0.00     0.010 A 
HETATM   11  C21 UNL     1     -27.731   7.242 -31.046  1.00  0.00     0.017 A 
HETATM   12  C22 UNL     1     -27.004   6.888 -32.158  1.00  0.00     0.032 A 
HETATM   13  C27 UNL     1     -27.724   6.635 -33.332  1.00  0.00     0.017 A 
HETATM   14  C28 UNL     1     -29.102   6.735 -33.372  1.00  0.00     0.010 A 
BRANCH  12  15
HETATM   15  C23 UNL     1     -25.551   6.767 -32.179  1.00  0.00     0.251 C 
HETATM   16  O2  UNL     1     -24.915   6.861 -31.093  1.00  0.00    -0.268 OA
HETATM   17  N3  UNL     1     -24.831   6.547 -33.366  1.00  0.00    -0.356 N 
ATOM     18  H3  UNL     1     -25.337   6.468 -34.248  1.00  0.00     0.162 HD
BRANCH  17  19
HETATM   19  C24 UNL     1     -23.389   6.430 -33.367  1.00  0.00     0.133 C 
BRANCH  19  20
HETATM   20  C25 UNL     1     -22.688   7.768 -33.321  1.00  0.00     0.133 C 
BRANCH  20  21
HETATM   21  C26 UNL     1     -21.776   7.783 -32.152  1.00  0.00     0.174 C 
HETATM   22  O3  UNL     1     -21.564   6.737 -31.501  1.00  0.00    -0.648 OA
HETATM   23  O4  UNL     1     -21.138   8.958 -31.756  1.00  0.00    -0.648 OA
ENDBRANCH  20  21
ENDBRANCH  19  20
ENDBRANCH  17  19
ENDBRANCH  12  15
ENDBRANCH   7   9
ENDBRANCH   6   7
BRANCH   1  24
HETATM   24  C7  UNL     1     -32.502   5.463 -29.888  1.00  0.00    -0.007 A 
HETATM   25  C6  UNL     1     -33.569   4.787 -30.499  1.00  0.00     0.026 A 
HETATM   26  C5  UNL     1     -33.805   3.450 -30.359  1.00  0.00    -0.025 A 
HETATM   27  C4  UNL     1     -34.868   2.825 -30.984  1.00  0.00     0.015 A 
HETATM   28  C31 UNL     1     -32.925   2.745 -29.561  1.00  0.00    -0.023 A 
HETATM   29  C3  UNL     1     -35.091   1.478 -30.837  1.00  0.00     0.037 A 
HETATM   30  C2  UNL     1     -34.225   0.746 -30.045  1.00  0.00     0.069 A 
HETATM   31  C32 UNL     1     -33.170   1.382 -29.426  1.00  0.00     0.049 A 
HETATM   32  C30 UNL     1     -31.871   3.366 -28.945  1.00  0.00     0.013 A 
HETATM   33  C29 UNL     1     -31.660   4.723 -29.108  1.00  0.00     0.014 A 
BRANCH  30  34
HETATM   34  O1  UNL     1     -34.438  -0.615 -29.886  1.00  0.00    -0.356 OA
HETATM   35  C1  UNL     1     -35.572  -1.235 -30.429  1.00  0.00     0.210 C 
ENDBRANCH  30  34
ENDBRANCH   1  24
BRANCH   3  36
HETATM   36  C11 UNL     1     -32.977  10.363 -28.972  1.00  0.00    -0.005 A 
HETATM   37  C12 UNL     1     -34.287  10.692 -28.718  1.00  0.00     0.037 A 
HETATM   38  C13 UNL     1     -34.631  11.885 -28.104  1.00  0.00     0.036 A 
HETATM   39 CL1  UNL     1     -36.312  12.291 -27.785  1.00  0.00    -0.084 Cl
HETATM   40  C14 UNL     1     -33.657  12.775 -27.731  1.00  0.00     0.047 A 
HETATM   41  C15 UNL     1     -32.342  12.443 -27.987  1.00  0.00     0.036 A 
HETATM   42 CL2  UNL     1     -31.082  13.545 -27.530  1.00  0.00    -0.084 Cl
HETATM   43  C16 UNL     1     -32.009  11.249 -28.601  1.00  0.00     0.037 A 
ENDBRANCH   3  36
TORSDOF 9
ENDMDL
