MODEL 2
REMARK VINA RESULT: -8.854893999      0.284      1.604
REMARK  9 active torsions:
REMARK  status: ('A' for Active; 'I' for Inactive)
REMARK    1  A    between atoms: O1_2  and  C2_3 
REMARK    2  A    between atoms: C7_8  and  C8_9 
REMARK    3  A    between atoms: C10_11  and  C11_12 
REMARK    4  A    between atoms: N2_22  and  C17_23 
REMARK    5  A    between atoms: C17_23  and  C19_25 
REMARK    6  A    between atoms: C22_28  and  C23_29 
REMARK       I    between atoms: C23_29  and  N3_31 
REMARK    7  A    between atoms: N3_31  and  C24_33 
REMARK    8  A    between atoms: C24_33  and  C25_34 
REMARK    9  A    between atoms: C25_34  and  C26_35 
ROOT
HETATM    1  C8  UNL     1     -30.345   1.471 -38.446  1.00  0.00     0.064 A 
HETATM    2  C9  UNL     1     -30.164   0.203 -37.882  1.00  0.00     0.064 A 
HETATM    3  C10 UNL     1     -30.197   0.298 -36.513  1.00  0.00     0.060 A 
HETATM    4  N1  UNL     1     -30.394   1.596 -36.266  1.00  0.00    -0.297 N 
ATOM      5  H1  UNL     1     -30.469   2.004 -35.334  1.00  0.00     0.187 HD
HETATM    6  N2  UNL     1     -30.483   2.297 -37.426  1.00  0.00    -0.282 N 
ENDROOT
BRANCH   6   7
HETATM    7  C17 UNL     1     -30.738   3.710 -37.358  1.00  0.00     0.137 C 
HETATM    8  C18 UNL     1     -32.125   3.909 -36.630  1.00  0.00     0.039 C 
BRANCH   7   9
HETATM    9  C19 UNL     1     -29.803   4.422 -36.461  1.00  0.00    -0.034 A 
HETATM   10  C20 UNL     1     -28.445   4.233 -36.536  1.00  0.00     0.010 A 
HETATM   11  C21 UNL     1     -27.562   4.886 -35.667  1.00  0.00     0.017 A 
HETATM   12  C22 UNL     1     -28.032   5.747 -34.703  1.00  0.00     0.032 A 
HETATM   13  C27 UNL     1     -29.419   5.930 -34.639  1.00  0.00     0.017 A 
HETATM   14  C28 UNL     1     -30.277   5.276 -35.504  1.00  0.00     0.010 A 
BRANCH  12  15
HETATM   15  C23 UNL     1     -27.179   6.464 -33.763  1.00  0.00     0.251 C 
HETATM   16  O2  UNL     1     -27.717   7.182 -32.875  1.00  0.00    -0.268 OA
HETATM   17  N3  UNL     1     -25.776   6.384 -33.808  1.00  0.00    -0.356 N 
ATOM     18  H3  UNL     1     -25.333   5.804 -34.520  1.00  0.00     0.162 HD
BRANCH  17  19
HETATM   19  C24 UNL     1     -24.947   7.104 -32.867  1.00  0.00     0.133 C 
BRANCH  19  20
HETATM   20  C25 UNL     1     -23.469   6.947 -33.141  1.00  0.00     0.133 C 
BRANCH  20  21
HETATM   21  C26 UNL     1     -22.751   6.901 -31.846  1.00  0.00     0.174 C 
HETATM   22  O3  UNL     1     -23.259   6.323 -30.860  1.00  0.00    -0.648 OA
HETATM   23  O4  UNL     1     -21.500   7.498 -31.697  1.00  0.00    -0.648 OA
ENDBRANCH  20  21
ENDBRANCH  19  20
ENDBRANCH  17  19
ENDBRANCH  12  15
ENDBRANCH   7   9
ENDBRANCH   6   7
BRANCH   1  24
HETATM   24  C7  UNL     1     -30.405   1.688 -39.871  1.00  0.00    -0.007 A 
HETATM   25  C6  UNL     1     -29.220   1.966 -40.570  1.00  0.00     0.026 A 
HETATM   26  C5  UNL     1     -29.165   2.219 -41.910  1.00  0.00    -0.025 A 
HETATM   27  C4  UNL     1     -27.972   2.483 -42.557  1.00  0.00     0.015 A 
HETATM   28  C31 UNL     1     -30.364   2.195 -42.595  1.00  0.00    -0.023 A 
HETATM   29  C3  UNL     1     -27.932   2.732 -43.906  1.00  0.00     0.037 A 
HETATM   30  C2  UNL     1     -29.117   2.714 -44.619  1.00  0.00     0.069 A 
HETATM   31  C32 UNL     1     -30.299   2.450 -43.961  1.00  0.00     0.049 A 
HETATM   32  C30 UNL     1     -31.544   1.930 -41.952  1.00  0.00     0.013 A 
HETATM   33  C29 UNL     1     -31.564   1.677 -40.592  1.00  0.00     0.014 A 
BRANCH  30  34
HETATM   34  O1  UNL     1     -29.092   2.965 -45.982  1.00  0.00    -0.356 OA
HETATM   35  C1  UNL     1     -29.137   4.276 -46.475  1.00  0.00     0.210 C 
ENDBRANCH  30  34
ENDBRANCH   1  24
BRANCH   3  36
HETATM   36  C11 UNL     1     -30.048  -0.789 -35.535  1.00  0.00    -0.005 A 
HETATM   37  C12 UNL     1     -30.935  -0.927 -34.494  1.00  0.00     0.037 A 
HETATM   38  C13 UNL     1     -30.811  -1.944 -33.563  1.00  0.00     0.036 A 
HETATM   39 CL1  UNL     1     -31.955  -2.108 -32.237  1.00  0.00    -0.084 Cl
HETATM   40  C14 UNL     1     -29.785  -2.848 -33.661  1.00  0.00     0.047 A 
HETATM   41  C15 UNL     1     -28.895  -2.708 -34.707  1.00  0.00     0.036 A 
HETATM   42 CL2  UNL     1     -27.584  -3.833 -34.864  1.00  0.00    -0.084 Cl
HETATM   43  C16 UNL     1     -29.028  -1.688 -35.632  1.00  0.00     0.037 A 
ENDBRANCH   3  36
TORSDOF 9
ENDMDL
