MODEL 1
REMARK VINA RESULT: -8.888461618      0.000      0.000
REMARK  9 active torsions:
REMARK  status: ('A' for Active; 'I' for Inactive)
REMARK    1  A    between atoms: O1_2  and  C2_3 
REMARK    2  A    between atoms: C7_8  and  C8_9 
REMARK    3  A    between atoms: C10_11  and  C11_12 
REMARK    4  A    between atoms: N2_22  and  C17_23 
REMARK    5  A    between atoms: C17_23  and  C19_25 
REMARK    6  A    between atoms: C22_28  and  C23_29 
REMARK       I    between atoms: C23_29  and  N3_31 
REMARK    7  A    between atoms: N3_31  and  C24_33 
REMARK    8  A    between atoms: C24_33  and  C25_34 
REMARK    9  A    between atoms: C25_34  and  C26_35 
ROOT
HETATM    1  C8  UNL     1     -30.280   1.673 -38.521  1.00  0.00     0.064 A 
HETATM    2  C9  UNL     1     -30.058   0.383 -38.027  1.00  0.00     0.064 A 
HETATM    3  C10 UNL     1     -30.095   0.401 -36.655  1.00  0.00     0.060 A 
HETATM    4  N1  UNL     1     -30.335   1.677 -36.337  1.00  0.00    -0.297 N 
ATOM      5  H1  UNL     1     -30.424   2.031 -35.385  1.00  0.00     0.187 HD
HETATM    6  N2  UNL     1     -30.446   2.437 -37.458  1.00  0.00    -0.282 N 
ENDROOT
BRANCH   6   7
HETATM    7  C17 UNL     1     -30.748   3.835 -37.314  1.00  0.00     0.137 C 
HETATM    8  C18 UNL     1     -32.159   3.948 -36.614  1.00  0.00     0.039 C 
BRANCH   7   9
HETATM    9  C19 UNL     1     -29.860   4.521 -36.352  1.00  0.00    -0.034 A 
HETATM   10  C20 UNL     1     -30.338   5.458 -35.468  1.00  0.00     0.010 A 
HETATM   11  C21 UNL     1     -29.492   6.128 -34.576  1.00  0.00     0.017 A 
HETATM   12  C22 UNL     1     -28.143   5.865 -34.555  1.00  0.00     0.032 A 
HETATM   13  C27 UNL     1     -27.669   4.908 -35.461  1.00  0.00     0.017 A 
HETATM   14  C28 UNL     1     -28.519   4.256 -36.336  1.00  0.00     0.010 A 
BRANCH  12  15
HETATM   15  C23 UNL     1     -27.198   6.518 -33.658  1.00  0.00     0.251 C 
HETATM   16  O2  UNL     1     -27.641   7.164 -32.668  1.00  0.00    -0.268 OA
HETATM   17  N3  UNL     1     -25.807   6.455 -33.853  1.00  0.00    -0.356 N 
ATOM     18  H3  UNL     1     -25.439   5.934 -34.649  1.00  0.00     0.162 HD
BRANCH  17  19
HETATM   19  C24 UNL     1     -24.885   7.112 -32.952  1.00  0.00     0.133 C 
BRANCH  19  20
HETATM   20  C25 UNL     1     -23.476   6.576 -33.055  1.00  0.00     0.133 C 
BRANCH  20  21
HETATM   21  C26 UNL     1     -22.804   6.764 -31.748  1.00  0.00     0.174 C 
HETATM   22  O3  UNL     1     -23.316   6.310 -30.701  1.00  0.00    -0.648 OA
HETATM   23  O4  UNL     1     -21.591   7.447 -31.657  1.00  0.00    -0.648 OA
ENDBRANCH  20  21
ENDBRANCH  19  20
ENDBRANCH  17  19
ENDBRANCH  12  15
ENDBRANCH   7   9
ENDBRANCH   6   7
BRANCH   1  24
HETATM   24  C7  UNL     1     -30.346   1.965 -39.933  1.00  0.00    -0.007 A 
HETATM   25  C6  UNL     1     -29.155   2.033 -40.672  1.00  0.00     0.026 A 
HETATM   26  C5  UNL     1     -29.099   2.334 -42.002  1.00  0.00    -0.025 A 
HETATM   27  C4  UNL     1     -27.901   2.384 -42.691  1.00  0.00     0.015 A 
HETATM   28  C31 UNL     1     -30.302   2.583 -42.633  1.00  0.00    -0.023 A 
HETATM   29  C3  UNL     1     -27.860   2.684 -44.030  1.00  0.00     0.037 A 
HETATM   30  C2  UNL     1     -29.050   2.938 -44.689  1.00  0.00     0.069 A 
HETATM   31  C32 UNL     1     -30.236   2.885 -43.990  1.00  0.00     0.049 A 
HETATM   32  C30 UNL     1     -31.487   2.529 -41.949  1.00  0.00     0.013 A 
HETATM   33  C29 UNL     1     -31.509   2.221 -40.601  1.00  0.00     0.014 A 
BRANCH  30  34
HETATM   34  O1  UNL     1     -29.024   3.243 -46.041  1.00  0.00    -0.356 OA
HETATM   35  C1  UNL     1     -29.281   4.545 -46.491  1.00  0.00     0.210 C 
ENDBRANCH  30  34
ENDBRANCH   1  24
BRANCH   3  36
HETATM   36  C11 UNL     1     -29.911  -0.731 -35.736  1.00  0.00    -0.005 A 
HETATM   37  C12 UNL     1     -28.857  -1.600 -35.890  1.00  0.00     0.037 A 
HETATM   38  C13 UNL     1     -28.668  -2.673 -35.035  1.00  0.00     0.036 A 
HETATM   39 CL1  UNL     1     -27.314  -3.775 -35.245  1.00  0.00    -0.084 Cl
HETATM   40  C14 UNL     1     -29.541  -2.893 -34.001  1.00  0.00     0.047 A 
HETATM   41  C15 UNL     1     -30.599  -2.019 -33.847  1.00  0.00     0.036 A 
HETATM   42 CL2  UNL     1     -31.725  -2.265 -32.551  1.00  0.00    -0.084 Cl
HETATM   43  C16 UNL     1     -30.779  -0.950 -34.708  1.00  0.00     0.037 A 
ENDBRANCH   3  36
TORSDOF 9
ENDMDL
