MODEL 13
REMARK VINA RESULT: -7.986341301      3.735      7.336
REMARK  9 active torsions:
REMARK  status: ('A' for Active; 'I' for Inactive)
REMARK    1  A    between atoms: O1_2  and  C2_3 
REMARK    2  A    between atoms: C7_8  and  C8_9 
REMARK    3  A    between atoms: C10_11  and  C11_12 
REMARK    4  A    between atoms: N2_22  and  C17_23 
REMARK    5  A    between atoms: C17_23  and  C19_25 
REMARK    6  A    between atoms: C22_28  and  C23_29 
REMARK       I    between atoms: C23_29  and  N3_31 
REMARK    7  A    between atoms: N3_31  and  C24_33 
REMARK    8  A    between atoms: C24_33  and  C25_34 
REMARK    9  A    between atoms: C25_34  and  C26_35 
ROOT
HETATM    1  C8  UNL     1     -31.216   0.205 -37.714  1.00  0.00     0.064 A 
HETATM    2  C9  UNL     1     -32.547   0.006 -38.098  1.00  0.00     0.064 A 
HETATM    3  C10 UNL     1     -32.826   0.764 -39.207  1.00  0.00     0.060 A 
HETATM    4  N1  UNL     1     -31.685   1.402 -39.481  1.00  0.00    -0.297 N 
ATOM      5  H1  UNL     1     -31.555   2.052 -40.256  1.00  0.00     0.187 HD
HETATM    6  N2  UNL     1     -30.721   1.065 -38.584  1.00  0.00    -0.282 N 
ENDROOT
BRANCH   6   7
HETATM    7  C17 UNL     1     -29.406   1.624 -38.745  1.00  0.00     0.137 C 
HETATM    8  C18 UNL     1     -29.369   2.360 -40.142  1.00  0.00     0.039 C 
BRANCH   7   9
HETATM    9  C19 UNL     1     -29.129   2.726 -37.799  1.00  0.00    -0.034 A 
HETATM   10  C20 UNL     1     -27.893   3.321 -37.726  1.00  0.00     0.010 A 
HETATM   11  C21 UNL     1     -27.622   4.345 -36.810  1.00  0.00     0.017 A 
HETATM   12  C22 UNL     1     -28.595   4.792 -35.948  1.00  0.00     0.032 A 
HETATM   13  C27 UNL     1     -29.849   4.176 -36.033  1.00  0.00     0.017 A 
HETATM   14  C28 UNL     1     -30.099   3.165 -36.943  1.00  0.00     0.010 A 
BRANCH  12  15
HETATM   15  C23 UNL     1     -28.392   5.852 -34.968  1.00  0.00     0.251 C 
HETATM   16  O2  UNL     1     -29.397   6.349 -34.389  1.00  0.00    -0.268 OA
HETATM   17  N3  UNL     1     -27.115   6.341 -34.642  1.00  0.00    -0.356 N 
ATOM     18  H3  UNL     1     -26.297   5.944 -35.103  1.00  0.00     0.162 HD
BRANCH  17  19
HETATM   19  C24 UNL     1     -26.934   7.395 -33.667  1.00  0.00     0.133 C 
BRANCH  19  20
HETATM   20  C25 UNL     1     -26.620   6.874 -32.284  1.00  0.00     0.133 C 
BRANCH  20  21
HETATM   21  C26 UNL     1     -25.149   6.752 -32.148  1.00  0.00     0.174 C 
HETATM   22  O3  UNL     1     -24.604   6.879 -31.030  1.00  0.00    -0.648 OA
HETATM   23  O4  UNL     1     -24.345   6.492 -33.257  1.00  0.00    -0.648 OA
ENDBRANCH  20  21
ENDBRANCH  19  20
ENDBRANCH  17  19
ENDBRANCH  12  15
ENDBRANCH   7   9
ENDBRANCH   6   7
BRANCH   1  24
HETATM   24  C7  UNL     1     -30.612  -0.493 -36.605  1.00  0.00    -0.007 A 
HETATM   25  C6  UNL     1     -29.357  -1.097 -36.780  1.00  0.00     0.026 A 
HETATM   26  C5  UNL     1     -28.710  -1.808 -35.811  1.00  0.00    -0.025 A 
HETATM   27  C4  UNL     1     -27.472  -2.382 -36.029  1.00  0.00     0.015 A 
HETATM   28  C31 UNL     1     -29.353  -1.924 -34.594  1.00  0.00    -0.023 A 
HETATM   29  C3  UNL     1     -26.831  -3.091 -35.043  1.00  0.00     0.037 A 
HETATM   30  C2  UNL     1     -27.450  -3.224 -33.814  1.00  0.00     0.069 A 
HETATM   31  C32 UNL     1     -28.685  -2.646 -33.611  1.00  0.00     0.049 A 
HETATM   32  C30 UNL     1     -30.578  -1.351 -34.380  1.00  0.00     0.013 A 
HETATM   33  C29 UNL     1     -31.207  -0.637 -35.385  1.00  0.00     0.014 A 
BRANCH  30  34
HETATM   34  O1  UNL     1     -26.815  -3.938 -32.808  1.00  0.00    -0.356 OA
HETATM   35  C1  UNL     1     -27.315  -5.174 -32.376  1.00  0.00     0.210 C 
ENDBRANCH  30  34
ENDBRANCH   1  24
BRANCH   3  36
HETATM   36  C11 UNL     1     -34.100   0.854 -39.935  1.00  0.00    -0.005 A 
HETATM   37  C12 UNL     1     -34.521   2.046 -40.474  1.00  0.00     0.037 A 
HETATM   38  C13 UNL     1     -35.718   2.151 -41.163  1.00  0.00     0.036 A 
HETATM   39 CL1  UNL     1     -36.242   3.683 -41.848  1.00  0.00    -0.084 Cl
HETATM   40  C14 UNL     1     -36.520   1.050 -41.323  1.00  0.00     0.047 A 
HETATM   41  C15 UNL     1     -36.095  -0.147 -40.781  1.00  0.00     0.036 A 
HETATM   42 CL2  UNL     1     -37.084  -1.561 -40.963  1.00  0.00    -0.084 Cl
HETATM   43  C16 UNL     1     -34.898  -0.240 -40.094  1.00  0.00     0.037 A 
ENDBRANCH   3  36
TORSDOF 9
ENDMDL
