MODEL 3
REMARK VINA RESULT: -8.090672216      1.228      1.715
REMARK  9 active torsions:
REMARK  status: ('A' for Active; 'I' for Inactive)
REMARK    1  A    between atoms: C1_2  and  C2_3 
REMARK       I    between atoms: C1_2  and  N2_19 
REMARK    2  A    between atoms: C2_3  and  C3_4 
REMARK    3  A    between atoms: C3_4  and  C4_5 
REMARK    4  A    between atoms: C4_5  and  C5_6 
REMARK    5  A    between atoms: C5_6  and  C6_7 
REMARK    6  A    between atoms: C6_7  and  C7_8 
REMARK    7  A    between atoms: C7_8  and  C8_9 
REMARK       I    between atoms: C8_9  and  N1_11 
REMARK    8  A    between atoms: N1_11  and  C9_13 
REMARK    9  A    between atoms: N2_19  and  O3_21 
ROOT
HETATM    1  C6  UNL     1       5.228  -3.262  -0.167  1.00  0.00     0.009 C 
ENDROOT
BRANCH   1   2
HETATM    2  C5  UNL     1       6.260  -3.960  -0.967  1.00  0.00     0.000 C 
BRANCH   2   3
HETATM    3  C4  UNL     1       6.273  -5.470  -0.824  1.00  0.00     0.000 C 
BRANCH   3   4
HETATM    4  C3  UNL     1       5.280  -5.869   0.228  1.00  0.00     0.009 C 
BRANCH   4   5
HETATM    5  C2  UNL     1       5.922  -6.694   1.312  1.00  0.00     0.105 C 
BRANCH   5   6
HETATM    6  C1  UNL     1       5.211  -7.947   1.510  1.00  0.00     0.240 C 
HETATM    7  O1  UNL     1       4.019  -8.088   1.143  1.00  0.00    -0.271 OA
HETATM    8  N2  UNL     1       5.908  -9.048   2.147  1.00  0.00    -0.237 N 
ATOM      9  H2  UNL     1       6.877  -8.960   2.454  1.00  0.00     0.197 HD
BRANCH   8  10
HETATM   10  O3  UNL     1       5.215 -10.193   2.312  1.00  0.00    -0.287 OA
ATOM     11  H3  UNL     1       5.704 -10.951   2.610  1.00  0.00     0.244 HD
ENDBRANCH   8  10
ENDBRANCH   5   6
ENDBRANCH   4   5
ENDBRANCH   3   4
ENDBRANCH   2   3
ENDBRANCH   1   2
BRANCH   1  12
HETATM   12  C7  UNL     1       5.538  -1.796  -0.073  1.00  0.00     0.103 C 
BRANCH  12  13
HETATM   13  C8  UNL     1       4.331  -1.019   0.314  1.00  0.00     0.222 C 
HETATM   14  O2  UNL     1       3.576  -1.435   1.201  1.00  0.00    -0.273 OA
HETATM   15  N1  UNL     1       4.011   0.216  -0.319  1.00  0.00    -0.327 N 
ATOM     16  H1  UNL     1       4.652   0.534  -1.046  1.00  0.00     0.169 HD
BRANCH  15  17
HETATM   17  C9  UNL     1       2.916   1.041  -0.054  1.00  0.00     0.034 A 
HETATM   18  C10 UNL     1       1.845   0.983  -0.955  1.00  0.00     0.029 A 
HETATM   19  C11 UNL     1       0.705   1.742  -0.812  1.00  0.00     0.002 A 
HETATM   20  C12 UNL     1       0.590   2.604   0.253  1.00  0.00     0.000 A 
HETATM   21  C13 UNL     1       1.614   2.700   1.170  1.00  0.00     0.002 A 
HETATM   22  C14 UNL     1       2.748   1.912   0.985  1.00  0.00     0.029 A 
ENDBRANCH  15  17
ENDBRANCH  12  13
ENDBRANCH   1  12
TORSDOF 9
ENDMDL
