MODEL 6
REMARK VINA RESULT: -7.981994071      2.985      4.173
REMARK  9 active torsions:
REMARK  status: ('A' for Active; 'I' for Inactive)
REMARK    1  A    between atoms: C1_2  and  C2_3 
REMARK       I    between atoms: C1_2  and  N2_19 
REMARK    2  A    between atoms: C2_3  and  C3_4 
REMARK    3  A    between atoms: C3_4  and  C4_5 
REMARK    4  A    between atoms: C4_5  and  C5_6 
REMARK    5  A    between atoms: C5_6  and  C6_7 
REMARK    6  A    between atoms: C6_7  and  C7_8 
REMARK    7  A    between atoms: C7_8  and  C8_9 
REMARK       I    between atoms: C8_9  and  N1_11 
REMARK    8  A    between atoms: N1_11  and  C9_13 
REMARK    9  A    between atoms: N2_19  and  O3_21 
ROOT
HETATM    1  C6  UNL     1       6.625  -3.144  -1.812  1.00  0.00     0.009 C 
ENDROOT
BRANCH   1   2
HETATM    2  C5  UNL     1       6.597  -4.473  -1.161  1.00  0.00     0.000 C 
BRANCH   2   3
HETATM    3  C4  UNL     1       5.740  -4.560   0.087  1.00  0.00     0.000 C 
BRANCH   3   4
HETATM    4  C3  UNL     1       5.152  -5.939   0.180  1.00  0.00     0.009 C 
BRANCH   4   5
HETATM    5  C2  UNL     1       5.946  -6.818   1.110  1.00  0.00     0.105 C 
BRANCH   5   6
HETATM    6  C1  UNL     1       5.220  -8.038   1.428  1.00  0.00     0.240 C 
HETATM    7  O1  UNL     1       4.002  -8.165   1.151  1.00  0.00    -0.271 OA
HETATM    8  N2  UNL     1       5.934  -9.121   2.077  1.00  0.00    -0.237 N 
ATOM      9  H2  UNL     1       6.923  -9.043   2.312  1.00  0.00     0.197 HD
BRANCH   8  10
HETATM   10  O3  UNL     1       5.226 -10.235   2.355  1.00  0.00    -0.287 OA
ATOM     11  H3  UNL     1       5.286 -10.948   1.730  1.00  0.00     0.244 HD
ENDBRANCH   8  10
ENDBRANCH   5   6
ENDBRANCH   4   5
ENDBRANCH   3   4
ENDBRANCH   2   3
ENDBRANCH   1   2
BRANCH   1  12
HETATM   12  C7  UNL     1       5.831  -2.150  -1.015  1.00  0.00     0.103 C 
BRANCH  12  13
HETATM   13  C8  UNL     1       6.695  -1.043  -0.527  1.00  0.00     0.222 C 
HETATM   14  O2  UNL     1       6.731   0.036  -1.132  1.00  0.00    -0.273 OA
HETATM   15  N1  UNL     1       7.498  -1.188   0.639  1.00  0.00    -0.327 N 
ATOM     16  H1  UNL     1       7.447  -2.088   1.117  1.00  0.00     0.169 HD
BRANCH  15  17
HETATM   17  C9  UNL     1       8.349  -0.235   1.202  1.00  0.00     0.034 A 
HETATM   18  C10 UNL     1       9.690  -0.264   0.797  1.00  0.00     0.029 A 
HETATM   19  C11 UNL     1      10.634   0.618   1.274  1.00  0.00     0.002 A 
HETATM   20  C12 UNL     1      10.269   1.578   2.188  1.00  0.00     0.000 A 
HETATM   21  C13 UNL     1       8.963   1.651   2.620  1.00  0.00     0.002 A 
HETATM   22  C14 UNL     1       8.042   0.738   2.110  1.00  0.00     0.029 A 
ENDBRANCH  15  17
ENDBRANCH  12  13
ENDBRANCH   1  12
TORSDOF 9
ENDMDL
