MODEL 10
REMARK VINA RESULT: -7.794589993      2.639      3.421
REMARK  9 active torsions:
REMARK  status: ('A' for Active; 'I' for Inactive)
REMARK    1  A    between atoms: C1_2  and  C2_3 
REMARK       I    between atoms: C1_2  and  N2_19 
REMARK    2  A    between atoms: C2_3  and  C3_4 
REMARK    3  A    between atoms: C3_4  and  C4_5 
REMARK    4  A    between atoms: C4_5  and  C5_6 
REMARK    5  A    between atoms: C5_6  and  C6_7 
REMARK    6  A    between atoms: C6_7  and  C7_8 
REMARK    7  A    between atoms: C7_8  and  C8_9 
REMARK       I    between atoms: C8_9  and  N1_11 
REMARK    8  A    between atoms: N1_11  and  C9_13 
REMARK    9  A    between atoms: N2_19  and  O3_21 
ROOT
HETATM    1  C6  UNL     1       6.696  -3.023  -1.762  1.00  0.00     0.009 C 
ENDROOT
BRANCH   1   2
HETATM    2  C5  UNL     1       6.001  -3.811  -0.719  1.00  0.00     0.000 C 
BRANCH   2   3
HETATM    3  C4  UNL     1       6.301  -5.298  -0.730  1.00  0.00     0.000 C 
BRANCH   3   4
HETATM    4  C3  UNL     1       5.283  -6.007   0.116  1.00  0.00     0.009 C 
BRANCH   4   5
HETATM    5  C2  UNL     1       5.935  -6.808   1.211  1.00  0.00     0.105 C 
BRANCH   5   6
HETATM    6  C1  UNL     1       5.204  -8.039   1.468  1.00  0.00     0.240 C 
HETATM    7  O1  UNL     1       3.995  -8.160   1.154  1.00  0.00    -0.271 OA
HETATM    8  N2  UNL     1       5.903  -9.142   2.100  1.00  0.00    -0.237 N 
ATOM      9  H2  UNL     1       6.885  -9.070   2.364  1.00  0.00     0.197 HD
BRANCH   8  10
HETATM   10  O3  UNL     1       5.191 -10.267   2.321  1.00  0.00    -0.287 OA
ATOM     11  H3  UNL     1       4.974 -10.466   3.224  1.00  0.00     0.244 HD
ENDBRANCH   8  10
ENDBRANCH   5   6
ENDBRANCH   4   5
ENDBRANCH   3   4
ENDBRANCH   2   3
ENDBRANCH   1   2
BRANCH   1  12
HETATM   12  C7  UNL     1       6.166  -1.618  -1.801  1.00  0.00     0.103 C 
BRANCH  12  13
HETATM   13  C8  UNL     1       6.958  -0.723  -0.918  1.00  0.00     0.222 C 
HETATM   14  O2  UNL     1       8.005  -0.206  -1.329  1.00  0.00    -0.273 OA
HETATM   15  N1  UNL     1       6.542  -0.435   0.413  1.00  0.00    -0.327 N 
ATOM     16  H1  UNL     1       5.675  -0.875   0.722  1.00  0.00     0.169 HD
BRANCH  15  17
HETATM   17  C9  UNL     1       7.188   0.383   1.341  1.00  0.00     0.034 A 
HETATM   18  C10 UNL     1       6.484   1.505   1.797  1.00  0.00     0.029 A 
HETATM   19  C11 UNL     1       7.004   2.394   2.710  1.00  0.00     0.002 A 
HETATM   20  C12 UNL     1       8.269   2.193   3.212  1.00  0.00     0.000 A 
HETATM   21  C13 UNL     1       9.005   1.105   2.797  1.00  0.00     0.002 A 
HETATM   22  C14 UNL     1       8.438   0.232   1.871  1.00  0.00     0.029 A 
ENDBRANCH  15  17
ENDBRANCH  12  13
ENDBRANCH   1  12
TORSDOF 9
ENDMDL
