MODEL 11
REMARK VINA RESULT: -7.725078890      2.481      3.420
REMARK  9 active torsions:
REMARK  status: ('A' for Active; 'I' for Inactive)
REMARK    1  A    between atoms: C1_2  and  C2_3 
REMARK       I    between atoms: C1_2  and  N2_19 
REMARK    2  A    between atoms: C2_3  and  C3_4 
REMARK    3  A    between atoms: C3_4  and  C4_5 
REMARK    4  A    between atoms: C4_5  and  C5_6 
REMARK    5  A    between atoms: C5_6  and  C6_7 
REMARK    6  A    between atoms: C6_7  and  C7_8 
REMARK    7  A    between atoms: C7_8  and  C8_9 
REMARK       I    between atoms: C8_9  and  N1_11 
REMARK    8  A    between atoms: N1_11  and  C9_13 
REMARK    9  A    between atoms: N2_19  and  O3_21 
ROOT
HETATM    1  C6  UNL     1       6.425  -2.750  -1.426  1.00  0.00     0.009 C 
ENDROOT
BRANCH   1   2
HETATM    2  C5  UNL     1       6.065  -3.705  -0.354  1.00  0.00     0.000 C 
BRANCH   2   3
HETATM    3  C4  UNL     1       6.264  -5.168  -0.702  1.00  0.00     0.000 C 
BRANCH   3   4
HETATM    4  C3  UNL     1       5.357  -6.002   0.156  1.00  0.00     0.009 C 
BRANCH   4   5
HETATM    5  C2  UNL     1       6.135  -6.974   1.003  1.00  0.00     0.105 C 
BRANCH   5   6
HETATM    6  C1  UNL     1       5.308  -8.102   1.402  1.00  0.00     0.240 C 
HETATM    7  O1  UNL     1       4.071  -8.114   1.190  1.00  0.00    -0.271 OA
HETATM    8  N2  UNL     1       5.943  -9.230   2.056  1.00  0.00    -0.237 N 
ATOM      9  H2  UNL     1       6.946  -9.246   2.240  1.00  0.00     0.197 HD
BRANCH   8  10
HETATM   10  O3  UNL     1       5.142 -10.257   2.411  1.00  0.00    -0.287 OA
ATOM     11  H3  UNL     1       4.479 -10.077   3.066  1.00  0.00     0.244 HD
ENDBRANCH   8  10
ENDBRANCH   5   6
ENDBRANCH   4   5
ENDBRANCH   3   4
ENDBRANCH   2   3
ENDBRANCH   1   2
BRANCH   1  12
HETATM   12  C7  UNL     1       5.528  -1.547  -1.383  1.00  0.00     0.103 C 
BRANCH  12  13
HETATM   13  C8  UNL     1       5.753  -0.756  -0.145  1.00  0.00     0.222 C 
HETATM   14  O2  UNL     1       4.848  -0.630   0.690  1.00  0.00    -0.273 OA
HETATM   15  N1  UNL     1       7.003  -0.128   0.117  1.00  0.00    -0.327 N 
ATOM     16  H1  UNL     1       7.730  -0.250  -0.588  1.00  0.00     0.169 HD
BRANCH  15  17
HETATM   17  C9  UNL     1       7.345   0.638   1.233  1.00  0.00     0.034 A 
HETATM   18  C10 UNL     1       8.551   0.324   1.873  1.00  0.00     0.029 A 
HETATM   19  C11 UNL     1       9.007   0.999   2.983  1.00  0.00     0.002 A 
HETATM   20  C12 UNL     1       8.263   2.031   3.506  1.00  0.00     0.000 A 
HETATM   21  C13 UNL     1       7.069   2.382   2.915  1.00  0.00     0.002 A 
HETATM   22  C14 UNL     1       6.648   1.670   1.793  1.00  0.00     0.029 A 
ENDBRANCH  15  17
ENDBRANCH  12  13
ENDBRANCH   1  12
TORSDOF 9
ENDMDL
