MODEL 7
REMARK VINA RESULT: -7.941652431      3.092      4.257
REMARK  9 active torsions:
REMARK  status: ('A' for Active; 'I' for Inactive)
REMARK    1  A    between atoms: C1_2  and  C2_3 
REMARK       I    between atoms: C1_2  and  N2_19 
REMARK    2  A    between atoms: C2_3  and  C3_4 
REMARK    3  A    between atoms: C3_4  and  C4_5 
REMARK    4  A    between atoms: C4_5  and  C5_6 
REMARK    5  A    between atoms: C5_6  and  C6_7 
REMARK    6  A    between atoms: C6_7  and  C7_8 
REMARK    7  A    between atoms: C7_8  and  C8_9 
REMARK       I    between atoms: C8_9  and  N1_11 
REMARK    8  A    between atoms: N1_11  and  C9_13 
REMARK    9  A    between atoms: N2_19  and  O3_21 
ROOT
HETATM    1  C6  UNL     1       6.599  -3.157  -1.876  1.00  0.00     0.009 C 
ENDROOT
BRANCH   1   2
HETATM    2  C5  UNL     1       6.625  -4.453  -1.161  1.00  0.00     0.000 C 
BRANCH   2   3
HETATM    3  C4  UNL     1       5.670  -4.559   0.013  1.00  0.00     0.000 C 
BRANCH   3   4
HETATM    4  C3  UNL     1       5.152  -5.965   0.095  1.00  0.00     0.009 C 
BRANCH   4   5
HETATM    5  C2  UNL     1       5.997  -6.815   1.007  1.00  0.00     0.105 C 
BRANCH   5   6
HETATM    6  C1  UNL     1       5.295  -8.029   1.394  1.00  0.00     0.240 C 
HETATM    7  O1  UNL     1       4.049  -8.131   1.274  1.00  0.00    -0.271 OA
HETATM    8  N2  UNL     1       6.066  -9.136   1.926  1.00  0.00    -0.237 N 
ATOM      9  H2  UNL     1       7.078  -9.079   2.033  1.00  0.00     0.197 HD
BRANCH   8  10
HETATM   10  O3  UNL     1       5.379 -10.245   2.272  1.00  0.00    -0.287 OA
ATOM     11  H3  UNL     1       5.696 -10.727   3.027  1.00  0.00     0.244 HD
ENDBRANCH   8  10
ENDBRANCH   5   6
ENDBRANCH   4   5
ENDBRANCH   3   4
ENDBRANCH   2   3
ENDBRANCH   1   2
BRANCH   1  12
HETATM   12  C7  UNL     1       5.956  -2.099  -1.027  1.00  0.00     0.103 C 
BRANCH  12  13
HETATM   13  C8  UNL     1       6.943  -1.061  -0.629  1.00  0.00     0.222 C 
HETATM   14  O2  UNL     1       7.115  -0.058  -1.333  1.00  0.00    -0.273 OA
HETATM   15  N1  UNL     1       7.713  -1.187   0.562  1.00  0.00    -0.327 N 
ATOM     16  H1  UNL     1       7.549  -2.024   1.122  1.00  0.00     0.169 HD
BRANCH  15  17
HETATM   17  C9  UNL     1       8.667  -0.293   1.049  1.00  0.00     0.034 A 
HETATM   18  C10 UNL     1       8.250   0.600   2.045  1.00  0.00     0.029 A 
HETATM   19  C11 UNL     1       9.088   1.534   2.612  1.00  0.00     0.002 A 
HETATM   20  C12 UNL     1      10.397   1.615   2.197  1.00  0.00     0.000 A 
HETATM   21  C13 UNL     1      10.859   0.761   1.220  1.00  0.00     0.002 A 
HETATM   22  C14 UNL     1       9.975  -0.168   0.676  1.00  0.00     0.029 A 
ENDBRANCH  15  17
ENDBRANCH  12  13
ENDBRANCH   1  12
TORSDOF 9
ENDMDL
