MODEL 4
REMARK VINA RESULT: -8.066469544      0.901      1.063
REMARK  9 active torsions:
REMARK  status: ('A' for Active; 'I' for Inactive)
REMARK    1  A    between atoms: C1_2  and  C2_3 
REMARK       I    between atoms: C1_2  and  N2_19 
REMARK    2  A    between atoms: C2_3  and  C3_4 
REMARK    3  A    between atoms: C3_4  and  C4_5 
REMARK    4  A    between atoms: C4_5  and  C5_6 
REMARK    5  A    between atoms: C5_6  and  C6_7 
REMARK    6  A    between atoms: C6_7  and  C7_8 
REMARK    7  A    between atoms: C7_8  and  C8_9 
REMARK       I    between atoms: C8_9  and  N1_11 
REMARK    8  A    between atoms: N1_11  and  C9_13 
REMARK    9  A    between atoms: N2_19  and  O3_21 
ROOT
HETATM    1  C6  UNL     1       5.789  -2.563  -1.003  1.00  0.00     0.009 C 
ENDROOT
BRANCH   1   2
HETATM    2  C5  UNL     1       6.268  -3.956  -0.857  1.00  0.00     0.000 C 
BRANCH   2   3
HETATM    3  C4  UNL     1       5.896  -4.630   0.450  1.00  0.00     0.000 C 
BRANCH   3   4
HETATM    4  C3  UNL     1       5.362  -6.003   0.156  1.00  0.00     0.009 C 
BRANCH   4   5
HETATM    5  C2  UNL     1       6.169  -7.071   0.846  1.00  0.00     0.105 C 
BRANCH   5   6
HETATM    6  C1  UNL     1       5.313  -8.137   1.342  1.00  0.00     0.240 C 
HETATM    7  O1  UNL     1       4.065  -8.082   1.226  1.00  0.00    -0.271 OA
HETATM    8  N2  UNL     1       5.933  -9.283   1.981  1.00  0.00    -0.237 N 
ATOM      9  H2  UNL     1       6.945  -9.352   2.087  1.00  0.00     0.197 HD
BRANCH   8  10
HETATM   10  O3  UNL     1       5.106 -10.251   2.427  1.00  0.00    -0.287 OA
ATOM     11  H3  UNL     1       4.208 -10.223   2.119  1.00  0.00     0.244 HD
ENDBRANCH   8  10
ENDBRANCH   5   6
ENDBRANCH   4   5
ENDBRANCH   3   4
ENDBRANCH   2   3
ENDBRANCH   1   2
BRANCH   1  12
HETATM   12  C7  UNL     1       4.993  -2.151   0.201  1.00  0.00     0.103 C 
BRANCH  12  13
HETATM   13  C8  UNL     1       4.232  -0.902  -0.063  1.00  0.00     0.222 C 
HETATM   14  O2  UNL     1       4.675  -0.052  -0.845  1.00  0.00    -0.273 OA
HETATM   15  N1  UNL     1       2.980  -0.648   0.568  1.00  0.00    -0.327 N 
ATOM     16  H1  UNL     1       2.640  -1.367   1.206  1.00  0.00     0.169 HD
BRANCH  15  17
HETATM   17  C9  UNL     1       2.168   0.476   0.409  1.00  0.00     0.034 A 
HETATM   18  C10 UNL     1       2.125   1.383   1.477  1.00  0.00     0.029 A 
HETATM   19  C11 UNL     1       1.366   2.531   1.452  1.00  0.00     0.002 A 
HETATM   20  C12 UNL     1       0.606   2.822   0.343  1.00  0.00     0.000 A 
HETATM   21  C13 UNL     1       0.612   1.964  -0.735  1.00  0.00     0.002 A 
HETATM   22  C14 UNL     1       1.396   0.814  -0.665  1.00  0.00     0.029 A 
ENDBRANCH  15  17
ENDBRANCH  12  13
ENDBRANCH   1  12
TORSDOF 9
ENDMDL
