MODEL 15
REMARK VINA RESULT: -7.671072826      3.102      4.635
REMARK  9 active torsions:
REMARK  status: ('A' for Active; 'I' for Inactive)
REMARK    1  A    between atoms: C1_2  and  C2_3 
REMARK       I    between atoms: C1_2  and  N2_19 
REMARK    2  A    between atoms: C2_3  and  C3_4 
REMARK    3  A    between atoms: C3_4  and  C4_5 
REMARK    4  A    between atoms: C4_5  and  C5_6 
REMARK    5  A    between atoms: C5_6  and  C6_7 
REMARK    6  A    between atoms: C6_7  and  C7_8 
REMARK    7  A    between atoms: C7_8  and  C8_9 
REMARK       I    between atoms: C8_9  and  N1_11 
REMARK    8  A    between atoms: N1_11  and  C9_13 
REMARK    9  A    between atoms: N2_19  and  O3_21 
ROOT
HETATM    1  C6  UNL     1       6.664  -3.139  -1.801  1.00  0.00     0.009 C 
ENDROOT
BRANCH   1   2
HETATM    2  C5  UNL     1       6.595  -4.485  -1.190  1.00  0.00     0.000 C 
BRANCH   2   3
HETATM    3  C4  UNL     1       5.661  -4.606  -0.002  1.00  0.00     0.000 C 
BRANCH   3   4
HETATM    4  C3  UNL     1       5.160  -6.018   0.084  1.00  0.00     0.009 C 
BRANCH   4   5
HETATM    5  C2  UNL     1       5.896  -6.805   1.135  1.00  0.00     0.105 C 
BRANCH   5   6
HETATM    6  C1  UNL     1       5.197  -8.042   1.451  1.00  0.00     0.240 C 
HETATM    7  O1  UNL     1       3.976  -8.186   1.201  1.00  0.00    -0.271 OA
HETATM    8  N2  UNL     1       5.944  -9.122   2.068  1.00  0.00    -0.237 N 
ATOM      9  H2  UNL     1       6.937  -9.031   2.281  1.00  0.00     0.197 HD
BRANCH   8  10
HETATM   10  O3  UNL     1       5.261 -10.252   2.345  1.00  0.00    -0.287 OA
ATOM     11  H3  UNL     1       5.477 -10.695   3.157  1.00  0.00     0.244 HD
ENDBRANCH   8  10
ENDBRANCH   5   6
ENDBRANCH   4   5
ENDBRANCH   3   4
ENDBRANCH   2   3
ENDBRANCH   1   2
BRANCH   1  12
HETATM   12  C7  UNL     1       5.945  -2.135  -0.947  1.00  0.00     0.103 C 
BRANCH  12  13
HETATM   13  C8  UNL     1       6.872  -1.076  -0.472  1.00  0.00     0.222 C 
HETATM   14  O2  UNL     1       6.476  -0.200   0.308  1.00  0.00    -0.273 OA
HETATM   15  N1  UNL     1       8.232  -1.036  -0.894  1.00  0.00    -0.327 N 
ATOM     16  H1  UNL     1       8.530  -1.771  -1.535  1.00  0.00     0.169 HD
BRANCH  15  17
HETATM   17  C9  UNL     1       9.202  -0.102  -0.526  1.00  0.00     0.034 A 
HETATM   18  C10 UNL     1       9.918  -0.360   0.651  1.00  0.00     0.029 A 
HETATM   19  C11 UNL     1      10.901   0.477   1.127  1.00  0.00     0.002 A 
HETATM   20  C12 UNL     1      11.212   1.625   0.435  1.00  0.00     0.000 A 
HETATM   21  C13 UNL     1      10.539   1.927  -0.728  1.00  0.00     0.002 A 
HETATM   22  C14 UNL     1       9.552   1.049  -1.172  1.00  0.00     0.029 A 
ENDBRANCH  15  17
ENDBRANCH  12  13
ENDBRANCH   1  12
TORSDOF 9
ENDMDL
