MODEL 5
REMARK VINA RESULT: -8.035099179      1.246      1.783
REMARK  9 active torsions:
REMARK  status: ('A' for Active; 'I' for Inactive)
REMARK    1  A    between atoms: C1_2  and  C2_3 
REMARK       I    between atoms: C1_2  and  N2_19 
REMARK    2  A    between atoms: C2_3  and  C3_4 
REMARK    3  A    between atoms: C3_4  and  C4_5 
REMARK    4  A    between atoms: C4_5  and  C5_6 
REMARK    5  A    between atoms: C5_6  and  C6_7 
REMARK    6  A    between atoms: C6_7  and  C7_8 
REMARK    7  A    between atoms: C7_8  and  C8_9 
REMARK       I    between atoms: C8_9  and  N1_11 
REMARK    8  A    between atoms: N1_11  and  C9_13 
REMARK    9  A    between atoms: N2_19  and  O3_21 
ROOT
HETATM    1  C6  UNL     1       6.360  -3.213  -1.467  1.00  0.00     0.009 C 
ENDROOT
BRANCH   1   2
HETATM    2  C5  UNL     1       6.526  -4.581  -0.926  1.00  0.00     0.000 C 
BRANCH   2   3
HETATM    3  C4  UNL     1       5.283  -5.179  -0.296  1.00  0.00     0.000 C 
BRANCH   3   4
HETATM    4  C3  UNL     1       5.656  -5.809   1.016  1.00  0.00     0.009 C 
BRANCH   4   5
HETATM    5  C2  UNL     1       6.252  -7.178   0.824  1.00  0.00     0.105 C 
BRANCH   5   6
HETATM    6  C1  UNL     1       5.376  -8.212   1.352  1.00  0.00     0.240 C 
HETATM    7  O1  UNL     1       4.126  -8.103   1.294  1.00  0.00    -0.271 OA
HETATM    8  N2  UNL     1       5.974  -9.388   1.954  1.00  0.00    -0.237 N 
ATOM      9  H2  UNL     1       6.986  -9.501   2.013  1.00  0.00     0.197 HD
BRANCH   8  10
HETATM   10  O3  UNL     1       5.128 -10.324   2.432  1.00  0.00    -0.287 OA
ATOM     11  H3  UNL     1       4.897 -11.032   1.843  1.00  0.00     0.244 HD
ENDBRANCH   8  10
ENDBRANCH   5   6
ENDBRANCH   4   5
ENDBRANCH   3   4
ENDBRANCH   2   3
ENDBRANCH   1   2
BRANCH   1  12
HETATM   12  C7  UNL     1       6.293  -2.210  -0.353  1.00  0.00     0.103 C 
BRANCH  12  13
HETATM   13  C8  UNL     1       4.948  -1.582  -0.279  1.00  0.00     0.222 C 
HETATM   14  O2  UNL     1       4.016  -2.162   0.292  1.00  0.00    -0.273 OA
HETATM   15  N1  UNL     1       4.693  -0.305  -0.856  1.00  0.00    -0.327 N 
ATOM     16  H1  UNL     1       5.480   0.150  -1.318  1.00  0.00     0.169 HD
BRANCH  15  17
HETATM   17  C9  UNL     1       3.485   0.394  -0.858  1.00  0.00     0.034 A 
HETATM   18  C10 UNL     1       3.020   0.854  -2.097  1.00  0.00     0.029 A 
HETATM   19  C11 UNL     1       1.845   1.556  -2.242  1.00  0.00     0.002 A 
HETATM   20  C12 UNL     1       1.075   1.831  -1.135  1.00  0.00     0.000 A 
HETATM   21  C13 UNL     1       1.486   1.402   0.108  1.00  0.00     0.002 A 
HETATM   22  C14 UNL     1       2.682   0.695   0.205  1.00  0.00     0.029 A 
ENDBRANCH  15  17
ENDBRANCH  12  13
ENDBRANCH   1  12
TORSDOF 9
ENDMDL
