MODEL 4
REMARK VINA RESULT: -8.341805422      1.765      2.336
REMARK  7 active torsions:
REMARK  status: ('A' for Active; 'I' for Inactive)
REMARK    1  A    between atoms: C2_2  and  C3_3 
REMARK    2  A    between atoms: C4_4  and  C5_5 
REMARK       I    between atoms: C5_5  and  N1_7 
REMARK    3  A    between atoms: N1_7  and  O2_9 
REMARK    4  A    between atoms: C6_11  and  C7_12 
REMARK    5  A    between atoms: C7_12  and  C9_14 
REMARK    6  A    between atoms: C9_14  and  C10_16 
REMARK    7  A    between atoms: C13_19  and  N2_20 
ROOT
HETATM    1  C7  UNL     1      -2.131  28.295  -4.373  1.00  0.00     0.079 C 
HETATM    2  C8  UNL     1      -1.598  28.435  -2.942  1.00  0.00     0.022 C 
ENDROOT
BRANCH   1   3
HETATM    3  C6  UNL     1      -3.345  27.480  -4.297  1.00  0.00    -0.008 C 
HETATM    4  C2  UNL     1      -4.532  28.115  -4.176  1.00  0.00    -0.065 C 
HETATM    5  C1  UNL     1      -4.478  29.570  -4.132  1.00  0.00     0.048 C 
BRANCH   4   6
HETATM    6  C3  UNL     1      -5.746  27.333  -4.099  1.00  0.00     0.012 C 
HETATM    7  C4  UNL     1      -6.681  27.361  -4.999  1.00  0.00     0.076 C 
BRANCH   7   8
HETATM    8  C5  UNL     1      -7.909  26.544  -4.882  1.00  0.00     0.264 C 
HETATM    9  O1  UNL     1      -7.963  25.732  -3.944  1.00  0.00    -0.266 OA
HETATM   10  N1  UNL     1      -8.991  26.658  -5.777  1.00  0.00    -0.234 N 
ATOM     11  H1  UNL     1      -8.950  27.324  -6.548  1.00  0.00     0.197 HD
BRANCH  10  12
HETATM   12  O2  UNL     1     -10.070  25.887  -5.610  1.00  0.00    -0.287 OA
ATOM     13  H2  UNL     1     -10.458  25.454  -6.362  1.00  0.00     0.244 HD
ENDBRANCH  10  12
ENDBRANCH   7   8
ENDBRANCH   4   6
ENDBRANCH   1   3
BRANCH   1  14
HETATM   14  C9  UNL     1      -1.060  27.630  -5.157  1.00  0.00     0.166 C 
HETATM   15  O3  UNL     1      -0.699  26.485  -4.793  1.00  0.00    -0.292 OA
BRANCH  14  16
HETATM   16  C10 UNL     1      -0.431  28.262  -6.312  1.00  0.00     0.011 A 
HETATM   17  C11 UNL     1      -0.892  29.465  -6.804  1.00  0.00     0.017 A 
HETATM   18  C12 UNL     1      -0.294  30.060  -7.896  1.00  0.00     0.030 A 
HETATM   19  C13 UNL     1       0.783  29.498  -8.549  1.00  0.00     0.029 A 
HETATM   20  C16 UNL     1       1.248  28.294  -8.061  1.00  0.00     0.030 A 
HETATM   21  C17 UNL     1       0.645  27.693  -6.960  1.00  0.00     0.017 A 
BRANCH  19  22
HETATM   22  N2  UNL     1       1.409  30.101  -9.675  1.00  0.00    -0.390 N 
HETATM   23  C14 UNL     1       2.326  29.403 -10.536  1.00  0.00     0.149 C 
HETATM   24  C15 UNL     1       1.121  31.493  -9.989  1.00  0.00     0.149 C 
ENDBRANCH  19  22
ENDBRANCH  14  16
ENDBRANCH   1  14
TORSDOF 7
ENDMDL
