MODEL 5
REMARK VINA RESULT: -8.335682766      1.704      2.257
REMARK  7 active torsions:
REMARK  status: ('A' for Active; 'I' for Inactive)
REMARK    1  A    between atoms: C2_2  and  C3_3 
REMARK    2  A    between atoms: C4_4  and  C5_5 
REMARK       I    between atoms: C5_5  and  N1_7 
REMARK    3  A    between atoms: N1_7  and  O2_9 
REMARK    4  A    between atoms: C6_11  and  C7_12 
REMARK    5  A    between atoms: C7_12  and  C9_14 
REMARK    6  A    between atoms: C9_14  and  C10_16 
REMARK    7  A    between atoms: C13_19  and  N2_20 
ROOT
HETATM    1  C7  UNL     1      -2.117  28.312  -4.386  1.00  0.00     0.079 C 
HETATM    2  C8  UNL     1      -1.582  28.442  -2.955  1.00  0.00     0.022 C 
ENDROOT
BRANCH   1   3
HETATM    3  C6  UNL     1      -3.323  27.485  -4.316  1.00  0.00    -0.008 C 
HETATM    4  C2  UNL     1      -4.517  28.108  -4.191  1.00  0.00    -0.065 C 
HETATM    5  C1  UNL     1      -4.477  29.563  -4.138  1.00  0.00     0.048 C 
BRANCH   4   6
HETATM    6  C3  UNL     1      -5.724  27.315  -4.120  1.00  0.00     0.012 C 
HETATM    7  C4  UNL     1      -6.696  27.401  -4.974  1.00  0.00     0.076 C 
BRANCH   7   8
HETATM    8  C5  UNL     1      -7.915  26.569  -4.864  1.00  0.00     0.264 C 
HETATM    9  O1  UNL     1      -7.954  25.738  -3.942  1.00  0.00    -0.266 OA
HETATM   10  N1  UNL     1      -9.005  26.690  -5.748  1.00  0.00    -0.234 N 
ATOM     11  H1  UNL     1      -8.977  27.372  -6.506  1.00  0.00     0.197 HD
BRANCH  10  12
HETATM   12  O2  UNL     1     -10.075  25.905  -5.589  1.00  0.00    -0.287 OA
ATOM     13  H2  UNL     1     -10.514  25.875  -4.747  1.00  0.00     0.244 HD
ENDBRANCH  10  12
ENDBRANCH   7   8
ENDBRANCH   4   6
ENDBRANCH   1   3
BRANCH   1  14
HETATM   14  C9  UNL     1      -1.043  27.666  -5.180  1.00  0.00     0.166 C 
HETATM   15  O3  UNL     1      -0.684  26.512  -4.841  1.00  0.00    -0.292 OA
BRANCH  14  16
HETATM   16  C10 UNL     1      -0.407  28.324  -6.316  1.00  0.00     0.011 A 
HETATM   17  C11 UNL     1       0.625  27.719  -7.003  1.00  0.00     0.017 A 
HETATM   18  C12 UNL     1       1.224  28.342  -8.077  1.00  0.00     0.030 A 
HETATM   19  C13 UNL     1       0.831  29.587  -8.524  1.00  0.00     0.029 A 
HETATM   20  C16 UNL     1      -0.201  30.196  -7.842  1.00  0.00     0.030 A 
HETATM   21  C17 UNL     1      -0.804  29.568  -6.758  1.00  0.00     0.017 A 
BRANCH  19  22
HETATM   22  N2  UNL     1       1.439  30.241  -9.632  1.00  0.00    -0.390 N 
HETATM   23  C14 UNL     1       1.214  31.626  -9.952  1.00  0.00     0.149 C 
HETATM   24  C15 UNL     1       2.337  29.491 -10.498  1.00  0.00     0.149 C 
ENDBRANCH  19  22
ENDBRANCH  14  16
ENDBRANCH   1  14
TORSDOF 7
ENDMDL
