MODEL 6
REMARK VINA RESULT: -8.286926117      3.745      5.602
REMARK  7 active torsions:
REMARK  status: ('A' for Active; 'I' for Inactive)
REMARK    1  A    between atoms: C2_2  and  C3_3 
REMARK    2  A    between atoms: C4_4  and  C5_5 
REMARK       I    between atoms: C5_5  and  N1_7 
REMARK    3  A    between atoms: N1_7  and  O2_9 
REMARK    4  A    between atoms: C6_11  and  C7_12 
REMARK    5  A    between atoms: C7_12  and  C9_14 
REMARK    6  A    between atoms: C9_14  and  C10_16 
REMARK    7  A    between atoms: C13_19  and  N2_20 
ROOT
HETATM    1  C7  UNL     1      -2.457  28.517  -4.498  1.00  0.00     0.079 C 
HETATM    2  C8  UNL     1      -2.063  28.835  -3.050  1.00  0.00     0.022 C 
ENDROOT
BRANCH   1   3
HETATM    3  C6  UNL     1      -3.607  27.612  -4.437  1.00  0.00    -0.008 C 
HETATM    4  C2  UNL     1      -4.836  28.153  -4.279  1.00  0.00    -0.065 C 
HETATM    5  C1  UNL     1      -4.888  29.605  -4.183  1.00  0.00     0.048 C 
BRANCH   4   6
HETATM    6  C3  UNL     1      -5.988  27.282  -4.215  1.00  0.00     0.012 C 
HETATM    7  C4  UNL     1      -7.027  27.402  -4.983  1.00  0.00     0.076 C 
BRANCH   7   8
HETATM    8  C5  UNL     1      -8.186  26.487  -4.885  1.00  0.00     0.264 C 
HETATM    9  O1  UNL     1      -8.183  25.664  -3.956  1.00  0.00    -0.266 OA
HETATM   10  N1  UNL     1      -9.266  26.523  -5.789  1.00  0.00    -0.234 N 
ATOM     11  H1  UNL     1      -9.273  27.198  -6.554  1.00  0.00     0.197 HD
BRANCH  10  12
HETATM   12  O2  UNL     1     -10.281  25.666  -5.640  1.00  0.00    -0.287 OA
ATOM     13  H2  UNL     1     -11.133  25.881  -6.001  1.00  0.00     0.244 HD
ENDBRANCH  10  12
ENDBRANCH   7   8
ENDBRANCH   4   6
ENDBRANCH   1   3
BRANCH   1  14
HETATM   14  C9  UNL     1      -1.275  27.875  -5.124  1.00  0.00     0.166 C 
HETATM   15  O3  UNL     1      -0.987  28.208  -6.300  1.00  0.00    -0.292 OA
BRANCH  14  16
HETATM   16  C10 UNL     1      -0.459  26.889  -4.424  1.00  0.00     0.011 A 
HETATM   17  C11 UNL     1       0.822  27.189  -4.011  1.00  0.00     0.017 A 
HETATM   18  C12 UNL     1       1.591  26.255  -3.348  1.00  0.00     0.030 A 
HETATM   19  C13 UNL     1       1.132  24.987  -3.062  1.00  0.00     0.029 A 
HETATM   20  C16 UNL     1      -0.149  24.681  -3.472  1.00  0.00     0.030 A 
HETATM   21  C17 UNL     1      -0.924  25.622  -4.141  1.00  0.00     0.017 A 
BRANCH  19  22
HETATM   22  N2  UNL     1       1.914  24.014  -2.378  1.00  0.00    -0.390 N 
HETATM   23  C14 UNL     1       2.292  24.135  -0.995  1.00  0.00     0.149 C 
HETATM   24  C15 UNL     1       2.363  22.830  -3.094  1.00  0.00     0.149 C 
ENDBRANCH  19  22
ENDBRANCH  14  16
ENDBRANCH   1  14
TORSDOF 7
ENDMDL
