MODEL 3
REMARK VINA RESULT: -8.543803878      0.999      1.693
REMARK  7 active torsions:
REMARK  status: ('A' for Active; 'I' for Inactive)
REMARK    1  A    between atoms: C2_2  and  C3_3 
REMARK    2  A    between atoms: C4_4  and  C5_5 
REMARK       I    between atoms: C5_5  and  N1_7 
REMARK    3  A    between atoms: N1_7  and  O2_9 
REMARK    4  A    between atoms: C6_11  and  C7_12 
REMARK    5  A    between atoms: C7_12  and  C9_14 
REMARK    6  A    between atoms: C9_14  and  C10_16 
REMARK    7  A    between atoms: C13_19  and  N2_20 
ROOT
HETATM    1  C7  UNL     1      -2.156  28.473  -4.203  1.00  0.00     0.079 C 
HETATM    2  C8  UNL     1      -1.442  28.274  -2.860  1.00  0.00     0.022 C 
ENDROOT
BRANCH   1   3
HETATM    3  C6  UNL     1      -3.322  27.587  -4.200  1.00  0.00    -0.008 C 
HETATM    4  C2  UNL     1      -4.550  28.149  -4.133  1.00  0.00    -0.065 C 
HETATM    5  C1  UNL     1      -4.585  29.603  -4.069  1.00  0.00     0.048 C 
BRANCH   4   6
HETATM    6  C3  UNL     1      -5.718  27.296  -4.129  1.00  0.00     0.012 C 
HETATM    7  C4  UNL     1      -6.749  27.481  -4.893  1.00  0.00     0.076 C 
BRANCH   7   8
HETATM    8  C5  UNL     1      -7.925  26.584  -4.857  1.00  0.00     0.264 C 
HETATM    9  O1  UNL     1      -7.964  25.735  -3.951  1.00  0.00    -0.266 OA
HETATM   10  N1  UNL     1      -8.975  26.661  -5.793  1.00  0.00    -0.234 N 
ATOM     11  H1  UNL     1      -8.947  27.358  -6.538  1.00  0.00     0.197 HD
BRANCH  10  12
HETATM   12  O2  UNL     1     -10.007  25.818  -5.699  1.00  0.00    -0.287 OA
ATOM     13  H2  UNL     1     -10.034  25.184  -4.992  1.00  0.00     0.244 HD
ENDBRANCH  10  12
ENDBRANCH   7   8
ENDBRANCH   4   6
ENDBRANCH   1   3
BRANCH   1  14
HETATM   14  C9  UNL     1      -1.179  28.106  -5.257  1.00  0.00     0.166 C 
HETATM   15  O3  UNL     1      -0.775  26.918  -5.287  1.00  0.00    -0.292 OA
BRANCH  14  16
HETATM   16  C10 UNL     1      -0.687  29.069  -6.237  1.00  0.00     0.011 A 
HETATM   17  C11 UNL     1      -0.753  30.425  -5.996  1.00  0.00     0.017 A 
HETATM   18  C12 UNL     1      -0.286  31.334  -6.923  1.00  0.00     0.030 A 
HETATM   19  C13 UNL     1       0.267  30.947  -8.126  1.00  0.00     0.029 A 
HETATM   20  C16 UNL     1       0.335  29.591  -8.372  1.00  0.00     0.030 A 
HETATM   21  C17 UNL     1      -0.136  28.675  -7.438  1.00  0.00     0.017 A 
BRANCH  19  22
HETATM   22  N2  UNL     1       0.753  31.873  -9.091  1.00  0.00    -0.390 N 
HETATM   23  C14 UNL     1       0.812  33.292  -8.863  1.00  0.00     0.149 C 
HETATM   24  C15 UNL     1       1.218  31.381 -10.379  1.00  0.00     0.149 C 
ENDBRANCH  19  22
ENDBRANCH  14  16
ENDBRANCH   1  14
TORSDOF 7
ENDMDL
