MODEL 8
REMARK VINA RESULT: -8.148780861      3.409      5.913
REMARK  7 active torsions:
REMARK  status: ('A' for Active; 'I' for Inactive)
REMARK    1  A    between atoms: C2_2  and  C3_3 
REMARK    2  A    between atoms: C4_4  and  C5_5 
REMARK       I    between atoms: C5_5  and  N1_7 
REMARK    3  A    between atoms: N1_7  and  O2_9 
REMARK    4  A    between atoms: C6_11  and  C7_12 
REMARK    5  A    between atoms: C7_12  and  C9_14 
REMARK    6  A    between atoms: C9_14  and  C10_16 
REMARK    7  A    between atoms: C13_19  and  N2_20 
ROOT
HETATM    1  C7  UNL     1      -1.821  29.041  -4.143  1.00  0.00     0.079 C 
HETATM    2  C8  UNL     1      -1.561  30.205  -5.107  1.00  0.00     0.022 C 
ENDROOT
BRANCH   1   3
HETATM    3  C6  UNL     1      -3.274  28.915  -4.011  1.00  0.00    -0.008 C 
HETATM    4  C2  UNL     1      -3.842  27.730  -4.327  1.00  0.00    -0.065 C 
HETATM    5  C1  UNL     1      -2.933  26.684  -4.776  1.00  0.00     0.048 C 
BRANCH   4   6
HETATM    6  C3  UNL     1      -5.275  27.578  -4.205  1.00  0.00     0.012 C 
HETATM    7  C4  UNL     1      -6.005  26.913  -5.047  1.00  0.00     0.076 C 
BRANCH   7   8
HETATM    8  C5  UNL     1      -7.470  26.783  -4.884  1.00  0.00     0.264 C 
HETATM    9  O1  UNL     1      -7.879  25.909  -4.103  1.00  0.00    -0.266 OA
HETATM   10  N1  UNL     1      -8.390  27.601  -5.569  1.00  0.00    -0.234 N 
ATOM     11  H1  UNL     1      -8.058  28.320  -6.211  1.00  0.00     0.197 HD
BRANCH  10  12
HETATM   12  O2  UNL     1      -9.701  27.428  -5.373  1.00  0.00    -0.287 OA
ATOM     13  H2  UNL     1     -10.317  27.720  -6.034  1.00  0.00     0.244 HD
ENDBRANCH  10  12
ENDBRANCH   7   8
ENDBRANCH   4   6
ENDBRANCH   1   3
BRANCH   1  14
HETATM   14  C9  UNL     1      -1.173  29.406  -2.859  1.00  0.00     0.166 C 
HETATM   15  O3  UNL     1      -1.417  30.542  -2.387  1.00  0.00    -0.292 OA
BRANCH  14  16
HETATM   16  C10 UNL     1      -0.279  28.496  -2.149  1.00  0.00     0.011 A 
HETATM   17  C11 UNL     1       0.397  28.903  -1.017  1.00  0.00     0.017 A 
HETATM   18  C12 UNL     1       1.240  28.041  -0.347  1.00  0.00     0.030 A 
HETATM   19  C13 UNL     1       1.453  26.742  -0.761  1.00  0.00     0.029 A 
HETATM   20  C16 UNL     1       0.778  26.331  -1.892  1.00  0.00     0.030 A 
HETATM   21  C17 UNL     1      -0.071  27.199  -2.568  1.00  0.00     0.017 A 
BRANCH  19  22
HETATM   22  N2  UNL     1       2.319  25.842  -0.079  1.00  0.00    -0.390 N 
HETATM   23  C14 UNL     1       2.047  24.436   0.059  1.00  0.00     0.149 C 
HETATM   24  C15 UNL     1       3.546  26.349   0.517  1.00  0.00     0.149 C 
ENDBRANCH  19  22
ENDBRANCH  14  16
ENDBRANCH   1  14
TORSDOF 7
ENDMDL
