MODEL 14
REMARK VINA RESULT: -7.702062010      2.666      3.271
REMARK  7 active torsions:
REMARK  status: ('A' for Active; 'I' for Inactive)
REMARK    1  A    between atoms: C2_2  and  C3_3 
REMARK    2  A    between atoms: C4_4  and  C5_5 
REMARK       I    between atoms: C5_5  and  N1_7 
REMARK    3  A    between atoms: N1_7  and  O2_9 
REMARK    4  A    between atoms: C6_11  and  C7_12 
REMARK    5  A    between atoms: C7_12  and  C9_14 
REMARK    6  A    between atoms: C9_14  and  C10_16 
REMARK    7  A    between atoms: C13_19  and  N2_20 
ROOT
HETATM    1  C7  UNL     1      -1.200  27.959  -4.074  1.00  0.00     0.079 C 
HETATM    2  C8  UNL     1      -1.004  27.990  -2.553  1.00  0.00     0.022 C 
ENDROOT
BRANCH   1   3
HETATM    3  C6  UNL     1      -2.452  27.246  -4.326  1.00  0.00    -0.008 C 
HETATM    4  C2  UNL     1      -3.596  27.965  -4.383  1.00  0.00    -0.065 C 
HETATM    5  C1  UNL     1      -3.458  29.401  -4.182  1.00  0.00     0.048 C 
BRANCH   4   6
HETATM    6  C3  UNL     1      -4.847  27.284  -4.631  1.00  0.00     0.012 C 
HETATM    7  C4  UNL     1      -6.011  27.841  -4.495  1.00  0.00     0.076 C 
BRANCH   7   8
HETATM    8  C5  UNL     1      -7.269  27.107  -4.760  1.00  0.00     0.264 C 
HETATM    9  O1  UNL     1      -7.469  26.069  -4.109  1.00  0.00    -0.266 OA
HETATM   10  N1  UNL     1      -8.222  27.541  -5.703  1.00  0.00    -0.234 N 
ATOM     11  H1  UNL     1      -8.061  28.393  -6.240  1.00  0.00     0.197 HD
BRANCH  10  12
HETATM   12  O2  UNL     1      -9.336  26.828  -5.891  1.00  0.00    -0.287 OA
ATOM     13  H2  UNL     1      -9.900  27.024  -6.630  1.00  0.00     0.244 HD
ENDBRANCH  10  12
ENDBRANCH   7   8
ENDBRANCH   4   6
ENDBRANCH   1   3
BRANCH   1  14
HETATM   14  C9  UNL     1      -0.027  27.243  -4.634  1.00  0.00     0.166 C 
HETATM   15  O3  UNL     1       0.565  26.424  -3.890  1.00  0.00    -0.292 OA
BRANCH  14  16
HETATM   16  C10 UNL     1       0.446  27.465  -5.997  1.00  0.00     0.011 A 
HETATM   17  C11 UNL     1       1.509  26.749  -6.507  1.00  0.00     0.017 A 
HETATM   18  C12 UNL     1       1.952  26.959  -7.796  1.00  0.00     0.030 A 
HETATM   19  C13 UNL     1       1.368  27.881  -8.639  1.00  0.00     0.029 A 
HETATM   20  C16 UNL     1       0.303  28.599  -8.134  1.00  0.00     0.030 A 
HETATM   21  C17 UNL     1      -0.144  28.388  -6.835  1.00  0.00     0.017 A 
BRANCH  19  22
HETATM   22  N2  UNL     1       1.814  28.107  -9.972  1.00  0.00    -0.390 N 
HETATM   23  C14 UNL     1       1.917  27.065 -10.957  1.00  0.00     0.149 C 
HETATM   24  C15 UNL     1       2.190  29.453 -10.377  1.00  0.00     0.149 C 
ENDBRANCH  19  22
ENDBRANCH  14  16
ENDBRANCH   1  14
TORSDOF 7
ENDMDL
