MODEL 7
REMARK VINA RESULT: -8.253709597      3.755      5.545
REMARK  7 active torsions:
REMARK  status: ('A' for Active; 'I' for Inactive)
REMARK    1  A    between atoms: C2_2  and  C3_3 
REMARK    2  A    between atoms: C4_4  and  C5_5 
REMARK       I    between atoms: C5_5  and  N1_7 
REMARK    3  A    between atoms: N1_7  and  O2_9 
REMARK    4  A    between atoms: C6_11  and  C7_12 
REMARK    5  A    between atoms: C7_12  and  C9_14 
REMARK    6  A    between atoms: C9_14  and  C10_16 
REMARK    7  A    between atoms: C13_19  and  N2_20 
ROOT
HETATM    1  C7  UNL     1      -2.450  28.506  -4.365  1.00  0.00     0.079 C 
HETATM    2  C8  UNL     1      -1.997  28.739  -2.918  1.00  0.00     0.022 C 
ENDROOT
BRANCH   1   3
HETATM    3  C6  UNL     1      -3.604  27.607  -4.309  1.00  0.00    -0.008 C 
HETATM    4  C2  UNL     1      -4.837  28.157  -4.231  1.00  0.00    -0.065 C 
HETATM    5  C1  UNL     1      -4.888  29.612  -4.209  1.00  0.00     0.048 C 
BRANCH   4   6
HETATM    6  C3  UNL     1      -5.994  27.292  -4.175  1.00  0.00     0.012 C 
HETATM    7  C4  UNL     1      -7.013  27.396  -4.972  1.00  0.00     0.076 C 
BRANCH   7   8
HETATM    8  C5  UNL     1      -8.178  26.489  -4.880  1.00  0.00     0.264 C 
HETATM    9  O1  UNL     1      -8.184  25.664  -3.952  1.00  0.00    -0.266 OA
HETATM   10  N1  UNL     1      -9.253  26.532  -5.790  1.00  0.00    -0.234 N 
ATOM     11  H1  UNL     1      -9.252  27.208  -6.553  1.00  0.00     0.197 HD
BRANCH  10  12
HETATM   12  O2  UNL     1     -10.274  25.681  -5.647  1.00  0.00    -0.287 OA
ATOM     13  H2  UNL     1     -10.102  24.777  -5.412  1.00  0.00     0.244 HD
ENDBRANCH  10  12
ENDBRANCH   7   8
ENDBRANCH   4   6
ENDBRANCH   1   3
BRANCH   1  14
HETATM   14  C9  UNL     1      -1.298  27.893  -5.072  1.00  0.00     0.166 C 
HETATM   15  O3  UNL     1      -1.055  28.287  -6.238  1.00  0.00    -0.292 OA
BRANCH  14  16
HETATM   16  C10 UNL     1      -0.463  26.865  -4.459  1.00  0.00     0.011 A 
HETATM   17  C11 UNL     1      -0.966  25.612  -4.179  1.00  0.00     0.017 A 
HETATM   18  C12 UNL     1      -0.174  24.642  -3.601  1.00  0.00     0.030 A 
HETATM   19  C13 UNL     1       1.149  24.863  -3.276  1.00  0.00     0.029 A 
HETATM   20  C16 UNL     1       1.657  26.115  -3.554  1.00  0.00     0.030 A 
HETATM   21  C17 UNL     1       0.858  27.093  -4.136  1.00  0.00     0.017 A 
BRANCH  19  22
HETATM   22  N2  UNL     1       1.978  23.872  -2.680  1.00  0.00    -0.390 N 
HETATM   23  C14 UNL     1       2.476  22.726  -3.394  1.00  0.00     0.149 C 
HETATM   24  C15 UNL     1       2.353  24.004  -1.280  1.00  0.00     0.149 C 
ENDBRANCH  19  22
ENDBRANCH  14  16
ENDBRANCH   1  14
TORSDOF 7
ENDMDL
