MODEL 10
REMARK VINA RESULT: -8.029977923      1.173      1.379
REMARK  7 active torsions:
REMARK  status: ('A' for Active; 'I' for Inactive)
REMARK    1  A    between atoms: C2_2  and  C3_3 
REMARK    2  A    between atoms: C4_4  and  C5_5 
REMARK       I    between atoms: C5_5  and  N1_7 
REMARK    3  A    between atoms: N1_7  and  O2_9 
REMARK    4  A    between atoms: C6_11  and  C7_12 
REMARK    5  A    between atoms: C7_12  and  C9_14 
REMARK    6  A    between atoms: C9_14  and  C10_16 
REMARK    7  A    between atoms: C13_19  and  N2_20 
ROOT
HETATM    1  C7  UNL     1      -1.537  27.404  -3.905  1.00  0.00     0.079 C 
HETATM    2  C8  UNL     1      -1.199  26.304  -2.891  1.00  0.00     0.022 C 
ENDROOT
BRANCH   1   3
HETATM    3  C6  UNL     1      -2.883  27.121  -4.406  1.00  0.00    -0.008 C 
HETATM    4  C2  UNL     1      -3.829  28.077  -4.266  1.00  0.00    -0.065 C 
HETATM    5  C1  UNL     1      -3.403  29.309  -3.619  1.00  0.00     0.048 C 
BRANCH   4   6
HETATM    6  C3  UNL     1      -5.167  27.822  -4.753  1.00  0.00     0.012 C 
HETATM    7  C4  UNL     1      -6.030  27.075  -4.136  1.00  0.00     0.076 C 
BRANCH   7   8
HETATM    8  C5  UNL     1      -7.390  26.841  -4.670  1.00  0.00     0.264 C 
HETATM    9  O1  UNL     1      -7.983  25.819  -4.287  1.00  0.00    -0.266 OA
HETATM   10  N1  UNL     1      -8.018  27.721  -5.574  1.00  0.00    -0.234 N 
ATOM     11  H1  UNL     1      -7.534  28.562  -5.890  1.00  0.00     0.197 HD
BRANCH  10  12
HETATM   12  O2  UNL     1      -9.249  27.447  -6.016  1.00  0.00    -0.287 OA
ATOM     13  H2  UNL     1      -9.984  27.965  -5.708  1.00  0.00     0.244 HD
ENDBRANCH  10  12
ENDBRANCH   7   8
ENDBRANCH   4   6
ENDBRANCH   1   3
BRANCH   1  14
HETATM   14  C9  UNL     1      -0.513  27.319  -4.976  1.00  0.00     0.166 C 
HETATM   15  O3  UNL     1       0.143  26.253  -5.069  1.00  0.00    -0.292 OA
BRANCH  14  16
HETATM   16  C10 UNL     1      -0.256  28.418  -5.901  1.00  0.00     0.011 A 
HETATM   17  C11 UNL     1       0.213  28.180  -7.175  1.00  0.00     0.017 A 
HETATM   18  C12 UNL     1       0.454  29.221  -8.048  1.00  0.00     0.030 A 
HETATM   19  C13 UNL     1       0.241  30.540  -7.704  1.00  0.00     0.029 A 
HETATM   20  C16 UNL     1      -0.229  30.783  -6.430  1.00  0.00     0.030 A 
HETATM   21  C17 UNL     1      -0.471  29.734  -5.550  1.00  0.00     0.017 A 
BRANCH  19  22
HETATM   22  N2  UNL     1       0.484  31.623  -8.595  1.00  0.00    -0.390 N 
HETATM   23  C14 UNL     1       1.025  31.452  -9.917  1.00  0.00     0.149 C 
HETATM   24  C15 UNL     1       0.178  32.980  -8.166  1.00  0.00     0.149 C 
ENDBRANCH  19  22
ENDBRANCH  14  16
ENDBRANCH   1  14
TORSDOF 7
ENDMDL
