MODEL 14
REMARK VINA RESULT: -8.726076509      3.003      3.914
REMARK  6 active torsions:
REMARK  status: ('A' for Active; 'I' for Inactive)
REMARK    1  A    between atoms: O1_1  and  N1_3 
REMARK       I    between atoms: N1_3  and  C1_5 
REMARK    2  A    between atoms: C1_5  and  C2_7 
REMARK    3  A    between atoms: C3_8  and  C4_9 
REMARK    4  A    between atoms: C8_13  and  S1_14 
REMARK    5  A    between atoms: S1_14  and  N2_17 
REMARK    6  A    between atoms: N2_17  and  C9_19 
ROOT
HETATM    1  C4  UNL     1      29.549  99.955  31.578  1.00  0.00    -0.035 A 
HETATM    2  C5  UNL     1      29.404 101.142  32.259  1.00  0.00     0.011 A 
HETATM    3  C6  UNL     1      30.177 101.459  33.383  1.00  0.00     0.002 A 
HETATM    4  C7  UNL     1      31.120 100.559  33.832  1.00  0.00     0.025 A 
HETATM    5  C8  UNL     1      31.277  99.374  33.166  1.00  0.00     0.080 A 
HETATM    6  C15 UNL     1      30.515  99.076  32.071  1.00  0.00     0.036 A 
ENDROOT
BRANCH   5   7
HETATM    7  S1  UNL     1      32.455  98.167  33.670  1.00  0.00     0.263 S 
HETATM    8  O3  UNL     1      32.428  98.051  35.164  1.00  0.00    -0.200 OA
HETATM    9  O4  UNL     1      32.022  96.817  33.122  1.00  0.00    -0.200 OA
BRANCH   7  10
HETATM   10  N2  UNL     1      34.011  98.529  33.092  1.00  0.00    -0.281 N 
ATOM     11  H2  UNL     1      34.660  97.771  32.874  1.00  0.00     0.179 HD
BRANCH  10  12
HETATM   12  C9  UNL     1      34.413  99.869  32.909  1.00  0.00     0.042 A 
HETATM   13  C10 UNL     1      34.335 100.515  31.680  1.00  0.00     0.030 A 
HETATM   14  C11 UNL     1      34.734 101.820  31.538  1.00  0.00     0.002 A 
HETATM   15  C12 UNL     1      35.216 102.506  32.615  1.00  0.00     0.000 A 
HETATM   16  C13 UNL     1      35.315 101.919  33.853  1.00  0.00     0.002 A 
HETATM   17  C14 UNL     1      34.904 100.590  33.974  1.00  0.00     0.030 A 
ENDBRANCH  10  12
ENDBRANCH   7  10
ENDBRANCH   5   7
BRANCH   1  18
HETATM   18  C3  UNL     1      28.753  99.606  30.407  1.00  0.00     0.017 C 
HETATM   19  C2  UNL     1      27.847 100.397  29.874  1.00  0.00     0.077 C 
BRANCH  19  20
HETATM   20  C1  UNL     1      27.104  99.948  28.696  1.00  0.00     0.264 C 
HETATM   21  N1  UNL     1      26.881  98.565  28.454  1.00  0.00    -0.234 N 
ATOM     22  H1  UNL     1      27.662  97.967  28.187  1.00  0.00     0.197 HD
HETATM   23  O2  UNL     1      26.637 100.764  27.863  1.00  0.00    -0.266 OA
BRANCH  21  24
HETATM   24  O1  UNL     1      25.745  98.079  28.564  1.00  0.00    -0.287 OA
ATOM     25  H1  UNL     1      25.488  97.625  29.357  1.00  0.00     0.244 HD
ENDBRANCH  21  24
ENDBRANCH  19  20
ENDBRANCH   1  18
TORSDOF 6
ENDMDL
