MODEL 5
REMARK VINA RESULT: -9.435742353      0.934      1.125
REMARK  6 active torsions:
REMARK  status: ('A' for Active; 'I' for Inactive)
REMARK    1  A    between atoms: O1_1  and  N1_3 
REMARK       I    between atoms: N1_3  and  C1_5 
REMARK    2  A    between atoms: C1_5  and  C2_7 
REMARK    3  A    between atoms: C3_8  and  C4_9 
REMARK    4  A    between atoms: C8_13  and  S1_14 
REMARK    5  A    between atoms: S1_14  and  N2_17 
REMARK    6  A    between atoms: N2_17  and  C9_19 
ROOT
HETATM    1  C4  UNL     1      29.440 100.280  32.050  1.00  0.00    -0.035 A 
HETATM    2  C5  UNL     1      29.775 101.483  32.629  1.00  0.00     0.011 A 
HETATM    3  C6  UNL     1      30.865 101.616  33.498  1.00  0.00     0.002 A 
HETATM    4  C7  UNL     1      31.637 100.512  33.792  1.00  0.00     0.025 A 
HETATM    5  C8  UNL     1      31.317  99.309  33.225  1.00  0.00     0.080 A 
HETATM    6  C15 UNL     1      30.250  99.190  32.379  1.00  0.00     0.036 A 
ENDROOT
BRANCH   5   7
HETATM    7  S1  UNL     1      32.247  97.849  33.546  1.00  0.00     0.263 S 
HETATM    8  O3  UNL     1      31.312  96.681  33.631  1.00  0.00    -0.200 OA
HETATM    9  O4  UNL     1      33.157  97.591  32.356  1.00  0.00    -0.200 OA
BRANCH   7  10
HETATM   10  N2  UNL     1      33.195  98.003  34.947  1.00  0.00    -0.281 N 
ATOM     11  H2  UNL     1      33.719  98.863  35.113  1.00  0.00     0.179 HD
BRANCH  10  12
HETATM   12  C9  UNL     1      33.263  96.950  35.884  1.00  0.00     0.042 A 
HETATM   13  C10 UNL     1      34.113  95.860  35.729  1.00  0.00     0.030 A 
HETATM   14  C11 UNL     1      34.154  94.854  36.660  1.00  0.00     0.002 A 
HETATM   15  C12 UNL     1      33.350  94.912  37.762  1.00  0.00     0.000 A 
HETATM   16  C13 UNL     1      32.491  95.964  37.967  1.00  0.00     0.002 A 
HETATM   17  C14 UNL     1      32.466  96.977  37.006  1.00  0.00     0.030 A 
ENDBRANCH  10  12
ENDBRANCH   7  10
ENDBRANCH   5   7
BRANCH   1  18
HETATM   18  C3  UNL     1      28.309 100.118  31.143  1.00  0.00     0.017 C 
HETATM   19  C2  UNL     1      28.363  99.434  30.022  1.00  0.00     0.077 C 
BRANCH  19  20
HETATM   20  C1  UNL     1      27.167  99.334  29.183  1.00  0.00     0.264 C 
HETATM   21  N1  UNL     1      26.768 100.411  28.346  1.00  0.00    -0.234 N 
ATOM     22  H1  UNL     1      26.401 101.267  28.764  1.00  0.00     0.197 HD
HETATM   23  O2  UNL     1      26.456  98.298  29.172  1.00  0.00    -0.266 OA
BRANCH  21  24
HETATM   24  O1  UNL     1      26.860 100.321  27.113  1.00  0.00    -0.287 OA
ATOM     25  H1  UNL     1      27.711 100.297  26.691  1.00  0.00     0.244 HD
ENDBRANCH  21  24
ENDBRANCH  19  20
ENDBRANCH   1  18
TORSDOF 6
ENDMDL
