MODEL 1
REMARK VINA RESULT: -9.672147057      0.000      0.000
REMARK  6 active torsions:
REMARK  status: ('A' for Active; 'I' for Inactive)
REMARK    1  A    between atoms: O1_1  and  N1_3 
REMARK       I    between atoms: N1_3  and  C1_5 
REMARK    2  A    between atoms: C1_5  and  C2_7 
REMARK    3  A    between atoms: C3_8  and  C4_9 
REMARK    4  A    between atoms: C8_13  and  S1_14 
REMARK    5  A    between atoms: S1_14  and  N2_17 
REMARK    6  A    between atoms: N2_17  and  C9_19 
ROOT
HETATM    1  C4  UNL     1      29.345 100.310  31.823  1.00  0.00    -0.035 A 
HETATM    2  C5  UNL     1      29.602 101.434  32.575  1.00  0.00     0.011 A 
HETATM    3  C6  UNL     1      30.669 101.501  33.479  1.00  0.00     0.002 A 
HETATM    4  C7  UNL     1      31.498 100.410  33.631  1.00  0.00     0.025 A 
HETATM    5  C8  UNL     1      31.257  99.284  32.891  1.00  0.00     0.080 A 
HETATM    6  C15 UNL     1      30.211  99.231  32.011  1.00  0.00     0.036 A 
ENDROOT
BRANCH   5   7
HETATM    7  S1  UNL     1      32.264  97.847  33.022  1.00  0.00     0.263 S 
HETATM    8  O3  UNL     1      32.114  97.029  31.775  1.00  0.00    -0.200 OA
HETATM    9  O4  UNL     1      33.718  98.286  33.080  1.00  0.00    -0.200 OA
BRANCH   7  10
HETATM   10  N2  UNL     1      31.898  96.948  34.416  1.00  0.00    -0.281 N 
ATOM     11  H2  UNL     1      30.975  97.029  34.844  1.00  0.00     0.179 HD
BRANCH  10  12
HETATM   12  C9  UNL     1      32.862  96.090  34.986  1.00  0.00     0.042 A 
HETATM   13  C10 UNL     1      33.867  95.487  34.238  1.00  0.00     0.030 A 
HETATM   14  C11 UNL     1      34.789  94.657  34.825  1.00  0.00     0.002 A 
HETATM   15  C12 UNL     1      34.728  94.412  36.167  1.00  0.00     0.000 A 
HETATM   16  C13 UNL     1      33.756  94.980  36.955  1.00  0.00     0.002 A 
HETATM   17  C14 UNL     1      32.829  95.821  36.336  1.00  0.00     0.030 A 
ENDBRANCH  10  12
ENDBRANCH   7  10
ENDBRANCH   5   7
BRANCH   1  18
HETATM   18  C3  UNL     1      28.239 100.219  30.876  1.00  0.00     0.017 C 
HETATM   19  C2  UNL     1      28.124  99.268  29.975  1.00  0.00     0.077 C 
BRANCH  19  20
HETATM   20  C1  UNL     1      26.972  99.270  29.072  1.00  0.00     0.264 C 
HETATM   21  N1  UNL     1      26.677 100.402  28.263  1.00  0.00    -0.234 N 
ATOM     22  H1  UNL     1      26.335 101.259  28.698  1.00  0.00     0.197 HD
HETATM   23  O2  UNL     1      26.208  98.278  28.978  1.00  0.00    -0.266 OA
BRANCH  21  24
HETATM   24  O1  UNL     1      26.832 100.357  27.033  1.00  0.00    -0.287 OA
ATOM     25  H1  UNL     1      27.437  99.738  26.644  1.00  0.00     0.244 HD
ENDBRANCH  21  24
ENDBRANCH  19  20
ENDBRANCH   1  18
TORSDOF 6
ENDMDL
