MODEL 7
REMARK VINA RESULT: -9.217096780      3.015      3.802
REMARK  6 active torsions:
REMARK  status: ('A' for Active; 'I' for Inactive)
REMARK    1  A    between atoms: O1_1  and  N1_3 
REMARK       I    between atoms: N1_3  and  C1_5 
REMARK    2  A    between atoms: C1_5  and  C2_7 
REMARK    3  A    between atoms: C3_8  and  C4_9 
REMARK    4  A    between atoms: C8_13  and  S1_14 
REMARK    5  A    between atoms: S1_14  and  N2_17 
REMARK    6  A    between atoms: N2_17  and  C9_19 
ROOT
HETATM    1  C4  UNL     1      29.392 100.466  31.943  1.00  0.00    -0.035 A 
HETATM    2  C5  UNL     1      29.573 101.582  32.727  1.00  0.00     0.011 A 
HETATM    3  C6  UNL     1      30.627 101.689  33.642  1.00  0.00     0.002 A 
HETATM    4  C7  UNL     1      31.521 100.647  33.772  1.00  0.00     0.025 A 
HETATM    5  C8  UNL     1      31.355  99.530  32.999  1.00  0.00     0.080 A 
HETATM    6  C15 UNL     1      30.321  99.437  32.109  1.00  0.00     0.036 A 
ENDROOT
BRANCH   5   7
HETATM    7  S1  UNL     1      32.448  98.154  33.100  1.00  0.00     0.263 S 
HETATM    8  O3  UNL     1      32.391  97.584  34.485  1.00  0.00    -0.200 OA
HETATM    9  O4  UNL     1      31.938  97.070  32.164  1.00  0.00    -0.200 OA
BRANCH   7  10
HETATM   10  N2  UNL     1      34.031  98.575  32.654  1.00  0.00    -0.281 N 
ATOM     11  H2  UNL     1      34.692  97.847  32.383  1.00  0.00     0.179 HD
BRANCH  10  12
HETATM   12  C9  UNL     1      34.438  99.926  32.653  1.00  0.00     0.042 A 
HETATM   13  C10 UNL     1      34.324 100.745  31.535  1.00  0.00     0.030 A 
HETATM   14  C11 UNL     1      34.729 102.055  31.570  1.00  0.00     0.002 A 
HETATM   15  C12 UNL     1      35.256 102.575  32.717  1.00  0.00     0.000 A 
HETATM   16  C13 UNL     1      35.394 101.813  33.851  1.00  0.00     0.002 A 
HETATM   17  C14 UNL     1      34.974 100.482  33.793  1.00  0.00     0.030 A 
ENDBRANCH  10  12
ENDBRANCH   7  10
ENDBRANCH   5   7
BRANCH   1  18
HETATM   18  C3  UNL     1      28.301 100.334  30.983  1.00  0.00     0.017 C 
HETATM   19  C2  UNL     1      28.227  99.375  30.086  1.00  0.00     0.077 C 
BRANCH  19  20
HETATM   20  C1  UNL     1      27.087  99.334  29.170  1.00  0.00     0.264 C 
HETATM   21  N1  UNL     1      26.745 100.462  28.374  1.00  0.00    -0.234 N 
ATOM     22  H1  UNL     1      26.357 101.294  28.818  1.00  0.00     0.197 HD
HETATM   23  O2  UNL     1      26.373  98.307  29.053  1.00  0.00    -0.266 OA
BRANCH  21  24
HETATM   24  O1  UNL     1      26.915 100.443  27.146  1.00  0.00    -0.287 OA
ATOM     25  H1  UNL     1      27.750 100.182  26.776  1.00  0.00     0.244 HD
ENDBRANCH  21  24
ENDBRANCH  19  20
ENDBRANCH   1  18
TORSDOF 6
ENDMDL
