MODEL 3
REMARK VINA RESULT: -9.616157050      0.224      1.036
REMARK  6 active torsions:
REMARK  status: ('A' for Active; 'I' for Inactive)
REMARK    1  A    between atoms: O1_1  and  N1_3 
REMARK       I    between atoms: N1_3  and  C1_5 
REMARK    2  A    between atoms: C1_5  and  C2_7 
REMARK    3  A    between atoms: C3_8  and  C4_9 
REMARK    4  A    between atoms: C8_13  and  S1_14 
REMARK    5  A    between atoms: S1_14  and  N2_17 
REMARK    6  A    between atoms: N2_17  and  C9_19 
ROOT
HETATM    1  C4  UNL     1      29.380 100.278  31.890  1.00  0.00    -0.035 A 
HETATM    2  C5  UNL     1      29.669 101.414  32.611  1.00  0.00     0.011 A 
HETATM    3  C6  UNL     1      30.746 101.479  33.504  1.00  0.00     0.002 A 
HETATM    4  C7  UNL     1      31.551 100.374  33.676  1.00  0.00     0.025 A 
HETATM    5  C8  UNL     1      31.277  99.236  32.967  1.00  0.00     0.080 A 
HETATM    6  C15 UNL     1      30.223  99.184  32.098  1.00  0.00     0.036 A 
ENDROOT
BRANCH   5   7
HETATM    7  S1  UNL     1      32.253  97.779  33.125  1.00  0.00     0.263 S 
HETATM    8  O3  UNL     1      32.233  97.033  31.826  1.00  0.00    -0.200 OA
HETATM    9  O4  UNL     1      33.695  98.194  33.366  1.00  0.00    -0.200 OA
BRANCH   7  10
HETATM   10  N2  UNL     1      31.730  96.811  34.419  1.00  0.00    -0.281 N 
ATOM     11  H2  UNL     1      30.739  96.779  34.661  1.00  0.00     0.179 HD
BRANCH  10  12
HETATM   12  C9  UNL     1      32.657  96.049  35.162  1.00  0.00     0.042 A 
HETATM   13  C10 UNL     1      32.550  95.867  36.537  1.00  0.00     0.030 A 
HETATM   14  C11 UNL     1      33.469  95.119  37.228  1.00  0.00     0.002 A 
HETATM   15  C12 UNL     1      34.511  94.539  36.565  1.00  0.00     0.000 A 
HETATM   16  C13 UNL     1      34.668  94.685  35.208  1.00  0.00     0.002 A 
HETATM   17  C14 UNL     1      33.720  95.450  34.525  1.00  0.00     0.030 A 
ENDBRANCH  10  12
ENDBRANCH   7  10
ENDBRANCH   5   7
BRANCH   1  18
HETATM   18  C3  UNL     1      28.263 100.188  30.956  1.00  0.00     0.017 C 
HETATM   19  C2  UNL     1      28.190  99.303  29.986  1.00  0.00     0.077 C 
BRANCH  19  20
HETATM   20  C1  UNL     1      27.022  99.300  29.103  1.00  0.00     0.264 C 
HETATM   21  N1  UNL     1      26.694 100.439  28.318  1.00  0.00    -0.234 N 
ATOM     22  H1  UNL     1      26.346 101.283  28.773  1.00  0.00     0.197 HD
HETATM   23  O2  UNL     1      26.273  98.296  29.007  1.00  0.00    -0.266 OA
BRANCH  21  24
HETATM   24  O1  UNL     1      26.828 100.416  27.085  1.00  0.00    -0.287 OA
ATOM     25  H1  UNL     1      27.233  99.672  26.656  1.00  0.00     0.244 HD
ENDBRANCH  21  24
ENDBRANCH  19  20
ENDBRANCH   1  18
TORSDOF 6
ENDMDL
