MODEL 9
REMARK VINA RESULT: -9.204595107      3.021      3.908
REMARK  6 active torsions:
REMARK  status: ('A' for Active; 'I' for Inactive)
REMARK    1  A    between atoms: O1_1  and  N1_3 
REMARK       I    between atoms: N1_3  and  C1_5 
REMARK    2  A    between atoms: C1_5  and  C2_7 
REMARK    3  A    between atoms: C3_8  and  C4_9 
REMARK    4  A    between atoms: C8_13  and  S1_14 
REMARK    5  A    between atoms: S1_14  and  N2_17 
REMARK    6  A    between atoms: N2_17  and  C9_19 
ROOT
HETATM    1  C4  UNL     1      29.397 100.470  31.953  1.00  0.00    -0.035 A 
HETATM    2  C5  UNL     1      29.573 101.587  32.738  1.00  0.00     0.011 A 
HETATM    3  C6  UNL     1      30.628 101.699  33.653  1.00  0.00     0.002 A 
HETATM    4  C7  UNL     1      31.526 100.661  33.782  1.00  0.00     0.025 A 
HETATM    5  C8  UNL     1      31.365  99.544  33.009  1.00  0.00     0.080 A 
HETATM    6  C15 UNL     1      30.331  99.446  32.119  1.00  0.00     0.036 A 
ENDROOT
BRANCH   5   7
HETATM    7  S1  UNL     1      32.464  98.172  33.109  1.00  0.00     0.263 S 
HETATM    8  O3  UNL     1      32.425  97.614  34.499  1.00  0.00    -0.200 OA
HETATM    9  O4  UNL     1      31.949  97.079  32.187  1.00  0.00    -0.200 OA
BRANCH   7  10
HETATM   10  N2  UNL     1      34.041  98.596  32.641  1.00  0.00    -0.281 N 
ATOM     11  H2  UNL     1      34.688  97.873  32.325  1.00  0.00     0.179 HD
BRANCH  10  12
HETATM   12  C9  UNL     1      34.462  99.942  32.684  1.00  0.00     0.042 A 
HETATM   13  C10 UNL     1      34.988 100.528  33.830  1.00  0.00     0.030 A 
HETATM   14  C11 UNL     1      35.389 101.840  33.838  1.00  0.00     0.002 A 
HETATM   15  C12 UNL     1      35.274 102.593  32.705  1.00  0.00     0.000 A 
HETATM   16  C13 UNL     1      34.761 102.068  31.544  1.00  0.00     0.002 A 
HETATM   17  C14 UNL     1      34.360 100.730  31.560  1.00  0.00     0.030 A 
ENDBRANCH  10  12
ENDBRANCH   7  10
ENDBRANCH   5   7
BRANCH   1  18
HETATM   18  C3  UNL     1      28.306 100.333  30.995  1.00  0.00     0.017 C 
HETATM   19  C2  UNL     1      28.228  99.366  30.108  1.00  0.00     0.077 C 
BRANCH  19  20
HETATM   20  C1  UNL     1      27.088  99.320  29.191  1.00  0.00     0.264 C 
HETATM   21  N1  UNL     1      26.753 100.441  28.383  1.00  0.00    -0.234 N 
ATOM     22  H1  UNL     1      26.369 101.280  28.817  1.00  0.00     0.197 HD
HETATM   23  O2  UNL     1      26.370  98.295  29.085  1.00  0.00    -0.266 OA
BRANCH  21  24
HETATM   24  O1  UNL     1      26.923 100.408  27.155  1.00  0.00    -0.287 OA
ATOM     25  H1  UNL     1      26.243 100.708  26.564  1.00  0.00     0.244 HD
ENDBRANCH  21  24
ENDBRANCH  19  20
ENDBRANCH   1  18
TORSDOF 6
ENDMDL
