MODEL 20
REMARK VINA RESULT: -6.814436454      2.435      3.834
REMARK  8 active torsions:
REMARK  status: ('A' for Active; 'I' for Inactive)
REMARK       I    between atoms: C1_2  and  N1_3 
REMARK    1  A    between atoms: C1_2  and  C2_7 
REMARK    2  A    between atoms: N1_3  and  O2_5 
REMARK    3  A    between atoms: C5_10  and  C6_11 
REMARK    4  A    between atoms: C6_11  and  C7_12 
REMARK       I    between atoms: C7_12  and  N2_14 
REMARK    5  A    between atoms: N2_14  and  C8_15 
REMARK    6  A    between atoms: N2_14  and  C10_19 
REMARK    7  A    between atoms: C8_15  and  C9_16 
REMARK    8  A    between atoms: C9_16  and  O4_17 
ROOT
HETATM    1  C6  UNL     1      -7.857  15.841  26.759  1.00  0.00     0.141 C 
ENDROOT
BRANCH   1   2
HETATM    2  C5  UNL     1      -8.140  15.841  25.314  1.00  0.00    -0.049 A 
HETATM    3  C4  UNL     1      -8.703  16.951  24.696  1.00  0.00     0.008 A 
HETATM    4  C3  UNL     1      -8.946  16.982  23.314  1.00  0.00     0.017 A 
HETATM    5  C2  UNL     1      -8.638  15.915  22.509  1.00  0.00     0.034 A 
HETATM    6  C17 UNL     1      -8.075  14.810  23.146  1.00  0.00     0.017 A 
HETATM    7  C16 UNL     1      -7.832  14.771  24.506  1.00  0.00     0.008 A 
BRANCH   5   8
HETATM    8  C1  UNL     1      -8.875  15.902  21.075  1.00  0.00     0.275 C 
HETATM    9  O1  UNL     1      -9.787  15.141  20.580  1.00  0.00    -0.265 OA
HETATM   10  N1  UNL     1      -8.160  16.686  20.153  1.00  0.00    -0.233 N 
ATOM     11  H1  UNL     1      -7.425  17.312  20.485  1.00  0.00     0.197 HD
BRANCH  10  12
HETATM   12  O2  UNL     1      -8.435  16.619  18.829  1.00  0.00    -0.287 OA
ATOM     13  H2  UNL     1      -7.872  17.046  18.194  1.00  0.00     0.244 HD
ENDBRANCH  10  12
ENDBRANCH   5   8
ENDBRANCH   1   2
BRANCH   1  14
HETATM   14  C7  UNL     1      -8.422  14.755  27.553  1.00  0.00     0.228 C 
HETATM   15  O3  UNL     1      -8.963  13.783  27.000  1.00  0.00    -0.273 OA
HETATM   16  N2  UNL     1      -8.314  14.877  28.964  1.00  0.00    -0.316 N 
BRANCH  16  17
HETATM   17  C8  UNL     1      -8.757  13.821  29.815  1.00  0.00     0.158 C 
BRANCH  17  18
HETATM   18  C9  UNL     1     -10.227  13.812  30.139  1.00  0.00     0.184 C 
BRANCH  18  19
HETATM   19  O4  UNL     1     -10.788  12.770  29.349  1.00  0.00    -0.399 OA
ATOM     20  H4  UNL     1     -10.915  12.038  29.942  1.00  0.00     0.209 HD
ENDBRANCH  18  19
ENDBRANCH  17  18
ENDBRANCH  16  17
BRANCH  16  21
HETATM   21  C10 UNL     1      -7.739  16.050  29.536  1.00  0.00     0.037 A 
HETATM   22  C11 UNL     1      -8.543  17.079  30.026  1.00  0.00     0.029 A 
HETATM   23  C12 UNL     1      -8.011  18.210  30.601  1.00  0.00     0.002 A 
HETATM   24  C13 UNL     1      -6.653  18.371  30.718  1.00  0.00     0.000 A 
HETATM   25  C14 UNL     1      -5.839  17.351  30.234  1.00  0.00     0.002 A 
HETATM   26  C15 UNL     1      -6.376  16.210  29.653  1.00  0.00     0.029 A 
ENDBRANCH  16  21
ENDBRANCH   1  14
TORSDOF 8
ENDMDL
