MODEL 3
REMARK VINA RESULT: -7.047631542      2.095      2.912
REMARK  10 active torsions:
REMARK  status: ('A' for Active; 'I' for Inactive)
REMARK    1  A    between atoms: N4_10  and  C5_11 
REMARK    2  A    between atoms: C6_13  and  C7_14 
REMARK    3  A    between atoms: C7_14  and  O2_15 
REMARK    4  A    between atoms: O2_15  and  P1_16 
REMARK    5  A    between atoms: P1_16  and  O5_19 
REMARK    6  A    between atoms: O5_19  and  P2_20 
REMARK    7  A    between atoms: P2_20  and  O8_23 
REMARK    8  A    between atoms: O8_23  and  P3_24 
REMARK    9  A    between atoms: C8_28  and  O12_29 
REMARK   10  A    between atoms: C9_31  and  O13_32 
ROOT
HETATM    1  C5  UNL     1      33.072  27.631  28.427  1.00  0.00     0.262 C 
HETATM    2  O1  UNL     1      32.244  27.579  27.309  1.00  0.00    -0.353 OA
HETATM    3  C6  UNL     1      32.178  28.947  26.970  1.00  0.00     0.180 C 
HETATM    4  C8  UNL     1      33.638  29.312  26.894  1.00  0.00     0.182 C 
HETATM    5  C9  UNL     1      34.273  28.349  27.906  1.00  0.00     0.198 C 
ENDROOT
BRANCH   1   6
HETATM    6  N4  UNL     1      33.375  26.332  28.969  1.00  0.00    -0.297 N 
HETATM    7  C2  UNL     1      33.777  25.263  28.275  1.00  0.00     0.146 A 
HETATM    8  N2  UNL     1      33.999  25.105  26.958  1.00  0.00    -0.314 N 
HETATM    9  C3  UNL     1      33.976  24.179  29.113  1.00  0.00     0.146 A 
HETATM   10  C1  UNL     1      34.406  23.914  26.493  1.00  0.00     0.196 A 
ATOM     11  H2  UNL     1      33.859  25.886  26.317  1.00  0.00     0.170 HD
HETATM   12  N1  UNL     1      34.627  23.808  25.073  1.00  0.00    -0.063 NA
HETATM   13  N5  UNL     1      34.604  22.846  27.310  1.00  0.00    -0.295 N 
HETATM   14  C10 UNL     1      34.393  22.964  28.626  1.00  0.00     0.278 A 
ATOM     15  H5  UNL     1      34.913  21.956  26.921  1.00  0.00     0.171 HD
HETATM   16  O14 UNL     1      34.578  21.975  29.369  1.00  0.00    -0.265 OA
HETATM   17  N3  UNL     1      33.676  24.643  30.356  1.00  0.00    -0.345 N 
HETATM   18  C4  UNL     1      33.311  25.952  30.257  1.00  0.00     0.188 A 
ATOM     19  H3  UNL     1      33.717  24.100  31.219  1.00  0.00     0.167 HD
ENDBRANCH   1   6
BRANCH   5  20
HETATM   20  O13 UNL     1      34.853  29.079  28.919  1.00  0.00    -0.388 OA
ATOM     21  H13 UNL     1      35.793  28.941  28.916  1.00  0.00     0.210 HD
ENDBRANCH   5  20
BRANCH   3  22
HETATM   22  C7  UNL     1      31.474  29.061  25.659  1.00  0.00     0.216 C 
BRANCH  22  23
HETATM   23  O2  UNL     1      30.283  29.696  25.802  1.00  0.00    -0.287 OA
BRANCH  23  24
HETATM   24  P1  UNL     1      30.289  31.341  25.643  1.00  0.00     0.417 P 
HETATM   25  O3  UNL     1      30.111  31.268  24.140  1.00  0.00    -0.624 OA
HETATM   26  O4  UNL     1      28.773  32.122  25.782  1.00  0.00    -0.624 OA
BRANCH  24  27
HETATM   27  O5  UNL     1      31.638  32.192  25.648  1.00  0.00    -0.180 OA
BRANCH  27  28
HETATM   28  P2  UNL     1      32.391  32.890  24.538  1.00  0.00     0.428 P 
HETATM   29  O6  UNL     1      33.668  32.933  25.614  1.00  0.00    -0.624 OA
HETATM   30  O7  UNL     1      31.422  34.216  24.513  1.00  0.00    -0.624 OA
BRANCH  28  31
HETATM   31  O8  UNL     1      33.412  33.446  23.496  1.00  0.00    -0.173 OA
BRANCH  31  32
HETATM   32  P3  UNL     1      32.965  32.906  21.921  1.00  0.00     0.431 P 
HETATM   33  O9  UNL     1      34.056  33.832  21.367  1.00  0.00    -0.616 OA
HETATM   34  O10 UNL     1      33.728  31.597  21.306  1.00  0.00    -0.616 OA
HETATM   35  O11 UNL     1      31.731  33.610  21.199  1.00  0.00    -0.616 OA
ENDBRANCH  31  32
ENDBRANCH  28  31
ENDBRANCH  27  28
ENDBRANCH  24  27
ENDBRANCH  23  24
ENDBRANCH  22  23
ENDBRANCH   3  22
BRANCH   4  36
HETATM   36  O12 UNL     1      33.780  30.635  27.304  1.00  0.00    -0.390 OA
ATOM     37  H12 UNL     1      33.126  31.158  26.856  1.00  0.00     0.210 HD
ENDBRANCH   4  36
TORSDOF 10
ENDMDL
