MODEL 2
REMARK VINA RESULT: -7.081700107      1.192      1.708
REMARK  10 active torsions:
REMARK  status: ('A' for Active; 'I' for Inactive)
REMARK    1  A    between atoms: N4_10  and  C5_11 
REMARK    2  A    between atoms: C6_13  and  C7_14 
REMARK    3  A    between atoms: C7_14  and  O2_15 
REMARK    4  A    between atoms: O2_15  and  P1_16 
REMARK    5  A    between atoms: P1_16  and  O5_19 
REMARK    6  A    between atoms: O5_19  and  P2_20 
REMARK    7  A    between atoms: P2_20  and  O8_23 
REMARK    8  A    between atoms: O8_23  and  P3_24 
REMARK    9  A    between atoms: C8_28  and  O12_29 
REMARK   10  A    between atoms: C9_31  and  O13_32 
ROOT
HETATM    1  C5  UNL     1      33.155  27.174  28.033  1.00  0.00     0.262 C 
HETATM    2  O1  UNL     1      32.478  27.024  26.826  1.00  0.00    -0.353 OA
HETATM    3  C6  UNL     1      32.344  28.373  26.434  1.00  0.00     0.180 C 
HETATM    4  C8  UNL     1      33.767  28.859  26.523  1.00  0.00     0.182 C 
HETATM    5  C9  UNL     1      34.348  27.979  27.637  1.00  0.00     0.198 C 
ENDROOT
BRANCH   1   6
HETATM    6  N4  UNL     1      33.493  25.919  28.652  1.00  0.00    -0.297 N 
HETATM    7  C2  UNL     1      34.104  24.887  28.061  1.00  0.00     0.146 A 
HETATM    8  N2  UNL     1      34.547  24.737  26.800  1.00  0.00    -0.314 N 
HETATM    9  C3  UNL     1      34.272  23.840  28.950  1.00  0.00     0.146 A 
HETATM   10  C1  UNL     1      35.137  23.588  26.439  1.00  0.00     0.196 A 
ATOM     11  H2  UNL     1      34.435  25.492  26.124  1.00  0.00     0.170 HD
HETATM   12  N1  UNL     1      35.592  23.487  25.075  1.00  0.00    -0.063 NA
HETATM   13  N5  UNL     1      35.307  22.555  27.307  1.00  0.00    -0.295 N 
HETATM   14  C10 UNL     1      34.879  22.667  28.569  1.00  0.00     0.278 A 
ATOM     15  H5  UNL     1      35.760  21.696  26.997  1.00  0.00     0.171 HD
HETATM   16  O14 UNL     1      35.039  21.712  29.360  1.00  0.00    -0.265 OA
HETATM   17  N3  UNL     1      33.733  24.286  30.117  1.00  0.00    -0.345 N 
HETATM   18  C4  UNL     1      33.262  25.550  29.925  1.00  0.00     0.188 A 
ATOM     19  H3  UNL     1      33.689  23.761  30.991  1.00  0.00     0.167 HD
ENDBRANCH   1   6
BRANCH   5  20
HETATM   20  O13 UNL     1      34.736  28.780  28.688  1.00  0.00    -0.388 OA
ATOM     21  H13 UNL     1      35.499  29.289  28.438  1.00  0.00     0.210 HD
ENDBRANCH   5  20
BRANCH   3  22
HETATM   22  C7  UNL     1      31.801  28.394  25.044  1.00  0.00     0.216 C 
BRANCH  22  23
HETATM   23  O2  UNL     1      30.455  28.219  25.046  1.00  0.00    -0.287 OA
BRANCH  23  24
HETATM   24  P1  UNL     1      29.529  29.545  25.384  1.00  0.00     0.417 P 
HETATM   25  O3  UNL     1      29.937  30.246  24.105  1.00  0.00    -0.624 OA
HETATM   26  O4  UNL     1      27.907  29.497  24.837  1.00  0.00    -0.624 OA
BRANCH  24  27
HETATM   27  O5  UNL     1      30.003  30.680  26.399  1.00  0.00    -0.180 OA
BRANCH  27  28
HETATM   28  P2  UNL     1      30.651  32.026  26.171  1.00  0.00     0.428 P 
HETATM   29  O6  UNL     1      31.241  31.855  27.724  1.00  0.00    -0.624 OA
HETATM   30  O7  UNL     1      29.236  32.847  26.022  1.00  0.00    -0.624 OA
BRANCH  28  31
HETATM   31  O8  UNL     1      31.556  33.297  26.100  1.00  0.00    -0.173 OA
BRANCH  31  32
HETATM   32  P3  UNL     1      32.724  33.091  24.849  1.00  0.00     0.431 P 
HETATM   33  O9  UNL     1      33.784  32.968  25.952  1.00  0.00    -0.616 OA
HETATM   34  O10 UNL     1      33.048  31.574  24.334  1.00  0.00    -0.616 OA
HETATM   35  O11 UNL     1      33.325  34.391  24.151  1.00  0.00    -0.616 OA
ENDBRANCH  31  32
ENDBRANCH  28  31
ENDBRANCH  27  28
ENDBRANCH  24  27
ENDBRANCH  23  24
ENDBRANCH  22  23
ENDBRANCH   3  22
BRANCH   4  36
HETATM   36  O12 UNL     1      33.748  30.200  26.901  1.00  0.00    -0.390 OA
ATOM     37  H12 UNL     1      33.879  30.246  27.841  1.00  0.00     0.210 HD
ENDBRANCH   4  36
TORSDOF 10
ENDMDL
