MODEL 1
REMARK VINA RESULT: -7.345238138      0.000      0.000
REMARK  10 active torsions:
REMARK  status: ('A' for Active; 'I' for Inactive)
REMARK    1  A    between atoms: N4_10  and  C5_11 
REMARK    2  A    between atoms: C6_13  and  C7_14 
REMARK    3  A    between atoms: C7_14  and  O2_15 
REMARK    4  A    between atoms: O2_15  and  P1_16 
REMARK    5  A    between atoms: P1_16  and  O5_19 
REMARK    6  A    between atoms: O5_19  and  P2_20 
REMARK    7  A    between atoms: P2_20  and  O8_23 
REMARK    8  A    between atoms: O8_23  and  P3_24 
REMARK    9  A    between atoms: C8_28  and  O12_29 
REMARK   10  A    between atoms: C9_31  and  O13_32 
ROOT
HETATM    1  C5  UNL     1      33.153  27.079  27.960  1.00  0.00     0.262 C 
HETATM    2  O1  UNL     1      32.174  26.952  26.978  1.00  0.00    -0.353 OA
HETATM    3  C6  UNL     1      32.101  28.282  26.511  1.00  0.00     0.180 C 
HETATM    4  C8  UNL     1      33.545  28.575  26.198  1.00  0.00     0.182 C 
HETATM    5  C9  UNL     1      34.288  27.689  27.208  1.00  0.00     0.198 C 
ENDROOT
BRANCH   1   6
HETATM    6  N4  UNL     1      33.491  25.828  28.587  1.00  0.00    -0.297 N 
HETATM    7  C2  UNL     1      34.102  24.793  28.002  1.00  0.00     0.146 A 
HETATM    8  N2  UNL     1      34.548  24.636  26.743  1.00  0.00    -0.314 N 
HETATM    9  C3  UNL     1      34.270  23.751  28.898  1.00  0.00     0.146 A 
HETATM   10  C1  UNL     1      35.139  23.485  26.389  1.00  0.00     0.196 A 
ATOM     11  H2  UNL     1      34.436  25.386  26.062  1.00  0.00     0.170 HD
HETATM   12  N1  UNL     1      35.595  23.377  25.026  1.00  0.00    -0.063 NA
HETATM   13  N5  UNL     1      35.308  22.457  27.264  1.00  0.00    -0.295 N 
HETATM   14  C10 UNL     1      34.878  22.576  28.524  1.00  0.00     0.278 A 
ATOM     15  H5  UNL     1      35.762  21.597  26.958  1.00  0.00     0.171 HD
HETATM   16  O14 UNL     1      35.037  21.625  29.321  1.00  0.00    -0.265 OA
HETATM   17  N3  UNL     1      33.730  24.203  30.061  1.00  0.00    -0.345 N 
HETATM   18  C4  UNL     1      33.258  25.466  29.861  1.00  0.00     0.188 A 
ATOM     19  H3  UNL     1      33.685  23.683  30.938  1.00  0.00     0.167 HD
ENDBRANCH   1   6
BRANCH   5  20
HETATM   20  O13 UNL     1      35.026  28.490  28.051  1.00  0.00    -0.388 OA
ATOM     21  H13 UNL     1      35.659  27.961  28.523  1.00  0.00     0.210 HD
ENDBRANCH   5  20
BRANCH   3  22
HETATM   22  C7  UNL     1      31.223  28.296  25.304  1.00  0.00     0.216 C 
BRANCH  22  23
HETATM   23  O2  UNL     1      30.047  28.919  25.568  1.00  0.00    -0.287 OA
BRANCH  23  24
HETATM   24  P1  UNL     1      30.015  30.562  25.396  1.00  0.00     0.417 P 
HETATM   25  O3  UNL     1      30.205  30.481  23.895  1.00  0.00    -0.624 OA
HETATM   26  O4  UNL     1      28.474  31.271  25.159  1.00  0.00    -0.624 OA
BRANCH  24  27
HETATM   27  O5  UNL     1      31.282  31.477  25.713  1.00  0.00    -0.180 OA
BRANCH  27  28
HETATM   28  P2  UNL     1      31.607  32.374  26.885  1.00  0.00     0.428 P 
HETATM   29  O6  UNL     1      31.046  31.117  27.831  1.00  0.00    -0.624 OA
HETATM   30  O7  UNL     1      30.507  33.531  26.494  1.00  0.00    -0.624 OA
BRANCH  28  31
HETATM   31  O8  UNL     1      32.029  33.037  28.234  1.00  0.00    -0.173 OA
BRANCH  31  32
HETATM   32  P3  UNL     1      33.725  32.827  28.462  1.00  0.00     0.431 P 
HETATM   33  O9  UNL     1      33.851  32.738  26.935  1.00  0.00    -0.616 OA
HETATM   34  O10 UNL     1      34.674  34.158  28.487  1.00  0.00    -0.616 OA
HETATM   35  O11 UNL     1      34.272  31.366  28.785  1.00  0.00    -0.616 OA
ENDBRANCH  31  32
ENDBRANCH  28  31
ENDBRANCH  27  28
ENDBRANCH  24  27
ENDBRANCH  23  24
ENDBRANCH  22  23
ENDBRANCH   3  22
BRANCH   4  36
HETATM   36  O12 UNL     1      33.782  29.925  26.446  1.00  0.00    -0.390 OA
ATOM     37  H12 UNL     1      33.070  30.426  26.067  1.00  0.00     0.210 HD
ENDBRANCH   4  36
TORSDOF 10
ENDMDL
