MODEL 4
REMARK VINA RESULT: -6.028776847      1.248      1.838
REMARK  13 active torsions:
REMARK  status: ('A' for Active; 'I' for Inactive)
REMARK    1  A    between atoms: N1_1  and  C1_5 
REMARK    2  A    between atoms: C1_5  and  C2_6 
REMARK    3  A    between atoms: C2_6  and  C3_7 
REMARK    4  A    between atoms: C3_7  and  N2_8 
REMARK    5  A    between atoms: N2_8  and  C4_11 
REMARK    6  A    between atoms: C4_11  and  C5_12 
REMARK    7  A    between atoms: C5_12  and  C6_13 
REMARK    8  A    between atoms: C6_13  and  C7_14 
REMARK    9  A    between atoms: C7_14  and  C8_15 
REMARK   10  A    between atoms: C8_15  and  C9_16 
REMARK   11  A    between atoms: C9_16  and  O1_17 
REMARK   12  A    between atoms: C9_16  and  O2_19 
REMARK   13  A    between atoms: C9_16  and  C10_21 
ROOT
HETATM    1  C5  UNL     1      82.198 188.892 135.376  1.00  0.00     0.027 C 
ENDROOT
BRANCH   1   2
HETATM    2  C4  UNL     1      81.847 190.027 134.386  1.00  0.00     0.232 C 
BRANCH   2   3
HETATM    3  N2  UNL     1      80.427 189.890 134.129  1.00  0.00    -0.075 N 
ATOM      4  H22 UNL     1      79.889 190.692 134.458  1.00  0.00     0.277 HD
ATOM      5  H21 UNL     1      79.989 189.180 134.715  1.00  0.00     0.277 HD
BRANCH   3   6
HETATM    6  C3  UNL     1      80.245 189.638 132.720  1.00  0.00     0.233 C 
BRANCH   6   7
HETATM    7  C2  UNL     1      79.947 188.180 132.534  1.00  0.00     0.055 C 
BRANCH   7   8
HETATM    8  C1  UNL     1      79.134 187.608 133.662  1.00  0.00     0.231 C 
BRANCH   8   9
HETATM    9  N1  UNL     1      79.795 186.370 134.089  1.00  0.00    -0.079 N 
ATOM     10  H13 UNL     1      79.209 185.543 133.971  1.00  0.00     0.274 HD
ATOM     11  H12 UNL     1      80.551 186.085 133.466  1.00  0.00     0.274 HD
ATOM     12  H11 UNL     1      80.101 186.508 135.053  1.00  0.00     0.274 HD
ENDBRANCH   8   9
ENDBRANCH   7   8
ENDBRANCH   6   7
ENDBRANCH   3   6
ENDBRANCH   2   3
ENDBRANCH   1   2
BRANCH   1  13
HETATM   13  C6  UNL     1      83.405 189.373 136.115  1.00  0.00     0.002 C 
BRANCH  13  14
HETATM   14  C7  UNL     1      83.761 188.435 137.230  1.00  0.00     0.006 C 
BRANCH  14  15
HETATM   15  C8  UNL     1      84.916 188.986 137.998  1.00  0.00     0.078 C 
BRANCH  15  16
HETATM   16  C9  UNL     1      85.597 188.040 138.929  1.00  0.00     0.260 C 
BRANCH  16  17
HETATM   17  O1  UNL     1      86.334 187.154 138.105  1.00  0.00    -0.359 OA
ATOM     18  H1  UNL     1      86.982 187.690 137.665  1.00  0.00     0.213 HD
ENDBRANCH  16  17
BRANCH  16  19
HETATM   19  O2  UNL     1      84.617 187.299 139.584  1.00  0.00    -0.359 OA
ATOM     20  H2  UNL     1      84.709 186.391 139.320  1.00  0.00     0.213 HD
ENDBRANCH  16  19
BRANCH  16  21
HETATM   21  C10 UNL     1      86.507 188.759 139.863  1.00  0.00     0.444 C 
HETATM   22  F1  UNL     1      85.751 189.360 140.854  1.00  0.00    -0.166 F 
HETATM   23  F2  UNL     1      87.498 188.030 140.425  1.00  0.00    -0.166 F 
HETATM   24  F3  UNL     1      87.124 189.777 139.100  1.00  0.00    -0.166 F 
ENDBRANCH  16  21
ENDBRANCH  15  16
ENDBRANCH  14  15
ENDBRANCH  13  14
ENDBRANCH   1  13
TORSDOF 13
ENDMDL
