MODEL 5
REMARK VINA RESULT: -5.440325565      6.177      7.828
REMARK  13 active torsions:
REMARK  status: ('A' for Active; 'I' for Inactive)
REMARK    1  A    between atoms: N1_1  and  C1_5 
REMARK    2  A    between atoms: C1_5  and  C2_6 
REMARK    3  A    between atoms: C2_6  and  C3_7 
REMARK    4  A    between atoms: C3_7  and  N2_8 
REMARK    5  A    between atoms: N2_8  and  C4_11 
REMARK    6  A    between atoms: C4_11  and  C5_12 
REMARK    7  A    between atoms: C5_12  and  C6_13 
REMARK    8  A    between atoms: C6_13  and  C7_14 
REMARK    9  A    between atoms: C7_14  and  C8_15 
REMARK   10  A    between atoms: C8_15  and  C9_16 
REMARK   11  A    between atoms: C9_16  and  O1_17 
REMARK   12  A    between atoms: C9_16  and  O2_19 
REMARK   13  A    between atoms: C9_16  and  C10_21 
ROOT
HETATM    1  C5  UNL     1      80.728 189.553 133.472  1.00  0.00     0.027 C 
ENDROOT
BRANCH   1   2
HETATM    2  C4  UNL     1      81.658 189.162 134.645  1.00  0.00     0.232 C 
BRANCH   2   3
HETATM    3  N2  UNL     1      82.497 190.322 134.876  1.00  0.00    -0.075 N 
ATOM      4  H22 UNL     1      81.961 191.145 135.154  1.00  0.00     0.277 HD
ATOM      5  H21 UNL     1      82.892 190.699 134.015  1.00  0.00     0.277 HD
BRANCH   3   6
HETATM    6  C3  UNL     1      83.507 189.964 135.842  1.00  0.00     0.233 C 
BRANCH   6   7
HETATM    7  C2  UNL     1      83.143 188.636 136.438  1.00  0.00     0.055 C 
BRANCH   7   8
HETATM    8  C1  UNL     1      84.108 188.196 137.504  1.00  0.00     0.231 C 
BRANCH   8   9
HETATM    9  N1  UNL     1      84.748 189.405 138.035  1.00  0.00    -0.079 N 
ATOM     10  H13 UNL     1      84.936 190.105 137.318  1.00  0.00     0.274 HD
ATOM     11  H12 UNL     1      84.121 189.969 138.609  1.00  0.00     0.274 HD
ATOM     12  H11 UNL     1      85.587 189.108 138.534  1.00  0.00     0.274 HD
ENDBRANCH   8   9
ENDBRANCH   7   8
ENDBRANCH   6   7
ENDBRANCH   3   6
ENDBRANCH   2   3
ENDBRANCH   1   2
BRANCH   1  13
HETATM   13  C6  UNL     1      80.067 188.280 133.053  1.00  0.00     0.002 C 
BRANCH  13  14
HETATM   14  C7  UNL     1      79.571 187.516 134.245  1.00  0.00     0.006 C 
BRANCH  14  15
HETATM   15  C8  UNL     1      78.536 186.531 133.813  1.00  0.00     0.078 C 
BRANCH  15  16
HETATM   16  C9  UNL     1      79.004 185.129 133.620  1.00  0.00     0.260 C 
BRANCH  16  17
HETATM   17  O1  UNL     1      78.049 184.311 134.271  1.00  0.00    -0.359 OA
ATOM     18  H1  UNL     1      78.134 183.451 133.877  1.00  0.00     0.213 HD
ENDBRANCH  16  17
BRANCH  16  19
HETATM   19  O2  UNL     1      80.217 184.983 134.288  1.00  0.00    -0.359 OA
ATOM     20  H2  UNL     1      80.104 185.300 135.176  1.00  0.00     0.213 HD
ENDBRANCH  16  19
BRANCH  16  21
HETATM   21  C10 UNL     1      79.089 184.780 132.174  1.00  0.00     0.444 C 
HETATM   22  F1  UNL     1      78.618 185.844 131.426  1.00  0.00    -0.166 F 
HETATM   23  F2  UNL     1      80.302 184.400 131.713  1.00  0.00    -0.166 F 
HETATM   24  F3  UNL     1      78.214 183.686 131.985  1.00  0.00    -0.166 F 
ENDBRANCH  16  21
ENDBRANCH  15  16
ENDBRANCH  14  15
ENDBRANCH  13  14
ENDBRANCH   1  13
TORSDOF 13
ENDMDL
