MODEL 7
REMARK VINA RESULT: -5.379358902      5.780      7.670
REMARK  13 active torsions:
REMARK  status: ('A' for Active; 'I' for Inactive)
REMARK    1  A    between atoms: N1_1  and  C1_5 
REMARK    2  A    between atoms: C1_5  and  C2_6 
REMARK    3  A    between atoms: C2_6  and  C3_7 
REMARK    4  A    between atoms: C3_7  and  N2_8 
REMARK    5  A    between atoms: N2_8  and  C4_11 
REMARK    6  A    between atoms: C4_11  and  C5_12 
REMARK    7  A    between atoms: C5_12  and  C6_13 
REMARK    8  A    between atoms: C6_13  and  C7_14 
REMARK    9  A    between atoms: C7_14  and  C8_15 
REMARK   10  A    between atoms: C8_15  and  C9_16 
REMARK   11  A    between atoms: C9_16  and  O1_17 
REMARK   12  A    between atoms: C9_16  and  O2_19 
REMARK   13  A    between atoms: C9_16  and  C10_21 
ROOT
HETATM    1  C5  UNL     1      82.096 188.664 135.492  1.00  0.00     0.027 C 
ENDROOT
BRANCH   1   2
HETATM    2  C4  UNL     1      83.375 189.352 136.026  1.00  0.00     0.232 C 
BRANCH   2   3
HETATM    3  N2  UNL     1      84.215 188.278 136.517  1.00  0.00    -0.075 N 
ATOM      4  H22 UNL     1      85.151 188.294 136.111  1.00  0.00     0.277 HD
ATOM      5  H21 UNL     1      83.929 187.364 136.166  1.00  0.00     0.277 HD
BRANCH   3   6
HETATM    6  C3  UNL     1      84.233 188.340 137.958  1.00  0.00     0.233 C 
BRANCH   6   7
HETATM    7  C2  UNL     1      85.559 187.827 138.438  1.00  0.00     0.055 C 
BRANCH   7   8
HETATM    8  C1  UNL     1      86.180 188.718 139.478  1.00  0.00     0.231 C 
BRANCH   8   9
HETATM    9  N1  UNL     1      85.718 190.084 139.212  1.00  0.00    -0.079 N 
ATOM     10  H13 UNL     1      85.586 190.274 138.219  1.00  0.00     0.274 HD
ATOM     11  H12 UNL     1      84.755 190.245 139.507  1.00  0.00     0.274 HD
ATOM     12  H11 UNL     1      86.382 190.719 139.655  1.00  0.00     0.274 HD
ENDBRANCH   8   9
ENDBRANCH   7   8
ENDBRANCH   6   7
ENDBRANCH   3   6
ENDBRANCH   2   3
ENDBRANCH   1   2
BRANCH   1  13
HETATM   13  C6  UNL     1      81.599 189.553 134.398  1.00  0.00     0.002 C 
BRANCH  13  14
HETATM   14  C7  UNL     1      80.651 188.817 133.498  1.00  0.00     0.006 C 
BRANCH  14  15
HETATM   15  C8  UNL     1      80.501 187.410 133.972  1.00  0.00     0.078 C 
BRANCH  15  16
HETATM   16  C9  UNL     1      79.376 186.633 133.376  1.00  0.00     0.260 C 
BRANCH  16  17
HETATM   17  O1  UNL     1      79.278 187.067 132.031  1.00  0.00    -0.359 OA
ATOM     18  H1  UNL     1      78.367 187.300 131.901  1.00  0.00     0.213 HD
ENDBRANCH  16  17
BRANCH  16  19
HETATM   19  O2  UNL     1      78.204 186.999 134.030  1.00  0.00    -0.359 OA
ATOM     20  H2  UNL     1      77.517 186.400 133.762  1.00  0.00     0.213 HD
ENDBRANCH  16  19
BRANCH  16  21
HETATM   21  C10 UNL     1      79.641 185.168 133.430  1.00  0.00     0.444 C 
HETATM   22  F1  UNL     1      78.581 184.497 132.846  1.00  0.00    -0.166 F 
HETATM   23  F2  UNL     1      80.805 184.742 132.886  1.00  0.00    -0.166 F 
HETATM   24  F3  UNL     1      79.677 184.828 134.801  1.00  0.00    -0.166 F 
ENDBRANCH  16  21
ENDBRANCH  15  16
ENDBRANCH  14  15
ENDBRANCH  13  14
ENDBRANCH   1  13
TORSDOF 13
ENDMDL
