MODEL 1
REMARK VINA RESULT: -6.089025403      0.000      0.000
REMARK  13 active torsions:
REMARK  status: ('A' for Active; 'I' for Inactive)
REMARK    1  A    between atoms: N1_1  and  C1_5 
REMARK    2  A    between atoms: C1_5  and  C2_6 
REMARK    3  A    between atoms: C2_6  and  C3_7 
REMARK    4  A    between atoms: C3_7  and  N2_8 
REMARK    5  A    between atoms: N2_8  and  C4_11 
REMARK    6  A    between atoms: C4_11  and  C5_12 
REMARK    7  A    between atoms: C5_12  and  C6_13 
REMARK    8  A    between atoms: C6_13  and  C7_14 
REMARK    9  A    between atoms: C7_14  and  C8_15 
REMARK   10  A    between atoms: C8_15  and  C9_16 
REMARK   11  A    between atoms: C9_16  and  O1_17 
REMARK   12  A    between atoms: C9_16  and  O2_19 
REMARK   13  A    between atoms: C9_16  and  C10_21 
ROOT
HETATM    1  C5  UNL     1      83.379 189.895 135.777  1.00  0.00     0.027 C 
ENDROOT
BRANCH   1   2
HETATM    2  C4  UNL     1      82.389 190.373 134.689  1.00  0.00     0.232 C 
BRANCH   2   3
HETATM    3  N2  UNL     1      81.668 189.185 134.275  1.00  0.00    -0.075 N 
ATOM      4  H22 UNL     1      81.490 188.544 135.048  1.00  0.00     0.277 HD
ATOM      5  H21 UNL     1      82.237 188.559 133.705  1.00  0.00     0.277 HD
BRANCH   3   6
HETATM    6  C3  UNL     1      80.459 189.600 133.606  1.00  0.00     0.233 C 
BRANCH   6   7
HETATM    7  C2  UNL     1      79.363 189.696 134.627  1.00  0.00     0.055 C 
BRANCH   7   8
HETATM    8  C1  UNL     1      78.500 190.912 134.435  1.00  0.00     0.231 C 
BRANCH   8   9
HETATM    9  N1  UNL     1      79.227 191.825 133.546  1.00  0.00    -0.079 N 
ATOM     10  H13 UNL     1      79.772 192.523 134.051  1.00  0.00     0.274 HD
ATOM     11  H12 UNL     1      80.005 191.376 133.062  1.00  0.00     0.274 HD
ATOM     12  H11 UNL     1      78.543 192.235 132.909  1.00  0.00     0.274 HD
ENDBRANCH   8   9
ENDBRANCH   7   8
ENDBRANCH   6   7
ENDBRANCH   3   6
ENDBRANCH   2   3
ENDBRANCH   1   2
BRANCH   1  13
HETATM   13  C6  UNL     1      82.920 188.523 136.151  1.00  0.00     0.002 C 
BRANCH  13  14
HETATM   14  C7  UNL     1      83.318 188.189 137.559  1.00  0.00     0.006 C 
BRANCH  14  15
HETATM   15  C8  UNL     1      84.696 188.695 137.824  1.00  0.00     0.078 C 
BRANCH  15  16
HETATM   16  C9  UNL     1      85.502 187.921 138.811  1.00  0.00     0.260 C 
BRANCH  16  17
HETATM   17  O1  UNL     1      86.325 187.060 138.045  1.00  0.00    -0.359 OA
ATOM     18  H1  UNL     1      86.300 186.219 138.486  1.00  0.00     0.213 HD
ENDBRANCH  16  17
BRANCH  16  19
HETATM   19  O2  UNL     1      84.630 187.130 139.554  1.00  0.00    -0.359 OA
ATOM     20  H2  UNL     1      83.934 186.837 138.977  1.00  0.00     0.213 HD
ENDBRANCH  16  19
BRANCH  16  21
HETATM   21  C10 UNL     1      86.336 188.821 139.656  1.00  0.00     0.444 C 
HETATM   22  F1  UNL     1      85.503 189.603 140.437  1.00  0.00    -0.166 F 
HETATM   23  F2  UNL     1      87.268 188.228 140.436  1.00  0.00    -0.166 F 
HETATM   24  F3  UNL     1      87.025 189.669 138.759  1.00  0.00    -0.166 F 
ENDBRANCH  16  21
ENDBRANCH  15  16
ENDBRANCH  14  15
ENDBRANCH  13  14
ENDBRANCH   1  13
TORSDOF 13
ENDMDL
