MODEL 6
REMARK VINA RESULT: -5.396401967      6.036      7.932
REMARK  13 active torsions:
REMARK  status: ('A' for Active; 'I' for Inactive)
REMARK    1  A    between atoms: N1_1  and  C1_5 
REMARK    2  A    between atoms: C1_5  and  C2_6 
REMARK    3  A    between atoms: C2_6  and  C3_7 
REMARK    4  A    between atoms: C3_7  and  N2_8 
REMARK    5  A    between atoms: N2_8  and  C4_11 
REMARK    6  A    between atoms: C4_11  and  C5_12 
REMARK    7  A    between atoms: C5_12  and  C6_13 
REMARK    8  A    between atoms: C6_13  and  C7_14 
REMARK    9  A    between atoms: C7_14  and  C8_15 
REMARK   10  A    between atoms: C8_15  and  C9_16 
REMARK   11  A    between atoms: C9_16  and  O1_17 
REMARK   12  A    between atoms: C9_16  and  O2_19 
REMARK   13  A    between atoms: C9_16  and  C10_21 
ROOT
HETATM    1  C5  UNL     1      82.255 189.624 134.994  1.00  0.00     0.027 C 
ENDROOT
BRANCH   1   2
HETATM    2  C4  UNL     1      82.393 188.502 136.049  1.00  0.00     0.232 C 
BRANCH   2   3
HETATM    3  N2  UNL     1      83.820 188.294 136.206  1.00  0.00    -0.075 N 
ATOM      4  H22 UNL     1      84.354 188.614 135.398  1.00  0.00     0.277 HD
ATOM      5  H21 UNL     1      84.081 187.310 136.164  1.00  0.00     0.277 HD
BRANCH   3   6
HETATM    6  C3  UNL     1      84.236 188.928 137.434  1.00  0.00     0.233 C 
BRANCH   6   7
HETATM    7  C2  UNL     1      85.048 187.944 138.223  1.00  0.00     0.055 C 
BRANCH   7   8
HETATM    8  C1  UNL     1      86.010 188.613 139.166  1.00  0.00     0.231 C 
BRANCH   8   9
HETATM    9  N1  UNL     1      85.638 190.031 139.232  1.00  0.00    -0.079 N 
ATOM     10  H13 UNL     1      85.473 190.356 140.184  1.00  0.00     0.274 HD
ATOM     11  H12 UNL     1      86.412 190.658 139.011  1.00  0.00     0.274 HD
ATOM     12  H11 UNL     1      84.831 190.160 138.621  1.00  0.00     0.274 HD
ENDBRANCH   8   9
ENDBRANCH   7   8
ENDBRANCH   6   7
ENDBRANCH   3   6
ENDBRANCH   2   3
ENDBRANCH   1   2
BRANCH   1  13
HETATM   13  C6  UNL     1      81.146 189.183 134.093  1.00  0.00     0.002 C 
BRANCH  13  14
HETATM   14  C7  UNL     1      80.817 187.736 134.317  1.00  0.00     0.006 C 
BRANCH  14  15
HETATM   15  C8  UNL     1      79.736 187.318 133.378  1.00  0.00     0.078 C 
BRANCH  15  16
HETATM   16  C9  UNL     1      79.344 185.880 133.426  1.00  0.00     0.260 C 
BRANCH  16  17
HETATM   17  O1  UNL     1      78.012 185.860 133.906  1.00  0.00    -0.359 OA
ATOM     18  H1  UNL     1      78.017 185.281 134.659  1.00  0.00     0.213 HD
ENDBRANCH  16  17
BRANCH  16  19
HETATM   19  O2  UNL     1      80.147 185.245 134.369  1.00  0.00    -0.359 OA
ATOM     20  H2  UNL     1      79.620 184.591 134.813  1.00  0.00     0.213 HD
ENDBRANCH  16  19
BRANCH  16  21
HETATM   21  C10 UNL     1      79.420 185.252 132.077  1.00  0.00     0.444 C 
HETATM   22  F1  UNL     1      80.511 184.402 132.037  1.00  0.00    -0.166 F 
HETATM   23  F2  UNL     1      78.316 184.596 131.651  1.00  0.00    -0.166 F 
HETATM   24  F3  UNL     1      79.650 186.309 131.167  1.00  0.00    -0.166 F 
ENDBRANCH  16  21
ENDBRANCH  15  16
ENDBRANCH  14  15
ENDBRANCH  13  14
ENDBRANCH   1  13
TORSDOF 13
ENDMDL
