MODEL 1
REMARK VINA RESULT: -9.182718475      0.000      0.000
REMARK  5 active torsions:
REMARK  status: ('A' for Active; 'I' for Inactive)
REMARK    1  A    between atoms: C8_8  and  C9_9 
REMARK    2  A    between atoms: C12_21  and  N6_22 
REMARK    3  A    between atoms: C12_21  and  C22_40 
REMARK       I    between atoms: N6_22  and  C13_24 
REMARK    4  A    between atoms: C13_24  and  C14_26 
REMARK    5  A    between atoms: C17_29  and  N7_30 
ROOT
HETATM    1  C1  UNL     1     -20.753 -34.662 -16.605  1.00  0.00     0.048 C 
HETATM    2  C2  UNL     1     -20.059 -35.760 -15.872  1.00  0.00    -0.061 A 
HETATM    3  C3  UNL     1     -20.594 -37.034 -15.862  1.00  0.00     0.009 A 
HETATM    4  C4  UNL     1     -19.953 -38.053 -15.181  1.00  0.00     0.031 A 
HETATM    5  C5  UNL     1     -18.780 -37.808 -14.512  1.00  0.00     0.046 A 
HETATM    6  C6  UNL     1     -18.217 -36.524 -14.508  1.00  0.00     0.007 A 
HETATM    7  C7  UNL     1     -18.864 -35.525 -15.186  1.00  0.00     0.021 A 
HETATM    8  C8  UNL     1     -17.068 -36.631 -13.757  1.00  0.00     0.046 A 
HETATM    9  C10 UNL     1     -16.938 -37.928 -13.322  1.00  0.00     0.027 A 
HETATM   10  N5  UNL     1     -17.978 -38.640 -13.780  1.00  0.00    -0.346 N 
HETATM   11  C11 UNL     1     -18.069 -40.039 -13.440  1.00  0.00     0.165 C 
HETATM   12  C12 UNL     1     -16.812 -40.830 -13.458  1.00  0.00     0.077 C 
HETATM   13  C28 UNL     1     -15.653 -39.908 -13.421  1.00  0.00     0.044 C 
HETATM   14  C29 UNL     1     -15.941 -38.671 -12.532  1.00  0.00     0.061 C 
ENDROOT
BRANCH  12  15
HETATM   15  N6  UNL     1     -16.857 -41.760 -12.340  1.00  0.00    -0.342 N 
HETATM   16  C13 UNL     1     -15.699 -42.300 -11.788  1.00  0.00     0.254 C 
HETATM   17  O1  UNL     1     -14.608 -41.963 -12.290  1.00  0.00    -0.268 OA
ATOM     18  H6  UNL     1     -17.762 -42.024 -11.951  1.00  0.00     0.164 HD
BRANCH  16  19
HETATM   19  C14 UNL     1     -15.682 -43.222 -10.678  1.00  0.00     0.053 A 
HETATM   20  C15 UNL     1     -15.602 -42.770  -9.401  1.00  0.00     0.021 A 
HETATM   21  C16 UNL     1     -15.596 -43.646  -8.334  1.00  0.00     0.031 A 
HETATM   22  C17 UNL     1     -15.675 -45.004  -8.615  1.00  0.00     0.042 A 
HETATM   23  C20 UNL     1     -15.756 -45.455  -9.912  1.00  0.00     0.054 A 
HETATM   24  C21 UNL     1     -15.760 -44.561 -10.949  1.00  0.00     0.051 A 
HETATM   25 CL1  UNL     1     -15.858 -45.144 -12.614  1.00  0.00    -0.083 Cl
BRANCH  22  26
HETATM   26  N7  UNL     1     -15.673 -45.930  -7.526  1.00  0.00    -0.302 N 
HETATM   27  C18 UNL     1     -15.221 -45.664  -6.285  1.00  0.00     0.206 A 
HETATM   28  N8  UNL     1     -15.392 -46.789  -5.562  1.00  0.00    -0.295 N 
HETATM   29  N9  UNL     1     -15.929 -47.713  -6.333  1.00  0.00    -0.295 N 
ATOM     30  H8  UNL     1     -15.145 -46.907  -4.580  1.00  0.00     0.187 HD
HETATM   31  C19 UNL     1     -16.112 -47.204  -7.551  1.00  0.00     0.206 A 
ATOM     32  H9  UNL     1     -16.167 -48.662  -6.044  1.00  0.00     0.187 HD
ENDBRANCH  22  26
ENDBRANCH  16  19
ENDBRANCH  12  15
BRANCH  12  33
HETATM   33  C22 UNL     1     -16.676 -41.700 -14.653  1.00  0.00    -0.029 A 
HETATM   34  C23 UNL     1     -15.681 -41.430 -15.561  1.00  0.00     0.010 A 
HETATM   35  C24 UNL     1     -15.542 -42.237 -16.702  1.00  0.00     0.001 A 
HETATM   36  C25 UNL     1     -16.381 -43.292 -16.928  1.00  0.00     0.000 A 
HETATM   37  C26 UNL     1     -17.372 -43.546 -16.001  1.00  0.00     0.001 A 
HETATM   38  C27 UNL     1     -17.516 -42.764 -14.886  1.00  0.00     0.010 A 
ENDBRANCH  12  33
BRANCH   8  39
HETATM   39  C9  UNL     1     -16.105 -35.567 -13.454  1.00  0.00     0.150 A 
HETATM   40  N1  UNL     1     -15.735 -35.313 -12.156  1.00  0.00    -0.268 N 
HETATM   41  N2  UNL     1     -14.878 -34.322 -12.155  1.00  0.00    -0.227 N 
ATOM     42  H1  UNL     1     -16.071 -35.812 -11.332  1.00  0.00     0.190 HD
HETATM   43  N3  UNL     1     -14.690 -33.941 -13.379  1.00  0.00    -0.227 N 
ATOM     44  H2  UNL     1     -14.434 -33.919 -11.329  1.00  0.00     0.210 HD
HETATM   45  N4  UNL     1     -15.437 -34.697 -14.179  1.00  0.00    -0.268 N 
ATOM     46  H3  UNL     1     -14.072 -33.186 -13.679  1.00  0.00     0.210 HD
ATOM     47  H4  UNL     1     -15.484 -34.615 -15.194  1.00  0.00     0.190 HD
ENDBRANCH   8  39
TORSDOF 5
ENDMDL
