MODEL 3
REMARK VINA RESULT: -8.801166347      3.316     10.021
REMARK  5 active torsions:
REMARK  status: ('A' for Active; 'I' for Inactive)
REMARK    1  A    between atoms: C8_8  and  C9_9 
REMARK    2  A    between atoms: C12_21  and  N6_22 
REMARK    3  A    between atoms: C12_21  and  C22_40 
REMARK       I    between atoms: N6_22  and  C13_24 
REMARK    4  A    between atoms: C13_24  and  C14_26 
REMARK    5  A    between atoms: C17_29  and  N7_30 
ROOT
HETATM    1  C1  UNL     1     -14.931 -46.304  -6.795  1.00  0.00     0.048 C 
HETATM    2  C2  UNL     1     -15.238 -45.397  -7.938  1.00  0.00    -0.061 A 
HETATM    3  C3  UNL     1     -15.510 -44.060  -7.711  1.00  0.00     0.009 A 
HETATM    4  C4  UNL     1     -15.796 -43.219  -8.769  1.00  0.00     0.031 A 
HETATM    5  C5  UNL     1     -15.813 -43.701 -10.054  1.00  0.00     0.046 A 
HETATM    6  C6  UNL     1     -15.540 -45.052 -10.311  1.00  0.00     0.007 A 
HETATM    7  C7  UNL     1     -15.259 -45.874  -9.252  1.00  0.00     0.021 A 
HETATM    8  C8  UNL     1     -15.640 -45.192 -11.676  1.00  0.00     0.046 A 
HETATM    9  C10 UNL     1     -15.961 -43.975 -12.228  1.00  0.00     0.027 A 
HETATM   10  N5  UNL     1     -16.066 -43.072 -11.242  1.00  0.00    -0.346 N 
HETATM   11  C11 UNL     1     -16.412 -41.712 -11.576  1.00  0.00     0.165 C 
HETATM   12  C12 UNL     1     -15.789 -41.128 -12.791  1.00  0.00     0.077 C 
HETATM   13  C28 UNL     1     -15.257 -42.218 -13.641  1.00  0.00     0.044 C 
HETATM   14  C29 UNL     1     -16.171 -43.469 -13.596  1.00  0.00     0.061 C 
ENDROOT
BRANCH  12  15
HETATM   15  N6  UNL     1     -16.790 -40.304 -13.451  1.00  0.00    -0.342 N 
HETATM   16  C13 UNL     1     -17.758 -39.609 -12.733  1.00  0.00     0.254 C 
HETATM   17  O1  UNL     1     -17.746 -39.719 -11.490  1.00  0.00    -0.268 OA
ATOM     18  H6  UNL     1     -16.782 -40.235 -14.469  1.00  0.00     0.164 HD
BRANCH  16  19
HETATM   19  C14 UNL     1     -18.771 -38.774 -13.333  1.00  0.00     0.053 A 
HETATM   20  C15 UNL     1     -19.959 -39.298 -13.727  1.00  0.00     0.021 A 
HETATM   21  C16 UNL     1     -20.937 -38.504 -14.290  1.00  0.00     0.031 A 
HETATM   22  C17 UNL     1     -20.661 -37.150 -14.438  1.00  0.00     0.042 A 
HETATM   23  C20 UNL     1     -19.455 -36.625 -14.036  1.00  0.00     0.054 A 
HETATM   24  C21 UNL     1     -18.505 -37.440 -13.480  1.00  0.00     0.051 A 
HETATM   25 CL1  UNL     1     -16.955 -36.764 -12.970  1.00  0.00    -0.083 Cl
BRANCH  22  26
HETATM   26  N7  UNL     1     -21.660 -36.306 -15.017  1.00  0.00    -0.302 N 
HETATM   27  C18 UNL     1     -22.847 -36.728 -15.495  1.00  0.00     0.206 A 
HETATM   28  N8  UNL     1     -23.490 -35.635 -15.952  1.00  0.00    -0.295 N 
HETATM   29  N9  UNL     1     -22.725 -34.580 -15.760  1.00  0.00    -0.295 N 
ATOM     30  H8  UNL     1     -24.417 -35.626 -16.376  1.00  0.00     0.187 HD
HETATM   31  C19 UNL     1     -21.588 -34.971 -15.184  1.00  0.00     0.206 A 
ATOM     32  H9  UNL     1     -22.963 -33.620 -16.012  1.00  0.00     0.187 HD
ENDBRANCH  22  26
ENDBRANCH  16  19
ENDBRANCH  12  15
BRANCH  12  33
HETATM   33  C22 UNL     1     -14.680 -40.186 -12.494  1.00  0.00    -0.029 A 
HETATM   34  C23 UNL     1     -14.092 -39.505 -13.533  1.00  0.00     0.010 A 
HETATM   35  C24 UNL     1     -13.036 -38.616 -13.274  1.00  0.00     0.001 A 
HETATM   36  C25 UNL     1     -12.579 -38.413 -12.002  1.00  0.00     0.000 A 
HETATM   37  C26 UNL     1     -13.186 -39.107 -10.973  1.00  0.00     0.001 A 
HETATM   38  C27 UNL     1     -14.216 -39.976 -11.217  1.00  0.00     0.010 A 
ENDBRANCH  12  33
BRANCH   8  39
HETATM   39  C9  UNL     1     -15.435 -46.416 -12.459  1.00  0.00     0.150 A 
HETATM   40  N1  UNL     1     -14.201 -46.704 -12.989  1.00  0.00    -0.268 N 
HETATM   41  N2  UNL     1     -14.283 -47.836 -13.641  1.00  0.00    -0.227 N 
ATOM     42  H1  UNL     1     -13.362 -46.133 -12.890  1.00  0.00     0.190 HD
HETATM   43  N3  UNL     1     -15.500 -48.275 -13.551  1.00  0.00    -0.227 N 
ATOM     44  H2  UNL     1     -13.520 -48.296 -14.137  1.00  0.00     0.210 HD
HETATM   45  N4  UNL     1     -16.210 -47.410 -12.830  1.00  0.00    -0.268 N 
ATOM     46  H3  UNL     1     -15.854 -49.138 -13.964  1.00  0.00     0.210 HD
ATOM     47  H4  UNL     1     -17.199 -47.506 -12.601  1.00  0.00     0.190 HD
ENDBRANCH   8  39
TORSDOF 5
ENDMDL
