MODEL 2
REMARK VINA RESULT: -9.006575880      3.318     10.088
REMARK  5 active torsions:
REMARK  status: ('A' for Active; 'I' for Inactive)
REMARK    1  A    between atoms: C8_8  and  C9_9 
REMARK    2  A    between atoms: C12_21  and  N6_22 
REMARK    3  A    between atoms: C12_21  and  C22_40 
REMARK       I    between atoms: N6_22  and  C13_24 
REMARK    4  A    between atoms: C13_24  and  C14_26 
REMARK    5  A    between atoms: C17_29  and  N7_30 
ROOT
HETATM    1  C1  UNL     1     -15.310 -46.182  -7.227  1.00  0.00     0.048 C 
HETATM    2  C2  UNL     1     -15.472 -45.215  -8.351  1.00  0.00    -0.061 A 
HETATM    3  C3  UNL     1     -15.699 -43.877  -8.089  1.00  0.00     0.009 A 
HETATM    4  C4  UNL     1     -15.851 -42.980  -9.130  1.00  0.00     0.031 A 
HETATM    5  C5  UNL     1     -15.778 -43.409 -10.431  1.00  0.00     0.046 A 
HETATM    6  C6  UNL     1     -15.548 -44.761 -10.723  1.00  0.00     0.007 A 
HETATM    7  C7  UNL     1     -15.400 -45.638  -9.681  1.00  0.00     0.021 A 
HETATM    8  C8  UNL     1     -15.534 -44.841 -12.097  1.00  0.00     0.046 A 
HETATM    9  C10 UNL     1     -15.747 -43.588 -12.619  1.00  0.00     0.027 A 
HETATM   10  N5  UNL     1     -15.896 -42.721 -11.607  1.00  0.00    -0.346 N 
HETATM   11  C11 UNL     1     -16.145 -41.333 -11.909  1.00  0.00     0.165 C 
HETATM   12  C12 UNL     1     -15.391 -40.733 -13.039  1.00  0.00     0.077 C 
HETATM   13  C28 UNL     1     -14.838 -41.814 -13.888  1.00  0.00     0.044 C 
HETATM   14  C29 UNL     1     -15.811 -43.018 -13.977  1.00  0.00     0.061 C 
ENDROOT
BRANCH  12  15
HETATM   15  N6  UNL     1     -16.290 -39.834 -13.746  1.00  0.00    -0.342 N 
HETATM   16  C13 UNL     1     -17.201 -39.027 -13.072  1.00  0.00     0.254 C 
HETATM   17  O1  UNL     1     -17.230 -39.104 -11.827  1.00  0.00    -0.268 OA
ATOM     18  H6  UNL     1     -16.251 -39.794 -14.765  1.00  0.00     0.164 HD
BRANCH  16  19
HETATM   19  C14 UNL     1     -18.112 -38.114 -13.718  1.00  0.00     0.053 A 
HETATM   20  C15 UNL     1     -19.274 -38.559 -14.258  1.00  0.00     0.021 A 
HETATM   21  C16 UNL     1     -20.156 -37.689 -14.868  1.00  0.00     0.031 A 
HETATM   22  C17 UNL     1     -19.810 -36.344 -14.908  1.00  0.00     0.042 A 
HETATM   23  C20 UNL     1     -18.630 -35.900 -14.358  1.00  0.00     0.054 A 
HETATM   24  C21 UNL     1     -17.776 -36.788 -13.759  1.00  0.00     0.051 A 
HETATM   25 CL1  UNL     1     -16.259 -36.215 -13.060  1.00  0.00    -0.083 Cl
BRANCH  22  26
HETATM   26  N7  UNL     1     -20.709 -35.423 -15.532  1.00  0.00    -0.302 N 
HETATM   27  C18 UNL     1     -20.442 -34.720 -16.650  1.00  0.00     0.206 A 
HETATM   28  N8  UNL     1     -21.535 -33.975 -16.907  1.00  0.00    -0.295 N 
HETATM   29  N9  UNL     1     -22.441 -34.212 -15.980  1.00  0.00    -0.295 N 
ATOM     30  H8  UNL     1     -21.644 -33.331 -17.691  1.00  0.00     0.187 HD
HETATM   31  C19 UNL     1     -21.951 -35.105 -15.120  1.00  0.00     0.206 A 
ATOM     32  H9  UNL     1     -23.365 -33.783 -15.929  1.00  0.00     0.187 HD
ENDBRANCH  22  26
ENDBRANCH  16  19
ENDBRANCH  12  15
BRANCH  12  33
HETATM   33  C22 UNL     1     -14.268 -39.862 -12.607  1.00  0.00    -0.029 A 
HETATM   34  C23 UNL     1     -13.978 -39.771 -11.267  1.00  0.00     0.010 A 
HETATM   35  C24 UNL     1     -12.926 -38.945 -10.838  1.00  0.00     0.001 A 
HETATM   36  C25 UNL     1     -12.181 -38.227 -11.731  1.00  0.00     0.000 A 
HETATM   37  C26 UNL     1     -12.490 -38.335 -13.073  1.00  0.00     0.001 A 
HETATM   38  C27 UNL     1     -13.515 -39.137 -13.500  1.00  0.00     0.010 A 
ENDBRANCH  12  33
BRANCH   8  39
HETATM   39  C9  UNL     1     -15.319 -46.041 -12.913  1.00  0.00     0.150 A 
HETATM   40  N1  UNL     1     -14.049 -46.417 -13.276  1.00  0.00    -0.268 N 
HETATM   41  N2  UNL     1     -14.129 -47.506 -13.999  1.00  0.00    -0.227 N 
ATOM     42  H1  UNL     1     -13.188 -45.930 -13.025  1.00  0.00     0.190 HD
HETATM   43  N3  UNL     1     -15.378 -47.835 -14.109  1.00  0.00    -0.227 N 
ATOM     44  H2  UNL     1     -13.342 -48.011 -14.407  1.00  0.00     0.210 HD
HETATM   45  N4  UNL     1     -16.111 -46.943 -13.447  1.00  0.00    -0.268 N 
ATOM     46  H3  UNL     1     -15.738 -48.642 -14.618  1.00  0.00     0.210 HD
ATOM     47  H4  UNL     1     -17.128 -46.958 -13.368  1.00  0.00     0.190 HD
ENDBRANCH   8  39
TORSDOF 5
ENDMDL
