MODEL 14
REMARK VINA RESULT: -7.221811589      5.295      9.435
REMARK  10 active torsions:
REMARK  status: ('A' for Active; 'I' for Inactive)
REMARK    1  A    between atoms: C2_2  and  C3_3 
REMARK    2  A    between atoms: C3_3  and  C4_4 
REMARK    3  A    between atoms: C4_4  and  C5_5 
REMARK    4  A    between atoms: C9_13  and  S1_14 
REMARK    5  A    between atoms: S1_14  and  C10_15 
REMARK    6  A    between atoms: C10_15  and  C11_16 
REMARK    7  A    between atoms: N5_27  and  C16_28 
REMARK    8  A    between atoms: C16_28  and  C17_29 
REMARK    9  A    between atoms: C17_29  and  C18_30 
REMARK   10  A    between atoms: N6_32  and  C20_33 
ROOT
HETATM    1  C10 UNL     1       8.519  27.772  66.113  1.00  0.00     0.159 C 
ENDROOT
BRANCH   1   2
HETATM    2  S1  UNL     1       6.847  27.529  65.500  1.00  0.00    -0.085 SA
BRANCH   2   3
HETATM    3  C9  UNL     1       5.895  26.787  66.847  1.00  0.00     0.175 A 
HETATM    4  N2  UNL     1       4.643  26.301  66.773  1.00  0.00    -0.167 N 
HETATM    5  C8  UNL     1       4.247  25.825  67.968  1.00  0.00     0.706 A 
ATOM      6  H2  UNL     1       4.073  26.296  65.927  1.00  0.00     0.186 HD
HETATM    7  N1  UNL     1       3.126  25.248  68.436  1.00  0.00    -0.193 N 
HETATM    8  N8  UNL     1       5.282  26.021  68.804  1.00  0.00    -0.088 N 
HETATM    9  C6  UNL     1       2.997  24.852  69.737  1.00  0.00     0.031 A 
ATOM     10  H1  UNL     1       2.344  25.102  67.797  1.00  0.00     0.184 HD
HETATM   11  C5  UNL     1       4.040  25.044  70.602  1.00  0.00    -0.011 A 
HETATM   12  C7  UNL     1       1.751  24.219  70.228  1.00  0.00     0.069 C 
HETATM   13  C22 UNL     1       5.195  25.645  70.092  1.00  0.00     0.057 A 
HETATM   14  C23 UNL     1       6.342  25.868  70.998  1.00  0.00     0.072 C 
HETATM   15  N7  UNL     1       6.283  26.605  68.123  1.00  0.00    -0.258 N 
ATOM     16  H7  UNL     1       7.189  26.868  68.510  1.00  0.00     0.190 HD
BRANCH  11  17
HETATM   17  C4  UNL     1       3.938  24.631  72.002  1.00  0.00     0.042 C 
BRANCH  17  18
HETATM   18  C3  UNL     1       3.011  25.490  72.835  1.00  0.00     0.004 C 
BRANCH  18  19
HETATM   19  C2  UNL     1       3.845  26.613  73.421  1.00  0.00    -0.004 C 
HETATM   20  C1  UNL     1       3.596  27.929  72.739  1.00  0.00     0.005 C 
ENDBRANCH  18  19
ENDBRANCH  17  18
ENDBRANCH  11  17
ENDBRANCH   2   3
ENDBRANCH   1   2
BRANCH   1  21
HETATM   21  C11 UNL     1       9.126  29.009  65.526  1.00  0.00     0.095 A 
HETATM   22  N3  UNL     1       9.472  30.124  66.170  1.00  0.00    -0.329 N 
HETATM   23  C12 UNL     1       9.986  31.011  65.282  1.00  0.00     0.146 A 
ATOM     24  H3  UNL     1       9.366  30.284  67.172  1.00  0.00     0.168 HD
HETATM   25  C13 UNL     1       9.955  30.409  64.016  1.00  0.00     0.149 A 
HETATM   26  N5  UNL     1      10.479  32.247  65.349  1.00  0.00    -0.283 N 
HETATM   27  C14 UNL     1      10.426  31.107  62.924  1.00  0.00     0.280 A 
HETATM   28  N6  UNL     1       9.424  29.199  64.227  1.00  0.00    -0.329 N 
HETATM   29  O1  UNL     1      10.404  30.581  61.789  1.00  0.00    -0.265 OA
HETATM   30  N4  UNL     1      10.911  32.351  63.060  1.00  0.00    -0.273 N 
HETATM   31  C15 UNL     1      10.941  32.937  64.294  1.00  0.00     0.331 A 
ATOM     32  H4  UNL     1      11.257  32.858  62.245  1.00  0.00     0.173 HD
HETATM   33  O2  UNL     1      11.394  34.107  64.440  1.00  0.00    -0.246 OA
BRANCH  28  34
HETATM   34  C20 UNL     1       9.208  28.234  63.173  1.00  0.00     0.126 C 
HETATM   35  C21 UNL     1      10.427  27.325  63.062  1.00  0.00     0.027 C 
ENDBRANCH  28  34
BRANCH  26  36
HETATM   36  C16 UNL     1      10.529  32.908  66.642  1.00  0.00     0.135 C 
BRANCH  36  37
HETATM   37  C17 UNL     1      11.518  32.141  67.490  1.00  0.00     0.020 C 
BRANCH  37  38
HETATM   38  C18 UNL     1      12.937  32.591  67.231  1.00  0.00    -0.003 C 
HETATM   39  C19 UNL     1      13.901  31.641  67.918  1.00  0.00     0.005 C 
ENDBRANCH  37  38
ENDBRANCH  36  37
ENDBRANCH  26  36
ENDBRANCH   1  21
TORSDOF 10
ENDMDL
