MODEL 1
REMARK VINA RESULT: -7.702860894      0.000      0.000
REMARK  10 active torsions:
REMARK  status: ('A' for Active; 'I' for Inactive)
REMARK    1  A    between atoms: C2_2  and  C3_3 
REMARK    2  A    between atoms: C3_3  and  C4_4 
REMARK    3  A    between atoms: C4_4  and  C5_5 
REMARK    4  A    between atoms: C9_13  and  S1_14 
REMARK    5  A    between atoms: S1_14  and  C10_15 
REMARK    6  A    between atoms: C10_15  and  C11_16 
REMARK    7  A    between atoms: N5_27  and  C16_28 
REMARK    8  A    between atoms: C16_28  and  C17_29 
REMARK    9  A    between atoms: C17_29  and  C18_30 
REMARK   10  A    between atoms: N6_32  and  C20_33 
ROOT
HETATM    1  C10 UNL     1      10.785  36.400  64.579  1.00  0.00     0.159 C 
ENDROOT
BRANCH   1   2
HETATM    2  S1  UNL     1      12.061  35.176  64.898  1.00  0.00    -0.085 SA
BRANCH   2   3
HETATM    3  C9  UNL     1      11.332  33.555  64.562  1.00  0.00     0.175 A 
HETATM    4  N2  UNL     1      11.128  33.001  63.353  1.00  0.00    -0.167 N 
HETATM    5  C8  UNL     1      10.563  31.786  63.476  1.00  0.00     0.706 A 
ATOM      6  H2  UNL     1      11.369  33.442  62.465  1.00  0.00     0.186 HD
HETATM    7  N1  UNL     1      10.161  30.833  62.616  1.00  0.00    -0.193 N 
HETATM    8  N8  UNL     1      10.413  31.583  64.798  1.00  0.00    -0.088 N 
HETATM    9  C6  UNL     1       9.603  29.660  63.036  1.00  0.00     0.031 A 
ATOM     10  H1  UNL     1      10.278  30.993  61.616  1.00  0.00     0.184 HD
HETATM   11  C5  UNL     1       9.442  29.435  64.376  1.00  0.00    -0.011 A 
HETATM   12  C7  UNL     1       9.169  28.625  62.068  1.00  0.00     0.069 C 
HETATM   13  C22 UNL     1       9.868  30.440  65.251  1.00  0.00     0.057 A 
HETATM   14  C23 UNL     1       9.709  30.232  66.706  1.00  0.00     0.072 C 
HETATM   15  N7  UNL     1      10.880  32.657  65.456  1.00  0.00    -0.258 N 
ATOM     16  H7  UNL     1      10.890  32.773  66.469  1.00  0.00     0.190 HD
BRANCH  11  17
HETATM   17  C4  UNL     1       8.849  28.189  64.862  1.00  0.00     0.042 C 
BRANCH  17  18
HETATM   18  C3  UNL     1       7.348  28.247  65.044  1.00  0.00     0.004 C 
BRANCH  18  19
HETATM   19  C2  UNL     1       6.966  27.124  65.988  1.00  0.00    -0.004 C 
HETATM   20  C1  UNL     1       7.732  27.173  67.280  1.00  0.00     0.005 C 
ENDBRANCH  18  19
ENDBRANCH  17  18
ENDBRANCH  11  17
ENDBRANCH   2   3
ENDBRANCH   1   2
BRANCH   1  21
HETATM   21  C11 UNL     1      11.044  37.114  63.288  1.00  0.00     0.095 A 
HETATM   22  N3  UNL     1      10.390  36.964  62.137  1.00  0.00    -0.329 N 
HETATM   23  C12 UNL     1      10.930  37.790  61.205  1.00  0.00     0.146 A 
ATOM     24  H3  UNL     1       9.608  36.328  61.981  1.00  0.00     0.168 HD
HETATM   25  C13 UNL     1      11.978  38.491  61.819  1.00  0.00     0.149 A 
HETATM   26  N5  UNL     1      10.694  38.060  59.922  1.00  0.00    -0.283 N 
HETATM   27  C14 UNL     1      12.702  39.405  61.083  1.00  0.00     0.280 A 
HETATM   28  N6  UNL     1      12.000  38.038  63.078  1.00  0.00    -0.329 N 
HETATM   29  O1  UNL     1      13.639  40.037  61.618  1.00  0.00    -0.265 OA
HETATM   30  N4  UNL     1      12.412  39.632  59.791  1.00  0.00    -0.273 N 
HETATM   31  C15 UNL     1      11.390  38.948  59.195  1.00  0.00     0.331 A 
ATOM     32  H4  UNL     1      12.953  40.311  59.257  1.00  0.00     0.173 HD
HETATM   33  O2  UNL     1      11.104  39.148  57.981  1.00  0.00    -0.246 OA
BRANCH  28  34
HETATM   34  C20 UNL     1      12.942  38.502  64.071  1.00  0.00     0.126 C 
HETATM   35  C21 UNL     1      12.336  39.672  64.838  1.00  0.00     0.027 C 
ENDBRANCH  28  34
BRANCH  26  36
HETATM   36  C16 UNL     1       9.616  37.356  59.248  1.00  0.00     0.135 C 
BRANCH  36  37
HETATM   37  C17 UNL     1       8.333  38.070  59.609  1.00  0.00     0.020 C 
BRANCH  37  38
HETATM   38  C18 UNL     1       7.518  38.399  58.379  1.00  0.00    -0.003 C 
HETATM   39  C19 UNL     1       8.070  37.633  57.189  1.00  0.00     0.005 C 
ENDBRANCH  37  38
ENDBRANCH  36  37
ENDBRANCH  26  36
ENDBRANCH   1  21
TORSDOF 10
ENDMDL
