MODEL 6
REMARK VINA RESULT: -7.463658251      5.371      9.492
REMARK  10 active torsions:
REMARK  status: ('A' for Active; 'I' for Inactive)
REMARK    1  A    between atoms: C2_2  and  C3_3 
REMARK    2  A    between atoms: C3_3  and  C4_4 
REMARK    3  A    between atoms: C4_4  and  C5_5 
REMARK    4  A    between atoms: C9_13  and  S1_14 
REMARK    5  A    between atoms: S1_14  and  C10_15 
REMARK    6  A    between atoms: C10_15  and  C11_16 
REMARK    7  A    between atoms: N5_27  and  C16_28 
REMARK    8  A    between atoms: C16_28  and  C17_29 
REMARK    9  A    between atoms: C17_29  and  C18_30 
REMARK   10  A    between atoms: N6_32  and  C20_33 
ROOT
HETATM    1  C10 UNL     1       8.386  27.557  65.649  1.00  0.00     0.159 C 
ENDROOT
BRANCH   1   2
HETATM    2  S1  UNL     1       6.598  27.681  65.507  1.00  0.00    -0.085 SA
BRANCH   2   3
HETATM    3  C9  UNL     1       5.898  26.895  66.978  1.00  0.00     0.175 A 
HETATM    4  N2  UNL     1       4.630  26.476  67.137  1.00  0.00    -0.167 N 
HETATM    5  C8  UNL     1       4.457  25.939  68.359  1.00  0.00     0.706 A 
ATOM      6  H2  UNL     1       3.900  26.554  66.429  1.00  0.00     0.186 HD
HETATM    7  N1  UNL     1       3.422  25.386  69.017  1.00  0.00    -0.193 N 
HETATM    8  N8  UNL     1       5.651  26.029  68.973  1.00  0.00    -0.088 N 
HETATM    9  C6  UNL     1       3.537  24.910  70.291  1.00  0.00     0.031 A 
ATOM     10  H1  UNL     1       2.520  25.320  68.546  1.00  0.00     0.184 HD
HETATM   11  C5  UNL     1       4.744  24.993  70.931  1.00  0.00    -0.011 A 
HETATM   12  C7  UNL     1       2.382  24.304  70.993  1.00  0.00     0.069 C 
HETATM   13  C22 UNL     1       5.805  25.572  70.228  1.00  0.00     0.057 A 
HETATM   14  C23 UNL     1       7.124  25.680  70.888  1.00  0.00     0.072 C 
HETATM   15  N7  UNL     1       6.525  26.610  68.133  1.00  0.00    -0.258 N 
ATOM     16  H7  UNL     1       7.505  26.803  68.339  1.00  0.00     0.190 HD
BRANCH  11  17
HETATM   17  C4  UNL     1       4.905  24.493  72.297  1.00  0.00     0.042 C 
BRANCH  17  18
HETATM   18  C3  UNL     1       5.293  23.033  72.380  1.00  0.00     0.004 C 
BRANCH  18  19
HETATM   19  C2  UNL     1       6.444  22.929  73.361  1.00  0.00    -0.004 C 
HETATM   20  C1  UNL     1       7.714  22.457  72.710  1.00  0.00     0.005 C 
ENDBRANCH  18  19
ENDBRANCH  17  18
ENDBRANCH  11  17
ENDBRANCH   2   3
ENDBRANCH   1   2
BRANCH   1  21
HETATM   21  C11 UNL     1       9.044  28.827  65.204  1.00  0.00     0.095 A 
HETATM   22  N3  UNL     1       9.453  29.836  65.972  1.00  0.00    -0.329 N 
HETATM   23  C12 UNL     1       9.997  30.802  65.188  1.00  0.00     0.146 A 
ATOM     24  H3  UNL     1       9.371  29.877  66.988  1.00  0.00     0.168 HD
HETATM   25  C13 UNL     1       9.917  30.361  63.859  1.00  0.00     0.149 A 
HETATM   26  N5  UNL     1      10.551  31.995  65.395  1.00  0.00    -0.283 N 
HETATM   27  C14 UNL     1      10.405  31.165  62.850  1.00  0.00     0.280 A 
HETATM   28  N6  UNL     1       9.331  29.160  63.932  1.00  0.00    -0.329 N 
HETATM   29  O1  UNL     1      10.340  30.784  61.661  1.00  0.00    -0.265 OA
HETATM   30  N4  UNL     1      10.952  32.360  63.127  1.00  0.00    -0.273 N 
HETATM   31  C15 UNL     1      11.029  32.787  64.423  1.00  0.00     0.331 A 
ATOM     32  H4  UNL     1      11.311  32.946  62.373  1.00  0.00     0.173 HD
HETATM   33  O2  UNL     1      11.541  33.908  64.701  1.00  0.00    -0.246 OA
BRANCH  28  34
HETATM   34  C20 UNL     1       9.052  28.343  62.773  1.00  0.00     0.126 C 
HETATM   35  C21 UNL     1      10.214  27.385  62.538  1.00  0.00     0.027 C 
ENDBRANCH  28  34
BRANCH  26  36
HETATM   36  C16 UNL     1      10.653  32.489  66.758  1.00  0.00     0.135 C 
BRANCH  36  37
HETATM   37  C17 UNL     1      11.775  31.723  67.420  1.00  0.00     0.020 C 
BRANCH  37  38
HETATM   38  C18 UNL     1      13.008  32.582  67.587  1.00  0.00    -0.003 C 
HETATM   39  C19 UNL     1      14.214  31.691  67.826  1.00  0.00     0.005 C 
ENDBRANCH  37  38
ENDBRANCH  36  37
ENDBRANCH  26  36
ENDBRANCH   1  21
TORSDOF 10
ENDMDL
