MODEL 3
REMARK VINA RESULT: -7.564117441      1.003      2.259
REMARK  10 active torsions:
REMARK  status: ('A' for Active; 'I' for Inactive)
REMARK    1  A    between atoms: C2_2  and  C3_3 
REMARK    2  A    between atoms: C3_3  and  C4_4 
REMARK    3  A    between atoms: C4_4  and  C5_5 
REMARK    4  A    between atoms: C9_13  and  S1_14 
REMARK    5  A    between atoms: S1_14  and  C10_15 
REMARK    6  A    between atoms: C10_15  and  C11_16 
REMARK    7  A    between atoms: N5_27  and  C16_28 
REMARK    8  A    between atoms: C16_28  and  C17_29 
REMARK    9  A    between atoms: C17_29  and  C18_30 
REMARK   10  A    between atoms: N6_32  and  C20_33 
ROOT
HETATM    1  C10 UNL     1      10.627  36.324  64.170  1.00  0.00     0.159 C 
ENDROOT
BRANCH   1   2
HETATM    2  S1  UNL     1      11.968  35.183  64.525  1.00  0.00    -0.085 SA
BRANCH   2   3
HETATM    3  C9  UNL     1      11.246  33.525  64.587  1.00  0.00     0.175 A 
HETATM    4  N2  UNL     1      10.801  32.883  65.682  1.00  0.00    -0.167 N 
HETATM    5  C8  UNL     1      10.329  31.665  65.360  1.00  0.00     0.706 A 
ATOM      6  H2  UNL     1      10.819  33.267  66.627  1.00  0.00     0.186 HD
HETATM    7  N1  UNL     1       9.784  30.645  66.046  1.00  0.00    -0.193 N 
HETATM    8  N8  UNL     1      10.486  31.550  64.029  1.00  0.00    -0.088 N 
HETATM    9  C6  UNL     1       9.383  29.488  65.440  1.00  0.00     0.031 A 
ATOM     10  H1  UNL     1       9.667  30.738  67.055  1.00  0.00     0.184 HD
HETATM   11  C5  UNL     1       9.535  29.354  64.087  1.00  0.00    -0.011 A 
HETATM   12  C7  UNL     1       8.786  28.379  66.219  1.00  0.00     0.069 C 
HETATM   13  C22 UNL     1      10.104  30.428  63.395  1.00  0.00     0.057 A 
HETATM   14  C23 UNL     1      10.284  30.317  61.931  1.00  0.00     0.072 C 
HETATM   15  N7  UNL     1      11.043  32.680  63.560  1.00  0.00    -0.258 N 
ATOM     16  H7  UNL     1      11.274  32.866  62.585  1.00  0.00     0.190 HD
BRANCH  11  17
HETATM   17  C4  UNL     1       9.116  28.129  63.404  1.00  0.00     0.042 C 
BRANCH  17  18
HETATM   18  C3  UNL     1      10.247  27.171  63.099  1.00  0.00     0.004 C 
BRANCH  18  19
HETATM   19  C2  UNL     1       9.882  26.436  61.825  1.00  0.00    -0.004 C 
HETATM   20  C1  UNL     1      10.726  26.859  60.655  1.00  0.00     0.005 C 
ENDBRANCH  18  19
ENDBRANCH  17  18
ENDBRANCH  11  17
ENDBRANCH   2   3
ENDBRANCH   1   2
BRANCH   1  21
HETATM   21  C11 UNL     1      10.884  37.066  62.895  1.00  0.00     0.095 A 
HETATM   22  N3  UNL     1      10.223  36.947  61.743  1.00  0.00    -0.329 N 
HETATM   23  C12 UNL     1      10.764  37.792  60.829  1.00  0.00     0.146 A 
ATOM     24  H3  UNL     1       9.436  36.321  61.577  1.00  0.00     0.168 HD
HETATM   25  C13 UNL     1      11.820  38.471  61.453  1.00  0.00     0.149 A 
HETATM   26  N5  UNL     1      10.524  38.093  59.554  1.00  0.00    -0.283 N 
HETATM   27  C14 UNL     1      12.546  39.397  60.735  1.00  0.00     0.280 A 
HETATM   28  N6  UNL     1      11.845  37.989  62.702  1.00  0.00    -0.329 N 
HETATM   29  O1  UNL     1      13.491  40.010  61.280  1.00  0.00    -0.265 OA
HETATM   30  N4  UNL     1      12.252  39.655  59.450  1.00  0.00    -0.273 N 
HETATM   31  C15 UNL     1      11.222  38.993  58.844  1.00  0.00     0.331 A 
ATOM     32  H4  UNL     1      12.795  40.344  58.929  1.00  0.00     0.173 HD
HETATM   33  O2  UNL     1      10.931  39.223  57.636  1.00  0.00    -0.246 OA
BRANCH  28  34
HETATM   34  C20 UNL     1      12.796  38.423  63.699  1.00  0.00     0.126 C 
HETATM   35  C21 UNL     1      12.201  39.578  64.497  1.00  0.00     0.027 C 
ENDBRANCH  28  34
BRANCH  26  36
HETATM   36  C16 UNL     1       9.438  37.412  58.869  1.00  0.00     0.135 C 
BRANCH  36  37
HETATM   37  C17 UNL     1       8.175  38.189  59.168  1.00  0.00     0.020 C 
BRANCH  37  38
HETATM   38  C18 UNL     1       7.257  38.234  57.969  1.00  0.00    -0.003 C 
HETATM   39  C19 UNL     1       7.953  37.605  56.775  1.00  0.00     0.005 C 
ENDBRANCH  37  38
ENDBRANCH  36  37
ENDBRANCH  26  36
ENDBRANCH   1  21
TORSDOF 10
ENDMDL
