MODEL 2
REMARK VINA RESULT: -7.606975060      2.515      3.100
REMARK  10 active torsions:
REMARK  status: ('A' for Active; 'I' for Inactive)
REMARK    1  A    between atoms: C2_2  and  C3_3 
REMARK    2  A    between atoms: C3_3  and  C4_4 
REMARK    3  A    between atoms: C4_4  and  C5_5 
REMARK    4  A    between atoms: C9_13  and  S1_14 
REMARK    5  A    between atoms: S1_14  and  C10_15 
REMARK    6  A    between atoms: C10_15  and  C11_16 
REMARK    7  A    between atoms: N5_27  and  C16_28 
REMARK    8  A    between atoms: C16_28  and  C17_29 
REMARK    9  A    between atoms: C17_29  and  C18_30 
REMARK   10  A    between atoms: N6_32  and  C20_33 
ROOT
HETATM    1  C10 UNL     1      10.659  36.286  66.261  1.00  0.00     0.159 C 
ENDROOT
BRANCH   1   2
HETATM    2  S1  UNL     1      12.026  35.432  65.466  1.00  0.00    -0.085 SA
BRANCH   2   3
HETATM    3  C9  UNL     1      11.401  33.821  64.931  1.00  0.00     0.175 A 
HETATM    4  N2  UNL     1      11.241  33.403  63.663  1.00  0.00    -0.167 N 
HETATM    5  C8  UNL     1      10.752  32.149  63.634  1.00  0.00     0.706 A 
ATOM      6  H2  UNL     1      11.460  33.959  62.836  1.00  0.00     0.186 HD
HETATM    7  N1  UNL     1      10.416  31.282  62.662  1.00  0.00    -0.193 N 
HETATM    8  N8  UNL     1      10.605  31.782  64.920  1.00  0.00    -0.088 N 
HETATM    9  C6  UNL     1       9.929  30.035  62.933  1.00  0.00     0.031 A 
ATOM     10  H1  UNL     1      10.531  31.566  61.689  1.00  0.00     0.184 HD
HETATM   11  C5  UNL     1       9.772  29.645  64.235  1.00  0.00    -0.011 A 
HETATM   12  C7  UNL     1       9.567  29.098  61.844  1.00  0.00     0.069 C 
HETATM   13  C22 UNL     1      10.128  30.563  65.227  1.00  0.00     0.057 A 
HETATM   14  C23 UNL     1       9.972  30.176  66.646  1.00  0.00     0.072 C 
HETATM   15  N7  UNL     1      10.999  32.798  65.706  1.00  0.00    -0.258 N 
ATOM     16  H7  UNL     1      10.994  32.794  66.726  1.00  0.00     0.190 HD
BRANCH  11  17
HETATM   17  C4  UNL     1       9.254  28.316  64.562  1.00  0.00     0.042 C 
BRANCH  17  18
HETATM   18  C3  UNL     1       7.754  28.267  64.756  1.00  0.00     0.004 C 
BRANCH  18  19
HETATM   19  C2  UNL     1       7.493  27.548  66.065  1.00  0.00    -0.004 C 
HETATM   20  C1  UNL     1       6.124  26.930  66.119  1.00  0.00     0.005 C 
ENDBRANCH  18  19
ENDBRANCH  17  18
ENDBRANCH  11  17
ENDBRANCH   2   3
ENDBRANCH   1   2
BRANCH   1  21
HETATM   21  C11 UNL     1       9.918  37.135  65.275  1.00  0.00     0.095 A 
HETATM   22  N3  UNL     1      10.281  37.427  64.026  1.00  0.00    -0.329 N 
HETATM   23  C12 UNL     1       9.340  38.226  63.463  1.00  0.00     0.146 A 
ATOM     24  H3  UNL     1      11.132  37.102  63.568  1.00  0.00     0.168 HD
HETATM   25  C13 UNL     1       8.338  38.440  64.420  1.00  0.00     0.149 A 
HETATM   26  N5  UNL     1       9.175  38.812  62.278  1.00  0.00    -0.283 N 
HETATM   27  C14 UNL     1       7.253  39.228  64.099  1.00  0.00     0.280 A 
HETATM   28  N6  UNL     1       8.743  37.755  65.496  1.00  0.00    -0.329 N 
HETATM   29  O1  UNL     1       6.352  39.426  64.944  1.00  0.00    -0.265 OA
HETATM   30  N4  UNL     1       7.147  39.789  62.884  1.00  0.00    -0.273 N 
HETATM   31  C15 UNL     1       8.124  39.580  61.952  1.00  0.00     0.331 A 
ATOM     32  H4  UNL     1       6.339  40.369  62.657  1.00  0.00     0.173 HD
HETATM   33  O2  UNL     1       8.040  40.101  60.804  1.00  0.00    -0.246 OA
BRANCH  28  34
HETATM   34  C20 UNL     1       7.994  37.703  66.731  1.00  0.00     0.126 C 
HETATM   35  C21 UNL     1       8.448  38.834  67.646  1.00  0.00     0.027 C 
ENDBRANCH  28  34
BRANCH  26  36
HETATM   36  C16 UNL     1      10.191  38.616  61.256  1.00  0.00     0.135 C 
BRANCH  36  37
HETATM   37  C17 UNL     1       9.938  37.259  60.639  1.00  0.00     0.020 C 
BRANCH  37  38
HETATM   38  C18 UNL     1      10.129  37.289  59.141  1.00  0.00    -0.003 C 
HETATM   39  C19 UNL     1       8.814  37.647  58.471  1.00  0.00     0.005 C 
ENDBRANCH  37  38
ENDBRANCH  36  37
ENDBRANCH  26  36
ENDBRANCH   1  21
TORSDOF 10
ENDMDL
