MODEL 2
REMARK VINA RESULT: -5.684329742      3.202      3.487
REMARK  2 active torsions:
REMARK  status: ('A' for Active; 'I' for Inactive)
REMARK    1  A    between atoms: C5_7  and  S1_8 
REMARK    2  A    between atoms: S1_8  and  N2_9 
ROOT
HETATM    1  C1  UNL     1      14.886   5.638  13.964  1.00  0.00     0.068 C 
HETATM    2  C2  UNL     1      15.713   4.604  14.653  1.00  0.00     0.009 A 
HETATM    3  C3  UNL     1      17.076   4.667  14.457  1.00  0.00     0.041 A 
HETATM    4  C4  UNL     1      17.856   3.720  15.084  1.00  0.00     0.092 A 
HETATM    5  N1  UNL     1      17.299   2.768  15.861  1.00  0.00    -0.341 N 
ATOM      6  H1  UNL     1      17.898   2.078  16.315  1.00  0.00     0.167 HD
HETATM    7  C5  UNL     1      15.956   2.710  16.051  1.00  0.00     0.223 A 
HETATM    8  N3  UNL     1      15.215   3.651  15.424  1.00  0.00    -0.335 N 
ATOM      9  H3  UNL     1      14.204   3.624  15.554  1.00  0.00     0.168 HD
ENDROOT
BRANCH   7  10
HETATM   10  S1  UNL     1      15.226   1.478  17.057  1.00  0.00     0.288 S 
HETATM   11  O1  UNL     1      15.707   1.666  18.474  1.00  0.00    -0.198 OA
HETATM   12  O2  UNL     1      15.693   0.100  16.632  1.00  0.00    -0.198 OA
BRANCH  10  13
HETATM   13  N2  UNL     1      13.525   1.498  16.994  1.00  0.00    -0.322 N 
ATOM     14  H22 UNL     1      12.986   2.358  16.882  1.00  0.00     0.169 HD
ATOM     15  H21 UNL     1      13.116   0.568  17.078  1.00  0.00     0.169 HD
ENDBRANCH  10  13
ENDBRANCH   7  10
TORSDOF 2
ENDMDL
