MODEL 8
REMARK VINA RESULT: -5.427155546      2.799      3.181
REMARK  2 active torsions:
REMARK  status: ('A' for Active; 'I' for Inactive)
REMARK    1  A    between atoms: C5_7  and  S1_8 
REMARK    2  A    between atoms: S1_8  and  N2_9 
ROOT
HETATM    1  C1  UNL     1      14.601   5.960  13.635  1.00  0.00     0.068 C 
HETATM    2  C2  UNL     1      15.748   5.129  14.106  1.00  0.00     0.009 A 
HETATM    3  C3  UNL     1      17.000   5.701  14.036  1.00  0.00     0.041 A 
HETATM    4  C4  UNL     1      18.072   4.949  14.466  1.00  0.00     0.092 A 
HETATM    5  N1  UNL     1      17.894   3.697  14.937  1.00  0.00    -0.341 N 
ATOM      6  H1  UNL     1      18.703   3.161  15.249  1.00  0.00     0.167 HD
HETATM    7  C5  UNL     1      16.659   3.138  15.004  1.00  0.00     0.223 A 
HETATM    8  N3  UNL     1      15.627   3.898  14.576  1.00  0.00    -0.335 N 
ATOM      9  H3  UNL     1      14.690   3.495  14.619  1.00  0.00     0.168 HD
ENDROOT
BRANCH   7  10
HETATM   10  S1  UNL     1      16.421   1.515  15.615  1.00  0.00     0.288 S 
HETATM   11  O1  UNL     1      17.633   1.121  16.419  1.00  0.00    -0.198 OA
HETATM   12  O2  UNL     1      16.334   0.525  14.469  1.00  0.00    -0.198 OA
BRANCH  10  13
HETATM   13  N2  UNL     1      15.005   1.363  16.548  1.00  0.00    -0.322 N 
ATOM     14  H22 UNL     1      14.310   0.635  16.383  1.00  0.00     0.169 HD
ATOM     15  H21 UNL     1      14.936   2.072  17.277  1.00  0.00     0.169 HD
ENDBRANCH  10  13
ENDBRANCH   7  10
TORSDOF 2
ENDMDL
