MODEL 2
REMARK VINA RESULT: -6.198734763      2.232      2.729
REMARK  3 active torsions:
REMARK  status: ('A' for Active; 'I' for Inactive)
REMARK    1  A    between atoms: C4_5  and  O1_6 
REMARK    2  A    between atoms: O1_6  and  C5_7 
REMARK    3  A    between atoms: C5_7  and  C6_8 
ROOT
HETATM    1  C5  UNL     1      17.692   2.636  11.875  1.00  0.00     0.255 C 
ENDROOT
BRANCH   1   2
HETATM    2  O1  UNL     1      17.319   1.719  12.837  1.00  0.00    -0.344 OA
BRANCH   2   3
HETATM    3  C4  UNL     1      16.750   1.924  14.061  1.00  0.00     0.071 A 
HETATM    4  C3  UNL     1      16.908   0.927  15.006  1.00  0.00     0.038 A 
HETATM    5  C2  UNL     1      16.357   1.076  16.260  1.00  0.00     0.028 A 
HETATM    6  C1  UNL     1      15.641   2.188  16.631  1.00  0.00     0.056 A 
HETATM    7 CL1  UNL     1      14.939   2.375  18.230  1.00  0.00    -0.083 Cl
HETATM    8  C8  UNL     1      15.479   3.189  15.691  1.00  0.00     0.058 A 
HETATM    9  C7  UNL     1      16.031   3.038  14.440  1.00  0.00     0.062 A 
HETATM   10 CL2  UNL     1      14.565   4.625  16.142  1.00  0.00    -0.082 Cl
ENDBRANCH   2   3
ENDBRANCH   1   2
BRANCH   1  11
HETATM   11  C6  UNL     1      18.992   3.267  12.213  1.00  0.00     0.137 A 
HETATM   12  N1  UNL     1      19.234   4.231  13.089  1.00  0.00    -0.270 N 
HETATM   13  N2  UNL     1      20.522   4.512  13.094  1.00  0.00    -0.227 N 
ATOM     14  H1  UNL     1      18.531   4.686  13.672  1.00  0.00     0.190 HD
HETATM   15  N3  UNL     1      21.079   3.698  12.197  1.00  0.00    -0.227 N 
ATOM     16  H2  UNL     1      20.996   5.210  13.667  1.00  0.00     0.210 HD
HETATM   17  N4  UNL     1      20.179   2.928  11.643  1.00  0.00    -0.270 N 
ATOM     18  H3  UNL     1      22.074   3.679  11.972  1.00  0.00     0.210 HD
ATOM     19  H4  UNL     1      20.336   2.218  10.929  1.00  0.00     0.190 HD
ENDBRANCH   1  11
TORSDOF 3
ENDMDL
