MODEL 1
REMARK VINA RESULT: -6.240402549      0.000      0.000
REMARK  3 active torsions:
REMARK  status: ('A' for Active; 'I' for Inactive)
REMARK    1  A    between atoms: C4_5  and  O1_6 
REMARK    2  A    between atoms: O1_6  and  C5_7 
REMARK    3  A    between atoms: C5_7  and  C6_8 
ROOT
HETATM    1  C5  UNL     1      17.757   3.409  12.004  1.00  0.00     0.255 C 
ENDROOT
BRANCH   1   2
HETATM    2  O1  UNL     1      18.004   3.080  13.323  1.00  0.00    -0.344 OA
BRANCH   2   3
HETATM    3  C4  UNL     1      17.130   2.738  14.314  1.00  0.00     0.071 A 
HETATM    4  C3  UNL     1      17.140   1.422  14.738  1.00  0.00     0.038 A 
HETATM    5  C2  UNL     1      16.281   1.017  15.736  1.00  0.00     0.028 A 
HETATM    6  C1  UNL     1      15.394   1.869  16.346  1.00  0.00     0.056 A 
HETATM    7 CL1  UNL     1      14.299   1.348  17.618  1.00  0.00    -0.083 Cl
HETATM    8  C8  UNL     1      15.379   3.186  15.927  1.00  0.00     0.058 A 
HETATM    9  C7  UNL     1      16.238   3.589  14.931  1.00  0.00     0.062 A 
HETATM   10 CL2  UNL     1      14.250   4.299  16.694  1.00  0.00    -0.082 Cl
ENDBRANCH   2   3
ENDBRANCH   1   2
BRANCH   1  11
HETATM   11  C6  UNL     1      17.311   2.222  11.233  1.00  0.00     0.137 A 
HETATM   12  N1  UNL     1      16.082   1.904  10.852  1.00  0.00    -0.270 N 
HETATM   13  N2  UNL     1      16.106   0.768  10.184  1.00  0.00    -0.227 N 
ATOM     14  H1  UNL     1      15.245   2.455  11.046  1.00  0.00     0.190 HD
HETATM   15  N3  UNL     1      17.382   0.384  10.156  1.00  0.00    -0.227 N 
ATOM     16  H2  UNL     1      15.309   0.282   9.771  1.00  0.00     0.210 HD
HETATM   17  N4  UNL     1      18.142   1.244  10.783  1.00  0.00    -0.270 N 
ATOM     18  H3  UNL     1      17.720  -0.466   9.707  1.00  0.00     0.210 HD
ATOM     19  H4  UNL     1      19.152   1.191  10.910  1.00  0.00     0.190 HD
ENDBRANCH   1  11
TORSDOF 3
ENDMDL
