MODEL 3
REMARK VINA RESULT: -6.157214070      1.940      2.871
REMARK  3 active torsions:
REMARK  status: ('A' for Active; 'I' for Inactive)
REMARK    1  A    between atoms: C4_5  and  O1_6 
REMARK    2  A    between atoms: O1_6  and  C5_7 
REMARK    3  A    between atoms: C5_7  and  C6_8 
ROOT
HETATM    1  C5  UNL     1      17.710   0.742  11.860  1.00  0.00     0.255 C 
ENDROOT
BRANCH   1   2
HETATM    2  O1  UNL     1      17.920   1.044  13.191  1.00  0.00    -0.344 OA
BRANCH   2   3
HETATM    3  C4  UNL     1      17.081   1.632  14.093  1.00  0.00     0.071 A 
HETATM    4  C3  UNL     1      16.585   2.882  13.772  1.00  0.00     0.038 A 
HETATM    5  C2  UNL     1      15.733   3.527  14.642  1.00  0.00     0.028 A 
HETATM    6  C1  UNL     1      15.342   2.982  15.841  1.00  0.00     0.056 A 
HETATM    7 CL1  UNL     1      14.257   3.807  16.949  1.00  0.00    -0.083 Cl
HETATM    8  C8  UNL     1      15.834   1.733  16.168  1.00  0.00     0.058 A 
HETATM    9  C7  UNL     1      16.684   1.091  15.297  1.00  0.00     0.062 A 
HETATM   10 CL2  UNL     1      15.348   1.012  17.700  1.00  0.00    -0.082 Cl
ENDBRANCH   2   3
ENDBRANCH   1   2
BRANCH   1  11
HETATM   11  C6  UNL     1      17.866  -0.713  11.612  1.00  0.00     0.137 A 
HETATM   12  N1  UNL     1      18.984  -1.421  11.551  1.00  0.00    -0.270 N 
HETATM   13  N2  UNL     1      18.696  -2.685  11.311  1.00  0.00    -0.227 N 
ATOM     14  H1  UNL     1      19.925  -1.045  11.671  1.00  0.00     0.190 HD
HETATM   15  N3  UNL     1      17.368  -2.749  11.224  1.00  0.00    -0.227 N 
ATOM     16  H2  UNL     1      19.356  -3.457  11.212  1.00  0.00     0.210 HD
HETATM   17  N4  UNL     1      16.831  -1.570  11.402  1.00  0.00    -0.270 N 
ATOM     18  H3  UNL     1      16.840  -3.603  11.042  1.00  0.00     0.210 HD
ATOM     19  H4  UNL     1      15.838  -1.340  11.386  1.00  0.00     0.190 HD
ENDBRANCH   1  11
TORSDOF 3
ENDMDL
