MODEL 10
REMARK VINA RESULT: -5.919818477      2.995      3.733
REMARK  3 active torsions:
REMARK  status: ('A' for Active; 'I' for Inactive)
REMARK    1  A    between atoms: O1_2  and  C2_3 
REMARK    2  A    between atoms: C5_6  and  C6_7 
REMARK    3  A    between atoms: C8_9  and  C9_10 
ROOT
HETATM    1  C2  UNL     1      18.380   2.917  11.342  1.00  0.00     0.068 A 
HETATM    2  C3  UNL     1      17.732   1.732  11.599  1.00  0.00     0.037 A 
HETATM    3  C4  UNL     1      17.013   1.643  12.798  1.00  0.00     0.014 A 
HETATM    4  C5  UNL     1      16.921   2.658  13.715  1.00  0.00    -0.030 A 
HETATM    5  C10 UNL     1      17.587   3.824  13.410  1.00  0.00     0.014 A 
HETATM    6  C11 UNL     1      18.318   3.967  12.231  1.00  0.00     0.037 A 
ENDROOT
BRANCH   4   7
HETATM    7  C6  UNL     1      16.156   2.530  14.960  1.00  0.00    -0.045 C 
HETATM    8  C7  UNL     1      15.242   3.606  15.395  1.00  0.00     0.049 C 
HETATM    9  C8  UNL     1      16.238   1.476  15.751  1.00  0.00     0.091 C 
BRANCH   9  10
HETATM   10  C9  UNL     1      15.497   1.321  16.984  1.00  0.00     0.199 C 
HETATM   11  O2  UNL     1      14.441   0.586  16.935  1.00  0.00    -0.644 OA
HETATM   12  O3  UNL     1      15.831   1.897  18.205  1.00  0.00    -0.644 OA
ENDBRANCH   9  10
ENDBRANCH   4   7
BRANCH   1  13
HETATM   13  O1  UNL     1      19.091   3.000  10.150  1.00  0.00    -0.356 OA
HETATM   14  C1  UNL     1      20.405   3.493  10.057  1.00  0.00     0.210 C 
ENDBRANCH   1  13
TORSDOF 3
ENDMDL
