MODEL 11
REMARK VINA RESULT: -5.850618983      3.713      5.592
REMARK  3 active torsions:
REMARK  status: ('A' for Active; 'I' for Inactive)
REMARK    1  A    between atoms: O1_2  and  C2_3 
REMARK    2  A    between atoms: C5_6  and  C6_7 
REMARK    3  A    between atoms: C8_9  and  C9_10 
ROOT
HETATM    1  C2  UNL     1      15.248   2.960  16.463  1.00  0.00     0.068 A 
HETATM    2  C3  UNL     1      15.996   1.817  16.303  1.00  0.00     0.037 A 
HETATM    3  C4  UNL     1      16.618   1.629  15.061  1.00  0.00     0.014 A 
HETATM    4  C5  UNL     1      16.523   2.508  14.014  1.00  0.00    -0.030 A 
HETATM    5  C10 UNL     1      15.762   3.637  14.226  1.00  0.00     0.014 A 
HETATM    6  C11 UNL     1      15.121   3.874  15.442  1.00  0.00     0.037 A 
ENDROOT
BRANCH   4   7
HETATM    7  C6  UNL     1      17.190   2.279  12.728  1.00  0.00    -0.045 C 
HETATM    8  C7  UNL     1      17.602   3.418  11.881  1.00  0.00     0.049 C 
HETATM    9  C8  UNL     1      17.452   1.074  12.257  1.00  0.00     0.091 C 
BRANCH   9  10
HETATM   10  C9  UNL     1      18.108   0.816  10.993  1.00  0.00     0.199 C 
HETATM   11  O2  UNL     1      19.395   0.844  10.994  1.00  0.00    -0.644 OA
HETATM   12  O3  UNL     1      17.465   0.544   9.791  1.00  0.00    -0.644 OA
ENDBRANCH   9  10
ENDBRANCH   4   7
BRANCH   1  13
HETATM   13  O1  UNL     1      14.635   3.142  17.697  1.00  0.00    -0.356 OA
HETATM   14  C1  UNL     1      14.927   2.372  18.837  1.00  0.00     0.210 C 
ENDBRANCH   1  13
TORSDOF 3
ENDMDL
