MODEL 9
REMARK VINA RESULT: -5.940627262      3.037      3.830
REMARK  3 active torsions:
REMARK  status: ('A' for Active; 'I' for Inactive)
REMARK    1  A    between atoms: O1_2  and  C2_3 
REMARK    2  A    between atoms: C5_6  and  C6_7 
REMARK    3  A    between atoms: C8_9  and  C9_10 
ROOT
HETATM    1  C2  UNL     1      18.407   2.695  11.304  1.00  0.00     0.068 A 
HETATM    2  C3  UNL     1      18.340   3.808  12.107  1.00  0.00     0.037 A 
HETATM    3  C4  UNL     1      17.591   3.702  13.287  1.00  0.00     0.014 A 
HETATM    4  C5  UNL     1      16.932   2.566  13.677  1.00  0.00    -0.030 A 
HETATM    5  C10 UNL     1      17.030   1.479  12.838  1.00  0.00     0.014 A 
HETATM    6  C11 UNL     1      17.762   1.529  11.652  1.00  0.00     0.037 A 
ENDROOT
BRANCH   4   7
HETATM    7  C6  UNL     1      16.158   2.491  14.921  1.00  0.00    -0.045 C 
HETATM    8  C7  UNL     1      15.262   3.596  15.318  1.00  0.00     0.049 C 
HETATM    9  C8  UNL     1      16.216   1.460  15.745  1.00  0.00     0.091 C 
BRANCH   9  10
HETATM   10  C9  UNL     1      15.466   1.356  16.978  1.00  0.00     0.199 C 
HETATM   11  O2  UNL     1      14.384   0.658  16.939  1.00  0.00    -0.644 OA
HETATM   12  O3  UNL     1      15.817   1.943  18.188  1.00  0.00    -0.644 OA
ENDBRANCH   9  10
ENDBRANCH   4   7
BRANCH   1  13
HETATM   13  O1  UNL     1      19.152   2.805  10.136  1.00  0.00    -0.356 OA
HETATM   14  C1  UNL     1      20.257   3.664   9.991  1.00  0.00     0.210 C 
ENDBRANCH   1  13
TORSDOF 3
ENDMDL
