MODEL 4
REMARK VINA RESULT: -6.242169939      1.198      2.004
REMARK  3 active torsions:
REMARK  status: ('A' for Active; 'I' for Inactive)
REMARK    1  A    between atoms: O1_2  and  C2_3 
REMARK    2  A    between atoms: C5_6  and  C6_7 
REMARK    3  A    between atoms: C8_9  and  C9_10 
ROOT
HETATM    1  C2  UNL     1      18.617   6.950  14.463  1.00  0.00     0.068 A 
HETATM    2  C3  UNL     1      17.333   7.060  14.942  1.00  0.00     0.037 A 
HETATM    3  C4  UNL     1      16.677   5.872  15.291  1.00  0.00     0.014 A 
HETATM    4  C5  UNL     1      17.237   4.625  15.183  1.00  0.00    -0.030 A 
HETATM    5  C10 UNL     1      18.524   4.570  14.698  1.00  0.00     0.014 A 
HETATM    6  C11 UNL     1      19.224   5.720  14.335  1.00  0.00     0.037 A 
ENDROOT
BRANCH   4   7
HETATM    7  C6  UNL     1      16.520   3.402  15.561  1.00  0.00    -0.045 C 
HETATM    8  C7  UNL     1      15.044   3.377  15.600  1.00  0.00     0.049 C 
HETATM    9  C8  UNL     1      17.134   2.279  15.885  1.00  0.00     0.091 C 
BRANCH   9  10
HETATM   10  C9  UNL     1      16.455   1.057  16.261  1.00  0.00     0.199 C 
HETATM   11  O2  UNL     1      16.375   0.140  15.361  1.00  0.00    -0.644 OA
HETATM   12  O3  UNL     1      15.890   0.798  17.504  1.00  0.00    -0.644 OA
ENDBRANCH   9  10
ENDBRANCH   4   7
BRANCH   1  13
HETATM   13  O1  UNL     1      19.263   8.132  14.119  1.00  0.00    -0.356 OA
HETATM   14  C1  UNL     1      19.601   9.136  15.043  1.00  0.00     0.210 C 
ENDBRANCH   1  13
TORSDOF 3
ENDMDL
