MODEL 2
REMARK VINA RESULT: -6.247319060      1.188      1.557
REMARK  3 active torsions:
REMARK  status: ('A' for Active; 'I' for Inactive)
REMARK    1  A    between atoms: O1_2  and  C2_3 
REMARK    2  A    between atoms: C5_6  and  C6_7 
REMARK    3  A    between atoms: C8_9  and  C9_10 
ROOT
HETATM    1  C2  UNL     1      18.615   6.931  14.452  1.00  0.00     0.068 A 
HETATM    2  C3  UNL     1      19.262   5.722  14.362  1.00  0.00     0.037 A 
HETATM    3  C4  UNL     1      18.541   4.581  14.740  1.00  0.00     0.014 A 
HETATM    4  C5  UNL     1      17.245   4.605  15.186  1.00  0.00    -0.030 A 
HETATM    5  C10 UNL     1      16.642   5.842  15.257  1.00  0.00     0.014 A 
HETATM    6  C11 UNL     1      17.313   7.009  14.894  1.00  0.00     0.037 A 
ENDROOT
BRANCH   4   7
HETATM    7  C6  UNL     1      16.520   3.390  15.572  1.00  0.00    -0.045 C 
HETATM    8  C7  UNL     1      15.043   3.371  15.596  1.00  0.00     0.049 C 
HETATM    9  C8  UNL     1      17.126   2.268  15.916  1.00  0.00     0.091 C 
BRANCH   9  10
HETATM   10  C9  UNL     1      16.438   1.054  16.300  1.00  0.00     0.199 C 
HETATM   11  O2  UNL     1      16.344   0.135  15.403  1.00  0.00    -0.644 OA
HETATM   12  O3  UNL     1      15.878   0.804  17.547  1.00  0.00    -0.644 OA
ENDBRANCH   9  10
ENDBRANCH   4   7
BRANCH   1  13
HETATM   13  O1  UNL     1      19.335   8.059  14.075  1.00  0.00    -0.356 OA
HETATM   14  C1  UNL     1      19.556   9.163  14.917  1.00  0.00     0.210 C 
ENDBRANCH   1  13
TORSDOF 3
ENDMDL
