MODEL 10
REMARK VINA RESULT: -13.253713691      1.125      2.414
REMARK  11 active torsions:
REMARK  status: ('A' for Active; 'I' for Inactive)
REMARK    1  A    between atoms: C7_8  and  C8_9 
REMARK    2  A    between atoms: N2_15  and  C14_16 
REMARK    3  A    between atoms: C14_16  and  C15_17 
REMARK    4  A    between atoms: C15_17  and  C16_18 
REMARK    5  A    between atoms: C16_18  and  C17_19 
REMARK    6  A    between atoms: C17_19  and  C18_20 
REMARK    7  A    between atoms: C18_20  and  C19_21 
REMARK    8  A    between atoms: N3_23  and  C21_24 
REMARK    9  A    between atoms: C21_24  and  C22_25 
REMARK   10  A    between atoms: C22_25  and  N4_26 
REMARK   11  A    between atoms: N4_26  and  C23_28 
ROOT
HETATM    1  C18 UNL     1      31.828  22.910  10.061  1.00  0.00     0.060 C 
ENDROOT
BRANCH   1   2
HETATM    2  C17 UNL     1      33.185  22.678   9.465  1.00  0.00     0.006 C 
BRANCH   2   3
HETATM    3  C16 UNL     1      34.047  23.921   9.583  1.00  0.00     0.005 C 
BRANCH   3   4
HETATM    4  C15 UNL     1      35.488  23.493   9.757  1.00  0.00     0.045 C 
BRANCH   4   5
HETATM    5  C14 UNL     1      36.482  24.173   8.939  1.00  0.00     0.065 C 
BRANCH   5   6
HETATM    6  N2  UNL     1      36.383  24.430   7.553  1.00  0.00    -0.346 N 
HETATM    7  C7  UNL     1      36.506  23.256   6.661  1.00  0.00     0.156 C 
HETATM    8  C5  UNL     1      37.158  23.615   5.380  1.00  0.00    -0.018 A 
HETATM    9  C4  UNL     1      37.187  24.881   4.841  1.00  0.00    -0.015 A 
HETATM   10  C6  UNL     1      37.739  22.595   4.614  1.00  0.00     0.037 A 
HETATM   11  C3  UNL     1      37.752  25.148   3.612  1.00  0.00     0.015 A 
HETATM   12  C41 UNL     1      36.657  25.974   5.658  1.00  0.00     0.002 A 
HETATM   13  C2  UNL     1      38.318  24.118   2.879  1.00  0.00     0.027 A 
HETATM   14  C1  UNL     1      38.312  22.823   3.386  1.00  0.00     0.047 A 
HETATM   15  N1  UNL     1      38.904  21.801   2.609  1.00  0.00    -0.102 NA
HETATM   16  C36 UNL     1      36.173  25.674   6.929  1.00  0.00     0.048 A 
HETATM   17  C40 UNL     1      36.503  27.245   5.128  1.00  0.00     0.016 A 
HETATM   18  C37 UNL     1      35.533  26.705   7.613  1.00  0.00     0.057 A 
HETATM   19  C38 UNL     1      35.367  27.965   7.112  1.00  0.00     0.048 A 
HETATM   20  N8  UNL     1      34.696  28.978   7.851  1.00  0.00    -0.102 NA
HETATM   21  C39 UNL     1      35.854  28.257   5.854  1.00  0.00     0.027 A 
BRANCH   7  22
HETATM   22  C8  UNL     1      35.218  22.571   6.504  1.00  0.00    -0.031 A 
HETATM   23  C9  UNL     1      34.116  23.226   5.937  1.00  0.00     0.009 A 
HETATM   24  C10 UNL     1      32.904  22.603   5.777  1.00  0.00     0.001 A 
HETATM   25  C11 UNL     1      32.787  21.301   6.192  1.00  0.00     0.000 A 
HETATM   26  C12 UNL     1      33.864  20.645   6.752  1.00  0.00     0.001 A 
HETATM   27  C13 UNL     1      35.083  21.263   6.915  1.00  0.00     0.009 A 
ENDBRANCH   7  22
ENDBRANCH   5   6
ENDBRANCH   4   5
ENDBRANCH   3   4
ENDBRANCH   2   3
ENDBRANCH   1   2
BRANCH   1  28
HETATM   28  C19 UNL     1      31.423  21.641  10.755  1.00  0.00     0.044 A 
HETATM   29  C20 UNL     1      31.063  21.578  12.070  1.00  0.00     0.138 A 
HETATM   30  N3  UNL     1      30.780  20.298  12.339  1.00  0.00    -0.286 N 
HETATM   31  N6  UNL     1      30.959  19.609  11.235  1.00  0.00    -0.241 N 
HETATM   32  N7  UNL     1      31.353  20.407  10.250  1.00  0.00    -0.289 N 
ATOM     33  H6  UNL     1      30.817  18.603  11.146  1.00  0.00     0.208 HD
ATOM     34  H7  UNL     1      31.562  20.131   9.291  1.00  0.00     0.188 HD
BRANCH  30  35
HETATM   35  C21 UNL     1      30.343  19.778  13.593  1.00  0.00     0.169 C 
BRANCH  35  36
HETATM   36  C22 UNL     1      28.854  19.954  13.800  1.00  0.00     0.141 C 
BRANCH  36  37
HETATM   37  N4  UNL     1      28.580  20.970  14.792  1.00  0.00    -0.387 N 
ATOM     38  H4  UNL     1      28.340  20.702  15.746  1.00  0.00     0.159 HD
BRANCH  37  39
HETATM   39  C23 UNL     1      28.646  22.321  14.434  1.00  0.00     0.053 A 
HETATM   40  C24 UNL     1      29.803  23.042  14.730  1.00  0.00     0.018 A 
HETATM   41  C25 UNL     1      30.864  22.450  15.368  1.00  0.00     0.016 A 
HETATM   42  C29 UNL     1      29.826  24.373  14.344  1.00  0.00     0.045 A 
HETATM   43  C26 UNL     1      32.002  23.172  15.650  1.00  0.00     0.001 A 
HETATM   44  C27 UNL     1      32.073  24.520  15.279  1.00  0.00     0.002 A 
HETATM   45  C28 UNL     1      30.983  25.082  14.638  1.00  0.00     0.030 A 
HETATM   46  N5  UNL     1      28.787  24.954  13.716  1.00  0.00    -0.355 N 
HETATM   47  C30 UNL     1      27.663  24.242  13.434  1.00  0.00     0.045 A 
ATOM     48  H5  UNL     1      28.844  25.937  13.449  1.00  0.00     0.166 HD
HETATM   49  C31 UNL     1      26.589  24.842  12.785  1.00  0.00     0.030 A 
HETATM   50  C35 UNL     1      27.575  22.907  13.791  1.00  0.00     0.018 A 
HETATM   51  C32 UNL     1      25.431  24.171  12.475  1.00  0.00     0.002 A 
HETATM   52  C33 UNL     1      25.355  22.834  12.837  1.00  0.00     0.001 A 
HETATM   53  C34 UNL     1      26.416  22.227  13.483  1.00  0.00     0.016 A 
ENDBRANCH  37  39
ENDBRANCH  36  37
ENDBRANCH  35  36
ENDBRANCH  30  35
ENDBRANCH   1  28
TORSDOF 11
ENDMDL
