MODEL 13
REMARK VINA RESULT: -13.151520038      1.134      2.759
REMARK  11 active torsions:
REMARK  status: ('A' for Active; 'I' for Inactive)
REMARK    1  A    between atoms: C7_8  and  C8_9 
REMARK    2  A    between atoms: N2_15  and  C14_16 
REMARK    3  A    between atoms: C14_16  and  C15_17 
REMARK    4  A    between atoms: C15_17  and  C16_18 
REMARK    5  A    between atoms: C16_18  and  C17_19 
REMARK    6  A    between atoms: C17_19  and  C18_20 
REMARK    7  A    between atoms: C18_20  and  C19_21 
REMARK    8  A    between atoms: N3_23  and  C21_24 
REMARK    9  A    between atoms: C21_24  and  C22_25 
REMARK   10  A    between atoms: C22_25  and  N4_26 
REMARK   11  A    between atoms: N4_26  and  C23_28 
ROOT
HETATM    1  C18 UNL     1      31.939  22.650   9.835  1.00  0.00     0.060 C 
ENDROOT
BRANCH   1   2
HETATM    2  C17 UNL     1      33.433  22.573   9.727  1.00  0.00     0.006 C 
BRANCH   2   3
HETATM    3  C16 UNL     1      34.019  23.924   9.361  1.00  0.00     0.005 C 
BRANCH   3   4
HETATM    4  C15 UNL     1      35.416  24.015   9.935  1.00  0.00     0.045 C 
BRANCH   4   5
HETATM    5  C14 UNL     1      36.514  24.120   8.985  1.00  0.00     0.065 C 
BRANCH   5   6
HETATM    6  N2  UNL     1      36.397  24.397   7.605  1.00  0.00    -0.346 N 
HETATM    7  C7  UNL     1      36.502  23.235   6.695  1.00  0.00     0.156 C 
HETATM    8  C5  UNL     1      37.135  23.609   5.410  1.00  0.00    -0.018 A 
HETATM    9  C4  UNL     1      37.162  24.883   4.887  1.00  0.00    -0.015 A 
HETATM   10  C6  UNL     1      37.702  22.599   4.620  1.00  0.00     0.037 A 
HETATM   11  C3  UNL     1      37.711  25.165   3.655  1.00  0.00     0.015 A 
HETATM   12  C41 UNL     1      36.648  25.966   5.728  1.00  0.00     0.002 A 
HETATM   13  C2  UNL     1      38.261  24.143   2.899  1.00  0.00     0.027 A 
HETATM   14  C1  UNL     1      38.257  22.841   3.388  1.00  0.00     0.047 A 
HETATM   15  N1  UNL     1      38.834  21.828   2.588  1.00  0.00    -0.102 NA
HETATM   16  C36 UNL     1      36.183  25.650   7.002  1.00  0.00     0.048 A 
HETATM   17  C40 UNL     1      36.492  27.245   5.218  1.00  0.00     0.016 A 
HETATM   18  C37 UNL     1      35.557  26.674   7.709  1.00  0.00     0.057 A 
HETATM   19  C38 UNL     1      35.388  27.942   7.228  1.00  0.00     0.048 A 
HETATM   20  N8  UNL     1      34.733  28.947   7.991  1.00  0.00    -0.102 NA
HETATM   21  C39 UNL     1      35.857  28.249   5.968  1.00  0.00     0.027 A 
BRANCH   7  22
HETATM   22  C8  UNL     1      35.208  22.557   6.548  1.00  0.00    -0.031 A 
HETATM   23  C9  UNL     1      35.030  21.239   6.993  1.00  0.00     0.009 A 
HETATM   24  C10 UNL     1      33.828  20.588   6.870  1.00  0.00     0.001 A 
HETATM   25  C11 UNL     1      32.784  21.262   6.291  1.00  0.00     0.000 A 
HETATM   26  C12 UNL     1      32.947  22.560   5.849  1.00  0.00     0.001 A 
HETATM   27  C13 UNL     1      34.149  23.219   5.969  1.00  0.00     0.009 A 
ENDBRANCH   7  22
ENDBRANCH   5   6
ENDBRANCH   4   5
ENDBRANCH   3   4
ENDBRANCH   2   3
ENDBRANCH   1   2
BRANCH   1  28
HETATM   28  C19 UNL     1      31.485  21.451  10.617  1.00  0.00     0.044 A 
HETATM   29  C20 UNL     1      31.128  21.495  11.934  1.00  0.00     0.138 A 
HETATM   30  N3  UNL     1      30.795  20.249  12.292  1.00  0.00    -0.286 N 
HETATM   31  N6  UNL     1      30.943  19.478  11.240  1.00  0.00    -0.241 N 
HETATM   32  N7  UNL     1      31.365  20.188  10.201  1.00  0.00    -0.289 N 
ATOM     33  H6  UNL     1      30.760  18.474  11.223  1.00  0.00     0.208 HD
ATOM     34  H7  UNL     1      31.559  19.837   9.264  1.00  0.00     0.188 HD
BRANCH  30  35
HETATM   35  C21 UNL     1      30.342  19.838  13.581  1.00  0.00     0.169 C 
BRANCH  35  36
HETATM   36  C22 UNL     1      28.847  20.007  13.744  1.00  0.00     0.141 C 
BRANCH  36  37
HETATM   37  N4  UNL     1      28.540  21.019  14.731  1.00  0.00    -0.387 N 
ATOM     38  H4  UNL     1      28.240  20.748  15.667  1.00  0.00     0.159 HD
BRANCH  37  39
HETATM   39  C23 UNL     1      28.656  22.372  14.393  1.00  0.00     0.053 A 
HETATM   40  C24 UNL     1      27.590  23.002  13.750  1.00  0.00     0.018 A 
HETATM   41  C25 UNL     1      26.442  22.315  13.441  1.00  0.00     0.016 A 
HETATM   42  C29 UNL     1      27.747  24.345  13.448  1.00  0.00     0.045 A 
HETATM   43  C26 UNL     1      25.396  22.949  12.811  1.00  0.00     0.001 A 
HETATM   44  C27 UNL     1      25.507  24.307  12.486  1.00  0.00     0.002 A 
HETATM   45  C28 UNL     1      26.679  24.965  12.813  1.00  0.00     0.030 A 
HETATM   46  N5  UNL     1      28.870  25.020  13.753  1.00  0.00    -0.355 N 
HETATM   47  C30 UNL     1      29.904  24.397  14.379  1.00  0.00     0.045 A 
ATOM     48  H5  UNL     1      28.946  26.008  13.513  1.00  0.00     0.166 HD
HETATM   49  C31 UNL     1      31.066  25.094  14.694  1.00  0.00     0.030 A 
HETATM   50  C35 UNL     1      29.812  23.055  14.710  1.00  0.00     0.018 A 
HETATM   51  C32 UNL     1      32.140  24.515  15.325  1.00  0.00     0.002 A 
HETATM   52  C33 UNL     1      32.035  23.170  15.652  1.00  0.00     0.001 A 
HETATM   53  C34 UNL     1      30.886  22.467  15.343  1.00  0.00     0.016 A 
ENDBRANCH  37  39
ENDBRANCH  36  37
ENDBRANCH  35  36
ENDBRANCH  30  35
ENDBRANCH   1  28
TORSDOF 11
ENDMDL
