MODEL 2
REMARK VINA RESULT: -9.167756420      1.533      2.172
REMARK  3 active torsions:
REMARK  status: ('A' for Active; 'I' for Inactive)
REMARK    1  A    between atoms: C2_2  and  N1_3 
REMARK    2  A    between atoms: N2_9  and  C5_10 
REMARK    3  A    between atoms: C7_14  and  C8_15 
ROOT
HETATM    1  C5  UNL     1      23.522  41.206   3.574  1.00  0.00     0.120 A 
HETATM    2  C6  UNL     1      22.427  42.020   3.294  1.00  0.00     0.137 A 
HETATM    3  N3  UNL     1      21.225  41.811   3.872  1.00  0.00    -0.359 N 
ATOM      4  H3  UNL     1      20.442  42.425   3.647  1.00  0.00     0.165 HD
HETATM    5  C7  UNL     1      21.052  40.800   4.743  1.00  0.00     0.086 A 
HETATM    6  C14 UNL     1      22.125  39.988   5.029  1.00  0.00     0.145 A 
HETATM    7  N4  UNL     1      21.944  38.918   5.939  1.00  0.00    -0.080 NA
HETATM    8  N5  UNL     1      23.338  40.190   4.452  1.00  0.00    -0.328 N 
ATOM      9  H5  UNL     1      24.116  39.572   4.681  1.00  0.00     0.168 HD
ENDROOT
BRANCH   1  10
HETATM   10  N2  UNL     1      24.797  41.396   2.980  1.00  0.00    -0.366 N 
HETATM   11  C4  UNL     1      25.225  42.745   2.710  1.00  0.00     0.127 C 
HETATM   12  C3  UNL     1      26.435  42.889   1.865  1.00  0.00     0.058 C 
HETATM   13  C2  UNL     1      26.913  41.655   1.176  1.00  0.00     0.123 C 
HETATM   14  C1  UNL     1      28.355  41.887   0.725  1.00  0.00     0.046 C 
HETATM   15  C16 UNL     1      26.977  40.545   2.208  1.00  0.00     0.058 C 
HETATM   16  C15 UNL     1      25.596  40.257   2.683  1.00  0.00     0.127 C 
BRANCH  13  17
HETATM   17  N1  UNL     1      26.141  41.280   0.022  1.00  0.00    -0.071 N 
ATOM     18  H13 UNL     1      25.707  42.080  -0.439  1.00  0.00     0.275 HD
ATOM     19  H12 UNL     1      26.722  40.971  -0.758  1.00  0.00     0.275 HD
ATOM     20  H11 UNL     1      25.462  40.575   0.311  1.00  0.00     0.275 HD
ENDBRANCH  13  17
ENDBRANCH   1  10
BRANCH   5  21
HETATM   21  C8  UNL     1      19.783  40.527   5.394  1.00  0.00     0.017 A 
HETATM   22  C9  UNL     1      18.731  39.992   4.672  1.00  0.00     0.015 A 
HETATM   23  C10 UNL     1      17.502  39.725   5.278  1.00  0.00     0.003 A 
HETATM   24  C11 UNL     1      17.314  39.992   6.618  1.00  0.00     0.026 A 
HETATM   25  C12 UNL     1      18.344  40.523   7.355  1.00  0.00     0.056 A 
HETATM   26 CL1  UNL     1      18.104  40.864   9.063  1.00  0.00    -0.083 Cl
HETATM   27  C13 UNL     1      19.542  40.775   6.727  1.00  0.00     0.068 A 
HETATM   28 CL2  UNL     1      20.847  41.449   7.675  1.00  0.00    -0.082 Cl
ENDBRANCH   5  21
TORSDOF 3
ENDMDL
