MODEL 5
REMARK VINA RESULT: -8.399172488      1.656      2.583
REMARK  3 active torsions:
REMARK  status: ('A' for Active; 'I' for Inactive)
REMARK    1  A    between atoms: C2_2  and  N1_3 
REMARK    2  A    between atoms: N2_9  and  C5_10 
REMARK    3  A    between atoms: C7_14  and  C8_15 
ROOT
HETATM    1  C5  UNL     1      23.570  40.917   3.504  1.00  0.00     0.120 A 
HETATM    2  C6  UNL     1      23.418  40.125   4.639  1.00  0.00     0.137 A 
HETATM    3  N3  UNL     1      22.212  39.943   5.219  1.00  0.00    -0.359 N 
ATOM      4  H3  UNL     1      22.133  39.356   6.049  1.00  0.00     0.165 HD
HETATM    5  C7  UNL     1      21.114  40.530   4.709  1.00  0.00     0.086 A 
HETATM    6  C14 UNL     1      21.248  41.315   3.587  1.00  0.00     0.145 A 
HETATM    7  N4  UNL     1      20.095  41.940   3.053  1.00  0.00    -0.080 NA
HETATM    8  N5  UNL     1      22.458  41.504   2.998  1.00  0.00    -0.328 N 
ATOM      9  H5  UNL     1      22.529  42.092   2.168  1.00  0.00     0.168 HD
ENDROOT
BRANCH   1  10
HETATM   10  N2  UNL     1      24.823  41.130   2.874  1.00  0.00    -0.366 N 
HETATM   11  C4  UNL     1      25.239  42.489   2.635  1.00  0.00     0.127 C 
HETATM   12  C3  UNL     1      26.419  42.665   1.753  1.00  0.00     0.058 C 
HETATM   13  C2  UNL     1      26.875  41.456   1.006  1.00  0.00     0.123 C 
HETATM   14  C1  UNL     1      28.300  41.707   0.514  1.00  0.00     0.046 C 
HETATM   15  C16 UNL     1      26.977  40.312   1.998  1.00  0.00     0.058 C 
HETATM   16  C15 UNL     1      25.614  40.004   2.510  1.00  0.00     0.127 C 
BRANCH  13  17
HETATM   17  N1  UNL     1      26.064  41.118  -0.132  1.00  0.00    -0.071 N 
ATOM     18  H13 UNL     1      26.515  40.446  -0.752  1.00  0.00     0.275 HD
ATOM     19  H12 UNL     1      25.252  40.552   0.116  1.00  0.00     0.275 HD
ATOM     20  H11 UNL     1      25.810  41.984  -0.608  1.00  0.00     0.275 HD
ENDBRANCH  13  17
ENDBRANCH   1  10
BRANCH   5  21
HETATM   21  C8  UNL     1      19.792  40.371   5.290  1.00  0.00     0.017 A 
HETATM   22  C9  UNL     1      18.749  39.884   4.523  1.00  0.00     0.015 A 
HETATM   23  C10 UNL     1      17.470  39.728   5.060  1.00  0.00     0.003 A 
HETATM   24  C11 UNL     1      17.223  40.057   6.376  1.00  0.00     0.026 A 
HETATM   25  C12 UNL     1      18.243  40.543   7.157  1.00  0.00     0.056 A 
HETATM   26 CL1  UNL     1      17.928  40.963   8.834  1.00  0.00    -0.083 Cl
HETATM   27  C13 UNL     1      19.492  40.686   6.596  1.00  0.00     0.068 A 
HETATM   28 CL2  UNL     1      20.784  41.302   7.599  1.00  0.00    -0.082 Cl
ENDBRANCH   5  21
TORSDOF 3
ENDMDL
