MODEL 4
REMARK VINA RESULT: -8.490229039      3.284      8.273
REMARK  3 active torsions:
REMARK  status: ('A' for Active; 'I' for Inactive)
REMARK    1  A    between atoms: C2_2  and  N1_3 
REMARK    2  A    between atoms: N2_9  and  C5_10 
REMARK    3  A    between atoms: C7_14  and  C8_15 
ROOT
HETATM    1  C5  UNL     1      23.367  40.776   3.761  1.00  0.00     0.120 A 
HETATM    2  C6  UNL     1      23.252  41.683   2.711  1.00  0.00     0.137 A 
HETATM    3  N3  UNL     1      24.289  41.947   1.887  1.00  0.00    -0.359 N 
ATOM      4  H3  UNL     1      24.173  42.616   1.126  1.00  0.00     0.165 HD
HETATM    5  C7  UNL     1      25.474  41.333   2.062  1.00  0.00     0.086 A 
HETATM    6  C14 UNL     1      25.602  40.434   3.096  1.00  0.00     0.145 A 
HETATM    7  N4  UNL     1      26.850  39.793   3.287  1.00  0.00    -0.080 NA
HETATM    8  N5  UNL     1      24.564  40.163   3.929  1.00  0.00    -0.328 N 
ATOM      9  H5  UNL     1      24.687  39.493   4.688  1.00  0.00     0.168 HD
ENDROOT
BRANCH   1  10
HETATM   10  N2  UNL     1      22.298  40.480   4.646  1.00  0.00    -0.366 N 
HETATM   11  C4  UNL     1      21.001  41.032   4.351  1.00  0.00     0.127 C 
HETATM   12  C3  UNL     1      19.983  40.916   5.424  1.00  0.00     0.058 C 
HETATM   13  C2  UNL     1      20.478  40.489   6.765  1.00  0.00     0.123 C 
HETATM   14  C1  UNL     1      19.281  40.020   7.590  1.00  0.00     0.046 C 
HETATM   15  C16 UNL     1      21.348  39.262   6.567  1.00  0.00     0.058 C 
HETATM   16  C15 UNL     1      22.548  39.652   5.777  1.00  0.00     0.127 C 
BRANCH  13  17
HETATM   17  N1  UNL     1      21.153  41.521   7.506  1.00  0.00    -0.071 N 
ATOM     18  H13 UNL     1      20.593  42.367   7.603  1.00  0.00     0.275 HD
ATOM     19  H12 UNL     1      21.241  41.300   8.498  1.00  0.00     0.275 HD
ATOM     20  H11 UNL     1      22.054  41.693   7.059  1.00  0.00     0.275 HD
ENDBRANCH  13  17
ENDBRANCH   1  10
BRANCH   5  21
HETATM   21  C8  UNL     1      26.623  41.578   1.209  1.00  0.00     0.017 A 
HETATM   22  C9  UNL     1      27.539  42.560   1.540  1.00  0.00     0.015 A 
HETATM   23  C10 UNL     1      28.649  42.814   0.733  1.00  0.00     0.003 A 
HETATM   24  C11 UNL     1      28.854  42.082  -0.418  1.00  0.00     0.026 A 
HETATM   25  C12 UNL     1      27.958  41.101  -0.768  1.00  0.00     0.056 A 
HETATM   26 CL1  UNL     1      28.219  40.169  -2.235  1.00  0.00    -0.083 Cl
HETATM   27  C13 UNL     1      26.874  40.878   0.050  1.00  0.00     0.068 A 
HETATM   28 CL2  UNL     1      25.741  39.626  -0.402  1.00  0.00    -0.082 Cl
ENDBRANCH   5  21
TORSDOF 3
ENDMDL
