MODEL 6
REMARK VINA RESULT: -8.140961840      3.515      8.414
REMARK  3 active torsions:
REMARK  status: ('A' for Active; 'I' for Inactive)
REMARK    1  A    between atoms: C2_2  and  N1_3 
REMARK    2  A    between atoms: N2_9  and  C5_10 
REMARK    3  A    between atoms: C7_14  and  C8_15 
ROOT
HETATM    1  C5  UNL     1      23.296  40.761   3.636  1.00  0.00     0.120 A 
HETATM    2  C6  UNL     1      23.249  41.843   2.760  1.00  0.00     0.137 A 
HETATM    3  N3  UNL     1      24.253  42.097   1.894  1.00  0.00    -0.359 N 
ATOM      4  H3  UNL     1      24.188  42.897   1.265  1.00  0.00     0.165 HD
HETATM    5  C7  UNL     1      25.338  41.302   1.855  1.00  0.00     0.086 A 
HETATM    6  C14 UNL     1      25.399  40.229   2.713  1.00  0.00     0.145 A 
HETATM    7  N4  UNL     1      26.543  39.395   2.679  1.00  0.00    -0.080 NA
HETATM    8  N5  UNL     1      24.393  39.966   3.588  1.00  0.00    -0.328 N 
ATOM      9  H5  UNL     1      24.464  39.165   4.214  1.00  0.00     0.168 HD
ENDROOT
BRANCH   1  10
HETATM   10  N2  UNL     1      22.259  40.469   4.559  1.00  0.00    -0.366 N 
HETATM   11  C4  UNL     1      20.950  41.012   4.303  1.00  0.00     0.127 C 
HETATM   12  C3  UNL     1      19.970  40.902   5.411  1.00  0.00     0.058 C 
HETATM   13  C2  UNL     1      20.513  40.493   6.739  1.00  0.00     0.123 C 
HETATM   14  C1  UNL     1      19.346  40.028   7.610  1.00  0.00     0.046 C 
HETATM   15  C16 UNL     1      21.382  39.268   6.525  1.00  0.00     0.058 C 
HETATM   16  C15 UNL     1      22.552  39.655   5.690  1.00  0.00     0.127 C 
BRANCH  13  17
HETATM   17  N1  UNL     1      21.207  41.536   7.446  1.00  0.00    -0.071 N 
ATOM     18  H13 UNL     1      20.928  42.469   7.144  1.00  0.00     0.275 HD
ATOM     19  H12 UNL     1      20.916  41.613   8.420  1.00  0.00     0.275 HD
ATOM     20  H11 UNL     1      22.209  41.372   7.345  1.00  0.00     0.275 HD
ENDBRANCH  13  17
ENDBRANCH   1  10
BRANCH   5  21
HETATM   21  C8  UNL     1      26.448  41.526   0.946  1.00  0.00     0.017 A 
HETATM   22  C9  UNL     1      26.408  41.018  -0.341  1.00  0.00     0.015 A 
HETATM   23  C10 UNL     1      27.466  41.218  -1.229  1.00  0.00     0.003 A 
HETATM   24  C11 UNL     1      28.578  41.934  -0.837  1.00  0.00     0.026 A 
HETATM   25  C12 UNL     1      28.641  42.448   0.436  1.00  0.00     0.056 A 
HETATM   26 CL1  UNL     1      30.058  43.359   0.936  1.00  0.00    -0.083 Cl
HETATM   27  C13 UNL     1      27.581  42.231   1.286  1.00  0.00     0.068 A 
HETATM   28 CL2  UNL     1      27.669  42.891   2.903  1.00  0.00    -0.082 Cl
ENDBRANCH   5  21
TORSDOF 3
ENDMDL
