MODEL 7
REMARK VINA RESULT: -8.112571760      3.222      8.291
REMARK  3 active torsions:
REMARK  status: ('A' for Active; 'I' for Inactive)
REMARK    1  A    between atoms: C2_2  and  N1_3 
REMARK    2  A    between atoms: N2_9  and  C5_10 
REMARK    3  A    between atoms: C7_14  and  C8_15 
ROOT
HETATM    1  C5  UNL     1      23.215  40.644   4.032  1.00  0.00     0.120 A 
HETATM    2  C6  UNL     1      24.396  39.910   4.105  1.00  0.00     0.137 A 
HETATM    3  N3  UNL     1      25.435  40.157   3.280  1.00  0.00    -0.359 N 
ATOM      4  H3  UNL     1      26.287  39.602   3.359  1.00  0.00     0.165 HD
HETATM    5  C7  UNL     1      25.355  41.129   2.353  1.00  0.00     0.086 A 
HETATM    6  C14 UNL     1      24.195  41.863   2.269  1.00  0.00     0.145 A 
HETATM    7  N4  UNL     1      24.105  42.882   1.290  1.00  0.00    -0.080 NA
HETATM    8  N5  UNL     1      23.144  41.621   3.095  1.00  0.00    -0.328 N 
ATOM      9  H5  UNL     1      22.295  42.180   3.010  1.00  0.00     0.168 HD
ENDROOT
BRANCH   1  10
HETATM   10  N2  UNL     1      22.104  40.407   4.882  1.00  0.00    -0.366 N 
HETATM   11  C4  UNL     1      20.841  41.003   4.529  1.00  0.00     0.127 C 
HETATM   12  C3  UNL     1      19.780  40.947   5.565  1.00  0.00     0.058 C 
HETATM   13  C2  UNL     1      20.210  40.529   6.931  1.00  0.00     0.123 C 
HETATM   14  C1  UNL     1      18.965  40.123   7.720  1.00  0.00     0.046 C 
HETATM   15  C16 UNL     1      21.038  39.266   6.789  1.00  0.00     0.058 C 
HETATM   16  C15 UNL     1      22.280  39.594   6.037  1.00  0.00     0.127 C 
BRANCH  13  17
HETATM   17  N1  UNL     1      20.897  41.549   7.677  1.00  0.00    -0.071 N 
ATOM     18  H13 UNL     1      21.878  41.636   7.414  1.00  0.00     0.275 HD
ATOM     19  H12 UNL     1      20.602  42.491   7.421  1.00  0.00     0.275 HD
ATOM     20  H11 UNL     1      20.771  41.353   8.671  1.00  0.00     0.275 HD
ENDBRANCH  13  17
ENDBRANCH   1  10
BRANCH   5  21
HETATM   21  C8  UNL     1      26.440  41.439   1.438  1.00  0.00     0.017 A 
HETATM   22  C9  UNL     1      27.354  42.429   1.753  1.00  0.00     0.015 A 
HETATM   23  C10 UNL     1      28.402  42.745   0.886  1.00  0.00     0.003 A 
HETATM   24  C11 UNL     1      28.545  42.070  -0.308  1.00  0.00     0.026 A 
HETATM   25  C12 UNL     1      27.649  41.083  -0.642  1.00  0.00     0.056 A 
HETATM   26 CL1  UNL     1      27.831  40.223  -2.163  1.00  0.00    -0.083 Cl
HETATM   27  C13 UNL     1      26.628  40.797   0.235  1.00  0.00     0.068 A 
HETATM   28 CL2  UNL     1      25.494  39.538  -0.198  1.00  0.00    -0.082 Cl
ENDBRANCH   5  21
TORSDOF 3
ENDMDL
