MODEL 2
REMARK VINA RESULT: -8.209657646      2.164      3.784
REMARK  7 active torsions:
REMARK  status: ('A' for Active; 'I' for Inactive)
REMARK    1  A    between atoms: C1_2  and  C2_4 
REMARK    2  A    between atoms: C3_5  and  C4_6 
REMARK    3  A    between atoms: C8_10  and  O3_11 
REMARK    4  A    between atoms: O3_11  and  C9_12 
REMARK    5  A    between atoms: C9_12  and  C10_13 
REMARK    6  A    between atoms: C14_17  and  C15_18 
REMARK    7  A    between atoms: C15_18  and  C16_19 
ROOT
HETATM    1  O3  UNL     1      16.178   3.784  11.804  1.00  0.00    -0.347 OA
ENDROOT
BRANCH   1   2
HETATM    2  C8  UNL     1      17.300   3.029  11.494  1.00  0.00     0.070 A 
HETATM    3  C7  UNL     1      17.120   1.666  11.378  1.00  0.00     0.037 A 
HETATM    4  C6  UNL     1      18.209   0.862  11.069  1.00  0.00     0.004 A 
HETATM    5  C5  UNL     1      19.435   1.459  10.892  1.00  0.00     0.011 A 
HETATM    6  C4  UNL     1      19.645   2.823  11.003  1.00  0.00    -0.033 A 
HETATM    7  C18 UNL     1      18.551   3.588  11.308  1.00  0.00     0.048 A 
BRANCH   6   8
HETATM    8  C3  UNL     1      20.985   3.357  10.795  1.00  0.00     0.018 C 
HETATM    9  C2  UNL     1      21.371   4.046   9.752  1.00  0.00     0.085 C 
BRANCH   9  10
HETATM   10  C1  UNL     1      22.747   4.557   9.609  1.00  0.00     0.198 C 
HETATM   11  O1  UNL     1      22.995   5.768   9.829  1.00  0.00    -0.645 OA
HETATM   12  O2  UNL     1      23.794   3.746   9.237  1.00  0.00    -0.645 OA
ENDBRANCH   9  10
ENDBRANCH   6   8
ENDBRANCH   1   2
BRANCH   1  13
HETATM   13  C9  UNL     1      16.246   4.988  12.545  1.00  0.00     0.214 C 
BRANCH  13  14
HETATM   14  C10 UNL     1      15.676   4.732  13.894  1.00  0.00    -0.034 A 
HETATM   15  C11 UNL     1      15.074   5.740  14.616  1.00  0.00     0.009 A 
HETATM   16  C12 UNL     1      14.544   5.506  15.868  1.00  0.00     0.001 A 
HETATM   17  C13 UNL     1      14.626   4.216  16.403  1.00  0.00     0.007 A 
HETATM   18  C14 UNL     1      15.223   3.189  15.702  1.00  0.00    -0.048 A 
HETATM   19  C17 UNL     1      15.734   3.482  14.456  1.00  0.00     0.017 A 
BRANCH  18  20
HETATM   20  C15 UNL     1      15.282   1.839  16.317  1.00  0.00     0.151 C 
BRANCH  20  21
HETATM   21  C16 UNL     1      16.528   1.125  15.950  1.00  0.00     0.176 C 
HETATM   22  O4  UNL     1      17.664   1.414  16.404  1.00  0.00    -0.648 OA
HETATM   23  O5  UNL     1      16.438   0.073  15.051  1.00  0.00    -0.648 OA
ENDBRANCH  20  21
ENDBRANCH  18  20
ENDBRANCH  13  14
ENDBRANCH   1  13
TORSDOF 7
ENDMDL
