MODEL 1
REMARK VINA RESULT: -8.471382682      0.000      0.000
REMARK  7 active torsions:
REMARK  status: ('A' for Active; 'I' for Inactive)
REMARK    1  A    between atoms: C1_2  and  C2_4 
REMARK    2  A    between atoms: C3_5  and  C4_6 
REMARK    3  A    between atoms: C8_10  and  O3_11 
REMARK    4  A    between atoms: O3_11  and  C9_12 
REMARK    5  A    between atoms: C9_12  and  C10_13 
REMARK    6  A    between atoms: C14_17  and  C15_18 
REMARK    7  A    between atoms: C15_18  and  C16_19 
ROOT
HETATM    1  O3  UNL     1      18.536   5.583  12.741  1.00  0.00    -0.347 OA
ENDROOT
BRANCH   1   2
HETATM    2  C8  UNL     1      19.076   4.667  11.850  1.00  0.00     0.070 A 
HETATM    3  C7  UNL     1      19.917   5.166  10.878  1.00  0.00     0.037 A 
HETATM    4  C6  UNL     1      20.486   4.292   9.960  1.00  0.00     0.004 A 
HETATM    5  C5  UNL     1      20.185   2.955  10.056  1.00  0.00     0.011 A 
HETATM    6  C4  UNL     1      19.344   2.426  11.020  1.00  0.00    -0.033 A 
HETATM    7  C18 UNL     1      18.800   3.313  11.911  1.00  0.00     0.048 A 
BRANCH   6   8
HETATM    8  C3  UNL     1      19.091   0.991  11.036  1.00  0.00     0.018 C 
HETATM    9  C2  UNL     1      17.999   0.420  11.477  1.00  0.00     0.085 C 
BRANCH   9  10
HETATM   10  C1  UNL     1      17.812  -1.042  11.461  1.00  0.00     0.198 C 
HETATM   11  O1  UNL     1      16.654  -1.530  11.493  1.00  0.00    -0.645 OA
HETATM   12  O2  UNL     1      18.873  -1.916  11.411  1.00  0.00    -0.645 OA
ENDBRANCH   9  10
ENDBRANCH   6   8
ENDBRANCH   1   2
BRANCH   1  13
HETATM   13  C9  UNL     1      18.641   5.441  14.145  1.00  0.00     0.214 C 
BRANCH  13  14
HETATM   14  C10 UNL     1      17.296   5.093  14.676  1.00  0.00    -0.034 A 
HETATM   15  C11 UNL     1      16.298   6.039  14.762  1.00  0.00     0.009 A 
HETATM   16  C12 UNL     1      15.050   5.719  15.254  1.00  0.00     0.001 A 
HETATM   17  C13 UNL     1      14.806   4.406  15.670  1.00  0.00     0.007 A 
HETATM   18  C14 UNL     1      15.788   3.440  15.595  1.00  0.00    -0.048 A 
HETATM   19  C17 UNL     1      17.015   3.817  15.095  1.00  0.00     0.017 A 
BRANCH  18  20
HETATM   20  C15 UNL     1      15.475   2.062  16.049  1.00  0.00     0.151 C 
BRANCH  20  21
HETATM   21  C16 UNL     1      16.560   1.113  15.706  1.00  0.00     0.176 C 
HETATM   22  O4  UNL     1      17.651   1.037  16.327  1.00  0.00    -0.648 OA
HETATM   23  O5  UNL     1      16.364   0.255  14.633  1.00  0.00    -0.648 OA
ENDBRANCH  20  21
ENDBRANCH  18  20
ENDBRANCH  13  14
ENDBRANCH   1  13
TORSDOF 7
ENDMDL
