MODEL 3
REMARK VINA RESULT: -8.170013498      1.514      5.534
REMARK  7 active torsions:
REMARK  status: ('A' for Active; 'I' for Inactive)
REMARK    1  A    between atoms: C1_2  and  C2_4 
REMARK    2  A    between atoms: C3_5  and  C4_6 
REMARK    3  A    between atoms: C8_10  and  O3_11 
REMARK    4  A    between atoms: O3_11  and  C9_12 
REMARK    5  A    between atoms: C9_12  and  C10_13 
REMARK    6  A    between atoms: C14_17  and  C15_18 
REMARK    7  A    between atoms: C15_18  and  C16_19 
ROOT
HETATM    1  O3  UNL     1      17.703   5.908  12.226  1.00  0.00    -0.347 OA
ENDROOT
BRANCH   1   2
HETATM    2  C8  UNL     1      16.725   5.529  13.134  1.00  0.00     0.070 A 
HETATM    3  C7  UNL     1      15.541   6.234  13.104  1.00  0.00     0.037 A 
HETATM    4  C6  UNL     1      14.528   5.896  13.991  1.00  0.00     0.004 A 
HETATM    5  C5  UNL     1      14.746   4.865  14.873  1.00  0.00     0.011 A 
HETATM    6  C4  UNL     1      15.925   4.140  14.927  1.00  0.00    -0.033 A 
HETATM    7  C18 UNL     1      16.904   4.497  14.038  1.00  0.00     0.048 A 
BRANCH   6   8
HETATM    8  C3  UNL     1      16.056   3.063  15.900  1.00  0.00     0.018 C 
HETATM    9  C2  UNL     1      15.062   2.385  16.416  1.00  0.00     0.085 C 
BRANCH   9  10
HETATM   10  C1  UNL     1      15.271   1.305  17.398  1.00  0.00     0.198 C 
HETATM   11  O1  UNL     1      15.204   0.104  17.037  1.00  0.00    -0.645 OA
HETATM   12  O2  UNL     1      15.543   1.561  18.721  1.00  0.00    -0.645 OA
ENDBRANCH   9  10
ENDBRANCH   6   8
ENDBRANCH   1   2
BRANCH   1  13
HETATM   13  C9  UNL     1      17.715   5.464  10.883  1.00  0.00     0.214 C 
BRANCH  13  14
HETATM   14  C10 UNL     1      18.210   4.062  10.864  1.00  0.00    -0.034 A 
HETATM   15  C11 UNL     1      19.560   3.782  10.873  1.00  0.00     0.009 A 
HETATM   16  C12 UNL     1      20.022   2.483  10.856  1.00  0.00     0.001 A 
HETATM   17  C13 UNL     1      19.092   1.438  10.828  1.00  0.00     0.007 A 
HETATM   18  C14 UNL     1      17.736   1.690  10.817  1.00  0.00    -0.048 A 
HETATM   19  C17 UNL     1      17.333   3.007  10.836  1.00  0.00     0.017 A 
BRANCH  18  20
HETATM   20  C15 UNL     1      16.793   0.543  10.788  1.00  0.00     0.151 C 
BRANCH  20  21
HETATM   21  C16 UNL     1      17.003  -0.366  11.939  1.00  0.00     0.176 C 
HETATM   22  O4  UNL     1      16.729  -0.069  13.130  1.00  0.00    -0.648 OA
HETATM   23  O5  UNL     1      17.534  -1.623  11.691  1.00  0.00    -0.648 OA
ENDBRANCH  20  21
ENDBRANCH  18  20
ENDBRANCH  13  14
ENDBRANCH   1  13
TORSDOF 7
ENDMDL
