MODEL 18
REMARK VINA RESULT: -5.360840558      2.696      3.419
REMARK  2 active torsions:
REMARK  status: ('A' for Active; 'I' for Inactive)
REMARK    1  A    between atoms: C1_2  and  C2_4 
REMARK    2  A    between atoms: C3_5  and  C4_6 
ROOT
HETATM    1  C4  UNL     1      17.409   4.304  14.302  1.00  0.00    -0.014 A 
HETATM    2  C5  UNL     1      18.696   4.736  13.891  1.00  0.00     0.015 A 
HETATM    3  C6  UNL     1      19.153   5.990  14.053  1.00  0.00     0.024 A 
HETATM    4  C7  UNL     1      18.353   6.930  14.644  1.00  0.00     0.035 A 
HETATM    5 CL1  UNL     1      18.876   8.596  14.892  1.00  0.00    -0.084 Cl
HETATM    6  C8  UNL     1      17.101   6.594  15.066  1.00  0.00     0.048 A 
HETATM    7  C9  UNL     1      16.654   5.267  14.881  1.00  0.00     0.045 A 
HETATM    8 CL2  UNL     1      15.032   4.915  15.451  1.00  0.00    -0.083 Cl
ENDROOT
BRANCH   1   9
HETATM    9  C3  UNL     1      17.057   2.940  14.067  1.00  0.00     0.020 C 
HETATM   10  C2  UNL     1      17.421   2.196  13.060  1.00  0.00     0.085 C 
BRANCH  10  11
HETATM   11  C1  UNL     1      16.955   0.784  12.976  1.00  0.00     0.198 C 
HETATM   12  O1  UNL     1      16.888   0.193  11.887  1.00  0.00    -0.645 OA
HETATM   13  O2  UNL     1      16.586   0.104  14.129  1.00  0.00    -0.645 OA
ENDBRANCH  10  11
ENDBRANCH   1   9
TORSDOF 2
ENDMDL
