MODEL 12
REMARK VINA RESULT: -5.747156227      2.141      2.915
REMARK  2 active torsions:
REMARK  status: ('A' for Active; 'I' for Inactive)
REMARK    1  A    between atoms: C1_2  and  C2_4 
REMARK    2  A    between atoms: C3_5  and  C4_6 
ROOT
HETATM    1  C4  UNL     1      16.433   3.970  14.766  1.00  0.00    -0.014 A 
HETATM    2  C5  UNL     1      17.419   3.468  13.878  1.00  0.00     0.015 A 
HETATM    3  C6  UNL     1      18.126   4.237  13.031  1.00  0.00     0.024 A 
HETATM    4  C7  UNL     1      17.906   5.587  12.999  1.00  0.00     0.035 A 
HETATM    5 CL1  UNL     1      18.790   6.663  11.918  1.00  0.00    -0.084 Cl
HETATM    6  C8  UNL     1      16.974   6.147  13.822  1.00  0.00     0.048 A 
HETATM    7  C9  UNL     1      16.249   5.309  14.699  1.00  0.00     0.045 A 
HETATM    8 CL2  UNL     1      15.069   6.107  15.724  1.00  0.00    -0.083 Cl
ENDROOT
BRANCH   1   9
HETATM    9  C3  UNL     1      15.758   3.037  15.611  1.00  0.00     0.020 C 
HETATM   10  C2  UNL     1      16.303   2.125  16.368  1.00  0.00     0.085 C 
BRANCH  10  11
HETATM   11  C1  UNL     1      15.438   1.231  17.188  1.00  0.00     0.198 C 
HETATM   12  O1  UNL     1      15.834   0.771  18.271  1.00  0.00    -0.645 OA
HETATM   13  O2  UNL     1      14.165   0.899  16.747  1.00  0.00    -0.645 OA
ENDBRANCH  10  11
ENDBRANCH   1   9
TORSDOF 2
ENDMDL
