MODEL 16
REMARK VINA RESULT: -5.438343379      3.408      4.438
REMARK  2 active torsions:
REMARK  status: ('A' for Active; 'I' for Inactive)
REMARK    1  A    between atoms: C1_2  and  C2_4 
REMARK    2  A    between atoms: C3_5  and  C4_6 
ROOT
HETATM    1  C4  UNL     1      16.692   2.157  13.875  1.00  0.00    -0.014 A 
HETATM    2  C5  UNL     1      16.438   1.450  15.079  1.00  0.00     0.015 A 
HETATM    3  C6  UNL     1      15.765   1.965  16.123  1.00  0.00     0.024 A 
HETATM    4  C7  UNL     1      15.285   3.245  16.053  1.00  0.00     0.035 A 
HETATM    5 CL1  UNL     1      14.394   3.994  17.377  1.00  0.00    -0.084 Cl
HETATM    6  C8  UNL     1      15.489   3.991  14.930  1.00  0.00     0.048 A 
HETATM    7  C9  UNL     1      16.199   3.417  13.852  1.00  0.00     0.045 A 
HETATM    8 CL2  UNL     1      16.419   4.442  12.444  1.00  0.00    -0.083 Cl
ENDROOT
BRANCH   1   9
HETATM    9  C3  UNL     1      17.421   1.484  12.848  1.00  0.00     0.020 C 
HETATM   10  C2  UNL     1      16.995   0.512  12.090  1.00  0.00     0.085 C 
BRANCH  10  11
HETATM   11  C1  UNL     1      17.900  -0.075  11.062  1.00  0.00     0.198 C 
HETATM   12  O1  UNL     1      18.195   0.551  10.033  1.00  0.00    -0.645 OA
HETATM   13  O2  UNL     1      18.430  -1.345  11.246  1.00  0.00    -0.645 OA
ENDBRANCH  10  11
ENDBRANCH   1   9
TORSDOF 2
ENDMDL
