MODEL 4
REMARK VINA RESULT: -6.022525528      2.180      3.184
REMARK  2 active torsions:
REMARK  status: ('A' for Active; 'I' for Inactive)
REMARK    1  A    between atoms: C1_2  and  C2_4 
REMARK    2  A    between atoms: C3_5  and  C4_6 
ROOT
HETATM    1  C4  UNL     1      16.508   4.291  15.047  1.00  0.00    -0.014 A 
HETATM    2  C5  UNL     1      17.911   4.116  15.177  1.00  0.00     0.015 A 
HETATM    3  C6  UNL     1      18.821   4.994  14.722  1.00  0.00     0.024 A 
HETATM    4  C7  UNL     1      18.404   6.135  14.091  1.00  0.00     0.035 A 
HETATM    5 CL1  UNL     1      19.532   7.336  13.465  1.00  0.00    -0.084 Cl
HETATM    6  C8  UNL     1      17.072   6.376  13.926  1.00  0.00     0.048 A 
HETATM    7  C9  UNL     1      16.143   5.431  14.417  1.00  0.00     0.045 A 
HETATM    8 CL2  UNL     1      14.449   5.815  14.165  1.00  0.00    -0.083 Cl
ENDROOT
BRANCH   1   9
HETATM    9  C3  UNL     1      15.657   3.274  15.578  1.00  0.00     0.020 C 
HETATM   10  C2  UNL     1      15.943   2.426  16.528  1.00  0.00     0.085 C 
BRANCH  10  11
HETATM   11  C1  UNL     1      14.925   1.427  16.958  1.00  0.00     0.198 C 
HETATM   12  O1  UNL     1      13.717   1.709  16.980  1.00  0.00    -0.645 OA
HETATM   13  O2  UNL     1      15.321   0.153  17.342  1.00  0.00    -0.645 OA
ENDBRANCH  10  11
ENDBRANCH   1   9
TORSDOF 2
ENDMDL
