MODEL 15
REMARK VINA RESULT: -5.482464609      3.666      5.176
REMARK  2 active torsions:
REMARK  status: ('A' for Active; 'I' for Inactive)
REMARK    1  A    between atoms: C1_2  and  C2_4 
REMARK    2  A    between atoms: C3_5  and  C4_6 
ROOT
HETATM    1  C4  UNL     1      17.091   3.981  15.235  1.00  0.00    -0.014 A 
HETATM    2  C5  UNL     1      17.391   2.761  15.895  1.00  0.00     0.015 A 
HETATM    3  C6  UNL     1      16.476   2.009  16.531  1.00  0.00     0.024 A 
HETATM    4  C7  UNL     1      15.170   2.416  16.564  1.00  0.00     0.035 A 
HETATM    5 CL1  UNL     1      13.910   1.488  17.376  1.00  0.00    -0.084 Cl
HETATM    6  C8  UNL     1      14.801   3.579  15.954  1.00  0.00     0.048 A 
HETATM    7  C9  UNL     1      15.789   4.344  15.294  1.00  0.00     0.045 A 
HETATM    8 CL2  UNL     1      15.234   5.826  14.535  1.00  0.00    -0.083 Cl
ENDROOT
BRANCH   1   9
HETATM    9  C3  UNL     1      18.165   4.677  14.600  1.00  0.00     0.020 C 
HETATM   10  C2  UNL     1      18.604   4.503  13.384  1.00  0.00     0.085 C 
BRANCH  10  11
HETATM   11  C1  UNL     1      19.743   5.324  12.885  1.00  0.00     0.198 C 
HETATM   12  O1  UNL     1      20.451   4.934  11.943  1.00  0.00    -0.645 OA
HETATM   13  O2  UNL     1      20.028   6.548  13.473  1.00  0.00    -0.645 OA
ENDBRANCH  10  11
ENDBRANCH   1   9
TORSDOF 2
ENDMDL
