MODEL 3
REMARK VINA RESULT: -6.213855176      3.743      5.136
REMARK  2 active torsions:
REMARK  status: ('A' for Active; 'I' for Inactive)
REMARK    1  A    between atoms: C1_2  and  C2_4 
REMARK    2  A    between atoms: C3_5  and  C4_6 
ROOT
HETATM    1  C4  UNL     1      16.246   2.598  14.417  1.00  0.00    -0.014 A 
HETATM    2  C5  UNL     1      16.667   1.517  15.235  1.00  0.00     0.015 A 
HETATM    3  C6  UNL     1      16.311   1.368  16.522  1.00  0.00     0.024 A 
HETATM    4  C7  UNL     1      15.496   2.297  17.110  1.00  0.00     0.035 A 
HETATM    5 CL1  UNL     1      14.984   2.176  18.793  1.00  0.00    -0.084 Cl
HETATM    6  C8  UNL     1      15.048   3.366  16.392  1.00  0.00     0.048 A 
HETATM    7  C9  UNL     1      15.442   3.490  15.040  1.00  0.00     0.045 A 
HETATM    8 CL2  UNL     1      14.824   4.893  14.185  1.00  0.00    -0.083 Cl
ENDROOT
BRANCH   1   9
HETATM    9  C3  UNL     1      16.702   2.628  13.064  1.00  0.00     0.020 C 
HETATM   10  C2  UNL     1      16.703   1.640  12.212  1.00  0.00     0.085 C 
BRANCH  10  11
HETATM   11  C1  UNL     1      17.221   1.855  10.832  1.00  0.00     0.198 C 
HETATM   12  O1  UNL     1      17.088   2.946  10.258  1.00  0.00    -0.645 OA
HETATM   13  O2  UNL     1      17.867   0.823  10.164  1.00  0.00    -0.645 OA
ENDBRANCH  10  11
ENDBRANCH   1   9
TORSDOF 2
ENDMDL
