MODEL 2
REMARK VINA RESULT: -6.215509613      2.479      3.119
REMARK  2 active torsions:
REMARK  status: ('A' for Active; 'I' for Inactive)
REMARK    1  A    between atoms: C1_2  and  C2_4 
REMARK    2  A    between atoms: C3_5  and  C4_6 
ROOT
HETATM    1  C4  UNL     1      17.433   4.459  14.855  1.00  0.00    -0.014 A 
HETATM    2  C5  UNL     1      18.791   4.646  14.486  1.00  0.00     0.015 A 
HETATM    3  C6  UNL     1      19.361   5.850  14.311  1.00  0.00     0.024 A 
HETATM    4  C7  UNL     1      18.616   6.984  14.490  1.00  0.00     0.035 A 
HETATM    5 CL1  UNL     1      19.287   8.600  14.280  1.00  0.00    -0.084 Cl
HETATM    6  C8  UNL     1      17.302   6.890  14.845  1.00  0.00     0.048 A 
HETATM    7  C9  UNL     1      16.736   5.607  15.021  1.00  0.00     0.045 A 
HETATM    8 CL2  UNL     1      15.042   5.571  15.477  1.00  0.00    -0.083 Cl
ENDROOT
BRANCH   1   9
HETATM    9  C3  UNL     1      16.961   3.119  15.006  1.00  0.00     0.020 C 
HETATM   10  C2  UNL     1      17.049   2.370  16.070  1.00  0.00     0.085 C 
BRANCH  10  11
HETATM   11  C1  UNL     1      16.498   0.986  16.048  1.00  0.00     0.198 C 
HETATM   12  O1  UNL     1      16.008   0.473  17.066  1.00  0.00    -0.645 OA
HETATM   13  O2  UNL     1      16.524   0.246  14.873  1.00  0.00    -0.645 OA
ENDBRANCH  10  11
ENDBRANCH   1   9
TORSDOF 2
ENDMDL
