MODEL 20
REMARK VINA RESULT: -6.662101651      3.644      5.068
REMARK  6 active torsions:
REMARK  status: ('A' for Active; 'I' for Inactive)
REMARK    1  A    between atoms: N1_1  and  S1_4 
REMARK    2  A    between atoms: S1_4  and  C1_7 
REMARK    3  A    between atoms: C4_10  and  N2_11 
REMARK    4  A    between atoms: N2_11  and  C5_13 
REMARK    5  A    between atoms: C5_13  and  N3_15 
REMARK    6  A    between atoms: N3_15  and  C6_17 
ROOT
HETATM    1  N2  UNL     1      -5.386   5.853  12.733  1.00  0.00    -0.360 N 
ATOM      2  H2  UNL     1      -6.313   6.278  12.759  1.00  0.00     0.162 HD
ENDROOT
BRANCH   1   3
HETATM    3  C4  UNL     1      -5.212   4.668  13.469  1.00  0.00     0.030 A 
HETATM    4  C3  UNL     1      -5.459   4.627  14.828  1.00  0.00     0.031 A 
HETATM    5  C2  UNL     1      -5.297   3.475  15.583  1.00  0.00     0.027 A 
HETATM    6  C1  UNL     1      -4.870   2.321  14.946  1.00  0.00     0.079 A 
HETATM    7  C13 UNL     1      -4.610   2.318  13.587  1.00  0.00     0.027 A 
HETATM    8  C12 UNL     1      -4.789   3.493  12.885  1.00  0.00     0.031 A 
BRANCH   6   9
HETATM    9  S1  UNL     1      -4.662   0.862  15.889  1.00  0.00     0.256 S 
HETATM   10  O1  UNL     1      -3.322   0.934  16.563  1.00  0.00    -0.201 OA
HETATM   11  O2  UNL     1      -4.739  -0.317  14.974  1.00  0.00    -0.201 OA
BRANCH   9  12
HETATM   12  N1  UNL     1      -5.947   0.760  17.029  1.00  0.00    -0.324 N 
ATOM     13  H12 UNL     1      -5.984   0.059  17.768  1.00  0.00     0.169 HD
ATOM     14  H11 UNL     1      -6.651   1.480  16.871  1.00  0.00     0.169 HD
ENDBRANCH   9  12
ENDBRANCH   6   9
ENDBRANCH   1   3
BRANCH   1  15
HETATM   15  C5  UNL     1      -4.395   6.521  11.952  1.00  0.00     0.258 C 
HETATM   16  S2  UNL     1      -4.297   5.933  10.244  1.00  0.00    -0.047 SA
BRANCH  15  17
HETATM   17  N3  UNL     1      -3.123   6.434  12.632  1.00  0.00    -0.360 N 
ATOM     18  H3  UNL     1      -2.566   5.588  12.517  1.00  0.00     0.162 HD
BRANCH  17  19
HETATM   19  C6  UNL     1      -2.606   7.492  13.468  1.00  0.00     0.031 A 
HETATM   20  C7  UNL     1      -2.598   7.371  14.839  1.00  0.00     0.029 A 
HETATM   21  C8  UNL     1      -2.112   8.373  15.646  1.00  0.00     0.003 A 
HETATM   22  C9  UNL     1      -1.615   9.540  15.081  1.00  0.00     0.018 A 
HETATM   23  C10 UNL     1      -1.617   9.673  13.711  1.00  0.00     0.008 A 
HETATM   24  I1  UNL     1      -0.855  11.458  12.858  1.00  0.00    -0.045 I 
HETATM   25  C11 UNL     1      -2.109   8.656  12.922  1.00  0.00     0.047 A 
ENDBRANCH  17  19
ENDBRANCH  15  17
ENDBRANCH   1  15
TORSDOF 6
ENDMDL
