MODEL 10
REMARK VINA RESULT: -6.874733512      3.681      5.165
REMARK  6 active torsions:
REMARK  status: ('A' for Active; 'I' for Inactive)
REMARK    1  A    between atoms: N1_1  and  S1_4 
REMARK    2  A    between atoms: S1_4  and  C1_7 
REMARK    3  A    between atoms: C4_10  and  N2_11 
REMARK    4  A    between atoms: N2_11  and  C5_13 
REMARK    5  A    between atoms: C5_13  and  N3_15 
REMARK    6  A    between atoms: N3_15  and  C6_17 
ROOT
HETATM    1  N2  UNL     1      -4.439   4.819  12.922  1.00  0.00    -0.360 N 
ATOM      2  H2  UNL     1      -4.131   4.379  12.055  1.00  0.00     0.162 HD
ENDROOT
BRANCH   1   3
HETATM    3  C4  UNL     1      -4.814   3.960  13.970  1.00  0.00     0.030 A 
HETATM    4  C3  UNL     1      -5.874   4.268  14.802  1.00  0.00     0.031 A 
HETATM    5  C2  UNL     1      -6.269   3.443  15.845  1.00  0.00     0.027 A 
HETATM    6  C1  UNL     1      -5.572   2.264  16.057  1.00  0.00     0.079 A 
HETATM    7  C13 UNL     1      -4.504   1.919  15.248  1.00  0.00     0.027 A 
HETATM    8  C12 UNL     1      -4.155   2.777  14.225  1.00  0.00     0.031 A 
BRANCH   6   9
HETATM    9  S1  UNL     1      -6.062   1.217  17.370  1.00  0.00     0.256 S 
HETATM   10  O1  UNL     1      -4.964   0.220  17.603  1.00  0.00    -0.201 OA
HETATM   11  O2  UNL     1      -7.335   0.534  16.989  1.00  0.00    -0.201 OA
BRANCH   9  12
HETATM   12  N1  UNL     1      -6.351   2.185  18.763  1.00  0.00    -0.324 N 
ATOM     13  H12 UNL     1      -6.518   3.190  18.720  1.00  0.00     0.169 HD
ATOM     14  H11 UNL     1      -6.335   1.632  19.619  1.00  0.00     0.169 HD
ENDBRANCH   9  12
ENDBRANCH   6   9
ENDBRANCH   1   3
BRANCH   1  15
HETATM   15  C5  UNL     1      -4.446   6.246  12.949  1.00  0.00     0.258 C 
HETATM   16  S2  UNL     1      -5.603   6.991  11.774  1.00  0.00    -0.047 SA
BRANCH  15  17
HETATM   17  N3  UNL     1      -3.095   6.726  12.763  1.00  0.00    -0.360 N 
ATOM     18  H3  UNL     1      -2.527   6.308  12.026  1.00  0.00     0.162 HD
BRANCH  17  19
HETATM   19  C6  UNL     1      -2.514   7.770  13.573  1.00  0.00     0.031 A 
HETATM   20  C7  UNL     1      -2.375   7.616  14.934  1.00  0.00     0.029 A 
HETATM   21  C8  UNL     1      -1.828   8.605  15.717  1.00  0.00     0.003 A 
HETATM   22  C9  UNL     1      -1.401   9.792  15.138  1.00  0.00     0.018 A 
HETATM   23  C10 UNL     1      -1.535   9.959  13.778  1.00  0.00     0.008 A 
HETATM   24  I1  UNL     1      -0.880  11.776  12.903  1.00  0.00    -0.045 I 
HETATM   25  C11 UNL     1      -2.086   8.955  13.013  1.00  0.00     0.047 A 
ENDBRANCH  17  19
ENDBRANCH  15  17
ENDBRANCH   1  15
TORSDOF 6
ENDMDL
