MODEL 8
REMARK VINA RESULT: -6.932702980      3.431      4.906
REMARK  6 active torsions:
REMARK  status: ('A' for Active; 'I' for Inactive)
REMARK    1  A    between atoms: N1_1  and  S1_4 
REMARK    2  A    between atoms: S1_4  and  C1_7 
REMARK    3  A    between atoms: C4_10  and  N2_11 
REMARK    4  A    between atoms: N2_11  and  C5_13 
REMARK    5  A    between atoms: C5_13  and  N3_15 
REMARK    6  A    between atoms: N3_15  and  C6_17 
ROOT
HETATM    1  N2  UNL     1      -4.870   5.126  12.951  1.00  0.00    -0.360 N 
ATOM      2  H2  UNL     1      -5.161   4.866  12.008  1.00  0.00     0.162 HD
ENDROOT
BRANCH   1   3
HETATM    3  C4  UNL     1      -5.133   4.197  13.973  1.00  0.00     0.030 A 
HETATM    4  C3  UNL     1      -6.091   4.447  14.937  1.00  0.00     0.031 A 
HETATM    5  C2  UNL     1      -6.374   3.552  15.959  1.00  0.00     0.027 A 
HETATM    6  C1  UNL     1      -5.667   2.362  16.011  1.00  0.00     0.079 A 
HETATM    7  C13 UNL     1      -4.699   2.073  15.066  1.00  0.00     0.027 A 
HETATM    8  C12 UNL     1      -4.459   2.999  14.071  1.00  0.00     0.031 A 
BRANCH   6   9
HETATM    9  S1  UNL     1      -6.016   1.227  17.295  1.00  0.00     0.256 S 
HETATM   10  O1  UNL     1      -4.873   0.257  17.380  1.00  0.00    -0.201 OA
HETATM   11  O2  UNL     1      -7.295   0.522  16.979  1.00  0.00    -0.201 OA
BRANCH   9  12
HETATM   12  N1  UNL     1      -6.219   2.105  18.761  1.00  0.00    -0.324 N 
ATOM     13  H12 UNL     1      -5.901   1.762  19.667  1.00  0.00     0.169 HD
ATOM     14  H11 UNL     1      -6.689   2.996  18.606  1.00  0.00     0.169 HD
ENDBRANCH   9  12
ENDBRANCH   6   9
ENDBRANCH   1   3
BRANCH   1  15
HETATM   15  C5  UNL     1      -4.238   6.397  13.100  1.00  0.00     0.258 C 
HETATM   16  S2  UNL     1      -4.286   7.414  11.604  1.00  0.00    -0.047 SA
BRANCH  15  17
HETATM   17  N3  UNL     1      -2.889   6.197  13.579  1.00  0.00    -0.360 N 
ATOM     18  H3  UNL     1      -2.473   5.269  13.492  1.00  0.00     0.162 HD
BRANCH  17  19
HETATM   19  C6  UNL     1      -2.103   7.250  14.176  1.00  0.00     0.031 A 
HETATM   20  C7  UNL     1      -2.481   7.827  15.367  1.00  0.00     0.029 A 
HETATM   21  C8  UNL     1      -1.744   8.835  15.944  1.00  0.00     0.003 A 
HETATM   22  C9  UNL     1      -0.589   9.293  15.323  1.00  0.00     0.018 A 
HETATM   23  C10 UNL     1      -0.201   8.724  14.130  1.00  0.00     0.008 A 
HETATM   24  I1  UNL     1       1.564   9.431  13.190  1.00  0.00    -0.045 I 
HETATM   25  C11 UNL     1      -0.955   7.716  13.571  1.00  0.00     0.047 A 
ENDBRANCH  17  19
ENDBRANCH  15  17
ENDBRANCH   1  15
TORSDOF 6
ENDMDL
