MODEL 2
REMARK VINA RESULT: -7.498360246      0.112      1.044
REMARK  6 active torsions:
REMARK  status: ('A' for Active; 'I' for Inactive)
REMARK    1  A    between atoms: N1_1  and  S1_4 
REMARK    2  A    between atoms: S1_4  and  C1_7 
REMARK    3  A    between atoms: C4_10  and  N2_11 
REMARK    4  A    between atoms: N2_11  and  C5_13 
REMARK    5  A    between atoms: C5_13  and  N3_15 
REMARK    6  A    between atoms: N3_15  and  C6_17 
ROOT
HETATM    1  N2  UNL     1      -3.925   5.758  14.132  1.00  0.00    -0.360 N 
ATOM      2  H2  UNL     1      -4.188   6.674  14.496  1.00  0.00     0.162 HD
ENDROOT
BRANCH   1   3
HETATM    3  C4  UNL     1      -4.381   4.638  14.848  1.00  0.00     0.030 A 
HETATM    4  C3  UNL     1      -5.720   4.483  15.158  1.00  0.00     0.031 A 
HETATM    5  C2  UNL     1      -6.202   3.390  15.863  1.00  0.00     0.027 A 
HETATM    6  C1  UNL     1      -5.304   2.417  16.272  1.00  0.00     0.079 A 
HETATM    7  C13 UNL     1      -3.956   2.533  15.983  1.00  0.00     0.027 A 
HETATM    8  C12 UNL     1      -3.531   3.641  15.278  1.00  0.00     0.031 A 
BRANCH   6   9
HETATM    9  S1  UNL     1      -5.902   1.036  17.162  1.00  0.00     0.256 S 
HETATM   10  O1  UNL     1      -5.403   1.143  18.574  1.00  0.00    -0.201 OA
HETATM   11  O2  UNL     1      -5.400  -0.211  16.509  1.00  0.00    -0.201 OA
BRANCH   9  12
HETATM   12  N1  UNL     1      -7.621   1.041  17.090  1.00  0.00    -0.324 N 
ATOM     13  H12 UNL     1      -8.183   1.887  17.193  1.00  0.00     0.169 HD
ATOM     14  H11 UNL     1      -7.997   0.106  16.934  1.00  0.00     0.169 HD
ENDBRANCH   9  12
ENDBRANCH   6   9
ENDBRANCH   1   3
BRANCH   1  15
HETATM   15  C5  UNL     1      -3.132   5.743  12.946  1.00  0.00     0.258 C 
HETATM   16  S2  UNL     1      -2.974   7.362  12.155  1.00  0.00    -0.047 SA
BRANCH  15  17
HETATM   17  N3  UNL     1      -3.656   4.743  12.043  1.00  0.00    -0.360 N 
ATOM     18  H3  UNL     1      -4.550   4.922  11.585  1.00  0.00     0.162 HD
BRANCH  17  19
HETATM   19  C6  UNL     1      -2.972   3.504  11.759  1.00  0.00     0.031 A 
HETATM   20  C7  UNL     1      -1.650   3.498  11.377  1.00  0.00     0.029 A 
HETATM   21  C8  UNL     1      -0.987   2.325  11.099  1.00  0.00     0.003 A 
HETATM   22  C9  UNL     1      -1.653   1.111  11.201  1.00  0.00     0.018 A 
HETATM   23  C10 UNL     1      -2.977   1.104  11.583  1.00  0.00     0.008 A 
HETATM   24  I1  UNL     1      -3.985  -0.755  11.736  1.00  0.00    -0.045 I 
HETATM   25  C11 UNL     1      -3.619   2.291  11.856  1.00  0.00     0.047 A 
ENDBRANCH  17  19
ENDBRANCH  15  17
ENDBRANCH   1  15
TORSDOF 6
ENDMDL
