MODEL 19
REMARK VINA RESULT: -6.707124307      3.670      5.066
REMARK  6 active torsions:
REMARK  status: ('A' for Active; 'I' for Inactive)
REMARK    1  A    between atoms: N1_1  and  S1_4 
REMARK    2  A    between atoms: S1_4  and  C1_7 
REMARK    3  A    between atoms: C4_10  and  N2_11 
REMARK    4  A    between atoms: N2_11  and  C5_13 
REMARK    5  A    between atoms: C5_13  and  N3_15 
REMARK    6  A    between atoms: N3_15  and  C6_17 
ROOT
HETATM    1  N2  UNL     1      -5.532   5.909  12.976  1.00  0.00    -0.360 N 
ATOM      2  H2  UNL     1      -6.486   6.270  12.937  1.00  0.00     0.162 HD
ENDROOT
BRANCH   1   3
HETATM    3  C4  UNL     1      -5.337   4.713  13.690  1.00  0.00     0.030 A 
HETATM    4  C3  UNL     1      -4.819   3.589  13.074  1.00  0.00     0.031 A 
HETATM    5  C2  UNL     1      -4.615   2.395  13.750  1.00  0.00     0.027 A 
HETATM    6  C1  UNL     1      -4.943   2.330  15.095  1.00  0.00     0.079 A 
HETATM    7  C13 UNL     1      -5.464   3.432  15.749  1.00  0.00     0.027 A 
HETATM    8  C12 UNL     1      -5.646   4.595  15.028  1.00  0.00     0.031 A 
BRANCH   6   9
HETATM    9  S1  UNL     1      -4.689   0.829  15.955  1.00  0.00     0.256 S 
HETATM   10  O1  UNL     1      -3.317   0.868  16.562  1.00  0.00    -0.201 OA
HETATM   11  O2  UNL     1      -4.817  -0.305  14.990  1.00  0.00    -0.201 OA
BRANCH   9  12
HETATM   12  N1  UNL     1      -5.913   0.672  17.154  1.00  0.00    -0.324 N 
ATOM     13  H12 UNL     1      -6.206   1.439  17.758  1.00  0.00     0.169 HD
ATOM     14  H11 UNL     1      -6.300  -0.272  17.179  1.00  0.00     0.169 HD
ENDBRANCH   9  12
ENDBRANCH   6   9
ENDBRANCH   1   3
BRANCH   1  15
HETATM   15  C5  UNL     1      -4.530   6.668  12.300  1.00  0.00     0.258 C 
HETATM   16  S2  UNL     1      -4.380   6.273  10.541  1.00  0.00    -0.047 SA
BRANCH  15  17
HETATM   17  N3  UNL     1      -3.275   6.518  13.001  1.00  0.00    -0.360 N 
ATOM     18  H3  UNL     1      -2.819   5.606  12.996  1.00  0.00     0.162 HD
BRANCH  17  19
HETATM   19  C6  UNL     1      -2.637   7.603  13.709  1.00  0.00     0.031 A 
HETATM   20  C7  UNL     1      -2.491   7.567  15.077  1.00  0.00     0.029 A 
HETATM   21  C8  UNL     1      -1.889   8.595  15.764  1.00  0.00     0.003 A 
HETATM   22  C9  UNL     1      -1.412   9.703  15.076  1.00  0.00     0.018 A 
HETATM   23  C10 UNL     1      -1.552   9.752  13.707  1.00  0.00     0.008 A 
HETATM   24  I1  UNL     1      -0.820  11.448  12.665  1.00  0.00    -0.045 I 
HETATM   25  C11 UNL     1      -2.159   8.710  13.040  1.00  0.00     0.047 A 
ENDBRANCH  17  19
ENDBRANCH  15  17
ENDBRANCH   1  15
TORSDOF 6
ENDMDL
