MODEL 1
REMARK VINA RESULT: -7.507308544      0.000      0.000
REMARK  6 active torsions:
REMARK  status: ('A' for Active; 'I' for Inactive)
REMARK    1  A    between atoms: N1_1  and  S1_4 
REMARK    2  A    between atoms: S1_4  and  C1_7 
REMARK    3  A    between atoms: C4_10  and  N2_11 
REMARK    4  A    between atoms: N2_11  and  C5_13 
REMARK    5  A    between atoms: C5_13  and  N3_15 
REMARK    6  A    between atoms: N3_15  and  C6_17 
ROOT
HETATM    1  N2  UNL     1      -3.882   5.755  14.148  1.00  0.00    -0.360 N 
ATOM      2  H2  UNL     1      -4.203   6.674  14.455  1.00  0.00     0.162 HD
ENDROOT
BRANCH   1   3
HETATM    3  C4  UNL     1      -4.370   4.644  14.858  1.00  0.00     0.030 A 
HETATM    4  C3  UNL     1      -3.522   3.634  15.274  1.00  0.00     0.031 A 
HETATM    5  C2  UNL     1      -3.972   2.525  15.976  1.00  0.00     0.027 A 
HETATM    6  C1  UNL     1      -5.323   2.430  16.270  1.00  0.00     0.079 A 
HETATM    7  C13 UNL     1      -6.204   3.418  15.872  1.00  0.00     0.027 A 
HETATM    8  C12 UNL     1      -5.703   4.500  15.176  1.00  0.00     0.031 A 
BRANCH   6   9
HETATM    9  S1  UNL     1      -5.898   1.034  17.155  1.00  0.00     0.256 S 
HETATM   10  O1  UNL     1      -5.386   1.134  18.562  1.00  0.00    -0.201 OA
HETATM   11  O2  UNL     1      -5.390  -0.201  16.486  1.00  0.00    -0.201 OA
BRANCH   9  12
HETATM   12  N1  UNL     1      -7.618   1.023  17.100  1.00  0.00    -0.324 N 
ATOM     13  H12 UNL     1      -8.199   0.647  17.848  1.00  0.00     0.169 HD
ATOM     14  H11 UNL     1      -7.972   1.435  16.236  1.00  0.00     0.169 HD
ENDBRANCH   9  12
ENDBRANCH   6   9
ENDBRANCH   1   3
BRANCH   1  15
HETATM   15  C5  UNL     1      -2.984   5.727  13.039  1.00  0.00     0.258 C 
HETATM   16  S2  UNL     1      -2.642   7.360  12.338  1.00  0.00    -0.047 SA
BRANCH  15  17
HETATM   17  N3  UNL     1      -3.490   4.804  12.048  1.00  0.00    -0.360 N 
ATOM     18  H3  UNL     1      -4.331   5.058  11.529  1.00  0.00     0.162 HD
BRANCH  17  19
HETATM   19  C6  UNL     1      -2.858   3.538  11.759  1.00  0.00     0.031 A 
HETATM   20  C7  UNL     1      -1.544   3.479  11.356  1.00  0.00     0.029 A 
HETATM   21  C8  UNL     1      -0.931   2.281  11.073  1.00  0.00     0.003 A 
HETATM   22  C9  UNL     1      -1.642   1.094  11.191  1.00  0.00     0.018 A 
HETATM   23  C10 UNL     1      -2.958   1.139  11.593  1.00  0.00     0.008 A 
HETATM   24  I1  UNL     1      -4.035  -0.679  11.770  1.00  0.00    -0.045 I 
HETATM   25  C11 UNL     1      -3.551   2.351  11.871  1.00  0.00     0.047 A 
ENDBRANCH  17  19
ENDBRANCH  15  17
ENDBRANCH   1  15
TORSDOF 6
ENDMDL
