MODEL 9
REMARK VINA RESULT: -6.931808256      1.518      1.973
REMARK  6 active torsions:
REMARK  status: ('A' for Active; 'I' for Inactive)
REMARK    1  A    between atoms: N1_1  and  S1_4 
REMARK    2  A    between atoms: S1_4  and  C1_7 
REMARK    3  A    between atoms: C4_10  and  N2_11 
REMARK    4  A    between atoms: N2_11  and  C5_13 
REMARK    5  A    between atoms: C5_13  and  N3_15 
REMARK    6  A    between atoms: N3_15  and  C6_17 
ROOT
HETATM    1  N2  UNL     1      -3.255   4.537  13.626  1.00  0.00    -0.360 N 
ATOM      2  H2  UNL     1      -3.677   5.413  13.317  1.00  0.00     0.162 HD
ENDROOT
BRANCH   1   3
HETATM    3  C4  UNL     1      -3.969   3.794  14.583  1.00  0.00     0.030 A 
HETATM    4  C3  UNL     1      -3.328   2.887  15.407  1.00  0.00     0.031 A 
HETATM    5  C2  UNL     1      -4.003   2.139  16.361  1.00  0.00     0.027 A 
HETATM    6  C1  UNL     1      -5.372   2.311  16.491  1.00  0.00     0.079 A 
HETATM    7  C13 UNL     1      -6.051   3.207  15.686  1.00  0.00     0.027 A 
HETATM    8  C12 UNL     1      -5.330   3.926  14.754  1.00  0.00     0.031 A 
BRANCH   6   9
HETATM    9  S1  UNL     1      -6.231   1.372  17.690  1.00  0.00     0.256 S 
HETATM   10  O1  UNL     1      -5.455   0.110  17.935  1.00  0.00    -0.201 OA
HETATM   11  O2  UNL     1      -7.599   1.067  17.172  1.00  0.00    -0.201 OA
BRANCH   9  12
HETATM   12  N1  UNL     1      -6.381   2.317  19.120  1.00  0.00    -0.324 N 
ATOM     13  H12 UNL     1      -6.510   1.912  20.047  1.00  0.00     0.169 HD
ATOM     14  H11 UNL     1      -6.326   3.315  18.922  1.00  0.00     0.169 HD
ENDBRANCH   9  12
ENDBRANCH   6   9
ENDBRANCH   1   3
BRANCH   1  15
HETATM   15  C5  UNL     1      -2.001   4.188  13.042  1.00  0.00     0.258 C 
HETATM   16  S2  UNL     1      -0.824   5.561  12.971  1.00  0.00    -0.047 SA
BRANCH  15  17
HETATM   17  N3  UNL     1      -2.234   3.602  11.742  1.00  0.00    -0.360 N 
ATOM     18  H3  UNL     1      -1.759   4.004  10.934  1.00  0.00     0.162 HD
BRANCH  17  19
HETATM   19  C6  UNL     1      -3.110   2.473  11.535  1.00  0.00     0.031 A 
HETATM   20  C7  UNL     1      -4.446   2.655  11.257  1.00  0.00     0.029 A 
HETATM   21  C8  UNL     1      -5.292   1.588  11.063  1.00  0.00     0.003 A 
HETATM   22  C9  UNL     1      -4.803   0.291  11.146  1.00  0.00     0.018 A 
HETATM   23  C10 UNL     1      -3.469   0.095  11.424  1.00  0.00     0.008 A 
HETATM   24  I1  UNL     1      -2.732  -1.889  11.549  1.00  0.00    -0.045 I 
HETATM   25  C11 UNL     1      -2.640   1.179  11.615  1.00  0.00     0.047 A 
ENDBRANCH  17  19
ENDBRANCH  15  17
ENDBRANCH   1  15
TORSDOF 6
ENDMDL
