MODEL 4
REMARK VINA RESULT: -7.347458415      2.910      5.978
REMARK  3 active torsions:
REMARK  status: ('A' for Active; 'I' for Inactive)
REMARK    1  A    between atoms: C2_2  and  N1_3 
REMARK    2  A    between atoms: N4_15  and  C8_16 
REMARK    3  A    between atoms: C8_16  and  C9_17 
ROOT
HETATM    1  N1  UNL     1     -26.756  -6.923  74.629  1.00  0.00    -0.336 N 
HETATM    2  C3  UNL     1     -27.341  -6.835  75.826  1.00  0.00     0.185 A 
HETATM    3  N2  UNL     1     -26.440  -6.848  76.825  1.00  0.00    -0.336 N 
ATOM      4  H2  UNL     1     -26.625  -6.794  77.826  1.00  0.00     0.168 HD
HETATM    5  C4  UNL     1     -25.245  -6.949  76.219  1.00  0.00     0.145 A 
HETATM    6  C5  UNL     1     -25.438  -6.996  74.860  1.00  0.00     0.149 A 
HETATM    7  C6  UNL     1     -24.329  -7.100  74.056  1.00  0.00     0.280 A 
HETATM    8  O1  UNL     1     -24.505  -7.143  72.823  1.00  0.00    -0.265 OA
HETATM    9  N3  UNL     1     -23.111  -7.152  74.601  1.00  0.00    -0.273 N 
ATOM     10  H3  UNL     1     -22.299  -7.230  73.989  1.00  0.00     0.173 HD
HETATM   11  C7  UNL     1     -22.921  -7.106  75.943  1.00  0.00     0.331 A 
HETATM   12  O2  UNL     1     -21.760  -7.157  76.424  1.00  0.00    -0.246 OA
HETATM   13  N4  UNL     1     -23.988  -7.005  76.754  1.00  0.00    -0.279 N 
ENDROOT
BRANCH  13  14
HETATM   14  C8  UNL     1     -23.799  -6.956  78.175  1.00  0.00     0.174 C 
BRANCH  14  15
HETATM   15  C9  UNL     1     -23.449  -5.608  78.691  1.00  0.00    -0.040 A 
HETATM   16  C10 UNL     1     -24.420  -4.631  78.918  1.00  0.00     0.010 A 
HETATM   17  C11 UNL     1     -24.116  -3.377  79.394  1.00  0.00     0.024 A 
HETATM   18  C12 UNL     1     -22.808  -3.039  79.666  1.00  0.00     0.034 A 
HETATM   19 CL1  UNL     1     -22.339  -1.464  80.272  1.00  0.00    -0.084 Cl
HETATM   20  C13 UNL     1     -21.831  -3.989  79.448  1.00  0.00     0.024 A 
HETATM   21  C14 UNL     1     -22.147  -5.246  78.970  1.00  0.00     0.010 A 
ENDBRANCH  14  15
ENDBRANCH  13  14
BRANCH   1  22
HETATM   22  C2  UNL     1     -27.424  -6.938  73.340  1.00  0.00     0.126 C 
HETATM   23  C1  UNL     1     -27.711  -5.527  72.898  1.00  0.00     0.027 C 
ENDBRANCH   1  22
TORSDOF 3
ENDMDL
