MODEL 6
REMARK VINA RESULT: -7.206231672      3.446      6.408
REMARK  3 active torsions:
REMARK  status: ('A' for Active; 'I' for Inactive)
REMARK    1  A    between atoms: C2_2  and  N1_3 
REMARK    2  A    between atoms: N4_15  and  C8_16 
REMARK    3  A    between atoms: C8_16  and  C9_17 
ROOT
HETATM    1  N1  UNL     1     -24.443  -7.039  73.386  1.00  0.00    -0.336 N 
HETATM    2  C3  UNL     1     -23.239  -7.169  73.951  1.00  0.00     0.185 A 
HETATM    3  N2  UNL     1     -23.321  -7.228  75.292  1.00  0.00    -0.336 N 
ATOM      4  H2  UNL     1     -22.553  -7.326  75.955  1.00  0.00     0.168 HD
HETATM    5  C4  UNL     1     -24.632  -7.129  75.569  1.00  0.00     0.145 A 
HETATM    6  C5  UNL     1     -25.328  -7.012  74.391  1.00  0.00     0.149 A 
HETATM    7  C6  UNL     1     -26.696  -6.897  74.460  1.00  0.00     0.280 A 
HETATM    8  O1  UNL     1     -27.326  -6.790  73.390  1.00  0.00    -0.265 OA
HETATM    9  N3  UNL     1     -27.308  -6.903  75.647  1.00  0.00    -0.273 N 
ATOM     10  H3  UNL     1     -28.323  -6.816  75.680  1.00  0.00     0.173 HD
HETATM   11  C7  UNL     1     -26.619  -7.019  76.810  1.00  0.00     0.331 A 
HETATM   12  O2  UNL     1     -27.227  -7.021  77.911  1.00  0.00    -0.246 OA
HETATM   13  N4  UNL     1     -25.281  -7.132  76.773  1.00  0.00    -0.279 N 
ENDROOT
BRANCH  13  14
HETATM   14  C8  UNL     1     -24.543  -7.254  77.997  1.00  0.00     0.174 C 
BRANCH  14  15
HETATM   15  C9  UNL     1     -23.943  -5.978  78.467  1.00  0.00    -0.040 A 
HETATM   16  C10 UNL     1     -22.563  -5.821  78.608  1.00  0.00     0.010 A 
HETATM   17  C11 UNL     1     -21.989  -4.650  79.043  1.00  0.00     0.024 A 
HETATM   18  C12 UNL     1     -22.781  -3.569  79.363  1.00  0.00     0.034 A 
HETATM   19 CL1  UNL     1     -22.127  -2.044  79.925  1.00  0.00    -0.084 Cl
HETATM   20  C13 UNL     1     -24.148  -3.702  79.232  1.00  0.00     0.024 A 
HETATM   21  C14 UNL     1     -24.715  -4.882  78.793  1.00  0.00     0.010 A 
ENDBRANCH  14  15
ENDBRANCH  13  14
BRANCH   1  22
HETATM   22  C2  UNL     1     -24.724  -6.944  71.964  1.00  0.00     0.126 C 
HETATM   23  C1  UNL     1     -23.459  -6.620  71.215  1.00  0.00     0.027 C 
ENDBRANCH   1  22
TORSDOF 3
ENDMDL
