MODEL 2
REMARK VINA RESULT: -7.550943545      0.028      1.031
REMARK  3 active torsions:
REMARK  status: ('A' for Active; 'I' for Inactive)
REMARK    1  A    between atoms: C2_2  and  N1_3 
REMARK    2  A    between atoms: N4_15  and  C8_16 
REMARK    3  A    between atoms: C8_16  and  C9_17 
ROOT
HETATM    1  N1  UNL     1     -23.468  -3.756  79.332  1.00  0.00    -0.336 N 
HETATM    2  C3  UNL     1     -24.754  -4.096  79.443  1.00  0.00     0.185 A 
HETATM    3  N2  UNL     1     -25.043  -5.200  78.732  1.00  0.00    -0.336 N 
ATOM      4  H2  UNL     1     -25.946  -5.665  78.648  1.00  0.00     0.168 HD
HETATM    5  C4  UNL     1     -23.883  -5.559  78.155  1.00  0.00     0.145 A 
HETATM    6  C5  UNL     1     -22.908  -4.666  78.525  1.00  0.00     0.149 A 
HETATM    7  C6  UNL     1     -21.638  -4.860  78.035  1.00  0.00     0.280 A 
HETATM    8  O1  UNL     1     -20.754  -4.049  78.371  1.00  0.00    -0.265 OA
HETATM    9  N3  UNL     1     -21.385  -5.892  77.226  1.00  0.00    -0.273 N 
ATOM     10  H3  UNL     1     -20.438  -6.021  76.871  1.00  0.00     0.173 HD
HETATM   11  C7  UNL     1     -22.349  -6.773  76.861  1.00  0.00     0.331 A 
HETATM   12  O2  UNL     1     -22.077  -7.735  76.098  1.00  0.00    -0.246 OA
HETATM   13  N4  UNL     1     -23.600  -6.608  77.325  1.00  0.00    -0.279 N 
ENDROOT
BRANCH  13  14
HETATM   14  C8  UNL     1     -24.627  -7.533  76.944  1.00  0.00     0.174 C 
BRANCH  14  15
HETATM   15  C9  UNL     1     -25.462  -7.071  75.805  1.00  0.00    -0.040 A 
HETATM   16  C10 UNL     1     -26.810  -6.747  75.962  1.00  0.00     0.010 A 
HETATM   17  C11 UNL     1     -27.599  -6.319  74.920  1.00  0.00     0.024 A 
HETATM   18  C12 UNL     1     -27.065  -6.196  73.655  1.00  0.00     0.034 A 
HETATM   19 CL1  UNL     1     -28.003  -5.659  72.277  1.00  0.00    -0.084 Cl
HETATM   20  C13 UNL     1     -25.734  -6.512  73.476  1.00  0.00     0.024 A 
HETATM   21  C14 UNL     1     -24.951  -6.940  74.530  1.00  0.00     0.010 A 
ENDBRANCH  14  15
ENDBRANCH  13  14
BRANCH   1  22
HETATM   22  C2  UNL     1     -22.816  -2.622  79.963  1.00  0.00     0.126 C 
HETATM   23  C1  UNL     1     -23.339  -2.449  81.365  1.00  0.00     0.027 C 
ENDBRANCH   1  22
TORSDOF 3
ENDMDL
