MODEL 1
REMARK VINA RESULT: -7.569361329      0.000      0.000
REMARK  3 active torsions:
REMARK  status: ('A' for Active; 'I' for Inactive)
REMARK    1  A    between atoms: C2_2  and  N1_3 
REMARK    2  A    between atoms: N4_15  and  C8_16 
REMARK    3  A    between atoms: C8_16  and  C9_17 
ROOT
HETATM    1  N1  UNL     1     -23.471  -3.760  79.342  1.00  0.00    -0.336 N 
HETATM    2  C3  UNL     1     -24.756  -4.105  79.456  1.00  0.00     0.185 A 
HETATM    3  N2  UNL     1     -25.043  -5.208  78.741  1.00  0.00    -0.336 N 
ATOM      4  H2  UNL     1     -25.946  -5.675  78.658  1.00  0.00     0.168 HD
HETATM    5  C4  UNL     1     -23.884  -5.560  78.158  1.00  0.00     0.145 A 
HETATM    6  C5  UNL     1     -22.911  -4.665  78.529  1.00  0.00     0.149 A 
HETATM    7  C6  UNL     1     -21.642  -4.853  78.034  1.00  0.00     0.280 A 
HETATM    8  O1  UNL     1     -20.759  -4.041  78.370  1.00  0.00    -0.265 OA
HETATM    9  N3  UNL     1     -21.388  -5.881  77.219  1.00  0.00    -0.273 N 
ATOM     10  H3  UNL     1     -20.442  -6.005  76.861  1.00  0.00     0.173 HD
HETATM   11  C7  UNL     1     -22.351  -6.764  76.854  1.00  0.00     0.331 A 
HETATM   12  O2  UNL     1     -22.078  -7.721  76.086  1.00  0.00    -0.246 OA
HETATM   13  N4  UNL     1     -23.600  -6.605  77.322  1.00  0.00    -0.279 N 
ENDROOT
BRANCH  13  14
HETATM   14  C8  UNL     1     -24.627  -7.531  76.941  1.00  0.00     0.174 C 
BRANCH  14  15
HETATM   15  C9  UNL     1     -25.468  -7.066  75.809  1.00  0.00    -0.040 A 
HETATM   16  C10 UNL     1     -24.956  -6.928  74.518  1.00  0.00     0.010 A 
HETATM   17  C11 UNL     1     -25.718  -6.498  73.457  1.00  0.00     0.024 A 
HETATM   18  C12 UNL     1     -27.046  -6.181  73.644  1.00  0.00     0.034 A 
HETATM   19 CL1  UNL     1     -28.083  -5.625  72.346  1.00  0.00    -0.084 Cl
HETATM   20  C13 UNL     1     -27.574  -6.308  74.913  1.00  0.00     0.024 A 
HETATM   21  C14 UNL     1     -26.800  -6.742  75.971  1.00  0.00     0.010 A 
ENDBRANCH  14  15
ENDBRANCH  13  14
BRANCH   1  22
HETATM   22  C2  UNL     1     -22.821  -2.627  79.976  1.00  0.00     0.126 C 
HETATM   23  C1  UNL     1     -23.345  -2.458  81.377  1.00  0.00     0.027 C 
ENDBRANCH   1  22
TORSDOF 3
ENDMDL
