MODEL 5
REMARK VINA RESULT: -7.308895957      2.906      5.915
REMARK  3 active torsions:
REMARK  status: ('A' for Active; 'I' for Inactive)
REMARK    1  A    between atoms: C2_2  and  N1_3 
REMARK    2  A    between atoms: N4_15  and  C8_16 
REMARK    3  A    between atoms: C8_16  and  C9_17 
ROOT
HETATM    1  N1  UNL     1     -26.747  -6.918  74.648  1.00  0.00    -0.336 N 
HETATM    2  C3  UNL     1     -27.336  -6.826  75.844  1.00  0.00     0.185 A 
HETATM    3  N2  UNL     1     -26.438  -6.832  76.845  1.00  0.00    -0.336 N 
ATOM      4  H2  UNL     1     -26.626  -6.773  77.846  1.00  0.00     0.168 HD
HETATM    5  C4  UNL     1     -25.241  -6.933  76.243  1.00  0.00     0.145 A 
HETATM    6  C5  UNL     1     -25.430  -6.987  74.884  1.00  0.00     0.149 A 
HETATM    7  C6  UNL     1     -24.318  -7.092  74.083  1.00  0.00     0.280 A 
HETATM    8  O1  UNL     1     -24.490  -7.141  72.850  1.00  0.00    -0.265 OA
HETATM    9  N3  UNL     1     -23.102  -7.139  74.632  1.00  0.00    -0.273 N 
ATOM     10  H3  UNL     1     -22.287  -7.218  74.023  1.00  0.00     0.173 HD
HETATM   11  C7  UNL     1     -22.916  -7.086  75.975  1.00  0.00     0.331 A 
HETATM   12  O2  UNL     1     -21.756  -7.132  76.459  1.00  0.00    -0.246 OA
HETATM   13  N4  UNL     1     -23.985  -6.983  76.782  1.00  0.00    -0.279 N 
ENDROOT
BRANCH  13  14
HETATM   14  C8  UNL     1     -23.801  -6.928  78.203  1.00  0.00     0.174 C 
BRANCH  14  15
HETATM   15  C9  UNL     1     -23.440  -5.579  78.712  1.00  0.00    -0.040 A 
HETATM   16  C10 UNL     1     -22.121  -5.229  79.001  1.00  0.00     0.010 A 
HETATM   17  C11 UNL     1     -21.767  -3.987  79.474  1.00  0.00     0.024 A 
HETATM   18  C12 UNL     1     -22.732  -3.026  79.681  1.00  0.00     0.034 A 
HETATM   19 CL1  UNL     1     -22.363  -1.422  80.281  1.00  0.00    -0.084 Cl
HETATM   20  C13 UNL     1     -24.044  -3.350  79.402  1.00  0.00     0.024 A 
HETATM   21  C14 UNL     1     -24.389  -4.600  78.927  1.00  0.00     0.010 A 
ENDBRANCH  14  15
ENDBRANCH  13  14
BRANCH   1  22
HETATM   22  C2  UNL     1     -27.411  -6.941  73.357  1.00  0.00     0.126 C 
HETATM   23  C1  UNL     1     -27.715  -5.534  72.916  1.00  0.00     0.027 C 
ENDBRANCH   1  22
TORSDOF 3
ENDMDL
