MODEL 3
REMARK VINA RESULT: -7.394936406      0.995      1.041
REMARK  3 active torsions:
REMARK  status: ('A' for Active; 'I' for Inactive)
REMARK    1  A    between atoms: C2_2  and  N1_3 
REMARK    2  A    between atoms: N4_15  and  C8_16 
REMARK    3  A    between atoms: C8_16  and  C9_17 
ROOT
HETATM    1  N1  UNL     1     -23.663  -4.713  78.944  1.00  0.00    -0.336 N 
HETATM    2  C3  UNL     1     -24.972  -4.976  78.956  1.00  0.00     0.185 A 
HETATM    3  N2  UNL     1     -25.302  -5.914  78.050  1.00  0.00    -0.336 N 
ATOM      4  H2  UNL     1     -26.229  -6.291  77.858  1.00  0.00     0.168 HD
HETATM    5  C4  UNL     1     -24.145  -6.245  77.451  1.00  0.00     0.145 A 
HETATM    6  C5  UNL     1     -23.130  -5.504  78.003  1.00  0.00     0.149 A 
HETATM    7  C6  UNL     1     -21.857  -5.697  77.522  1.00  0.00     0.280 A 
HETATM    8  O1  UNL     1     -20.936  -5.023  78.023  1.00  0.00    -0.265 OA
HETATM    9  N3  UNL     1     -21.638  -6.585  76.549  1.00  0.00    -0.273 N 
ATOM     10  H3  UNL     1     -20.687  -6.716  76.204  1.00  0.00     0.173 HD
HETATM   11  C7  UNL     1     -22.642  -7.317  76.005  1.00  0.00     0.331 A 
HETATM   12  O2  UNL     1     -22.401  -8.146  75.089  1.00  0.00    -0.246 OA
HETATM   13  N4  UNL     1     -23.897  -7.148  76.454  1.00  0.00    -0.279 N 
ENDROOT
BRANCH  13  14
HETATM   14  C8  UNL     1     -24.966  -7.916  75.885  1.00  0.00     0.174 C 
BRANCH  14  15
HETATM   15  C9  UNL     1     -25.704  -7.212  74.805  1.00  0.00    -0.040 A 
HETATM   16  C10 UNL     1     -25.165  -7.050  73.528  1.00  0.00     0.010 A 
HETATM   17  C11 UNL     1     -25.833  -6.401  72.516  1.00  0.00     0.024 A 
HETATM   18  C12 UNL     1     -27.087  -5.876  72.741  1.00  0.00     0.034 A 
HETATM   19 CL1  UNL     1     -28.000  -5.035  71.506  1.00  0.00    -0.084 Cl
HETATM   20  C13 UNL     1     -27.639  -6.024  73.996  1.00  0.00     0.024 A 
HETATM   21  C14 UNL     1     -26.961  -6.679  75.006  1.00  0.00     0.010 A 
ENDBRANCH  14  15
ENDBRANCH  13  14
BRANCH   1  22
HETATM   22  C2  UNL     1     -22.965  -3.757  79.787  1.00  0.00     0.126 C 
HETATM   23  C1  UNL     1     -23.959  -3.001  80.628  1.00  0.00     0.027 C 
ENDBRANCH   1  22
TORSDOF 3
ENDMDL
