MODEL 11
REMARK VINA RESULT: -6.701629024      1.658      2.365
REMARK  3 active torsions:
REMARK  status: ('A' for Active; 'I' for Inactive)
REMARK    1  A    between atoms: C2_2  and  N1_3 
REMARK    2  A    between atoms: N4_15  and  C8_16 
REMARK    3  A    between atoms: C8_16  and  C9_17 
ROOT
HETATM    1  N1  UNL     1     -24.468  -5.744  78.325  1.00  0.00    -0.336 N 
HETATM    2  C3  UNL     1     -25.705  -6.235  78.206  1.00  0.00     0.185 A 
HETATM    3  N2  UNL     1     -25.836  -6.997  77.106  1.00  0.00    -0.336 N 
ATOM      4  H2  UNL     1     -26.673  -7.486  76.787  1.00  0.00     0.168 HD
HETATM    5  C4  UNL     1     -24.628  -6.977  76.518  1.00  0.00     0.145 A 
HETATM    6  C5  UNL     1     -23.780  -6.202  77.270  1.00  0.00     0.149 A 
HETATM    7  C6  UNL     1     -22.486  -6.054  76.834  1.00  0.00     0.280 A 
HETATM    8  O1  UNL     1     -21.717  -5.350  77.517  1.00  0.00    -0.265 OA
HETATM    9  N3  UNL     1     -22.087  -6.655  75.710  1.00  0.00    -0.273 N 
ATOM     10  H3  UNL     1     -21.123  -6.534  75.400  1.00  0.00     0.173 HD
HETATM   11  C7  UNL     1     -22.925  -7.421  74.968  1.00  0.00     0.331 A 
HETATM   12  O2  UNL     1     -22.517  -7.973  73.914  1.00  0.00    -0.246 OA
HETATM   13  N4  UNL     1     -24.197  -7.583  75.370  1.00  0.00    -0.279 N 
ENDROOT
BRANCH  13  14
HETATM   14  C8  UNL     1     -25.092  -8.389  74.592  1.00  0.00     0.174 C 
BRANCH  14  15
HETATM   15  C9  UNL     1     -26.052  -7.604  73.774  1.00  0.00    -0.040 A 
HETATM   16  C10 UNL     1     -27.397  -7.962  73.671  1.00  0.00     0.010 A 
HETATM   17  C11 UNL     1     -28.301  -7.249  72.918  1.00  0.00     0.024 A 
HETATM   18  C12 UNL     1     -27.893  -6.131  72.224  1.00  0.00     0.034 A 
HETATM   19 CL1  UNL     1     -28.981  -5.172  71.243  1.00  0.00    -0.084 Cl
HETATM   20  C13 UNL     1     -26.567  -5.759  72.310  1.00  0.00     0.024 A 
HETATM   21  C14 UNL     1     -25.667  -6.481  73.070  1.00  0.00     0.010 A 
ENDBRANCH  14  15
ENDBRANCH  13  14
BRANCH   1  22
HETATM   22  C2  UNL     1     -23.978  -4.884  79.388  1.00  0.00     0.126 C 
HETATM   23  C1  UNL     1     -24.336  -3.452  79.089  1.00  0.00     0.027 C 
ENDBRANCH   1  22
TORSDOF 3
ENDMDL
