MODEL 19
REMARK VINA RESULT: -6.132700960      1.824      2.327
REMARK  3 active torsions:
REMARK  status: ('A' for Active; 'I' for Inactive)
REMARK    1  A    between atoms: C2_2  and  N1_3 
REMARK    2  A    between atoms: N4_15  and  C8_16 
REMARK    3  A    between atoms: C8_16  and  C9_17 
ROOT
HETATM    1  N1  UNL     1     -24.245  -5.553  78.429  1.00  0.00    -0.336 N 
HETATM    2  C3  UNL     1     -25.465  -6.097  78.404  1.00  0.00     0.185 A 
HETATM    3  N2  UNL     1     -25.563  -7.059  77.470  1.00  0.00    -0.336 N 
ATOM      4  H2  UNL     1     -26.382  -7.626  77.248  1.00  0.00     0.168 HD
HETATM    5  C4  UNL     1     -24.351  -7.113  76.891  1.00  0.00     0.145 A 
HETATM    6  C5  UNL     1     -23.535  -6.181  77.483  1.00  0.00     0.149 A 
HETATM    7  C6  UNL     1     -22.242  -6.078  77.029  1.00  0.00     0.280 A 
HETATM    8  O1  UNL     1     -21.501  -5.232  77.567  1.00  0.00    -0.265 OA
HETATM    9  N3  UNL     1     -21.815  -6.869  76.042  1.00  0.00    -0.273 N 
ATOM     10  H3  UNL     1     -20.853  -6.779  75.717  1.00  0.00     0.173 HD
HETATM   11  C7  UNL     1     -22.623  -7.789  75.458  1.00  0.00     0.331 A 
HETATM   12  O2  UNL     1     -22.189  -8.520  74.531  1.00  0.00    -0.246 OA
HETATM   13  N4  UNL     1     -23.892  -7.912  75.881  1.00  0.00    -0.279 N 
ENDROOT
BRANCH  13  14
HETATM   14  C8  UNL     1     -24.755  -8.881  75.270  1.00  0.00     0.174 C 
BRANCH  14  15
HETATM   15  C9  UNL     1     -25.271  -8.472  73.938  1.00  0.00    -0.040 A 
HETATM   16  C10 UNL     1     -25.114  -9.278  72.809  1.00  0.00     0.010 A 
HETATM   17  C11 UNL     1     -25.583  -8.917  71.567  1.00  0.00     0.024 A 
HETATM   18  C12 UNL     1     -26.237  -7.716  71.398  1.00  0.00     0.034 A 
HETATM   19 CL1  UNL     1     -26.862  -7.184  69.850  1.00  0.00    -0.084 Cl
HETATM   20  C13 UNL     1     -26.403  -6.903  72.501  1.00  0.00     0.024 A 
HETATM   21  C14 UNL     1     -25.929  -7.275  73.743  1.00  0.00     0.010 A 
ENDBRANCH  14  15
ENDBRANCH  13  14
BRANCH   1  22
HETATM   22  C2  UNL     1     -23.791  -4.490  79.309  1.00  0.00     0.126 C 
HETATM   23  C1  UNL     1     -24.644  -3.265  79.110  1.00  0.00     0.027 C 
ENDBRANCH   1  22
TORSDOF 3
ENDMDL
