MODEL 12
REMARK VINA RESULT: -5.985595655      0.929      1.547
REMARK  8 active torsions:
REMARK  status: ('A' for Active; 'I' for Inactive)
REMARK    1  A    between atoms: C2_2  and  C3_3 
REMARK    2  A    between atoms: C3_3  and  C4_4 
REMARK    3  A    between atoms: C4_4  and  N1_5 
REMARK    4  A    between atoms: N1_5  and  C5_8 
REMARK    5  A    between atoms: C5_8  and  C6_9 
REMARK       I    between atoms: C6_9  and  N2_11 
REMARK    6  A    between atoms: N2_11  and  C7_13 
REMARK    7  A    between atoms: C10_16  and  S1_17 
REMARK    8  A    between atoms: S1_17  and  N3_18 
ROOT
HETATM    1  C7  UNL     1      -0.895   3.306  83.638  1.00  0.00     0.034 A 
HETATM    2  C8  UNL     1      -0.391   2.072  84.067  1.00  0.00     0.031 A 
HETATM    3  C9  UNL     1      -0.890   1.379  85.139  1.00  0.00     0.027 A 
HETATM    4  C10 UNL     1      -1.943   1.889  85.861  1.00  0.00     0.079 A 
HETATM    5  C11 UNL     1      -2.467   3.097  85.474  1.00  0.00     0.027 A 
HETATM    6  C12 UNL     1      -1.940   3.788  84.375  1.00  0.00     0.031 A 
ENDROOT
BRANCH   1   7
HETATM    7  N2  UNL     1      -0.302   3.938  82.514  1.00  0.00    -0.326 N 
HETATM    8  C6  UNL     1      -0.588   3.685  81.178  1.00  0.00     0.247 C 
HETATM    9  O1  UNL     1      -1.421   2.848  80.837  1.00  0.00    -0.271 OA
ATOM     10  H2  UNL     1       0.405   4.649  82.707  1.00  0.00     0.169 HD
BRANCH   8  11
HETATM   11  C5  UNL     1       0.107   4.421  80.065  1.00  0.00     0.334 C 
BRANCH  11  12
HETATM   12  N1  UNL     1       1.541   4.337  80.213  1.00  0.00    -0.067 N 
ATOM     13  H12 UNL     1       1.849   4.701  81.114  1.00  0.00     0.277 HD
ATOM     14  H11 UNL     1       2.022   5.001  79.606  1.00  0.00     0.277 HD
BRANCH  12  15
HETATM   15  C4  UNL     1       2.008   2.972  79.994  1.00  0.00     0.233 C 
BRANCH  15  16
HETATM   16  C3  UNL     1       3.116   2.610  80.954  1.00  0.00     0.027 C 
BRANCH  16  17
HETATM   17  C2  UNL     1       4.028   3.792  81.218  1.00  0.00    -0.003 C 
HETATM   18  C1  UNL     1       5.203   3.821  80.293  1.00  0.00     0.005 C 
ENDBRANCH  16  17
ENDBRANCH  15  16
ENDBRANCH  12  15
ENDBRANCH  11  12
ENDBRANCH   8  11
ENDBRANCH   1   7
BRANCH   4  19
HETATM   19  S1  UNL     1      -2.615   1.037  87.243  1.00  0.00     0.256 S 
HETATM   20  O2  UNL     1      -1.736  -0.172  87.464  1.00  0.00    -0.201 OA
HETATM   21  O3  UNL     1      -3.996   0.543  86.931  1.00  0.00    -0.201 OA
BRANCH  19  22
HETATM   22  N3  UNL     1      -2.582   2.060  88.610  1.00  0.00    -0.324 N 
ATOM     23  H32 UNL     1      -2.067   1.860  89.468  1.00  0.00     0.169 HD
ATOM     24  H31 UNL     1      -3.152   2.886  88.429  1.00  0.00     0.169 HD
ENDBRANCH  19  22
ENDBRANCH   4  19
TORSDOF 8
ENDMDL
