MODEL 8
REMARK VINA RESULT: -6.199370502      2.746      4.234
REMARK  8 active torsions:
REMARK  status: ('A' for Active; 'I' for Inactive)
REMARK    1  A    between atoms: C2_2  and  C3_3 
REMARK    2  A    between atoms: C3_3  and  C4_4 
REMARK    3  A    between atoms: C4_4  and  N1_5 
REMARK    4  A    between atoms: N1_5  and  C5_8 
REMARK    5  A    between atoms: C5_8  and  C6_9 
REMARK       I    between atoms: C6_9  and  N2_11 
REMARK    6  A    between atoms: N2_11  and  C7_13 
REMARK    7  A    between atoms: C10_16  and  S1_17 
REMARK    8  A    between atoms: S1_17  and  N3_18 
ROOT
HETATM    1  C7  UNL     1      -0.897   4.129  83.924  1.00  0.00     0.034 A 
HETATM    2  C8  UNL     1      -2.161   4.197  84.523  1.00  0.00     0.031 A 
HETATM    3  C9  UNL     1      -2.605   3.303  85.463  1.00  0.00     0.027 A 
HETATM    4  C10 UNL     1      -1.796   2.268  85.868  1.00  0.00     0.079 A 
HETATM    5  C11 UNL     1      -0.548   2.166  85.306  1.00  0.00     0.027 A 
HETATM    6  C12 UNL     1      -0.115   3.091  84.347  1.00  0.00     0.031 A 
ENDROOT
BRANCH   1   7
HETATM    7  N2  UNL     1      -0.540   5.107  82.961  1.00  0.00    -0.326 N 
HETATM    8  C6  UNL     1      -0.750   5.031  81.589  1.00  0.00     0.247 C 
HETATM    9  O1  UNL     1      -1.290   4.059  81.065  1.00  0.00    -0.271 OA
ATOM     10  H2  UNL     1      -0.083   5.951  83.309  1.00  0.00     0.169 HD
BRANCH   8  11
HETATM   11  C5  UNL     1      -0.327   6.135  80.659  1.00  0.00     0.334 C 
BRANCH  11  12
HETATM   12  N1  UNL     1      -1.472   6.711  79.994  1.00  0.00    -0.067 N 
ATOM     13  H12 UNL     1      -2.061   5.995  79.571  1.00  0.00     0.277 HD
ATOM     14  H11 UNL     1      -1.203   7.210  79.146  1.00  0.00     0.277 HD
BRANCH  12  15
HETATM   15  C4  UNL     1      -2.229   7.564  80.905  1.00  0.00     0.233 C 
BRANCH  15  16
HETATM   16  C3  UNL     1      -3.667   7.699  80.462  1.00  0.00     0.027 C 
BRANCH  16  17
HETATM   17  C2  UNL     1      -3.865   7.170  79.055  1.00  0.00    -0.003 C 
HETATM   18  C1  UNL     1      -5.050   7.783  78.380  1.00  0.00     0.005 C 
ENDBRANCH  16  17
ENDBRANCH  15  16
ENDBRANCH  12  15
ENDBRANCH  11  12
ENDBRANCH   8  11
ENDBRANCH   1   7
BRANCH   4  19
HETATM   19  S1  UNL     1      -2.321   1.099  87.070  1.00  0.00     0.256 S 
HETATM   20  O2  UNL     1      -1.207   0.084  87.188  1.00  0.00    -0.201 OA
HETATM   21  O3  UNL     1      -3.545   0.374  86.593  1.00  0.00    -0.201 OA
BRANCH  19  22
HETATM   22  N3  UNL     1      -2.572   1.890  88.561  1.00  0.00    -0.324 N 
ATOM     23  H32 UNL     1      -1.857   2.008  89.279  1.00  0.00     0.169 HD
ATOM     24  H31 UNL     1      -3.536   2.219  88.612  1.00  0.00     0.169 HD
ENDBRANCH  19  22
ENDBRANCH   4  19
TORSDOF 8
ENDMDL
