MODEL 6
REMARK VINA RESULT: -6.254737407      1.477      1.488
REMARK  8 active torsions:
REMARK  status: ('A' for Active; 'I' for Inactive)
REMARK    1  A    between atoms: C2_2  and  C3_3 
REMARK    2  A    between atoms: C3_3  and  C4_4 
REMARK    3  A    between atoms: C4_4  and  N1_5 
REMARK    4  A    between atoms: N1_5  and  C5_8 
REMARK    5  A    between atoms: C5_8  and  C6_9 
REMARK       I    between atoms: C6_9  and  N2_11 
REMARK    6  A    between atoms: N2_11  and  C7_13 
REMARK    7  A    between atoms: C10_16  and  S1_17 
REMARK    8  A    between atoms: S1_17  and  N3_18 
ROOT
HETATM    1  C7  UNL     1      -0.518   3.103  83.814  1.00  0.00     0.034 A 
HETATM    2  C8  UNL     1      -0.253   1.767  84.141  1.00  0.00     0.031 A 
HETATM    3  C9  UNL     1      -0.911   1.083  85.131  1.00  0.00     0.027 A 
HETATM    4  C10 UNL     1      -1.891   1.706  85.867  1.00  0.00     0.079 A 
HETATM    5  C11 UNL     1      -2.182   3.015  85.577  1.00  0.00     0.027 A 
HETATM    6  C12 UNL     1      -1.497   3.695  84.562  1.00  0.00     0.031 A 
ENDROOT
BRANCH   1   7
HETATM    7  N2  UNL     1       0.224   3.715  82.771  1.00  0.00    -0.326 N 
HETATM    8  C6  UNL     1       1.524   4.199  82.856  1.00  0.00     0.247 C 
HETATM    9  O1  UNL     1       2.176   4.136  83.895  1.00  0.00    -0.271 OA
ATOM     10  H2  UNL     1      -0.244   3.810  81.869  1.00  0.00     0.169 HD
BRANCH   8  11
HETATM   11  C5  UNL     1       2.213   4.831  81.677  1.00  0.00     0.334 C 
BRANCH  11  12
HETATM   12  N1  UNL     1       1.994   4.055  80.479  1.00  0.00    -0.067 N 
ATOM     13  H12 UNL     1       2.223   4.587  79.639  1.00  0.00     0.277 HD
ATOM     14  H11 UNL     1       1.001   3.908  80.302  1.00  0.00     0.277 HD
BRANCH  12  15
HETATM   15  C4  UNL     1       2.725   2.793  80.535  1.00  0.00     0.233 C 
BRANCH  15  16
HETATM   16  C3  UNL     1       1.842   1.630  80.149  1.00  0.00     0.027 C 
BRANCH  16  17
HETATM   17  C2  UNL     1       1.807   0.577  81.238  1.00  0.00    -0.003 C 
HETATM   18  C1  UNL     1       0.607  -0.309  81.132  1.00  0.00     0.005 C 
ENDBRANCH  16  17
ENDBRANCH  15  16
ENDBRANCH  12  15
ENDBRANCH  11  12
ENDBRANCH   8  11
ENDBRANCH   1   7
BRANCH   4  19
HETATM   19  S1  UNL     1      -2.761   0.870  87.145  1.00  0.00     0.256 S 
HETATM   20  O2  UNL     1      -2.175  -0.522  87.214  1.00  0.00    -0.201 OA
HETATM   21  O3  UNL     1      -4.211   0.735  86.787  1.00  0.00    -0.201 OA
BRANCH  19  22
HETATM   22  N3  UNL     1      -2.527   1.693  88.622  1.00  0.00    -0.324 N 
ATOM     23  H32 UNL     1      -1.644   2.111  88.916  1.00  0.00     0.169 HD
ATOM     24  H31 UNL     1      -3.400   1.697  89.149  1.00  0.00     0.169 HD
ENDBRANCH  19  22
ENDBRANCH   4  19
TORSDOF 8
ENDMDL
