MODEL 10
REMARK VINA RESULT: -6.020971386      2.827      4.177
REMARK  8 active torsions:
REMARK  status: ('A' for Active; 'I' for Inactive)
REMARK    1  A    between atoms: C2_2  and  C3_3 
REMARK    2  A    between atoms: C3_3  and  C4_4 
REMARK    3  A    between atoms: C4_4  and  N1_5 
REMARK    4  A    between atoms: N1_5  and  C5_8 
REMARK    5  A    between atoms: C5_8  and  C6_9 
REMARK       I    between atoms: C6_9  and  N2_11 
REMARK    6  A    between atoms: N2_11  and  C7_13 
REMARK    7  A    between atoms: C10_16  and  S1_17 
REMARK    8  A    between atoms: S1_17  and  N3_18 
ROOT
HETATM    1  C7  UNL     1      -1.133   4.129  83.973  1.00  0.00     0.034 A 
HETATM    2  C8  UNL     1      -2.319   4.248  84.706  1.00  0.00     0.031 A 
HETATM    3  C9  UNL     1      -2.715   3.348  85.662  1.00  0.00     0.027 A 
HETATM    4  C10 UNL     1      -1.933   2.254  85.946  1.00  0.00     0.079 A 
HETATM    5  C11 UNL     1      -0.761   2.099  85.249  1.00  0.00     0.027 A 
HETATM    6  C12 UNL     1      -0.376   3.031  84.277  1.00  0.00     0.031 A 
ENDROOT
BRANCH   1   7
HETATM    7  N2  UNL     1      -0.819   5.119  83.006  1.00  0.00    -0.326 N 
HETATM    8  C6  UNL     1      -0.022   6.240  83.201  1.00  0.00     0.247 C 
HETATM    9  O1  UNL     1       0.508   6.484  84.283  1.00  0.00    -0.271 OA
ATOM     10  H2  UNL     1      -1.220   4.995  82.076  1.00  0.00     0.169 HD
BRANCH   8  11
HETATM   11  C5  UNL     1       0.243   7.227  82.096  1.00  0.00     0.334 C 
BRANCH  11  12
HETATM   12  N1  UNL     1       0.135   6.590  80.804  1.00  0.00    -0.067 N 
ATOM     13  H12 UNL     1       0.112   5.574  80.886  1.00  0.00     0.277 HD
ATOM     14  H11 UNL     1       0.996   6.682  80.266  1.00  0.00     0.277 HD
BRANCH  12  15
HETATM   15  C4  UNL     1      -1.018   7.098  80.068  1.00  0.00     0.233 C 
BRANCH  15  16
HETATM   16  C3  UNL     1      -1.398   8.485  80.532  1.00  0.00     0.027 C 
BRANCH  16  17
HETATM   17  C2  UNL     1      -2.899   8.623  80.692  1.00  0.00    -0.003 C 
HETATM   18  C1  UNL     1      -3.486   7.525  81.519  1.00  0.00     0.005 C 
ENDBRANCH  16  17
ENDBRANCH  15  16
ENDBRANCH  12  15
ENDBRANCH  11  12
ENDBRANCH   8  11
ENDBRANCH   1   7
BRANCH   4  19
HETATM   19  S1  UNL     1      -2.400   1.073  87.161  1.00  0.00     0.256 S 
HETATM   20  O2  UNL     1      -1.252   0.095  87.263  1.00  0.00    -0.201 OA
HETATM   21  O3  UNL     1      -3.608   0.308  86.709  1.00  0.00    -0.201 OA
BRANCH  19  22
HETATM   22  N3  UNL     1      -2.649   1.864  88.653  1.00  0.00    -0.324 N 
ATOM     23  H32 UNL     1      -1.992   2.519  89.076  1.00  0.00     0.169 HD
ATOM     24  H31 UNL     1      -3.547   1.576  89.043  1.00  0.00     0.169 HD
ENDBRANCH  19  22
ENDBRANCH   4  19
TORSDOF 8
ENDMDL
