MODEL 1
REMARK VINA RESULT: -6.523449150      0.000      0.000
REMARK  8 active torsions:
REMARK  status: ('A' for Active; 'I' for Inactive)
REMARK    1  A    between atoms: C2_2  and  C3_3 
REMARK    2  A    between atoms: C3_3  and  C4_4 
REMARK    3  A    between atoms: C4_4  and  N1_5 
REMARK    4  A    between atoms: N1_5  and  C5_8 
REMARK    5  A    between atoms: C5_8  and  C6_9 
REMARK       I    between atoms: C6_9  and  N2_11 
REMARK    6  A    between atoms: N2_11  and  C7_13 
REMARK    7  A    between atoms: C10_16  and  S1_17 
REMARK    8  A    between atoms: S1_17  and  N3_18 
ROOT
HETATM    1  C7  UNL     1      -0.763   3.135  83.601  1.00  0.00     0.034 A 
HETATM    2  C8  UNL     1      -0.379   1.840  83.969  1.00  0.00     0.031 A 
HETATM    3  C9  UNL     1      -0.949   1.145  85.004  1.00  0.00     0.027 A 
HETATM    4  C10 UNL     1      -1.956   1.714  85.747  1.00  0.00     0.079 A 
HETATM    5  C11 UNL     1      -2.363   2.983  85.418  1.00  0.00     0.027 A 
HETATM    6  C12 UNL     1      -1.766   3.675  84.356  1.00  0.00     0.031 A 
ENDROOT
BRANCH   1   7
HETATM    7  N2  UNL     1      -0.105   3.764  82.512  1.00  0.00    -0.326 N 
HETATM    8  C6  UNL     1      -0.493   3.724  81.178  1.00  0.00     0.247 C 
HETATM    9  O1  UNL     1      -1.490   3.109  80.807  1.00  0.00    -0.271 OA
ATOM     10  H2  UNL     1       0.737   4.298  82.730  1.00  0.00     0.169 HD
BRANCH   8  11
HETATM   11  C5  UNL     1       0.286   4.434  80.104  1.00  0.00     0.334 C 
BRANCH  11  12
HETATM   12  N1  UNL     1       1.697   4.150  80.223  1.00  0.00    -0.067 N 
ATOM     13  H12 UNL     1       2.048   4.367  81.155  1.00  0.00     0.277 HD
ATOM     14  H11 UNL     1       2.261   4.812  79.689  1.00  0.00     0.277 HD
BRANCH  12  15
HETATM   15  C4  UNL     1       1.985   2.770  79.845  1.00  0.00     0.233 C 
BRANCH  15  16
HETATM   16  C3  UNL     1       2.712   2.040  80.949  1.00  0.00     0.027 C 
BRANCH  16  17
HETATM   17  C2  UNL     1       2.028   0.731  81.293  1.00  0.00    -0.003 C 
HETATM   18  C1  UNL     1       0.825   0.479  80.440  1.00  0.00     0.005 C 
ENDBRANCH  16  17
ENDBRANCH  15  16
ENDBRANCH  12  15
ENDBRANCH  11  12
ENDBRANCH   8  11
ENDBRANCH   1   7
BRANCH   4  19
HETATM   19  S1  UNL     1      -2.716   0.862  87.082  1.00  0.00     0.256 S 
HETATM   20  O2  UNL     1      -2.079  -0.509  87.127  1.00  0.00    -0.201 OA
HETATM   21  O3  UNL     1      -4.180   0.673  86.816  1.00  0.00    -0.201 OA
BRANCH  19  22
HETATM   22  N3  UNL     1      -2.421   1.707  88.536  1.00  0.00    -0.324 N 
ATOM     23  H32 UNL     1      -2.958   2.515  88.852  1.00  0.00     0.169 HD
ATOM     24  H31 UNL     1      -1.635   1.278  89.024  1.00  0.00     0.169 HD
ENDBRANCH  19  22
ENDBRANCH   4  19
TORSDOF 8
ENDMDL
