MODEL 7
REMARK VINA RESULT: -6.243202869      2.387      3.947
REMARK  8 active torsions:
REMARK  status: ('A' for Active; 'I' for Inactive)
REMARK    1  A    between atoms: C2_2  and  C3_3 
REMARK    2  A    between atoms: C3_3  and  C4_4 
REMARK    3  A    between atoms: C4_4  and  N1_5 
REMARK    4  A    between atoms: N1_5  and  C5_8 
REMARK    5  A    between atoms: C5_8  and  C6_9 
REMARK       I    between atoms: C6_9  and  N2_11 
REMARK    6  A    between atoms: N2_11  and  C7_13 
REMARK    7  A    between atoms: C10_16  and  S1_17 
REMARK    8  A    between atoms: S1_17  and  N3_18 
ROOT
HETATM    1  C7  UNL     1      -0.917   4.100  83.904  1.00  0.00     0.034 A 
HETATM    2  C8  UNL     1      -2.168   4.200  84.526  1.00  0.00     0.031 A 
HETATM    3  C9  UNL     1      -2.620   3.313  85.468  1.00  0.00     0.027 A 
HETATM    4  C10 UNL     1      -1.834   2.253  85.853  1.00  0.00     0.079 A 
HETATM    5  C11 UNL     1      -0.599   2.119  85.268  1.00  0.00     0.027 A 
HETATM    6  C12 UNL     1      -0.158   3.037  84.306  1.00  0.00     0.031 A 
ENDROOT
BRANCH   1   7
HETATM    7  N2  UNL     1      -0.549   5.073  82.940  1.00  0.00    -0.326 N 
HETATM    8  C6  UNL     1      -0.717   4.978  81.564  1.00  0.00     0.247 C 
HETATM    9  O1  UNL     1      -1.225   3.991  81.036  1.00  0.00    -0.271 OA
ATOM     10  H2  UNL     1      -0.117   5.928  83.292  1.00  0.00     0.169 HD
BRANCH   8  11
HETATM   11  C5  UNL     1      -0.287   6.079  80.634  1.00  0.00     0.334 C 
BRANCH  11  12
HETATM   12  N1  UNL     1      -0.904   5.925  79.337  1.00  0.00    -0.067 N 
ATOM     13  H12 UNL     1      -1.437   5.058  79.274  1.00  0.00     0.277 HD
ATOM     14  H11 UNL     1      -0.213   5.735  78.611  1.00  0.00     0.277 HD
BRANCH  12  15
HETATM   15  C4  UNL     1      -1.724   7.088  79.009  1.00  0.00     0.233 C 
BRANCH  15  16
HETATM   16  C3  UNL     1      -3.196   6.772  79.129  1.00  0.00     0.027 C 
BRANCH  16  17
HETATM   17  C2  UNL     1      -3.903   7.764  80.030  1.00  0.00    -0.003 C 
HETATM   18  C1  UNL     1      -3.530   7.592  81.468  1.00  0.00     0.005 C 
ENDBRANCH  16  17
ENDBRANCH  15  16
ENDBRANCH  12  15
ENDBRANCH  11  12
ENDBRANCH   8  11
ENDBRANCH   1   7
BRANCH   4  19
HETATM   19  S1  UNL     1      -2.371   1.091  87.057  1.00  0.00     0.256 S 
HETATM   20  O2  UNL     1      -1.269   0.063  87.174  1.00  0.00    -0.201 OA
HETATM   21  O3  UNL     1      -3.604   0.382  86.583  1.00  0.00    -0.201 OA
BRANCH  19  22
HETATM   22  N3  UNL     1      -2.609   1.888  88.548  1.00  0.00    -0.324 N 
ATOM     23  H32 UNL     1      -3.377   2.529  88.744  1.00  0.00     0.169 HD
ATOM     24  H31 UNL     1      -1.868   1.620  89.197  1.00  0.00     0.169 HD
ENDBRANCH  19  22
ENDBRANCH   4  19
TORSDOF 8
ENDMDL
