MODEL 5
REMARK VINA RESULT: -6.259623237      2.381      3.806
REMARK  8 active torsions:
REMARK  status: ('A' for Active; 'I' for Inactive)
REMARK    1  A    between atoms: C2_2  and  C3_3 
REMARK    2  A    between atoms: C3_3  and  C4_4 
REMARK    3  A    between atoms: C4_4  and  N1_5 
REMARK    4  A    between atoms: N1_5  and  C5_8 
REMARK    5  A    between atoms: C5_8  and  C6_9 
REMARK       I    between atoms: C6_9  and  N2_11 
REMARK    6  A    between atoms: N2_11  and  C7_13 
REMARK    7  A    between atoms: C10_16  and  S1_17 
REMARK    8  A    between atoms: S1_17  and  N3_18 
ROOT
HETATM    1  C7  UNL     1      -1.021   4.215  83.875  1.00  0.00     0.034 A 
HETATM    2  C8  UNL     1      -0.218   3.129  84.246  1.00  0.00     0.031 A 
HETATM    3  C9  UNL     1      -0.585   2.200  85.185  1.00  0.00     0.027 A 
HETATM    4  C10 UNL     1      -1.799   2.302  85.820  1.00  0.00     0.079 A 
HETATM    5  C11 UNL     1      -2.617   3.352  85.485  1.00  0.00     0.027 A 
HETATM    6  C12 UNL     1      -2.221   4.291  84.523  1.00  0.00     0.031 A 
ENDROOT
BRANCH   1   7
HETATM    7  N2  UNL     1      -0.542   5.119  82.891  1.00  0.00    -0.326 N 
HETATM    8  C6  UNL     1      -0.724   5.017  81.517  1.00  0.00     0.247 C 
HETATM    9  O1  UNL     1      -1.346   4.086  81.010  1.00  0.00    -0.271 OA
ATOM     10  H2  UNL     1      -0.012   5.924  83.226  1.00  0.00     0.169 HD
BRANCH   8  11
HETATM   11  C5  UNL     1      -0.170   6.041  80.566  1.00  0.00     0.334 C 
BRANCH  11  12
HETATM   12  N1  UNL     1      -0.831   5.962  79.285  1.00  0.00    -0.067 N 
ATOM     13  H12 UNL     1      -1.371   5.102  79.192  1.00  0.00     0.277 HD
ATOM     14  H11 UNL     1      -0.167   5.809  78.526  1.00  0.00     0.277 HD
BRANCH  12  15
HETATM   15  C4  UNL     1      -1.655   7.143  79.049  1.00  0.00     0.233 C 
BRANCH  15  16
HETATM   16  C3  UNL     1      -3.126   6.806  79.103  1.00  0.00     0.027 C 
BRANCH  16  17
HETATM   17  C2  UNL     1      -3.877   7.748  80.023  1.00  0.00    -0.003 C 
HETATM   18  C1  UNL     1      -3.489   7.570  81.456  1.00  0.00     0.005 C 
ENDBRANCH  16  17
ENDBRANCH  15  16
ENDBRANCH  12  15
ENDBRANCH  11  12
ENDBRANCH   8  11
ENDBRANCH   1   7
BRANCH   4  19
HETATM   19  S1  UNL     1      -2.312   1.136  87.030  1.00  0.00     0.256 S 
HETATM   20  O2  UNL     1      -1.176   0.148  87.173  1.00  0.00    -0.201 OA
HETATM   21  O3  UNL     1      -3.514   0.379  86.549  1.00  0.00    -0.201 OA
BRANCH  19  22
HETATM   22  N3  UNL     1      -2.596   1.940  88.509  1.00  0.00    -0.324 N 
ATOM     23  H32 UNL     1      -3.521   2.127  88.896  1.00  0.00     0.169 HD
ATOM     24  H31 UNL     1      -1.704   2.196  88.932  1.00  0.00     0.169 HD
ENDBRANCH  19  22
ENDBRANCH   4  19
TORSDOF 8
ENDMDL
