MODEL 13
REMARK VINA RESULT: -5.962263673      3.659      5.051
REMARK  8 active torsions:
REMARK  status: ('A' for Active; 'I' for Inactive)
REMARK    1  A    between atoms: C2_2  and  C3_3 
REMARK    2  A    between atoms: C3_3  and  C4_4 
REMARK    3  A    between atoms: C4_4  and  N1_5 
REMARK    4  A    between atoms: N1_5  and  C5_8 
REMARK    5  A    between atoms: C5_8  and  C6_9 
REMARK       I    between atoms: C6_9  and  N2_11 
REMARK    6  A    between atoms: N2_11  and  C7_13 
REMARK    7  A    between atoms: C10_16  and  S1_17 
REMARK    8  A    between atoms: S1_17  and  N3_18 
ROOT
HETATM    1  C7  UNL     1      -1.152   4.793  83.437  1.00  0.00     0.034 A 
HETATM    2  C8  UNL     1      -0.204   3.807  83.135  1.00  0.00     0.031 A 
HETATM    3  C9  UNL     1      -0.146   2.591  83.765  1.00  0.00     0.027 A 
HETATM    4  C10 UNL     1      -1.050   2.282  84.754  1.00  0.00     0.079 A 
HETATM    5  C11 UNL     1      -1.996   3.221  85.081  1.00  0.00     0.027 A 
HETATM    6  C12 UNL     1      -2.036   4.457  84.424  1.00  0.00     0.031 A 
ENDROOT
BRANCH   1   7
HETATM    7  N2  UNL     1      -1.121   6.018  82.723  1.00  0.00    -0.326 N 
HETATM    8  C6  UNL     1      -1.497   6.212  81.399  1.00  0.00     0.247 C 
HETATM    9  O1  UNL     1      -1.909   5.292  80.697  1.00  0.00    -0.271 OA
ATOM     10  H2  UNL     1      -0.789   6.839  83.231  1.00  0.00     0.169 HD
BRANCH   8  11
HETATM   11  C5  UNL     1      -1.422   7.564  80.743  1.00  0.00     0.334 C 
BRANCH  11  12
HETATM   12  N1  UNL     1      -2.729   8.174  80.677  1.00  0.00    -0.067 N 
ATOM     13  H12 UNL     1      -2.777   9.025  81.237  1.00  0.00     0.277 HD
ATOM     14  H11 UNL     1      -3.429   7.622  81.173  1.00  0.00     0.277 HD
BRANCH  12  15
HETATM   15  C4  UNL     1      -3.120   8.419  79.292  1.00  0.00     0.233 C 
BRANCH  15  16
HETATM   16  C3  UNL     1      -4.000   7.310  78.766  1.00  0.00     0.027 C 
BRANCH  16  17
HETATM   17  C2  UNL     1      -5.359   7.833  78.346  1.00  0.00    -0.003 C 
HETATM   18  C1  UNL     1      -5.265   9.132  77.611  1.00  0.00     0.005 C 
ENDBRANCH  16  17
ENDBRANCH  15  16
ENDBRANCH  12  15
ENDBRANCH  11  12
ENDBRANCH   8  11
ENDBRANCH   1   7
BRANCH   4  19
HETATM   19  S1  UNL     1      -1.014   0.737  85.590  1.00  0.00     0.256 S 
HETATM   20  O2  UNL     1       0.334   0.654  86.268  1.00  0.00    -0.201 OA
HETATM   21  O3  UNL     1      -1.097  -0.391  84.605  1.00  0.00    -0.201 OA
BRANCH  19  22
HETATM   22  N3  UNL     1      -2.270   0.688  86.745  1.00  0.00    -0.324 N 
ATOM     23  H32 UNL     1      -3.191   0.282  86.579  1.00  0.00     0.169 HD
ATOM     24  H31 UNL     1      -1.951   1.123  87.611  1.00  0.00     0.169 HD
ENDBRANCH  19  22
ENDBRANCH   4  19
TORSDOF 8
ENDMDL
