MODEL 1
REMARK VINA RESULT: -10.352979861      0.000      0.000
REMARK  5 active torsions:
REMARK  status: ('A' for Active; 'I' for Inactive)
REMARK    1  A    between atoms: N1_4  and  C4_5 
REMARK    2  A    between atoms: C8_9  and  C9_10 
REMARK       I    between atoms: C9_10  and  N2_12 
REMARK    3  A    between atoms: N2_12  and  C10_14 
REMARK    4  A    between atoms: C13_17  and  O2_18 
REMARK    5  A    between atoms: O2_18  and  C14_19 
ROOT
HETATM    1  C9  UNL     1     -14.293  11.346 -26.128  1.00  0.00     0.256 C 
HETATM    2  O1  UNL     1     -13.791  12.429 -26.507  1.00  0.00    -0.267 OA
HETATM    3  N2  UNL     1     -14.111  10.160 -26.831  1.00  0.00    -0.323 N 
ATOM      4  H2  UNL     1     -14.548   9.315 -26.462  1.00  0.00     0.169 HD
ENDROOT
BRANCH   3   5
HETATM    5  C10 UNL     1     -13.366  10.050 -28.012  1.00  0.00     0.035 A 
HETATM    6  C11 UNL     1     -14.049   9.557 -29.144  1.00  0.00     0.032 A 
HETATM    7  C12 UNL     1     -13.439   9.408 -30.357  1.00  0.00     0.039 A 
HETATM    8  C13 UNL     1     -12.102   9.747 -30.507  1.00  0.00     0.076 A 
HETATM    9  C19 UNL     1     -11.390  10.233 -29.433  1.00  0.00     0.039 A 
HETATM   10  C20 UNL     1     -12.052  10.370 -28.209  1.00  0.00     0.032 A 
BRANCH   8  11
HETATM   11  O2  UNL     1     -11.448   9.608 -31.734  1.00  0.00    -0.311 OA
BRANCH  11  12
HETATM   12  C14 UNL     1     -11.232  10.781 -32.448  1.00  0.00     0.078 A 
HETATM   13  C15 UNL     1     -12.028  11.895 -32.260  1.00  0.00     0.054 A 
HETATM   14  C16 UNL     1     -11.837  13.054 -32.948  1.00  0.00     0.090 A 
HETATM   15  N3  UNL     1     -10.841  13.129 -33.845  1.00  0.00    -0.375 N 
HETATM   16  C17 UNL     1     -10.037  12.073 -34.068  1.00  0.00     0.090 A 
ATOM     17  H3  UNL     1     -10.693  13.994 -34.363  1.00  0.00     0.164 HD
HETATM   18  C18 UNL     1     -10.214  10.890 -33.381  1.00  0.00     0.054 A 
ENDBRANCH  11  12
ENDBRANCH   8  11
ENDBRANCH   3   5
BRANCH   1  19
HETATM   19  C8  UNL     1     -15.087  11.452 -24.882  1.00  0.00     0.034 A 
HETATM   20  C7  UNL     1     -15.475  12.682 -24.374  1.00  0.00     0.017 A 
HETATM   21  C6  UNL     1     -16.216  12.820 -23.219  1.00  0.00     0.003 A 
HETATM   22  C5  UNL     1     -16.591  11.681 -22.531  1.00  0.00     0.030 A 
HETATM   23  C4  UNL     1     -16.224  10.446 -23.006  1.00  0.00     0.040 A 
HETATM   24  C21 UNL     1     -15.479  10.347 -24.171  1.00  0.00     0.047 A 
BRANCH  23  25
HETATM   25  N1  UNL     1     -16.612   9.261 -22.294  1.00  0.00    -0.317 N 
HETATM   26  C3  UNL     1     -17.304   9.212 -21.129  1.00  0.00     0.122 A 
HETATM   27  C2  UNL     1     -17.487   7.898 -20.755  1.00  0.00     0.022 A 
HETATM   28  C1  UNL     1     -18.209   7.467 -19.519  1.00  0.00     0.069 C 
HETATM   29  N4  UNL     1     -16.902   7.162 -21.704  1.00  0.00    -0.354 N 
HETATM   30  C22 UNL     1     -16.367   7.988 -22.646  1.00  0.00     0.188 A 
ATOM     31  H4  UNL     1     -16.862   6.143 -21.720  1.00  0.00     0.166 HD
ENDBRANCH  23  25
ENDBRANCH   1  19
TORSDOF 5
ENDMDL
