MODEL 9
REMARK VINA RESULT: -8.056723971      3.432      4.699
REMARK  5 active torsions:
REMARK  status: ('A' for Active; 'I' for Inactive)
REMARK    1  A    between atoms: N1_4  and  C4_5 
REMARK    2  A    between atoms: C8_9  and  C9_10 
REMARK       I    between atoms: C9_10  and  N2_12 
REMARK    3  A    between atoms: N2_12  and  C10_14 
REMARK    4  A    between atoms: C13_17  and  O2_18 
REMARK    5  A    between atoms: O2_18  and  C14_19 
ROOT
HETATM    1  C9  UNL     1     -12.833   6.378 -25.517  1.00  0.00     0.256 C 
HETATM    2  O1  UNL     1     -12.186   5.320 -25.344  1.00  0.00    -0.267 OA
HETATM    3  N2  UNL     1     -12.554   7.253 -26.560  1.00  0.00    -0.323 N 
ATOM      4  H2  UNL     1     -13.124   8.096 -26.642  1.00  0.00     0.169 HD
ENDROOT
BRANCH   3   5
HETATM    5  C10 UNL     1     -11.540   7.055 -27.507  1.00  0.00     0.035 A 
HETATM    6  C11 UNL     1     -11.878   6.286 -28.640  1.00  0.00     0.032 A 
HETATM    7  C12 UNL     1     -10.983   6.026 -29.639  1.00  0.00     0.039 A 
HETATM    8  C13 UNL     1      -9.691   6.524 -29.559  1.00  0.00     0.076 A 
HETATM    9  C19 UNL     1      -9.311   7.281 -28.473  1.00  0.00     0.039 A 
HETATM   10  C20 UNL     1     -10.257   7.524 -27.473  1.00  0.00     0.032 A 
BRANCH   8  11
HETATM   11  O2  UNL     1      -8.751   6.277 -30.563  1.00  0.00    -0.311 OA
BRANCH  11  12
HETATM   12  C14 UNL     1      -8.498   7.330 -31.436  1.00  0.00     0.078 A 
HETATM   13  C15 UNL     1      -7.233   7.872 -31.562  1.00  0.00     0.054 A 
HETATM   14  C16 UNL     1      -6.961   8.903 -32.408  1.00  0.00     0.090 A 
HETATM   15  N3  UNL     1      -7.951   9.419 -33.153  1.00  0.00    -0.375 N 
HETATM   16  C17 UNL     1      -9.202   8.929 -33.068  1.00  0.00     0.090 A 
ATOM     17  H3  UNL     1      -7.753  10.191 -33.789  1.00  0.00     0.164 HD
HETATM   18  C18 UNL     1      -9.497   7.885 -32.217  1.00  0.00     0.054 A 
ENDBRANCH  11  12
ENDBRANCH   8  11
ENDBRANCH   3   5
BRANCH   1  19
HETATM   19  C8  UNL     1     -13.905   6.600 -24.519  1.00  0.00     0.034 A 
HETATM   20  C7  UNL     1     -14.479   5.544 -23.828  1.00  0.00     0.017 A 
HETATM   21  C6  UNL     1     -15.477   5.712 -22.890  1.00  0.00     0.003 A 
HETATM   22  C5  UNL     1     -15.929   6.991 -22.625  1.00  0.00     0.030 A 
HETATM   23  C4  UNL     1     -15.383   8.060 -23.291  1.00  0.00     0.040 A 
HETATM   24  C21 UNL     1     -14.381   7.851 -24.226  1.00  0.00     0.047 A 
BRANCH  23  25
HETATM   25  N1  UNL     1     -15.850   9.390 -23.017  1.00  0.00    -0.317 N 
HETATM   26  C3  UNL     1     -15.542  10.511 -23.716  1.00  0.00     0.122 A 
HETATM   27  C2  UNL     1     -16.179  11.595 -23.152  1.00  0.00     0.022 A 
HETATM   28  C1  UNL     1     -16.068  12.996 -23.663  1.00  0.00     0.069 C 
HETATM   29  N4  UNL     1     -16.870  11.116 -22.115  1.00  0.00    -0.354 N 
HETATM   30  C22 UNL     1     -16.674   9.771 -22.027  1.00  0.00     0.188 A 
ATOM     31  H4  UNL     1     -17.453  11.670 -21.487  1.00  0.00     0.166 HD
ENDBRANCH  23  25
ENDBRANCH   1  19
TORSDOF 5
ENDMDL
