MODEL 3
REMARK VINA RESULT: -9.995210009      1.505      1.904
REMARK  5 active torsions:
REMARK  status: ('A' for Active; 'I' for Inactive)
REMARK    1  A    between atoms: N1_4  and  C4_5 
REMARK    2  A    between atoms: C8_9  and  C9_10 
REMARK       I    between atoms: C9_10  and  N2_12 
REMARK    3  A    between atoms: N2_12  and  C10_14 
REMARK    4  A    between atoms: C13_17  and  O2_18 
REMARK    5  A    between atoms: O2_18  and  C14_19 
ROOT
HETATM    1  C9  UNL     1     -14.108  11.511 -26.409  1.00  0.00     0.256 C 
HETATM    2  O1  UNL     1     -13.067  12.208 -26.424  1.00  0.00    -0.267 OA
HETATM    3  N2  UNL     1     -14.481  10.719 -27.489  1.00  0.00    -0.323 N 
ATOM      4  H2  UNL     1     -15.341  10.176 -27.407  1.00  0.00     0.169 HD
ENDROOT
BRANCH   3   5
HETATM    5  C10 UNL     1     -13.755  10.618 -28.683  1.00  0.00     0.035 A 
HETATM    6  C11 UNL     1     -13.021  11.758 -29.073  1.00  0.00     0.032 A 
HETATM    7  C12 UNL     1     -12.266  11.787 -30.210  1.00  0.00     0.039 A 
HETATM    8  C13 UNL     1     -12.203  10.668 -31.029  1.00  0.00     0.076 A 
HETATM    9  C19 UNL     1     -12.901   9.529 -30.693  1.00  0.00     0.039 A 
HETATM   10  C20 UNL     1     -13.661   9.541 -29.520  1.00  0.00     0.032 A 
BRANCH   8  11
HETATM   11  O2  UNL     1     -11.440  10.663 -32.200  1.00  0.00    -0.311 OA
BRANCH  11  12
HETATM   12  C14 UNL     1     -10.067  10.814 -32.036  1.00  0.00     0.078 A 
HETATM   13  C15 UNL     1      -9.298   9.822 -31.458  1.00  0.00     0.054 A 
HETATM   14  C16 UNL     1      -7.954   9.947 -31.287  1.00  0.00     0.090 A 
HETATM   15  N3  UNL     1      -7.343  11.072 -31.690  1.00  0.00    -0.375 N 
HETATM   16  C17 UNL     1      -8.045  12.070 -32.257  1.00  0.00     0.090 A 
ATOM     17  H3  UNL     1      -6.335  11.171 -31.564  1.00  0.00     0.164 HD
HETATM   18  C18 UNL     1      -9.408  11.962 -32.440  1.00  0.00     0.054 A 
ENDBRANCH  11  12
ENDBRANCH   8  11
ENDBRANCH   3   5
BRANCH   1  19
HETATM   19  C8  UNL     1     -14.887  11.614 -25.154  1.00  0.00     0.034 A 
HETATM   20  C7  UNL     1     -15.244  12.843 -24.624  1.00  0.00     0.017 A 
HETATM   21  C6  UNL     1     -15.971  12.979 -23.459  1.00  0.00     0.003 A 
HETATM   22  C5  UNL     1     -16.362  11.837 -22.785  1.00  0.00     0.030 A 
HETATM   23  C4  UNL     1     -16.025  10.603 -23.282  1.00  0.00     0.040 A 
HETATM   24  C21 UNL     1     -15.295  10.507 -24.456  1.00  0.00     0.047 A 
BRANCH  23  25
HETATM   25  N1  UNL     1     -16.431   9.415 -22.585  1.00  0.00    -0.317 N 
HETATM   26  C3  UNL     1     -17.205   9.359 -21.472  1.00  0.00     0.122 A 
HETATM   27  C2  UNL     1     -17.378   8.045 -21.095  1.00  0.00     0.022 A 
HETATM   28  C1  UNL     1     -18.176   7.607 -19.910  1.00  0.00     0.069 C 
HETATM   29  N4  UNL     1     -16.705   7.315 -21.989  1.00  0.00    -0.354 N 
HETATM   30  C22 UNL     1     -16.126   8.145 -22.901  1.00  0.00     0.188 A 
ATOM     31  H4  UNL     1     -16.636   6.298 -21.989  1.00  0.00     0.166 HD
ENDBRANCH  23  25
ENDBRANCH   1  19
TORSDOF 5
ENDMDL
