MODEL 8
REMARK VINA RESULT: -8.121622597      3.200     10.177
REMARK  5 active torsions:
REMARK  status: ('A' for Active; 'I' for Inactive)
REMARK    1  A    between atoms: N1_4  and  C4_5 
REMARK    2  A    between atoms: C8_9  and  C9_10 
REMARK       I    between atoms: C9_10  and  N2_12 
REMARK    3  A    between atoms: N2_12  and  C10_14 
REMARK    4  A    between atoms: C13_17  and  O2_18 
REMARK    5  A    between atoms: O2_18  and  C14_19 
ROOT
HETATM    1  C9  UNL     1     -11.834  10.931 -30.838  1.00  0.00     0.256 C 
HETATM    2  O1  UNL     1     -12.149  12.122 -31.062  1.00  0.00    -0.267 OA
HETATM    3  N2  UNL     1     -12.239  10.263 -29.688  1.00  0.00    -0.323 N 
ATOM      4  H2  UNL     1     -11.947   9.292 -29.572  1.00  0.00     0.169 HD
ENDROOT
BRANCH   3   5
HETATM    5  C10 UNL     1     -13.023  10.836 -28.677  1.00  0.00     0.035 A 
HETATM    6  C11 UNL     1     -12.336  11.571 -27.688  1.00  0.00     0.032 A 
HETATM    7  C12 UNL     1     -12.983  12.185 -26.654  1.00  0.00     0.039 A 
HETATM    8  C13 UNL     1     -14.364  12.096 -26.550  1.00  0.00     0.076 A 
HETATM    9  C19 UNL     1     -15.081  11.390 -27.490  1.00  0.00     0.039 A 
HETATM   10  C20 UNL     1     -14.380  10.777 -28.534  1.00  0.00     0.032 A 
BRANCH   8  11
HETATM   11  O2  UNL     1     -15.058  12.712 -25.505  1.00  0.00    -0.311 OA
BRANCH  11  12
HETATM   12  C14 UNL     1     -15.525  11.870 -24.502  1.00  0.00     0.078 A 
HETATM   13  C15 UNL     1     -15.062  10.574 -24.376  1.00  0.00     0.054 A 
HETATM   14  C16 UNL     1     -15.504   9.731 -23.403  1.00  0.00     0.090 A 
HETATM   15  N3  UNL     1     -16.424  10.165 -22.528  1.00  0.00    -0.375 N 
HETATM   16  C17 UNL     1     -16.909  11.418 -22.605  1.00  0.00     0.090 A 
ATOM     17  H3  UNL     1     -16.759   9.538 -21.797  1.00  0.00     0.164 HD
HETATM   18  C18 UNL     1     -16.474  12.287 -23.584  1.00  0.00     0.054 A 
ENDBRANCH  11  12
ENDBRANCH   8  11
ENDBRANCH   3   5
BRANCH   1  19
HETATM   19  C8  UNL     1     -11.001  10.316 -31.898  1.00  0.00     0.034 A 
HETATM   20  C7  UNL     1     -10.880  10.898 -33.150  1.00  0.00     0.017 A 
HETATM   21  C6  UNL     1     -10.113  10.357 -34.161  1.00  0.00     0.003 A 
HETATM   22  C5  UNL     1      -9.432   9.179 -33.919  1.00  0.00     0.030 A 
HETATM   23  C4  UNL     1      -9.530   8.575 -32.690  1.00  0.00     0.040 A 
HETATM   24  C21 UNL     1     -10.310   9.150 -31.698  1.00  0.00     0.047 A 
BRANCH  23  25
HETATM   25  N1  UNL     1      -8.823   7.352 -32.434  1.00  0.00    -0.317 N 
HETATM   26  C3  UNL     1      -9.267   6.305 -31.695  1.00  0.00     0.122 A 
HETATM   27  C2  UNL     1      -8.311   5.313 -31.678  1.00  0.00     0.022 A 
HETATM   28  C1  UNL     1      -8.460   4.011 -30.958  1.00  0.00     0.069 C 
HETATM   29  N4  UNL     1      -7.294   5.771 -32.412  1.00  0.00    -0.354 N 
HETATM   30  C22 UNL     1      -7.600   7.015 -32.877  1.00  0.00     0.188 A 
ATOM     31  H4  UNL     1      -6.425   5.270 -32.596  1.00  0.00     0.166 HD
ENDBRANCH  23  25
ENDBRANCH   1  19
TORSDOF 5
ENDMDL
