MODEL 2
REMARK VINA RESULT: -10.146457101      1.419      1.675
REMARK  5 active torsions:
REMARK  status: ('A' for Active; 'I' for Inactive)
REMARK    1  A    between atoms: N1_4  and  C4_5 
REMARK    2  A    between atoms: C8_9  and  C9_10 
REMARK       I    between atoms: C9_10  and  N2_12 
REMARK    3  A    between atoms: N2_12  and  C10_14 
REMARK    4  A    between atoms: C13_17  and  O2_18 
REMARK    5  A    between atoms: O2_18  and  C14_19 
ROOT
HETATM    1  C9  UNL     1     -14.329  11.669 -26.153  1.00  0.00     0.256 C 
HETATM    2  O1  UNL     1     -13.393  12.500 -26.177  1.00  0.00    -0.267 OA
HETATM    3  N2  UNL     1     -14.575  10.803 -27.212  1.00  0.00    -0.323 N 
ATOM      4  H2  UNL     1     -15.354  10.150 -27.123  1.00  0.00     0.169 HD
ENDROOT
BRANCH   3   5
HETATM    5  C10 UNL     1     -13.824  10.768 -28.394  1.00  0.00     0.035 A 
HETATM    6  C11 UNL     1     -13.899   9.581 -29.154  1.00  0.00     0.032 A 
HETATM    7  C12 UNL     1     -13.221   9.422 -30.329  1.00  0.00     0.039 A 
HETATM    8  C13 UNL     1     -12.424  10.450 -30.813  1.00  0.00     0.076 A 
HETATM    9  C19 UNL     1     -12.317  11.629 -30.110  1.00  0.00     0.039 A 
HETATM   10  C20 UNL     1     -13.028  11.751 -28.912  1.00  0.00     0.032 A 
BRANCH   8  11
HETATM   11  O2  UNL     1     -11.717  10.321 -32.012  1.00  0.00    -0.311 OA
BRANCH  11  12
HETATM   12  C14 UNL     1     -10.332  10.403 -31.917  1.00  0.00     0.078 A 
HETATM   13  C15 UNL     1      -9.643  11.505 -32.386  1.00  0.00     0.054 A 
HETATM   14  C16 UNL     1      -8.288  11.608 -32.305  1.00  0.00     0.090 A 
HETATM   15  N3  UNL     1      -7.586  10.608 -31.751  1.00  0.00    -0.375 N 
HETATM   16  C17 UNL     1      -8.208   9.511 -31.278  1.00  0.00     0.090 A 
ATOM     17  H3  UNL     1      -6.571  10.679 -31.687  1.00  0.00     0.164 HD
HETATM   18  C18 UNL     1      -9.580   9.388 -31.351  1.00  0.00     0.054 A 
ENDBRANCH  11  12
ENDBRANCH   8  11
ENDBRANCH   3   5
BRANCH   1  19
HETATM   19  C8  UNL     1     -15.133  11.700 -24.909  1.00  0.00     0.034 A 
HETATM   20  C7  UNL     1     -15.575  12.895 -24.364  1.00  0.00     0.017 A 
HETATM   21  C6  UNL     1     -16.327  12.964 -23.210  1.00  0.00     0.003 A 
HETATM   22  C5  UNL     1     -16.658  11.788 -22.563  1.00  0.00     0.030 A 
HETATM   23  C4  UNL     1     -16.237  10.586 -23.075  1.00  0.00     0.040 A 
HETATM   24  C21 UNL     1     -15.483  10.557 -24.238  1.00  0.00     0.047 A 
BRANCH  23  25
HETATM   25  N1  UNL     1     -16.580   9.362 -22.406  1.00  0.00    -0.317 N 
HETATM   26  C3  UNL     1     -17.296   9.245 -21.260  1.00  0.00     0.122 A 
HETATM   27  C2  UNL     1     -17.419   7.913 -20.927  1.00  0.00     0.022 A 
HETATM   28  C1  UNL     1     -18.146   7.410 -19.722  1.00  0.00     0.069 C 
HETATM   29  N4  UNL     1     -16.774   7.236 -21.880  1.00  0.00    -0.354 N 
HETATM   30  C22 UNL     1     -16.260   8.114 -22.786  1.00  0.00     0.188 A 
ATOM     31  H4  UNL     1     -16.680   6.221 -21.923  1.00  0.00     0.166 HD
ENDBRANCH  23  25
ENDBRANCH   1  19
TORSDOF 5
ENDMDL
