MODEL 10
REMARK VINA RESULT: -7.985340229      4.305      5.508
REMARK  5 active torsions:
REMARK  status: ('A' for Active; 'I' for Inactive)
REMARK    1  A    between atoms: N1_4  and  C4_5 
REMARK    2  A    between atoms: C8_9  and  C9_10 
REMARK       I    between atoms: C9_10  and  N2_12 
REMARK    3  A    between atoms: N2_12  and  C10_14 
REMARK    4  A    between atoms: C13_17  and  O2_18 
REMARK    5  A    between atoms: O2_18  and  C14_19 
ROOT
HETATM    1  C9  UNL     1     -13.011   6.074 -25.281  1.00  0.00     0.256 C 
HETATM    2  O1  UNL     1     -12.727   4.854 -25.282  1.00  0.00    -0.267 OA
HETATM    3  N2  UNL     1     -12.332   6.992 -26.075  1.00  0.00    -0.323 N 
ATOM      4  H2  UNL     1     -12.619   7.970 -26.025  1.00  0.00     0.169 HD
ENDROOT
BRANCH   3   5
HETATM    5  C10 UNL     1     -11.278   6.661 -26.938  1.00  0.00     0.035 A 
HETATM    6  C11 UNL     1     -11.599   6.541 -28.306  1.00  0.00     0.032 A 
HETATM    7  C12 UNL     1     -10.663   6.231 -29.251  1.00  0.00     0.039 A 
HETATM    8  C13 UNL     1      -9.343   6.022 -28.878  1.00  0.00     0.076 A 
HETATM    9  C19 UNL     1      -8.978   6.128 -27.554  1.00  0.00     0.039 A 
HETATM   10  C20 UNL     1      -9.967   6.448 -26.618  1.00  0.00     0.032 A 
BRANCH   8  11
HETATM   11  O2  UNL     1      -8.360   5.704 -29.818  1.00  0.00    -0.311 OA
BRANCH  11  12
HETATM   12  C14 UNL     1      -7.327   6.624 -29.957  1.00  0.00     0.078 A 
HETATM   13  C15 UNL     1      -7.567   7.919 -30.376  1.00  0.00     0.054 A 
HETATM   14  C16 UNL     1      -6.572   8.836 -30.520  1.00  0.00     0.090 A 
HETATM   15  N3  UNL     1      -5.307   8.481 -30.249  1.00  0.00    -0.375 N 
HETATM   16  C17 UNL     1      -5.017   7.232 -29.838  1.00  0.00     0.090 A 
ATOM     17  H3  UNL     1      -4.557   9.164 -30.355  1.00  0.00     0.164 HD
HETATM   18  C18 UNL     1      -6.011   6.288 -29.686  1.00  0.00     0.054 A 
ENDBRANCH  11  12
ENDBRANCH   8  11
ENDBRANCH   3   5
BRANCH   1  19
HETATM   19  C8  UNL     1     -14.120   6.435 -24.369  1.00  0.00     0.034 A 
HETATM   20  C7  UNL     1     -14.850   5.466 -23.699  1.00  0.00     0.017 A 
HETATM   21  C6  UNL     1     -15.888   5.763 -22.840  1.00  0.00     0.003 A 
HETATM   22  C5  UNL     1     -16.219   7.090 -22.635  1.00  0.00     0.030 A 
HETATM   23  C4  UNL     1     -15.516   8.076 -23.282  1.00  0.00     0.040 A 
HETATM   24  C21 UNL     1     -14.480   7.738 -24.137  1.00  0.00     0.047 A 
BRANCH  23  25
HETATM   25  N1  UNL     1     -15.857   9.454 -23.070  1.00  0.00    -0.317 N 
HETATM   26  C3  UNL     1     -15.454  10.508 -23.823  1.00  0.00     0.122 A 
HETATM   27  C2  UNL     1     -15.984  11.672 -23.310  1.00  0.00     0.022 A 
HETATM   28  C1  UNL     1     -15.749  13.031 -23.887  1.00  0.00     0.069 C 
HETATM   29  N4  UNL     1     -16.707  11.309 -22.247  1.00  0.00    -0.354 N 
HETATM   30  C22 UNL     1     -16.635   9.957 -22.096  1.00  0.00     0.188 A 
ATOM     31  H4  UNL     1     -17.231  11.943 -21.644  1.00  0.00     0.166 HD
ENDBRANCH  23  25
ENDBRANCH   1  19
TORSDOF 5
ENDMDL
