MODEL 13
REMARK VINA RESULT: -6.283014729      3.683      5.226
REMARK  5 active torsions:
REMARK  status: ('A' for Active; 'I' for Inactive)
REMARK    1  A    between atoms: O1_1  and  C1_3 
REMARK    2  A    between atoms: C1_3  and  C2_4 
REMARK    3  A    between atoms: C1_3  and  C5_12 
REMARK    4  A    between atoms: C2_4  and  N1_5 
REMARK    5  A    between atoms: C5_12  and  P1_13 
ROOT
HETATM    1  C1  UNL     1     -40.630 -20.793   8.991  1.00  0.00     0.150 C 
ENDROOT
BRANCH   1   2
HETATM    2  O1  UNL     1     -41.400 -19.987   9.861  1.00  0.00    -0.393 OA
ATOM      3  H1  UNL     1     -41.708 -19.234   9.369  1.00  0.00     0.210 HD
ENDBRANCH   1   2
BRANCH   1   4
HETATM    4  C2  UNL     1     -39.730 -21.627   9.816  1.00  0.00     0.182 C 
BRANCH   4   5
HETATM    5  N1  UNL     1     -40.323 -22.391  10.856  1.00  0.00    -0.284 N 
HETATM    6  C3  UNL     1     -40.437 -23.720  10.893  1.00  0.00     0.201 A 
HETATM    7  N2  UNL     1     -41.060 -24.092  12.038  1.00  0.00    -0.346 N 
HETATM    8  C4  UNL     1     -41.329 -22.961  12.709  1.00  0.00     0.198 A 
ATOM      9  H2  UNL     1     -41.280 -25.044  12.333  1.00  0.00     0.167 HD
HETATM   10  N3  UNL     1     -40.870 -21.937  11.968  1.00  0.00    -0.293 N 
ATOM     11  H3  UNL     1     -40.935 -20.953  12.227  1.00  0.00     0.188 HD
ENDBRANCH   4   5
ENDBRANCH   1   4
BRANCH   1  12
HETATM   12  C5  UNL     1     -41.465 -21.470   7.967  1.00  0.00     0.179 C 
BRANCH  12  13
HETATM   13  P1  UNL     1     -40.822 -21.967   6.458  1.00  0.00     0.262 P 
HETATM   14  O2  UNL     1     -39.207 -22.337   6.295  1.00  0.00    -0.639 OA
HETATM   15  O3  UNL     1     -41.797 -21.937   5.084  1.00  0.00    -0.639 OA
HETATM   16  O4  UNL     1     -41.132 -23.484   6.525  1.00  0.00    -0.639 OA
ENDBRANCH  12  13
ENDBRANCH   1  12
TORSDOF 5
ENDMDL
