MODEL 2
REMARK VINA RESULT: -7.184077086      1.021      1.595
REMARK  5 active torsions:
REMARK  status: ('A' for Active; 'I' for Inactive)
REMARK    1  A    between atoms: O1_1  and  C1_3 
REMARK    2  A    between atoms: C1_3  and  C2_4 
REMARK    3  A    between atoms: C1_3  and  C5_12 
REMARK    4  A    between atoms: C2_4  and  N1_5 
REMARK    5  A    between atoms: C5_12  and  P1_13 
ROOT
HETATM    1  C1  UNL     1     -41.391 -21.461   9.715  1.00  0.00     0.150 C 
ENDROOT
BRANCH   1   2
HETATM    2  O1  UNL     1     -41.437 -20.131  10.192  1.00  0.00    -0.393 OA
ATOM      3  H1  UNL     1     -41.062 -20.118  11.066  1.00  0.00     0.210 HD
ENDBRANCH   1   2
BRANCH   1   4
HETATM    4  C2  UNL     1     -41.235 -21.415   8.246  1.00  0.00     0.182 C 
BRANCH   4   5
HETATM    5  N1  UNL     1     -40.056 -20.810   7.735  1.00  0.00    -0.284 N 
HETATM    6  C3  UNL     1     -39.237 -21.325   6.817  1.00  0.00     0.201 A 
HETATM    7  N2  UNL     1     -38.217 -20.463   6.581  1.00  0.00    -0.346 N 
HETATM    8  C4  UNL     1     -38.425 -19.402   7.377  1.00  0.00     0.198 A 
ATOM      9  H2  UNL     1     -37.444 -20.595   5.928  1.00  0.00     0.167 HD
HETATM   10  N3  UNL     1     -39.553 -19.637   8.071  1.00  0.00    -0.293 N 
ATOM     11  H3  UNL     1     -39.959 -19.001   8.756  1.00  0.00     0.188 HD
ENDBRANCH   4   5
ENDBRANCH   1   4
BRANCH   1  12
HETATM   12  C5  UNL     1     -40.446 -22.303  10.492  1.00  0.00     0.179 C 
BRANCH  12  13
HETATM   13  P1  UNL     1     -40.991 -23.546  11.539  1.00  0.00     0.262 P 
HETATM   14  O2  UNL     1     -40.512 -25.124  11.317  1.00  0.00    -0.639 OA
HETATM   15  O3  UNL     1     -42.145 -23.199  12.717  1.00  0.00    -0.639 OA
HETATM   16  O4  UNL     1     -39.940 -23.418  12.671  1.00  0.00    -0.639 OA
ENDBRANCH  12  13
ENDBRANCH   1  12
TORSDOF 5
ENDMDL
