MODEL 4
REMARK VINA RESULT: -7.063874283      1.144      1.417
REMARK  5 active torsions:
REMARK  status: ('A' for Active; 'I' for Inactive)
REMARK    1  A    between atoms: O1_1  and  C1_3 
REMARK    2  A    between atoms: C1_3  and  C2_4 
REMARK    3  A    between atoms: C1_3  and  C5_12 
REMARK    4  A    between atoms: C2_4  and  N1_5 
REMARK    5  A    between atoms: C5_12  and  P1_13 
ROOT
HETATM    1  C1  UNL     1     -40.488 -22.598   9.672  1.00  0.00     0.150 C 
ENDROOT
BRANCH   1   2
HETATM    2  O1  UNL     1     -41.654 -21.852   9.382  1.00  0.00    -0.393 OA
ATOM      3  H1  UNL     1     -41.465 -21.284   8.643  1.00  0.00     0.210 HD
ENDBRANCH   1   2
BRANCH   1   4
HETATM    4  C2  UNL     1     -39.324 -21.696   9.539  1.00  0.00     0.182 C 
BRANCH   4   5
HETATM    5  N1  UNL     1     -39.266 -20.874   8.383  1.00  0.00    -0.284 N 
HETATM    6  C3  UNL     1     -39.409 -21.277   7.119  1.00  0.00     0.201 A 
HETATM    7  N2  UNL     1     -39.290 -20.215   6.286  1.00  0.00    -0.346 N 
HETATM    8  C4  UNL     1     -39.069 -19.144   7.065  1.00  0.00     0.198 A 
ATOM      9  H2  UNL     1     -39.356 -20.226   5.267  1.00  0.00     0.167 HD
HETATM   10  N3  UNL     1     -39.058 -19.572   8.339  1.00  0.00    -0.293 N 
ATOM     11  H3  UNL     1     -38.912 -18.976   9.154  1.00  0.00     0.188 HD
ENDBRANCH   4   5
ENDBRANCH   1   4
BRANCH   1  12
HETATM   12  C5  UNL     1     -40.623 -23.386  10.923  1.00  0.00     0.179 C 
BRANCH  12  13
HETATM   13  P1  UNL     1     -41.252 -22.700  12.362  1.00  0.00     0.262 P 
HETATM   14  O2  UNL     1     -41.732 -21.107  12.413  1.00  0.00    -0.639 OA
HETATM   15  O3  UNL     1     -41.246 -23.598  13.787  1.00  0.00    -0.639 OA
HETATM   16  O4  UNL     1     -42.739 -23.112  12.224  1.00  0.00    -0.639 OA
ENDBRANCH  12  13
ENDBRANCH   1  12
TORSDOF 5
ENDMDL
