MODEL 12
REMARK VINA RESULT: -6.307581473      4.021      5.690
REMARK  5 active torsions:
REMARK  status: ('A' for Active; 'I' for Inactive)
REMARK    1  A    between atoms: O1_1  and  C1_3 
REMARK    2  A    between atoms: C1_3  and  C2_4 
REMARK    3  A    between atoms: C1_3  and  C5_12 
REMARK    4  A    between atoms: C2_4  and  N1_5 
REMARK    5  A    between atoms: C5_12  and  P1_13 
ROOT
HETATM    1  C1  UNL     1     -40.513 -21.258   9.134  1.00  0.00     0.150 C 
ENDROOT
BRANCH   1   2
HETATM    2  O1  UNL     1     -41.428 -20.875   8.126  1.00  0.00    -0.393 OA
ATOM      3  H1  UNL     1     -42.199 -21.426   8.204  1.00  0.00     0.210 HD
ENDBRANCH   1   2
BRANCH   1   4
HETATM    4  C2  UNL     1     -40.964 -22.550   9.695  1.00  0.00     0.182 C 
BRANCH   4   5
HETATM    5  N1  UNL     1     -41.074 -22.642  11.108  1.00  0.00    -0.284 N 
HETATM    6  C3  UNL     1     -41.435 -21.661  11.938  1.00  0.00     0.201 A 
HETATM    7  N2  UNL     1     -41.425 -22.118  13.214  1.00  0.00    -0.346 N 
HETATM    8  C4  UNL     1     -41.049 -23.406  13.154  1.00  0.00     0.198 A 
ATOM      9  H2  UNL     1     -41.658 -21.589  14.055  1.00  0.00     0.167 HD
HETATM   10  N3  UNL     1     -40.841 -23.702  11.859  1.00  0.00    -0.293 N 
ATOM     11  H3  UNL     1     -40.545 -24.613  11.508  1.00  0.00     0.188 HD
ENDBRANCH   4   5
ENDBRANCH   1   4
BRANCH   1  12
HETATM   12  C5  UNL     1     -39.103 -21.147   8.682  1.00  0.00     0.179 C 
BRANCH  12  13
HETATM   13  P1  UNL     1     -38.696 -20.923   7.033  1.00  0.00     0.262 P 
HETATM   14  O2  UNL     1     -37.356 -21.658   6.373  1.00  0.00    -0.639 OA
HETATM   15  O3  UNL     1     -39.570 -19.826   6.099  1.00  0.00    -0.639 OA
HETATM   16  O4  UNL     1     -39.578 -22.023   6.390  1.00  0.00    -0.639 OA
ENDBRANCH  12  13
ENDBRANCH   1  12
TORSDOF 5
ENDMDL
