MODEL 7
REMARK VINA RESULT: -7.027115163      1.715      2.484
REMARK  5 active torsions:
REMARK  status: ('A' for Active; 'I' for Inactive)
REMARK    1  A    between atoms: O1_1  and  C1_3 
REMARK    2  A    between atoms: C1_3  and  C2_4 
REMARK    3  A    between atoms: C1_3  and  C5_12 
REMARK    4  A    between atoms: C2_4  and  N1_5 
REMARK    5  A    between atoms: C5_12  and  P1_13 
ROOT
HETATM    1  C1  UNL     1     -41.735 -21.577  10.510  1.00  0.00     0.150 C 
ENDROOT
BRANCH   1   2
HETATM    2  O1  UNL     1     -41.440 -21.185  11.837  1.00  0.00    -0.393 OA
ATOM      3  H1  UNL     1     -42.244 -20.876  12.238  1.00  0.00     0.210 HD
ENDBRANCH   1   2
BRANCH   1   4
HETATM    4  C2  UNL     1     -41.042 -20.648   9.593  1.00  0.00     0.182 C 
BRANCH   4   5
HETATM    5  N1  UNL     1     -40.785 -21.106   8.274  1.00  0.00    -0.284 N 
HETATM    6  C3  UNL     1     -39.595 -21.149   7.670  1.00  0.00     0.201 A 
HETATM    7  N2  UNL     1     -39.739 -21.643   6.416  1.00  0.00    -0.346 N 
HETATM    8  C4  UNL     1     -41.047 -21.905   6.258  1.00  0.00     0.198 A 
ATOM      9  H2  UNL     1     -39.000 -21.788   5.728  1.00  0.00     0.167 HD
HETATM   10  N3  UNL     1     -41.663 -21.569   7.405  1.00  0.00    -0.293 N 
ATOM     11  H3  UNL     1     -42.664 -21.659   7.578  1.00  0.00     0.188 HD
ENDBRANCH   4   5
ENDBRANCH   1   4
BRANCH   1  12
HETATM   12  C5  UNL     1     -41.548 -23.035  10.301  1.00  0.00     0.179 C 
BRANCH  12  13
HETATM   13  P1  UNL     1     -40.418 -23.943  11.216  1.00  0.00     0.262 P 
HETATM   14  O2  UNL     1     -39.742 -25.335  10.605  1.00  0.00    -0.639 OA
HETATM   15  O3  UNL     1     -40.098 -23.511  12.813  1.00  0.00    -0.639 OA
HETATM   16  O4  UNL     1     -39.115 -23.187  10.853  1.00  0.00    -0.639 OA
ENDBRANCH  12  13
ENDBRANCH   1  12
TORSDOF 5
ENDMDL
