MODEL 1
REMARK VINA RESULT: -7.388772529      0.000      0.000
REMARK  5 active torsions:
REMARK  status: ('A' for Active; 'I' for Inactive)
REMARK    1  A    between atoms: O1_1  and  C1_3 
REMARK    2  A    between atoms: C1_3  and  C2_4 
REMARK    3  A    between atoms: C1_3  and  C5_12 
REMARK    4  A    between atoms: C2_4  and  N1_5 
REMARK    5  A    between atoms: C5_12  and  P1_13 
ROOT
HETATM    1  C1  UNL     1     -41.214 -21.304  10.208  1.00  0.00     0.150 C 
ENDROOT
BRANCH   1   2
HETATM    2  O1  UNL     1     -41.502 -19.960   9.877  1.00  0.00    -0.393 OA
ATOM      3  H1  UNL     1     -41.204 -19.410  10.592  1.00  0.00     0.210 HD
ENDBRANCH   1   2
BRANCH   1   4
HETATM    4  C2  UNL     1     -40.065 -21.742   9.387  1.00  0.00     0.182 C 
BRANCH   4   5
HETATM    5  N1  UNL     1     -39.685 -20.907   8.303  1.00  0.00    -0.284 N 
HETATM    6  C3  UNL     1     -39.827 -21.184   7.005  1.00  0.00     0.201 A 
HETATM    7  N2  UNL     1     -39.350 -20.153   6.265  1.00  0.00    -0.346 N 
HETATM    8  C4  UNL     1     -38.907 -19.232   7.137  1.00  0.00     0.198 A 
ATOM      9  H2  UNL     1     -39.330 -20.090   5.247  1.00  0.00     0.167 HD
HETATM   10  N3  UNL     1     -39.123 -19.715   8.373  1.00  0.00    -0.293 N 
ATOM     11  H3  UNL     1     -38.886 -19.231   9.238  1.00  0.00     0.188 HD
ENDBRANCH   4   5
ENDBRANCH   1   4
BRANCH   1  12
HETATM   12  C5  UNL     1     -41.145 -21.517  11.676  1.00  0.00     0.179 C 
BRANCH  12  13
HETATM   13  P1  UNL     1     -41.220 -23.083  12.369  1.00  0.00     0.262 P 
HETATM   14  O2  UNL     1     -41.187 -23.293  14.019  1.00  0.00    -0.639 OA
HETATM   15  O3  UNL     1     -41.172 -24.440  11.371  1.00  0.00    -0.639 OA
HETATM   16  O4  UNL     1     -42.756 -23.284  12.404  1.00  0.00    -0.639 OA
ENDBRANCH  12  13
ENDBRANCH   1  12
TORSDOF 5
ENDMDL
