MODEL 5
REMARK VINA RESULT: -6.843549593      1.247      1.386
REMARK  5 active torsions:
REMARK  status: ('A' for Active; 'I' for Inactive)
REMARK    1  A    between atoms: O1_1  and  C1_3 
REMARK    2  A    between atoms: C1_3  and  C2_4 
REMARK    3  A    between atoms: C1_3  and  C5_12 
REMARK    4  A    between atoms: C2_4  and  N1_5 
REMARK    5  A    between atoms: C5_12  and  P1_13 
ROOT
HETATM    1  C1  UNL     1     -40.553 -21.934  10.172  1.00  0.00     0.150 C 
ENDROOT
BRANCH   1   2
HETATM    2  O1  UNL     1     -39.159 -21.785  10.045  1.00  0.00    -0.393 OA
ATOM      3  H1  UNL     1     -38.791 -22.089  10.867  1.00  0.00     0.210 HD
ENDBRANCH   1   2
BRANCH   1   4
HETATM    4  C2  UNL     1     -41.157 -20.936   9.223  1.00  0.00     0.182 C 
BRANCH   4   5
HETATM    5  N1  UNL     1     -40.147 -20.658   8.221  1.00  0.00    -0.284 N 
HETATM    6  C3  UNL     1     -39.950 -21.381   7.103  1.00  0.00     0.201 A 
HETATM    7  N2  UNL     1     -38.928 -20.834   6.401  1.00  0.00    -0.346 N 
HETATM    8  C4  UNL     1     -38.496 -19.772   7.092  1.00  0.00     0.198 A 
ATOM      9  H2  UNL     1     -38.556 -21.169   5.511  1.00  0.00     0.167 HD
HETATM   10  N3  UNL     1     -39.251 -19.685   8.194  1.00  0.00    -0.293 N 
ATOM     11  H3  UNL     1     -39.150 -18.969   8.914  1.00  0.00     0.188 HD
ENDBRANCH   4   5
ENDBRANCH   1   4
BRANCH   1  12
HETATM   12  C5  UNL     1     -40.959 -21.678  11.630  1.00  0.00     0.179 C 
BRANCH  12  13
HETATM   13  P1  UNL     1     -41.052 -23.212  12.398  1.00  0.00     0.262 P 
HETATM   14  O2  UNL     1     -41.185 -23.313  14.071  1.00  0.00    -0.639 OA
HETATM   15  O3  UNL     1     -40.810 -24.621  11.536  1.00  0.00    -0.639 OA
HETATM   16  O4  UNL     1     -42.571 -23.445  12.310  1.00  0.00    -0.639 OA
ENDBRANCH  12  13
ENDBRANCH   1  12
TORSDOF 5
ENDMDL
