MODEL 14
REMARK VINA RESULT: -6.097870596      3.879      5.284
REMARK  5 active torsions:
REMARK  status: ('A' for Active; 'I' for Inactive)
REMARK    1  A    between atoms: O1_1  and  C1_3 
REMARK    2  A    between atoms: C1_3  and  C2_4 
REMARK    3  A    between atoms: C1_3  and  C5_12 
REMARK    4  A    between atoms: C2_4  and  N1_5 
REMARK    5  A    between atoms: C5_12  and  P1_13 
ROOT
HETATM    1  C1  UNL     1     -40.870 -21.452   9.131  1.00  0.00     0.150 C 
ENDROOT
BRANCH   1   2
HETATM    2  O1  UNL     1     -41.663 -20.849   8.136  1.00  0.00    -0.393 OA
ATOM      3  H1  UNL     1     -41.308 -19.976   8.018  1.00  0.00     0.210 HD
ENDBRANCH   1   2
BRANCH   1   4
HETATM    4  C2  UNL     1     -41.334 -20.865  10.434  1.00  0.00     0.182 C 
BRANCH   4   5
HETATM    5  N1  UNL     1     -41.242 -21.925  11.419  1.00  0.00    -0.284 N 
HETATM    6  C3  UNL     1     -41.220 -23.240  11.136  1.00  0.00     0.201 A 
HETATM    7  N2  UNL     1     -41.127 -23.936  12.296  1.00  0.00    -0.346 N 
HETATM    8  C4  UNL     1     -41.091 -23.044  13.293  1.00  0.00     0.198 A 
ATOM      9  H2  UNL     1     -41.090 -24.952  12.391  1.00  0.00     0.167 HD
HETATM   10  N3  UNL     1     -41.162 -21.828  12.735  1.00  0.00    -0.293 N 
ATOM     11  H3  UNL     1     -41.156 -20.949  13.254  1.00  0.00     0.188 HD
ENDBRANCH   4   5
ENDBRANCH   1   4
BRANCH   1  12
HETATM   12  C5  UNL     1     -39.391 -21.154   8.847  1.00  0.00     0.179 C 
BRANCH  12  13
HETATM   13  P1  UNL     1     -39.241 -20.949   7.147  1.00  0.00     0.262 P 
HETATM   14  O2  UNL     1     -38.278 -19.717   6.527  1.00  0.00    -0.639 OA
HETATM   15  O3  UNL     1     -40.193 -21.820   6.090  1.00  0.00    -0.639 OA
HETATM   16  O4  UNL     1     -38.084 -21.926   6.877  1.00  0.00    -0.639 OA
ENDBRANCH  12  13
ENDBRANCH   1  12
TORSDOF 5
ENDMDL
