MODEL 13
REMARK VINA RESULT: -6.283503579      3.593      5.140
REMARK  5 active torsions:
REMARK  status: ('A' for Active; 'I' for Inactive)
REMARK    1  A    between atoms: O1_1  and  C1_3 
REMARK    2  A    between atoms: C1_3  and  C2_4 
REMARK    3  A    between atoms: C1_3  and  C5_12 
REMARK    4  A    between atoms: C2_4  and  N1_5 
REMARK    5  A    between atoms: C5_12  and  P1_13 
ROOT
HETATM    1  C1  UNL     1     -40.811 -20.958   8.623  1.00  0.00     0.150 C 
ENDROOT
BRANCH   1   2
HETATM    2  O1  UNL     1     -41.311 -20.120   9.637  1.00  0.00    -0.393 OA
ATOM      3  H1  UNL     1     -40.776 -19.335   9.609  1.00  0.00     0.210 HD
ENDBRANCH   1   2
BRANCH   1   4
HETATM    4  C2  UNL     1     -41.460 -22.296   8.844  1.00  0.00     0.182 C 
BRANCH   4   5
HETATM    5  N1  UNL     1     -41.318 -22.594  10.256  1.00  0.00    -0.284 N 
HETATM    6  C3  UNL     1     -40.310 -23.304  10.796  1.00  0.00     0.201 A 
HETATM    7  N2  UNL     1     -40.499 -23.384  12.136  1.00  0.00    -0.346 N 
HETATM    8  C4  UNL     1     -41.627 -22.721  12.418  1.00  0.00     0.198 A 
ATOM      9  H2  UNL     1     -39.894 -23.861  12.805  1.00  0.00     0.167 HD
HETATM   10  N3  UNL     1     -42.107 -22.250  11.259  1.00  0.00    -0.293 N 
ATOM     11  H3  UNL     1     -42.962 -21.702  11.164  1.00  0.00     0.188 HD
ENDBRANCH   4   5
ENDBRANCH   1   4
BRANCH   1  12
HETATM   12  C5  UNL     1     -39.281 -21.025   8.729  1.00  0.00     0.179 C 
BRANCH  12  13
HETATM   13  P1  UNL     1     -38.652 -20.307   7.299  1.00  0.00     0.262 P 
HETATM   14  O2  UNL     1     -37.658 -21.197   6.275  1.00  0.00    -0.639 OA
HETATM   15  O3  UNL     1     -38.839 -18.676   7.003  1.00  0.00    -0.639 OA
HETATM   16  O4  UNL     1     -39.819 -20.595   6.339  1.00  0.00    -0.639 OA
ENDBRANCH  12  13
ENDBRANCH   1  12
TORSDOF 5
ENDMDL
