MODEL 8
REMARK VINA RESULT: -6.735608461      1.213      1.792
REMARK  5 active torsions:
REMARK  status: ('A' for Active; 'I' for Inactive)
REMARK    1  A    between atoms: O1_1  and  C1_3 
REMARK    2  A    between atoms: C1_3  and  C2_4 
REMARK    3  A    between atoms: C1_3  and  C5_12 
REMARK    4  A    between atoms: C2_4  and  N1_5 
REMARK    5  A    between atoms: C5_12  and  P1_13 
ROOT
HETATM    1  C1  UNL     1     -41.312 -21.271  10.871  1.00  0.00     0.150 C 
ENDROOT
BRANCH   1   2
HETATM    2  O1  UNL     1     -41.953 -20.585  11.920  1.00  0.00    -0.393 OA
ATOM      3  H1  UNL     1     -41.344 -20.603  12.650  1.00  0.00     0.210 HD
ENDBRANCH   1   2
BRANCH   1   4
HETATM    4  C2  UNL     1     -41.649 -20.508   9.621  1.00  0.00     0.182 C 
BRANCH   4   5
HETATM    5  N1  UNL     1     -40.613 -20.823   8.656  1.00  0.00    -0.284 N 
HETATM    6  C3  UNL     1     -40.831 -21.342   7.433  1.00  0.00     0.201 A 
HETATM    7  N2  UNL     1     -39.639 -21.504   6.807  1.00  0.00    -0.346 N 
HETATM    8  C4  UNL     1     -38.688 -21.084   7.650  1.00  0.00     0.198 A 
ATOM      9  H2  UNL     1     -39.495 -21.877   5.869  1.00  0.00     0.167 HD
HETATM   10  N3  UNL     1     -39.304 -20.674   8.767  1.00  0.00    -0.293 N 
ATOM     11  H3  UNL     1     -38.829 -20.300   9.588  1.00  0.00     0.188 HD
ENDBRANCH   4   5
ENDBRANCH   1   4
BRANCH   1  12
HETATM   12  C5  UNL     1     -41.818 -22.719  10.829  1.00  0.00     0.179 C 
BRANCH  12  13
HETATM   13  P1  UNL     1     -40.446 -23.732  11.051  1.00  0.00     0.262 P 
HETATM   14  O2  UNL     1     -38.899 -23.129  10.786  1.00  0.00    -0.639 OA
HETATM   15  O3  UNL     1     -40.622 -25.368  11.328  1.00  0.00    -0.639 OA
HETATM   16  O4  UNL     1     -40.220 -23.522  12.558  1.00  0.00    -0.639 OA
ENDBRANCH  12  13
ENDBRANCH   1  12
TORSDOF 5
ENDMDL
