MODEL 11
REMARK VINA RESULT: -6.386701676      3.649      5.253
REMARK  5 active torsions:
REMARK  status: ('A' for Active; 'I' for Inactive)
REMARK    1  A    between atoms: O1_1  and  C1_3 
REMARK    2  A    between atoms: C1_3  and  C2_4 
REMARK    3  A    between atoms: C1_3  and  C5_12 
REMARK    4  A    between atoms: C2_4  and  N1_5 
REMARK    5  A    between atoms: C5_12  and  P1_13 
ROOT
HETATM    1  C1  UNL     1     -41.029 -21.364   8.940  1.00  0.00     0.150 C 
ENDROOT
BRANCH   1   2
HETATM    2  O1  UNL     1     -41.223 -20.079   9.481  1.00  0.00    -0.393 OA
ATOM      3  H1  UNL     1     -41.521 -20.216  10.372  1.00  0.00     0.210 HD
ENDBRANCH   1   2
BRANCH   1   4
HETATM    4  C2  UNL     1     -39.864 -21.949   9.687  1.00  0.00     0.182 C 
BRANCH   4   5
HETATM    5  N1  UNL     1     -40.401 -22.522  10.905  1.00  0.00    -0.284 N 
HETATM    6  C3  UNL     1     -40.501 -23.840  11.159  1.00  0.00     0.201 A 
HETATM    7  N2  UNL     1     -41.047 -24.010  12.388  1.00  0.00    -0.346 N 
HETATM    8  C4  UNL     1     -41.283 -22.792  12.889  1.00  0.00     0.198 A 
ATOM      9  H2  UNL     1     -41.241 -24.901  12.846  1.00  0.00     0.167 HD
HETATM   10  N3  UNL     1     -40.882 -21.903  11.970  1.00  0.00    -0.293 N 
ATOM     11  H3  UNL     1     -40.941 -20.890  12.077  1.00  0.00     0.188 HD
ENDBRANCH   4   5
ENDBRANCH   1   4
BRANCH   1  12
HETATM   12  C5  UNL     1     -40.760 -21.244   7.434  1.00  0.00     0.179 C 
BRANCH  12  13
HETATM   13  P1  UNL     1     -39.237 -20.465   7.261  1.00  0.00     0.262 P 
HETATM   14  O2  UNL     1     -37.932 -21.300   6.606  1.00  0.00    -0.639 OA
HETATM   15  O3  UNL     1     -38.964 -18.956   7.918  1.00  0.00    -0.639 OA
HETATM   16  O4  UNL     1     -39.446 -19.807   5.886  1.00  0.00    -0.639 OA
ENDBRANCH  12  13
ENDBRANCH   1  12
TORSDOF 5
ENDMDL
