MODEL 1
REMARK VINA RESULT: -7.278190342      0.000      0.000
REMARK  5 active torsions:
REMARK  status: ('A' for Active; 'I' for Inactive)
REMARK    1  A    between atoms: O1_1  and  C1_3 
REMARK    2  A    between atoms: C1_3  and  C2_4 
REMARK    3  A    between atoms: C1_3  and  C5_12 
REMARK    4  A    between atoms: C2_4  and  N1_5 
REMARK    5  A    between atoms: C5_12  and  P1_13 
ROOT
HETATM    1  C1  UNL     1     -41.076 -21.372   9.950  1.00  0.00     0.150 C 
ENDROOT
BRANCH   1   2
HETATM    2  O1  UNL     1     -41.689 -20.106   9.998  1.00  0.00    -0.393 OA
ATOM      3  H1  UNL     1     -41.007 -19.499  10.264  1.00  0.00     0.210 HD
ENDBRANCH   1   2
BRANCH   1   4
HETATM    4  C2  UNL     1     -41.051 -21.757   8.497  1.00  0.00     0.182 C 
BRANCH   4   5
HETATM    5  N1  UNL     1     -39.992 -20.980   7.883  1.00  0.00    -0.284 N 
HETATM    6  C3  UNL     1     -39.217 -21.400   6.866  1.00  0.00     0.201 A 
HETATM    7  N2  UNL     1     -38.339 -20.417   6.549  1.00  0.00    -0.346 N 
HETATM    8  C4  UNL     1     -38.576 -19.391   7.376  1.00  0.00     0.198 A 
ATOM      9  H2  UNL     1     -37.629 -20.453   5.817  1.00  0.00     0.167 HD
HETATM   10  N3  UNL     1     -39.585 -19.757   8.178  1.00  0.00    -0.293 N 
ATOM     11  H3  UNL     1     -39.983 -19.172   8.913  1.00  0.00     0.188 HD
ENDBRANCH   4   5
ENDBRANCH   1   4
BRANCH   1  12
HETATM   12  C5  UNL     1     -41.883 -22.359  10.804  1.00  0.00     0.179 C 
BRANCH  12  13
HETATM   13  P1  UNL     1     -40.755 -23.208  11.785  1.00  0.00     0.262 P 
HETATM   14  O2  UNL     1     -41.180 -23.687  13.340  1.00  0.00    -0.639 OA
HETATM   15  O3  UNL     1     -39.168 -23.393  11.304  1.00  0.00    -0.639 OA
HETATM   16  O4  UNL     1     -41.044 -24.644  11.314  1.00  0.00    -0.639 OA
ENDBRANCH  12  13
ENDBRANCH   1  12
TORSDOF 5
ENDMDL
