MODEL 19
REMARK VINA RESULT: -7.003532067      2.764      7.160
REMARK  4 active torsions:
REMARK  status: ('A' for Active; 'I' for Inactive)
REMARK    1  A    between atoms: C3_4  and  C4_5 
REMARK    2  A    between atoms: C7_8  and  O2_9 
REMARK    3  A    between atoms: C8_11  and  O3_12 
REMARK    4  A    between atoms: C14_21  and  O5_22 
ROOT
HETATM    1  O1  UNL     1      -1.468  -2.871  25.594  1.00  0.00    -0.287 OA
HETATM    2  C1  UNL     1      -1.102  -1.779  26.050  1.00  0.00     0.190 A 
HETATM    3  C2  UNL     1      -0.951  -1.539  27.426  1.00  0.00     0.094 A 
HETATM    4  C3  UNL     1      -0.546  -0.319  27.878  1.00  0.00     0.090 A 
HETATM    5  O4  UNL     1      -0.298   0.629  27.022  1.00  0.00    -0.309 OA
HETATM    6  C10 UNL     1      -0.423   0.459  25.719  1.00  0.00     0.094 A 
HETATM    7  C11 UNL     1      -0.152   1.485  24.832  1.00  0.00     0.062 A 
HETATM    8  C12 UNL     1      -0.270   1.350  23.464  1.00  0.00     0.039 A 
HETATM    9 CL1  UNL     1       0.084   2.679  22.368  1.00  0.00    -0.084 Cl
HETATM   10  C13 UNL     1      -0.676   0.139  22.930  1.00  0.00     0.061 A 
HETATM   11  C14 UNL     1      -0.951  -0.894  23.801  1.00  0.00     0.084 A 
HETATM   12  C15 UNL     1      -0.827  -0.743  25.175  1.00  0.00     0.081 A 
ENDROOT
BRANCH   4  13
HETATM   13  C4  UNL     1      -0.389  -0.065  29.292  1.00  0.00     0.001 A 
HETATM   14  C5  UNL     1       0.474  -0.760  30.113  1.00  0.00     0.017 A 
HETATM   15  C6  UNL     1       0.574  -0.461  31.463  1.00  0.00     0.040 A 
HETATM   16  C7  UNL     1      -0.168   0.532  32.068  1.00  0.00     0.098 A 
HETATM   17  C8  UNL     1      -1.034   1.234  31.258  1.00  0.00     0.099 A 
HETATM   18  C9  UNL     1      -1.138   0.943  29.916  1.00  0.00     0.053 A 
BRANCH  16  19
HETATM   19  O2  UNL     1      -0.046   0.809  33.426  1.00  0.00    -0.358 OA
ATOM     20  H2  UNL     1      -0.079   1.698  33.757  1.00  0.00     0.217 HD
ENDBRANCH  16  19
BRANCH  17  21
HETATM   21  O3  UNL     1      -1.810   2.249  31.811  1.00  0.00    -0.358 OA
ATOM     22  H3  UNL     1      -1.452   3.128  31.866  1.00  0.00     0.217 HD
ENDBRANCH  17  21
ENDBRANCH   4  13
BRANCH  11  23
HETATM   23  O5  UNL     1      -1.367  -2.156  23.366  1.00  0.00    -0.360 OA
ATOM     24  H5  UNL     1      -0.892  -2.951  23.574  1.00  0.00     0.217 HD
ENDBRANCH  11  23
TORSDOF 4
ENDMDL
