MODEL 2
REMARK VINA RESULT: -8.123482214      2.061      3.056
REMARK  4 active torsions:
REMARK  status: ('A' for Active; 'I' for Inactive)
REMARK    1  A    between atoms: C3_4  and  C4_5 
REMARK    2  A    between atoms: C7_8  and  O2_9 
REMARK    3  A    between atoms: C8_11  and  O3_12 
REMARK    4  A    between atoms: C14_21  and  O5_22 
ROOT
HETATM    1  O1  UNL     1      -1.875   1.632  28.380  1.00  0.00    -0.287 OA
HETATM    2  C1  UNL     1      -1.051   0.943  27.762  1.00  0.00     0.190 A 
HETATM    3  C2  UNL     1      -1.000   0.889  26.360  1.00  0.00     0.094 A 
HETATM    4  C3  UNL     1      -0.073   0.116  25.727  1.00  0.00     0.090 A 
HETATM    5  O4  UNL     1       0.769  -0.579  26.435  1.00  0.00    -0.309 OA
HETATM    6  C10 UNL     1       0.767  -0.565  27.755  1.00  0.00     0.094 A 
HETATM    7  C11 UNL     1       1.676  -1.312  28.482  1.00  0.00     0.062 A 
HETATM    8  C12 UNL     1       1.708  -1.327  29.862  1.00  0.00     0.039 A 
HETATM    9 CL1  UNL     1       2.879  -2.292  30.751  1.00  0.00    -0.084 Cl
HETATM   10  C13 UNL     1       0.797  -0.566  30.574  1.00  0.00     0.061 A 
HETATM   11  C14 UNL     1      -0.116   0.185  29.863  1.00  0.00     0.084 A 
HETATM   12  C15 UNL     1      -0.135   0.190  28.476  1.00  0.00     0.081 A 
ENDROOT
BRANCH   4  13
HETATM   13  C4  UNL     1      -0.015   0.055  24.285  1.00  0.00     0.001 A 
HETATM   14  C5  UNL     1       0.526  -0.997  23.576  1.00  0.00     0.017 A 
HETATM   15  C6  UNL     1       0.547  -0.989  22.189  1.00  0.00     0.040 A 
HETATM   16  C7  UNL     1       0.039   0.050  21.437  1.00  0.00     0.098 A 
HETATM   17  C8  UNL     1      -0.505   1.106  22.135  1.00  0.00     0.099 A 
HETATM   18  C9  UNL     1      -0.530   1.105  23.511  1.00  0.00     0.053 A 
BRANCH  16  19
HETATM   19  O2  UNL     1       0.075   0.028  20.047  1.00  0.00    -0.358 OA
ATOM     20  H2  UNL     1       0.777  -0.402  19.574  1.00  0.00     0.217 HD
ENDBRANCH  16  19
BRANCH  17  21
HETATM   21  O3  UNL     1      -1.034   2.184  21.431  1.00  0.00    -0.358 OA
ATOM     22  H3  UNL     1      -1.004   3.051  21.819  1.00  0.00     0.217 HD
ENDBRANCH  17  21
ENDBRANCH   4  13
BRANCH  11  23
HETATM   23  O5  UNL     1      -1.076   0.988  30.485  1.00  0.00    -0.360 OA
ATOM     24  H5  UNL     1      -1.861   0.631  30.884  1.00  0.00     0.217 HD
ENDBRANCH  11  23
TORSDOF 4
ENDMDL
