MODEL 1
REMARK VINA RESULT: -8.127558557      0.000      0.000
REMARK  4 active torsions:
REMARK  status: ('A' for Active; 'I' for Inactive)
REMARK    1  A    between atoms: C3_4  and  C4_5 
REMARK    2  A    between atoms: C7_8  and  O2_9 
REMARK    3  A    between atoms: C8_11  and  O3_12 
REMARK    4  A    between atoms: C14_21  and  O5_22 
ROOT
HETATM    1  O1  UNL     1       1.811  -1.752  28.360  1.00  0.00    -0.287 OA
HETATM    2  C1  UNL     1       1.014  -1.029  27.746  1.00  0.00     0.190 A 
HETATM    3  C2  UNL     1       0.967  -0.964  26.343  1.00  0.00     0.094 A 
HETATM    4  C3  UNL     1       0.072  -0.152  25.715  1.00  0.00     0.090 A 
HETATM    5  O4  UNL     1      -0.745   0.570  26.426  1.00  0.00    -0.309 OA
HETATM    6  C10 UNL     1      -0.745   0.547  27.746  1.00  0.00     0.094 A 
HETATM    7  C11 UNL     1      -1.626   1.324  28.477  1.00  0.00     0.062 A 
HETATM    8  C12 UNL     1      -1.659   1.332  29.856  1.00  0.00     0.039 A 
HETATM    9 CL1  UNL     1      -2.794   2.335  30.750  1.00  0.00    -0.084 Cl
HETATM   10  C13 UNL     1      -0.780   0.532  30.564  1.00  0.00     0.061 A 
HETATM   11  C14 UNL     1       0.106  -0.249  29.850  1.00  0.00     0.084 A 
HETATM   12  C15 UNL     1       0.127  -0.246  28.463  1.00  0.00     0.081 A 
ENDROOT
BRANCH   4  13
HETATM   13  C4  UNL     1       0.019  -0.079  24.273  1.00  0.00     0.001 A 
HETATM   14  C5  UNL     1      -0.504   0.986  23.570  1.00  0.00     0.017 A 
HETATM   15  C6  UNL     1      -0.522   0.989  22.184  1.00  0.00     0.040 A 
HETATM   16  C7  UNL     1      -0.029  -0.053  21.425  1.00  0.00     0.098 A 
HETATM   17  C8  UNL     1       0.496  -1.123  22.116  1.00  0.00     0.099 A 
HETATM   18  C9  UNL     1       0.518  -1.132  23.492  1.00  0.00     0.053 A 
BRANCH  16  19
HETATM   19  O2  UNL     1      -0.061  -0.021  20.035  1.00  0.00    -0.358 OA
ATOM     20  H2  UNL     1       0.234  -0.757  19.513  1.00  0.00     0.217 HD
ENDBRANCH  16  19
BRANCH  17  21
HETATM   21  O3  UNL     1       1.010  -2.204  21.405  1.00  0.00    -0.358 OA
ATOM     22  H3  UNL     1       1.224  -3.005  21.871  1.00  0.00     0.217 HD
ENDBRANCH  17  21
ENDBRANCH   4  13
BRANCH  11  23
HETATM   23  O5  UNL     1       1.034  -1.092  30.468  1.00  0.00    -0.360 OA
ATOM     24  H5  UNL     1       1.019  -2.035  30.360  1.00  0.00     0.217 HD
ENDBRANCH  11  23
TORSDOF 4
ENDMDL
