MODEL 3
REMARK VINA RESULT: -8.063989280      0.650      1.480
REMARK  4 active torsions:
REMARK  status: ('A' for Active; 'I' for Inactive)
REMARK    1  A    between atoms: C3_4  and  C4_5 
REMARK    2  A    between atoms: C7_8  and  O2_9 
REMARK    3  A    between atoms: C8_11  and  O3_12 
REMARK    4  A    between atoms: C14_21  and  O5_22 
ROOT
HETATM    1  O1  UNL     1       1.850  -1.697  28.362  1.00  0.00    -0.287 OA
HETATM    2  C1  UNL     1       1.050  -1.001  27.722  1.00  0.00     0.190 A 
HETATM    3  C2  UNL     1       1.020  -0.967  26.317  1.00  0.00     0.094 A 
HETATM    4  C3  UNL     1       0.119  -0.185  25.660  1.00  0.00     0.090 A 
HETATM    5  O4  UNL     1      -0.720   0.536  26.344  1.00  0.00    -0.309 OA
HETATM    6  C10 UNL     1      -0.738   0.542  27.664  1.00  0.00     0.094 A 
HETATM    7  C11 UNL     1      -1.642   1.318  28.366  1.00  0.00     0.062 A 
HETATM    8  C12 UNL     1      -1.695   1.354  29.745  1.00  0.00     0.039 A 
HETATM    9 CL1  UNL     1      -2.860   2.354  30.602  1.00  0.00    -0.084 Cl
HETATM   10  C13 UNL     1      -0.811   0.585  30.482  1.00  0.00     0.061 A 
HETATM   11  C14 UNL     1       0.098  -0.194  29.796  1.00  0.00     0.084 A 
HETATM   12  C15 UNL     1       0.138  -0.220  28.410  1.00  0.00     0.081 A 
ENDROOT
BRANCH   4  13
HETATM   13  C4  UNL     1       0.085  -0.144  24.216  1.00  0.00     0.001 A 
HETATM   14  C5  UNL     1       0.546  -1.156  23.401  1.00  0.00     0.017 A 
HETATM   15  C6  UNL     1       0.480  -1.050  22.020  1.00  0.00     0.040 A 
HETATM   16  C7  UNL     1      -0.040   0.054  21.377  1.00  0.00     0.098 A 
HETATM   17  C8  UNL     1      -0.505   1.072  22.181  1.00  0.00     0.099 A 
HETATM   18  C9  UNL     1      -0.443   0.973  23.552  1.00  0.00     0.053 A 
BRANCH  16  19
HETATM   19  O2  UNL     1      -0.092   0.132  19.989  1.00  0.00    -0.358 OA
ATOM     20  H2  UNL     1      -0.910   0.035  19.516  1.00  0.00     0.217 HD
ENDBRANCH  16  19
BRANCH  17  21
HETATM   21  O3  UNL     1      -1.042   2.212  21.590  1.00  0.00    -0.358 OA
ATOM     22  H3  UNL     1      -0.526   3.010  21.568  1.00  0.00     0.217 HD
ENDBRANCH  17  21
ENDBRANCH   4  13
BRANCH  11  23
HETATM   23  O5  UNL     1       1.033  -1.006  30.445  1.00  0.00    -0.360 OA
ATOM     24  H5  UNL     1       1.807  -0.656  30.870  1.00  0.00     0.217 HD
ENDBRANCH  11  23
TORSDOF 4
ENDMDL
