MODEL 1
REMARK VINA RESULT: -9.599505607      0.000      0.000
REMARK  10 active torsions:
REMARK  status: ('A' for Active; 'I' for Inactive)
REMARK    1  A    between atoms: N5_13  and  C6_14 
REMARK    2  A    between atoms: C7_16  and  C8_17 
REMARK    3  A    between atoms: C8_17  and  O2_18 
REMARK    4  A    between atoms: O2_18  and  P1_19 
REMARK    5  A    between atoms: P1_19  and  O5_22 
REMARK    6  A    between atoms: O5_22  and  P2_23 
REMARK    7  A    between atoms: P2_23  and  O8_26 
REMARK    8  A    between atoms: O8_26  and  P3_27 
REMARK    9  A    between atoms: C9_31  and  O12_32 
REMARK   10  A    between atoms: C10_34  and  O13_35 
ROOT
HETATM    1  C6  UNL     1     365.167 239.118 189.506  1.00  0.00     0.159 C 
HETATM    2  O1  UNL     1     365.632 238.011 188.777  1.00  0.00    -0.326 OA
HETATM    3  C7  UNL     1     365.078 238.196 187.579  1.00  0.00     0.186 C 
HETATM    4  C9  UNL     1     364.365 239.549 187.457  1.00  0.00     0.186 C 
HETATM    5  C10 UNL     1     365.235 240.248 188.542  1.00  0.00     0.224 C 
ENDROOT
BRANCH   3   6
HETATM    6  C8  UNL     1     365.728 237.982 186.273  1.00  0.00     0.216 C 
BRANCH   6   7
HETATM    7  O2  UNL     1     366.600 236.868 186.367  1.00  0.00    -0.287 OA
BRANCH   7   8
HETATM    8  P1  UNL     1     365.898 235.794 185.184  1.00  0.00     0.417 P 
HETATM    9  O3  UNL     1     364.468 235.984 185.148  1.00  0.00    -0.624 OA
HETATM   10  O4  UNL     1     366.653 236.427 183.704  1.00  0.00    -0.624 OA
BRANCH   8  11
HETATM   11  O5  UNL     1     366.479 234.233 185.326  1.00  0.00    -0.180 OA
BRANCH  11  12
HETATM   12  P2  UNL     1     365.441 233.373 186.423  1.00  0.00     0.428 P 
HETATM   13  O6  UNL     1     366.309 232.352 187.095  1.00  0.00    -0.624 OA
HETATM   14  O7  UNL     1     364.124 232.694 185.667  1.00  0.00    -0.624 OA
BRANCH  12  15
HETATM   15  O8  UNL     1     364.946 234.515 187.599  1.00  0.00    -0.173 OA
BRANCH  15  16
HETATM   16  P3  UNL     1     364.086 233.735 188.808  1.00  0.00     0.431 P 
HETATM   17  O9  UNL     1     363.252 232.611 188.301  1.00  0.00    -0.616 OA
HETATM   18  O10 UNL     1     365.218 233.122 189.919  1.00  0.00    -0.616 OA
HETATM   19  O11 UNL     1     363.103 234.900 189.555  1.00  0.00    -0.616 OA
ENDBRANCH  15  16
ENDBRANCH  12  15
ENDBRANCH  11  12
ENDBRANCH   8  11
ENDBRANCH   7   8
ENDBRANCH   6   7
ENDBRANCH   3   6
BRANCH   4  20
HETATM   20  O12 UNL     1     363.084 239.404 187.883  1.00  0.00    -0.390 OA
ATOM     21  H12 UNL     1     363.089 238.912 188.695  1.00  0.00     0.210 HD
ENDBRANCH   4  20
BRANCH   1  22
HETATM   22  N5  UNL     1     365.571 239.262 190.817  1.00  0.00    -0.273 N 
HETATM   23  C3  UNL     1     364.816 239.676 191.847  1.00  0.00     0.146 A 
HETATM   24  N3  UNL     1     363.603 240.207 191.857  1.00  0.00    -0.336 N 
HETATM   25  C4  UNL     1     365.465 239.496 193.023  1.00  0.00     0.120 A 
HETATM   26  C2  UNL     1     363.039 240.553 193.027  1.00  0.00     0.183 A 
ATOM     27  H3  UNL     1     363.099 240.353 190.982  1.00  0.00     0.168 HD
HETATM   28  N2  UNL     1     363.662 240.371 194.205  1.00  0.00    -0.339 N 
HETATM   29  C1  UNL     1     364.884 239.840 194.217  1.00  0.00     0.148 A 
ATOM     30  H2  UNL     1     363.206 240.636 195.078  1.00  0.00     0.167 HD
HETATM   31  N1  UNL     1     365.472 239.520 195.461  1.00  0.00    -0.080 NA
HETATM   32  N4  UNL     1     366.665 238.970 192.706  1.00  0.00    -0.346 N 
HETATM   33  C5  UNL     1     366.724 238.835 191.368  1.00  0.00     0.192 A 
ATOM     34  H4  UNL     1     367.400 238.718 193.365  1.00  0.00     0.167 HD
ENDBRANCH   1  22
BRANCH   5  35
HETATM   35  O13 UNL     1     364.468 241.365 188.844  1.00  0.00    -0.385 OA
ATOM     36  H13 UNL     1     363.548 241.210 189.026  1.00  0.00     0.210 HD
ENDBRANCH   5  35
TORSDOF 10
ENDMDL
