MODEL 5
REMARK VINA RESULT: -8.754629110      5.143      8.275
REMARK  10 active torsions:
REMARK  status: ('A' for Active; 'I' for Inactive)
REMARK    1  A    between atoms: N5_13  and  C6_14 
REMARK    2  A    between atoms: C7_16  and  C8_17 
REMARK    3  A    between atoms: C8_17  and  O2_18 
REMARK    4  A    between atoms: O2_18  and  P1_19 
REMARK    5  A    between atoms: P1_19  and  O5_22 
REMARK    6  A    between atoms: O5_22  and  P2_23 
REMARK    7  A    between atoms: P2_23  and  O8_26 
REMARK    8  A    between atoms: O8_26  and  P3_27 
REMARK    9  A    between atoms: C9_31  and  O12_32 
REMARK   10  A    between atoms: C10_34  and  O13_35 
ROOT
HETATM    1  C6  UNL     1     365.638 237.873 189.715  1.00  0.00     0.159 C 
HETATM    2  O1  UNL     1     364.746 238.738 190.372  1.00  0.00    -0.326 OA
HETATM    3  C7  UNL     1     365.559 239.479 191.126  1.00  0.00     0.186 C 
HETATM    4  C9  UNL     1     367.043 239.216 190.835  1.00  0.00     0.186 C 
HETATM    5  C10 UNL     1     366.801 238.734 189.375  1.00  0.00     0.224 C 
ENDROOT
BRANCH   3   6
HETATM    6  C8  UNL     1     365.461 240.933 191.348  1.00  0.00     0.216 C 
BRANCH   6   7
HETATM    7  O2  UNL     1     366.202 241.276 192.506  1.00  0.00    -0.287 OA
BRANCH   7   8
HETATM    8  P1  UNL     1     365.363 242.715 193.026  1.00  0.00     0.417 P 
HETATM    9  O3  UNL     1     366.203 243.463 193.930  1.00  0.00    -0.624 OA
HETATM   10  O4  UNL     1     365.205 243.562 191.471  1.00  0.00    -0.624 OA
BRANCH   8  11
HETATM   11  O5  UNL     1     363.793 242.394 193.500  1.00  0.00    -0.180 OA
BRANCH  11  12
HETATM   12  P2  UNL     1     363.854 241.309 194.856  1.00  0.00     0.428 P 
HETATM   13  O6  UNL     1     362.590 241.544 195.627  1.00  0.00    -0.624 OA
HETATM   14  O7  UNL     1     365.217 241.514 195.786  1.00  0.00    -0.624 OA
BRANCH  12  15
HETATM   15  O8  UNL     1     363.797 239.729 194.200  1.00  0.00    -0.173 OA
BRANCH  15  16
HETATM   16  P3  UNL     1     364.657 238.682 195.188  1.00  0.00     0.431 P 
HETATM   17  O9  UNL     1     364.674 239.106 196.615  1.00  0.00    -0.616 OA
HETATM   18  O10 UNL     1     363.913 237.157 195.077  1.00  0.00    -0.616 OA
HETATM   19  O11 UNL     1     366.241 238.607 194.583  1.00  0.00    -0.616 OA
ENDBRANCH  15  16
ENDBRANCH  12  15
ENDBRANCH  11  12
ENDBRANCH   8  11
ENDBRANCH   7   8
ENDBRANCH   6   7
ENDBRANCH   3   6
BRANCH   4  20
HETATM   20  O12 UNL     1     367.462 238.190 191.620  1.00  0.00    -0.390 OA
ATOM     21  H12 UNL     1     368.057 237.647 191.116  1.00  0.00     0.210 HD
ENDBRANCH   4  20
BRANCH   1  22
HETATM   22  N5  UNL     1     365.129 236.958 188.817  1.00  0.00    -0.273 N 
HETATM   23  C3  UNL     1     365.281 236.975 187.483  1.00  0.00     0.146 A 
HETATM   24  N3  UNL     1     365.773 237.917 186.693  1.00  0.00    -0.336 N 
HETATM   25  C4  UNL     1     364.836 235.819 186.933  1.00  0.00     0.120 A 
HETATM   26  C2  UNL     1     365.824 237.710 185.366  1.00  0.00     0.183 A 
ATOM     27  H3  UNL     1     366.110 238.795 187.088  1.00  0.00     0.168 HD
HETATM   28  N2  UNL     1     365.399 236.564 184.802  1.00  0.00    -0.339 N 
HETATM   29  C1  UNL     1     364.899 235.605 185.580  1.00  0.00     0.148 A 
ATOM     30  H2  UNL     1     365.458 236.432 183.792  1.00  0.00     0.167 HD
HETATM   31  N1  UNL     1     364.589 234.355 185.000  1.00  0.00    -0.080 NA
HETATM   32  N4  UNL     1     364.380 235.074 187.959  1.00  0.00    -0.346 N 
HETATM   33  C5  UNL     1     364.556 235.772 189.097  1.00  0.00     0.192 A 
ATOM     34  H4  UNL     1     363.972 234.142 187.886  1.00  0.00     0.167 HD
ENDBRANCH   1  22
BRANCH   5  35
HETATM   35  O13 UNL     1     367.992 238.079 189.091  1.00  0.00    -0.385 OA
ATOM     36  H13 UNL     1     368.656 238.586 188.637  1.00  0.00     0.210 HD
ENDBRANCH   5  35
TORSDOF 10
ENDMDL
