MODEL 3
REMARK VINA RESULT: -8.870971707      1.940      3.680
REMARK  10 active torsions:
REMARK  status: ('A' for Active; 'I' for Inactive)
REMARK    1  A    between atoms: N5_13  and  C6_14 
REMARK    2  A    between atoms: C7_16  and  C8_17 
REMARK    3  A    between atoms: C8_17  and  O2_18 
REMARK    4  A    between atoms: O2_18  and  P1_19 
REMARK    5  A    between atoms: P1_19  and  O5_22 
REMARK    6  A    between atoms: O5_22  and  P2_23 
REMARK    7  A    between atoms: P2_23  and  O8_26 
REMARK    8  A    between atoms: O8_26  and  P3_27 
REMARK    9  A    between atoms: C9_31  and  O12_32 
REMARK   10  A    between atoms: C10_34  and  O13_35 
ROOT
HETATM    1  C6  UNL     1     365.643 239.476 192.363  1.00  0.00     0.159 C 
HETATM    2  O1  UNL     1     364.760 239.060 191.353  1.00  0.00    -0.326 OA
HETATM    3  C7  UNL     1     365.449 239.313 190.239  1.00  0.00     0.186 C 
HETATM    4  C9  UNL     1     366.893 239.748 190.521  1.00  0.00     0.186 C 
HETATM    5  C10 UNL     1     366.978 239.021 191.894  1.00  0.00     0.224 C 
ENDROOT
BRANCH   3   6
HETATM    6  C8  UNL     1     365.530 238.448 189.047  1.00  0.00     0.216 C 
BRANCH   6   7
HETATM    7  O2  UNL     1     365.189 237.122 189.413  1.00  0.00    -0.287 OA
BRANCH   7   8
HETATM    8  P1  UNL     1     364.783 236.441 187.858  1.00  0.00     0.417 P 
HETATM    9  O3  UNL     1     364.571 235.020 187.995  1.00  0.00    -0.624 OA
HETATM   10  O4  UNL     1     363.246 237.277 187.545  1.00  0.00    -0.624 OA
BRANCH   8  11
HETATM   11  O5  UNL     1     365.811 236.968 186.651  1.00  0.00    -0.180 OA
BRANCH  11  12
HETATM   12  P2  UNL     1     365.609 235.921 185.279  1.00  0.00     0.428 P 
HETATM   13  O6  UNL     1     366.345 236.576 184.149  1.00  0.00    -0.624 OA
HETATM   14  O7  UNL     1     364.012 235.630 184.919  1.00  0.00    -0.624 OA
BRANCH  12  15
HETATM   15  O8  UNL     1     366.419 234.465 185.674  1.00  0.00    -0.173 OA
BRANCH  15  16
HETATM   16  P3  UNL     1     365.805 233.213 184.743  1.00  0.00     0.431 P 
HETATM   17  O9  UNL     1     365.502 233.619 183.343  1.00  0.00    -0.616 OA
HETATM   18  O10 UNL     1     366.976 231.980 184.716  1.00  0.00    -0.616 OA
HETATM   19  O11 UNL     1     364.393 232.664 185.509  1.00  0.00    -0.616 OA
ENDBRANCH  15  16
ENDBRANCH  12  15
ENDBRANCH  11  12
ENDBRANCH   8  11
ENDBRANCH   7   8
ENDBRANCH   6   7
ENDBRANCH   3   6
BRANCH   4  20
HETATM   20  O12 UNL     1     366.914 241.096 190.685  1.00  0.00    -0.390 OA
ATOM     21  H12 UNL     1     367.024 241.287 191.609  1.00  0.00     0.210 HD
ENDBRANCH   4  20
BRANCH   1  22
HETATM   22  N5  UNL     1     365.253 239.336 193.679  1.00  0.00    -0.273 N 
HETATM   23  C3  UNL     1     364.038 239.599 194.186  1.00  0.00     0.146 A 
HETATM   24  N3  UNL     1     362.996 240.205 193.637  1.00  0.00    -0.336 N 
HETATM   25  C4  UNL     1     363.942 239.150 195.462  1.00  0.00     0.120 A 
HETATM   26  C2  UNL     1     361.867 240.360 194.349  1.00  0.00     0.183 A 
ATOM     27  H3  UNL     1     363.051 240.552 192.679  1.00  0.00     0.168 HD
HETATM   28  N2  UNL     1     361.748 239.911 195.612  1.00  0.00    -0.339 N 
HETATM   29  C1  UNL     1     362.786 239.301 196.183  1.00  0.00     0.148 A 
ATOM     30  H2  UNL     1     360.876 240.036 196.125  1.00  0.00     0.167 HD
HETATM   31  N1  UNL     1     362.607 238.707 197.452  1.00  0.00    -0.080 NA
HETATM   32  N4  UNL     1     365.141 238.609 195.754  1.00  0.00    -0.346 N 
HETATM   33  C5  UNL     1     365.932 238.729 194.671  1.00  0.00     0.192 A 
ATOM     34  H4  UNL     1     365.404 238.183 196.642  1.00  0.00     0.167 HD
ENDBRANCH   1  22
BRANCH   5  35
HETATM   35  O13 UNL     1     368.080 239.637 192.473  1.00  0.00    -0.385 OA
ATOM     36  H13 UNL     1     368.189 240.563 192.294  1.00  0.00     0.210 HD
ENDBRANCH   5  35
TORSDOF 10
ENDMDL
