MODEL 2
REMARK VINA RESULT: -7.026283324      5.176      7.359
REMARK  3 active torsions:
REMARK  status: ('A' for Active; 'I' for Inactive)
REMARK    1  A    between atoms: C3_4  and  C4_5 
REMARK       I    between atoms: C4_5  and  N2_7 
REMARK    2  A    between atoms: N2_7  and  C5_9 
REMARK    3  A    between atoms: C9_13  and  C10_14 
ROOT
HETATM    1  C4  UNL     1     -13.372  -9.434  26.872  1.00  0.00     0.257 C 
HETATM    2  O1  UNL     1     -13.887  -8.298  26.845  1.00  0.00    -0.267 OA
HETATM    3  N2  UNL     1     -12.404  -9.754  25.913  1.00  0.00    -0.323 N 
ATOM      4  H2  UNL     1     -12.010 -10.693  25.974  1.00  0.00     0.169 HD
ENDROOT
BRANCH   3   5
HETATM    5  C5  UNL     1     -11.902  -8.941  24.867  1.00  0.00     0.036 A 
HETATM    6  C6  UNL     1     -12.295  -9.003  23.559  1.00  0.00     0.029 A 
HETATM    7  C7  UNL     1     -11.760  -8.169  22.598  1.00  0.00     0.003 A 
HETATM    8  C8  UNL     1     -10.806  -7.233  22.901  1.00  0.00     0.018 A 
HETATM    9  C9  UNL     1     -10.401  -7.157  24.211  1.00  0.00     0.043 A 
HETATM   10  C11 UNL     1     -10.920  -7.974  25.172  1.00  0.00     0.048 A 
BRANCH   9  11
HETATM   11  C10 UNL     1      -9.388  -6.183  24.601  1.00  0.00     0.209 C 
HETATM   12  O2  UNL     1      -8.936  -6.235  25.768  1.00  0.00    -0.644 OA
HETATM   13  O3  UNL     1      -8.911  -5.211  23.737  1.00  0.00    -0.644 OA
ENDBRANCH   9  11
ENDBRANCH   3   5
BRANCH   1  14
HETATM   14  C3  UNL     1     -13.823 -10.373  27.921  1.00  0.00     0.048 A 
HETATM   15  C2  UNL     1     -13.018 -10.847  28.909  1.00  0.00     0.110 A 
HETATM   16  N1  UNL     1     -13.500 -11.710  29.848  1.00  0.00    -0.328 N 
HETATM   17  C1  UNL     1     -12.634 -12.208  30.895  1.00  0.00     0.159 C 
HETATM   18  C14 UNL     1     -14.786 -12.099  29.799  1.00  0.00     0.246 A 
HETATM   19  C13 UNL     1     -15.622 -11.635  28.811  1.00  0.00     0.075 A 
HETATM   20  O4  UNL     1     -15.288 -12.900  30.645  1.00  0.00    -0.268 OA
HETATM   21  C12 UNL     1     -15.136 -10.775  27.878  1.00  0.00     0.024 A 
ENDBRANCH   1  14
TORSDOF 3
ENDMDL
