MODEL 1
REMARK VINA RESULT: -7.031107910      0.000      0.000
REMARK  3 active torsions:
REMARK  status: ('A' for Active; 'I' for Inactive)
REMARK    1  A    between atoms: C3_4  and  C4_5 
REMARK       I    between atoms: C4_5  and  N2_7 
REMARK    2  A    between atoms: N2_7  and  C5_9 
REMARK    3  A    between atoms: C9_13  and  C10_14 
ROOT
HETATM    1  C4  UNL     1     -16.173  -8.180  22.662  1.00  0.00     0.257 C 
HETATM    2  O1  UNL     1     -16.057  -7.095  23.269  1.00  0.00    -0.267 OA
HETATM    3  N2  UNL     1     -15.342  -9.245  23.028  1.00  0.00    -0.323 N 
ATOM      4  H2  UNL     1     -15.474 -10.111  22.506  1.00  0.00     0.169 HD
ENDROOT
BRANCH   3   5
HETATM    5  C5  UNL     1     -14.341  -9.274  24.031  1.00  0.00     0.036 A 
HETATM    6  C6  UNL     1     -14.455  -9.894  25.244  1.00  0.00     0.029 A 
HETATM    7  C7  UNL     1     -13.428  -9.882  26.166  1.00  0.00     0.003 A 
HETATM    8  C8  UNL     1     -12.239  -9.249  25.919  1.00  0.00     0.018 A 
HETATM    9  C9  UNL     1     -12.108  -8.621  24.704  1.00  0.00     0.043 A 
HETATM   10  C11 UNL     1     -13.113  -8.624  23.782  1.00  0.00     0.048 A 
BRANCH   9  11
HETATM   11  C10 UNL     1     -10.867  -7.927  24.376  1.00  0.00     0.209 C 
HETATM   12  O2  UNL     1     -10.596  -7.740  23.168  1.00  0.00    -0.644 OA
HETATM   13  O3  UNL     1      -9.987  -7.470  25.343  1.00  0.00    -0.644 OA
ENDBRANCH   9  11
ENDBRANCH   3   5
BRANCH   1  14
HETATM   14  C3  UNL     1     -17.187  -8.267  21.590  1.00  0.00     0.048 A 
HETATM   15  C2  UNL     1     -17.896  -9.392  21.309  1.00  0.00     0.110 A 
HETATM   16  N1  UNL     1     -18.820  -9.402  20.305  1.00  0.00    -0.328 N 
HETATM   17  C1  UNL     1     -19.568 -10.606  20.015  1.00  0.00     0.159 C 
HETATM   18  C14 UNL     1     -19.034  -8.288  19.585  1.00  0.00     0.246 A 
HETATM   19  C13 UNL     1     -18.331  -7.136  19.849  1.00  0.00     0.075 A 
HETATM   20  O4  UNL     1     -19.880  -8.239  18.641  1.00  0.00    -0.268 OA
HETATM   21  C12 UNL     1     -17.412  -7.131  20.849  1.00  0.00     0.024 A 
ENDBRANCH   1  14
TORSDOF 3
ENDMDL
