MODEL 12
REMARK VINA RESULT: -6.465906233      2.126      7.585
REMARK  3 active torsions:
REMARK  status: ('A' for Active; 'I' for Inactive)
REMARK    1  A    between atoms: C3_4  and  C4_5 
REMARK       I    between atoms: C4_5  and  N2_7 
REMARK    2  A    between atoms: N2_7  and  C5_9 
REMARK    3  A    between atoms: C9_13  and  C10_14 
ROOT
HETATM    1  C4  UNL     1     -14.888  -9.364  23.987  1.00  0.00     0.257 C 
HETATM    2  O1  UNL     1     -15.288 -10.462  24.426  1.00  0.00    -0.267 OA
HETATM    3  N2  UNL     1     -15.703  -8.665  23.089  1.00  0.00    -0.323 N 
ATOM      4  H2  UNL     1     -15.336  -7.772  22.758  1.00  0.00     0.169 HD
ENDROOT
BRANCH   3   5
HETATM    5  C5  UNL     1     -16.972  -9.037  22.581  1.00  0.00     0.036 A 
HETATM    6  C6  UNL     1     -18.170  -8.519  22.989  1.00  0.00     0.029 A 
HETATM    7  C7  UNL     1     -19.366  -8.931  22.438  1.00  0.00     0.003 A 
HETATM    8  C8  UNL     1     -19.421  -9.881  21.453  1.00  0.00     0.018 A 
HETATM    9  C9  UNL     1     -18.226 -10.412  21.032  1.00  0.00     0.043 A 
HETATM   10  C11 UNL     1     -17.036 -10.015  21.565  1.00  0.00     0.048 A 
BRANCH   9  11
HETATM   11  C10 UNL     1     -18.213 -11.429  19.986  1.00  0.00     0.209 C 
HETATM   12  O2  UNL     1     -17.397 -12.373  20.090  1.00  0.00    -0.644 OA
HETATM   13  O3  UNL     1     -19.063 -11.390  18.893  1.00  0.00    -0.644 OA
ENDBRANCH   9  11
ENDBRANCH   3   5
BRANCH   1  14
HETATM   14  C3  UNL     1     -13.572  -8.874  24.447  1.00  0.00     0.048 A 
HETATM   15  C2  UNL     1     -12.579  -8.474  23.609  1.00  0.00     0.110 A 
HETATM   16  N1  UNL     1     -11.387  -8.030  24.101  1.00  0.00    -0.328 N 
HETATM   17  C1  UNL     1     -10.337  -7.608  23.200  1.00  0.00     0.159 C 
HETATM   18  C14 UNL     1     -11.190  -7.985  25.430  1.00  0.00     0.246 A 
HETATM   19  C13 UNL     1     -12.177  -8.383  26.300  1.00  0.00     0.075 A 
HETATM   20  O4  UNL     1     -10.102  -7.582  25.944  1.00  0.00    -0.268 OA
HETATM   21  C12 UNL     1     -13.362  -8.825  25.804  1.00  0.00     0.024 A 
ENDBRANCH   1  14
TORSDOF 3
ENDMDL
