MODEL 14
REMARK VINA RESULT: -6.412659922      2.110      7.571
REMARK  3 active torsions:
REMARK  status: ('A' for Active; 'I' for Inactive)
REMARK    1  A    between atoms: C3_4  and  C4_5 
REMARK       I    between atoms: C4_5  and  N2_7 
REMARK    2  A    between atoms: N2_7  and  C5_9 
REMARK    3  A    between atoms: C9_13  and  C10_14 
ROOT
HETATM    1  C4  UNL     1     -14.996  -9.413  23.763  1.00  0.00     0.257 C 
HETATM    2  O1  UNL     1     -15.381 -10.534  24.155  1.00  0.00    -0.267 OA
HETATM    3  N2  UNL     1     -15.836  -8.670  22.926  1.00  0.00    -0.323 N 
ATOM      4  H2  UNL     1     -15.479  -7.760  22.634  1.00  0.00     0.169 HD
ENDROOT
BRANCH   3   5
HETATM    5  C5  UNL     1     -17.117  -9.019  22.433  1.00  0.00     0.036 A 
HETATM    6  C6  UNL     1     -18.302  -8.499  22.874  1.00  0.00     0.029 A 
HETATM    7  C7  UNL     1     -19.512  -8.888  22.336  1.00  0.00     0.003 A 
HETATM    8  C8  UNL     1     -19.594  -9.816  21.332  1.00  0.00     0.018 A 
HETATM    9  C9  UNL     1     -18.412 -10.349  20.878  1.00  0.00     0.043 A 
HETATM   10  C11 UNL     1     -17.209  -9.975  21.398  1.00  0.00     0.048 A 
BRANCH   9  11
HETATM   11  C10 UNL     1     -18.428 -11.344  19.810  1.00  0.00     0.209 C 
HETATM   12  O2  UNL     1     -19.294 -11.233  18.913  1.00  0.00    -0.644 OA
HETATM   13  O3  UNL     1     -17.528 -12.395  19.753  1.00  0.00    -0.644 OA
ENDBRANCH   9  11
ENDBRANCH   3   5
BRANCH   1  14
HETATM   14  C3  UNL     1     -13.668  -8.944  24.213  1.00  0.00     0.048 A 
HETATM   15  C2  UNL     1     -13.325  -8.782  25.519  1.00  0.00     0.110 A 
HETATM   16  N1  UNL     1     -12.080  -8.346  25.864  1.00  0.00    -0.328 N 
HETATM   17  C1  UNL     1     -11.726  -8.177  27.257  1.00  0.00     0.159 C 
HETATM   18  C14 UNL     1     -11.179  -8.074  24.905  1.00  0.00     0.246 A 
HETATM   19  C13 UNL     1     -11.499  -8.229  23.577  1.00  0.00     0.075 A 
HETATM   20  O4  UNL     1     -10.006  -7.666  25.167  1.00  0.00    -0.268 OA
HETATM   21  C12 UNL     1     -12.741  -8.663  23.238  1.00  0.00     0.024 A 
ENDBRANCH   1  14
TORSDOF 3
ENDMDL
