MODEL 3
REMARK VINA RESULT: -6.856369592      1.720      2.359
REMARK  3 active torsions:
REMARK  status: ('A' for Active; 'I' for Inactive)
REMARK    1  A    between atoms: C3_4  and  C4_5 
REMARK       I    between atoms: C4_5  and  N2_7 
REMARK    2  A    between atoms: N2_7  and  C5_9 
REMARK    3  A    between atoms: C9_13  and  C10_14 
ROOT
HETATM    1  C4  UNL     1     -15.477  -9.205  23.495  1.00  0.00     0.257 C 
HETATM    2  O1  UNL     1     -15.488  -7.957  23.474  1.00  0.00    -0.267 OA
HETATM    3  N2  UNL     1     -14.533  -9.854  24.300  1.00  0.00    -0.323 N 
ATOM      4  H2  UNL     1     -14.563 -10.873  24.286  1.00  0.00     0.169 HD
ENDROOT
BRANCH   3   5
HETATM    5  C5  UNL     1     -13.542  -9.275  25.131  1.00  0.00     0.036 A 
HETATM    6  C6  UNL     1     -13.523  -9.335  26.497  1.00  0.00     0.029 A 
HETATM    7  C7  UNL     1     -12.516  -8.749  27.236  1.00  0.00     0.003 A 
HETATM    8  C8  UNL     1     -11.479  -8.077  26.645  1.00  0.00     0.018 A 
HETATM    9  C9  UNL     1     -11.483  -8.008  25.272  1.00  0.00     0.043 A 
HETATM   10  C11 UNL     1     -12.471  -8.582  24.528  1.00  0.00     0.048 A 
BRANCH   9  11
HETATM   11  C10 UNL     1     -10.409  -7.306  24.578  1.00  0.00     0.209 C 
HETATM   12  O2  UNL     1     -10.336  -7.422  23.334  1.00  0.00    -0.644 OA
HETATM   13  O3  UNL     1      -9.477  -6.524  25.239  1.00  0.00    -0.644 OA
ENDBRANCH   9  11
ENDBRANCH   3   5
BRANCH   1  14
HETATM   14  C3  UNL     1     -16.467  -9.919  22.661  1.00  0.00     0.048 A 
HETATM   15  C2  UNL     1     -17.316  -9.300  21.798  1.00  0.00     0.110 A 
HETATM   16  N1  UNL     1     -18.206 -10.021  21.056  1.00  0.00    -0.328 N 
HETATM   17  C1  UNL     1     -19.104  -9.352  20.141  1.00  0.00     0.159 C 
HETATM   18  C14 UNL     1     -18.245 -11.359  21.178  1.00  0.00     0.246 A 
HETATM   19  C13 UNL     1     -17.398 -12.010  22.044  1.00  0.00     0.075 A 
HETATM   20  O4  UNL     1     -19.050 -12.081  20.515  1.00  0.00    -0.268 OA
HETATM   21  C12 UNL     1     -16.514 -11.287  22.780  1.00  0.00     0.024 A 
ENDBRANCH   1  14
TORSDOF 3
ENDMDL
