MODEL 1
REMARK VINA RESULT: -6.608111263      0.000      0.000
REMARK  0 active torsions:
REMARK  status: ('A' for Active; 'I' for Inactive)
ROOT
HETATM    1  C1  UNL     1       5.537 -11.556   3.426  1.00  0.00     0.050 C 
HETATM    2  C2  UNL     1       6.986 -11.825   3.655  1.00  0.00    -0.033 A 
HETATM    3  C3  UNL     1       7.667 -12.480   2.683  1.00  0.00     0.009 A 
HETATM    4  C4  UNL     1       9.002 -12.802   2.740  1.00  0.00     0.002 A 
HETATM    5  C5  UNL     1       9.659 -12.415   3.884  1.00  0.00     0.021 A 
HETATM    6  C6  UNL     1       8.973 -11.735   4.907  1.00  0.00     0.036 A 
HETATM    7  S1  UNL     1       9.429 -11.110   6.428  1.00  0.00    -0.050 SA
HETATM    8  C7  UNL     1       7.913 -10.480   6.903  1.00  0.00     0.172 A 
HETATM    9  N1  UNL     1       7.238  -9.817   7.899  1.00  0.00    -0.278 N 
ATOM     10  H1  UNL     1       7.623  -9.486   8.783  1.00  0.00     0.189 HD
HETATM   11  N2  UNL     1       6.022  -9.697   7.492  1.00  0.00    -0.294 N 
ATOM     12  H2  UNL     1       5.267  -9.246   8.009  1.00  0.00     0.187 HD
HETATM   13  C8  UNL     1       5.907 -10.254   6.290  1.00  0.00     0.207 A 
HETATM   14  N3  UNL     1       7.120 -10.774   5.878  1.00  0.00    -0.284 N 
HETATM   15  C9  UNL     1       7.643 -11.417   4.843  1.00  0.00     0.065 A 
ENDROOT
TORSDOF 0
ENDMDL
