MODEL 7
REMARK VINA RESULT: -5.976243928      2.642      4.804
REMARK  0 active torsions:
REMARK  status: ('A' for Active; 'I' for Inactive)
ROOT
HETATM    1  C1  UNL     1       9.416 -11.561   6.336  1.00  0.00     0.050 C 
HETATM    2  C2  UNL     1       8.049 -11.142   5.908  1.00  0.00    -0.033 A 
HETATM    3  C3  UNL     1       7.351 -10.328   6.738  1.00  0.00     0.009 A 
HETATM    4  C4  UNL     1       6.085  -9.853   6.490  1.00  0.00     0.002 A 
HETATM    5  C5  UNL     1       5.520 -10.257   5.304  1.00  0.00     0.021 A 
HETATM    6  C6  UNL     1       6.225 -11.101   4.427  1.00  0.00     0.036 A 
HETATM    7  S1  UNL     1       5.871 -11.797   2.909  1.00  0.00    -0.050 SA
HETATM    8  C7  UNL     1       7.336 -12.644   2.676  1.00  0.00     0.172 A 
HETATM    9  N1  UNL     1       8.029 -13.470   1.824  1.00  0.00    -0.278 N 
ATOM     10  H1  UNL     1       7.709 -13.829   0.925  1.00  0.00     0.189 HD
HETATM   11  N2  UNL     1       9.164 -13.700   2.388  1.00  0.00    -0.294 N 
ATOM     12  H2  UNL     1       9.908 -14.282   2.004  1.00  0.00     0.187 HD
HETATM   13  C8  UNL     1       9.211 -13.057   3.551  1.00  0.00     0.207 A 
HETATM   14  N3  UNL     1       8.037 -12.360   3.769  1.00  0.00    -0.284 N 
HETATM   15  C9  UNL     1       7.487 -11.571   4.680  1.00  0.00     0.065 A 
ENDROOT
TORSDOF 0
ENDMDL
