MODEL 12
REMARK VINA RESULT: -5.544271441      1.412      1.918
REMARK  0 active torsions:
REMARK  status: ('A' for Active; 'I' for Inactive)
ROOT
HETATM    1  C1  UNL     1       5.979 -10.826   5.677  1.00  0.00     0.050 C 
HETATM    2  C2  UNL     1       7.326 -11.281   5.226  1.00  0.00    -0.033 A 
HETATM    3  C3  UNL     1       7.402 -11.958   4.054  1.00  0.00     0.009 A 
HETATM    4  C4  UNL     1       8.564 -12.442   3.501  1.00  0.00     0.002 A 
HETATM    5  C5  UNL     1       9.711 -12.200   4.220  1.00  0.00     0.021 A 
HETATM    6  C6  UNL     1       9.656 -11.500   5.439  1.00  0.00     0.036 A 
HETATM    7  S1  UNL     1      10.827 -11.019   6.584  1.00  0.00    -0.050 SA
HETATM    8  C7  UNL     1       9.785 -10.238   7.691  1.00  0.00     0.172 A 
HETATM    9  N1  UNL     1       9.726  -9.554   8.881  1.00  0.00    -0.278 N 
ATOM     10  H1  UNL     1      10.508  -9.321   9.492  1.00  0.00     0.189 HD
HETATM   11  N2  UNL     1       8.485  -9.266   9.070  1.00  0.00    -0.294 N 
ATOM     12  H2  UNL     1       8.111  -8.757   9.871  1.00  0.00     0.187 HD
HETATM   13  C8  UNL     1       7.768  -9.739   8.054  1.00  0.00     0.207 A 
HETATM   14  N3  UNL     1       8.585 -10.377   7.139  1.00  0.00    -0.284 N 
HETATM   15  C9  UNL     1       8.495 -11.020   5.984  1.00  0.00     0.065 A 
ENDROOT
TORSDOF 0
ENDMDL
