MODEL 9
REMARK VINA RESULT: -5.737489291      1.307      1.964
REMARK  0 active torsions:
REMARK  status: ('A' for Active; 'I' for Inactive)
ROOT
HETATM    1  C1  UNL     1       5.036  -9.356   5.083  1.00  0.00     0.050 C 
HETATM    2  C2  UNL     1       5.900 -10.447   4.545  1.00  0.00    -0.033 A 
HETATM    3  C3  UNL     1       5.558 -10.991   3.351  1.00  0.00     0.009 A 
HETATM    4  C4  UNL     1       6.248 -11.999   2.721  1.00  0.00     0.002 A 
HETATM    5  C5  UNL     1       7.360 -12.463   3.384  1.00  0.00     0.021 A 
HETATM    6  C6  UNL     1       7.734 -11.915   4.625  1.00  0.00     0.036 A 
HETATM    7  S1  UNL     1       9.008 -12.216   5.718  1.00  0.00    -0.050 SA
HETATM    8  C7  UNL     1       8.597 -11.056   6.904  1.00  0.00     0.172 A 
HETATM    9  N1  UNL     1       8.958 -10.517   8.115  1.00  0.00    -0.278 N 
ATOM     10  H1  UNL     1       9.756 -10.784   8.690  1.00  0.00     0.189 HD
HETATM   11  N2  UNL     1       8.083  -9.609   8.380  1.00  0.00    -0.294 N 
ATOM     12  H2  UNL     1       8.073  -9.023   9.215  1.00  0.00     0.187 HD
HETATM   13  C8  UNL     1       7.196  -9.556   7.391  1.00  0.00     0.207 A 
HETATM   14  N3  UNL     1       7.502 -10.485   6.414  1.00  0.00    -0.284 N 
HETATM   15  C9  UNL     1       7.041 -10.910   5.246  1.00  0.00     0.065 A 
ENDROOT
TORSDOF 0
ENDMDL
