MODEL 2
REMARK VINA RESULT: -7.557394475      0.024      1.143
REMARK  4 active torsions:
REMARK  status: ('A' for Active; 'I' for Inactive)
REMARK    1  A    between atoms: N2_6  and  C5_7 
REMARK    2  A    between atoms: C5_7  and  C6_8 
REMARK    3  A    between atoms: C9_11  and  C10_12 
REMARK    4  A    between atoms: C10_12  and  N3_13 
ROOT
HETATM    1  C6  UNL     1      17.360  77.629  59.252  1.00  0.00    -0.030 A 
HETATM    2  C7  UNL     1      16.098  77.743  58.715  1.00  0.00     0.009 A 
HETATM    3  C8  UNL     1      15.965  78.116  57.400  1.00  0.00     0.009 A 
HETATM    4  C9  UNL     1      17.023  78.388  56.563  1.00  0.00    -0.033 A 
HETATM    5  C11 UNL     1      18.288  78.271  57.106  1.00  0.00     0.009 A 
HETATM    6  C12 UNL     1      18.441  77.895  58.440  1.00  0.00     0.009 A 
ENDROOT
BRANCH   1   7
HETATM    7  C5  UNL     1      17.554  77.234  60.647  1.00  0.00     0.311 C 
BRANCH   7   8
HETATM    8  N2  UNL     1      17.992  75.893  60.858  1.00  0.00     0.094 N 
HETATM    9  C4  UNL     1      17.893  75.411  62.197  1.00  0.00     0.274 C 
HETATM   10  C3  UNL     1      18.884  74.368  62.575  1.00  0.00     0.060 C 
HETATM   11  C2  UNL     1      19.554  73.688  61.428  1.00  0.00     0.273 C 
HETATM   12  N1  UNL     1      18.656  73.089  60.489  1.00  0.00     0.086 N 
HETATM   13  C1  UNL     1      19.384  71.980  59.852  1.00  0.00     0.309 C 
HETATM   14  C14 UNL     1      18.231  73.962  59.440  1.00  0.00     0.302 C 
HETATM   15  C13 UNL     1      17.246  74.961  60.009  1.00  0.00     0.303 C 
ENDBRANCH   7   8
ENDBRANCH   1   7
BRANCH   4  16
HETATM   16  C10 UNL     1      16.848  78.790  55.140  1.00  0.00     0.268 C 
BRANCH  16  17
HETATM   17  N3  UNL     1      16.241  80.111  55.108  1.00  0.00    -0.075 N 
ATOM     18  H33 UNL     1      15.986  80.402  54.165  1.00  0.00     0.274 HD
ATOM     19  H32 UNL     1      15.306  80.123  55.515  1.00  0.00     0.274 HD
ATOM     20  H31 UNL     1      16.875  80.767  55.564  1.00  0.00     0.274 HD
ENDBRANCH  16  17
ENDBRANCH   4  16
TORSDOF 4
ENDMDL
