MODEL 1
REMARK VINA RESULT: -7.572447776      0.000      0.000
REMARK  4 active torsions:
REMARK  status: ('A' for Active; 'I' for Inactive)
REMARK    1  A    between atoms: N2_6  and  C5_7 
REMARK    2  A    between atoms: C5_7  and  C6_8 
REMARK    3  A    between atoms: C9_11  and  C10_12 
REMARK    4  A    between atoms: C10_12  and  N3_13 
ROOT
HETATM    1  C6  UNL     1      17.373  77.625  59.239  1.00  0.00    -0.030 A 
HETATM    2  C7  UNL     1      18.465  77.890  58.445  1.00  0.00     0.009 A 
HETATM    3  C8  UNL     1      18.266  78.263  57.139  1.00  0.00     0.009 A 
HETATM    4  C9  UNL     1      17.027  78.395  56.553  1.00  0.00    -0.033 A 
HETATM    5  C11 UNL     1      15.932  78.128  57.354  1.00  0.00     0.009 A 
HETATM    6  C12 UNL     1      16.117  77.747  58.682  1.00  0.00     0.009 A 
ENDROOT
BRANCH   1   7
HETATM    7  C5  UNL     1      17.534  77.226  60.637  1.00  0.00     0.311 C 
BRANCH   7   8
HETATM    8  N2  UNL     1      17.978  75.888  60.854  1.00  0.00     0.094 N 
HETATM    9  C4  UNL     1      17.877  75.410  62.193  1.00  0.00     0.274 C 
HETATM   10  C3  UNL     1      18.871  74.373  62.579  1.00  0.00     0.060 C 
HETATM   11  C2  UNL     1      19.550  73.693  61.437  1.00  0.00     0.273 C 
HETATM   12  N1  UNL     1      18.659  73.087  60.495  1.00  0.00     0.086 N 
HETATM   13  C1  UNL     1      19.396  71.980  59.864  1.00  0.00     0.309 C 
HETATM   14  C14 UNL     1      18.234  73.955  59.442  1.00  0.00     0.302 C 
HETATM   15  C13 UNL     1      17.242  74.950  60.004  1.00  0.00     0.303 C 
ENDBRANCH   7   8
ENDBRANCH   1   7
BRANCH   4  16
HETATM   16  C10 UNL     1      16.841  78.801  55.134  1.00  0.00     0.268 C 
BRANCH  16  17
HETATM   17  N3  UNL     1      16.226  80.119  55.111  1.00  0.00    -0.075 N 
ATOM     18  H33 UNL     1      15.213  80.078  55.002  1.00  0.00     0.274 HD
ATOM     19  H32 UNL     1      16.250  80.579  56.021  1.00  0.00     0.274 HD
ATOM     20  H31 UNL     1      16.677  80.671  54.381  1.00  0.00     0.274 HD
ENDBRANCH  16  17
ENDBRANCH   4  16
TORSDOF 4
ENDMDL
