MODEL 3
REMARK VINA RESULT: -7.184261660      1.278      2.360
REMARK  4 active torsions:
REMARK  status: ('A' for Active; 'I' for Inactive)
REMARK    1  A    between atoms: N2_6  and  C5_7 
REMARK    2  A    between atoms: C5_7  and  C6_8 
REMARK    3  A    between atoms: C9_11  and  C10_12 
REMARK    4  A    between atoms: C10_12  and  N3_13 
ROOT
HETATM    1  C6  UNL     1      17.646  77.522  59.617  1.00  0.00    -0.030 A 
HETATM    2  C7  UNL     1      16.316  77.549  59.268  1.00  0.00     0.009 A 
HETATM    3  C8  UNL     1      15.969  77.929  57.995  1.00  0.00     0.009 A 
HETATM    4  C9  UNL     1      16.874  78.291  57.022  1.00  0.00    -0.033 A 
HETATM    5  C11 UNL     1      18.209  78.262  57.378  1.00  0.00     0.009 A 
HETATM    6  C12 UNL     1      18.578  77.880  58.667  1.00  0.00     0.009 A 
ENDROOT
BRANCH   1   7
HETATM    7  C5  UNL     1      18.066  77.124  60.961  1.00  0.00     0.311 C 
BRANCH   7   8
HETATM    8  N2  UNL     1      17.880  75.748  61.288  1.00  0.00     0.094 N 
HETATM    9  C4  UNL     1      17.881  74.842  60.188  1.00  0.00     0.274 C 
HETATM   10  C3  UNL     1      17.076  73.605  60.377  1.00  0.00     0.060 C 
HETATM   11  C2  UNL     1      16.725  73.290  61.792  1.00  0.00     0.273 C 
HETATM   12  N1  UNL     1      17.849  73.194  62.673  1.00  0.00     0.086 N 
HETATM   13  C1  UNL     1      17.455  72.294  63.768  1.00  0.00     0.309 C 
HETATM   14  C14 UNL     1      18.235  74.433  63.273  1.00  0.00     0.302 C 
HETATM   15  C13 UNL     1      18.909  75.291  62.224  1.00  0.00     0.303 C 
ENDBRANCH   7   8
ENDBRANCH   1   7
BRANCH   4  16
HETATM   16  C10 UNL     1      16.468  78.698  55.649  1.00  0.00     0.268 C 
BRANCH  16  17
HETATM   17  N3  UNL     1      15.235  79.463  55.743  1.00  0.00    -0.075 N 
ATOM     18  H33 UNL     1      15.165  79.988  56.615  1.00  0.00     0.274 HD
ATOM     19  H32 UNL     1      15.215  80.255  55.102  1.00  0.00     0.274 HD
ATOM     20  H31 UNL     1      14.451  78.826  55.605  1.00  0.00     0.274 HD
ENDBRANCH  16  17
ENDBRANCH   4  16
TORSDOF 4
ENDMDL
