MODEL 13
REMARK VINA RESULT: -6.817651193      1.131      1.931
REMARK  4 active torsions:
REMARK  status: ('A' for Active; 'I' for Inactive)
REMARK    1  A    between atoms: N2_6  and  C5_7 
REMARK    2  A    between atoms: C5_7  and  C6_8 
REMARK    3  A    between atoms: C9_11  and  C10_12 
REMARK    4  A    between atoms: C10_12  and  N3_13 
ROOT
HETATM    1  C6  UNL     1      17.378  77.731  59.169  1.00  0.00    -0.030 A 
HETATM    2  C7  UNL     1      18.370  78.045  58.269  1.00  0.00     0.009 A 
HETATM    3  C8  UNL     1      18.026  78.342  56.974  1.00  0.00     0.009 A 
HETATM    4  C9  UNL     1      16.734  78.349  56.500  1.00  0.00    -0.033 A 
HETATM    5  C11 UNL     1      15.740  78.034  57.407  1.00  0.00     0.009 A 
HETATM    6  C12 UNL     1      16.073  77.729  58.726  1.00  0.00     0.009 A 
ENDROOT
BRANCH   1   7
HETATM    7  C5  UNL     1      17.695  77.408  60.560  1.00  0.00     0.311 C 
BRANCH   7   8
HETATM    8  N2  UNL     1      17.667  76.023  60.899  1.00  0.00     0.094 N 
HETATM    9  C4  UNL     1      17.817  75.114  59.811  1.00  0.00     0.274 C 
HETATM   10  C3  UNL     1      17.163  73.790  59.989  1.00  0.00     0.060 C 
HETATM   11  C2  UNL     1      16.805  73.447  61.397  1.00  0.00     0.273 C 
HETATM   12  N1  UNL     1      17.902  73.497  62.315  1.00  0.00     0.086 N 
HETATM   13  C1  UNL     1      17.584  72.566  63.408  1.00  0.00     0.309 C 
HETATM   14  C14 UNL     1      18.112  74.779  62.911  1.00  0.00     0.302 C 
HETATM   15  C13 UNL     1      18.712  75.705  61.874  1.00  0.00     0.303 C 
ENDBRANCH   7   8
ENDBRANCH   1   7
BRANCH   4  16
HETATM   16  C10 UNL     1      16.389  78.676  55.089  1.00  0.00     0.268 C 
BRANCH  16  17
HETATM   17  N3  UNL     1      16.571  80.106  54.892  1.00  0.00    -0.075 N 
ATOM     18  H33 UNL     1      17.511  80.419  55.134  1.00  0.00     0.274 HD
ATOM     19  H32 UNL     1      16.586  80.367  53.907  1.00  0.00     0.274 HD
ATOM     20  H31 UNL     1      15.847  80.597  55.418  1.00  0.00     0.274 HD
ENDBRANCH  16  17
ENDBRANCH   4  16
TORSDOF 4
ENDMDL
