MODEL 6
REMARK VINA RESULT: -6.930643417      2.142      6.108
REMARK  4 active torsions:
REMARK  status: ('A' for Active; 'I' for Inactive)
REMARK    1  A    between atoms: N2_6  and  C5_7 
REMARK    2  A    between atoms: C5_7  and  C6_8 
REMARK    3  A    between atoms: C9_11  and  C10_12 
REMARK    4  A    between atoms: C10_12  and  N3_13 
ROOT
HETATM    1  C6  UNL     1      16.845  76.786  59.877  1.00  0.00    -0.030 A 
HETATM    2  C7  UNL     1      16.129  75.612  59.891  1.00  0.00     0.009 A 
HETATM    3  C8  UNL     1      16.444  74.650  60.819  1.00  0.00     0.009 A 
HETATM    4  C9  UNL     1      17.445  74.778  61.756  1.00  0.00    -0.033 A 
HETATM    5  C11 UNL     1      18.162  75.960  61.738  1.00  0.00     0.009 A 
HETATM    6  C12 UNL     1      17.855  76.946  60.802  1.00  0.00     0.009 A 
ENDROOT
BRANCH   1   7
HETATM    7  C5  UNL     1      16.546  77.842  58.910  1.00  0.00     0.311 C 
BRANCH   7   8
HETATM    8  N2  UNL     1      16.793  77.519  57.542  1.00  0.00     0.094 N 
HETATM    9  C4  UNL     1      16.148  78.352  56.582  1.00  0.00     0.274 C 
HETATM   10  C3  UNL     1      15.837  77.704  55.279  1.00  0.00     0.060 C 
HETATM   11  C2  UNL     1      16.584  76.441  55.008  1.00  0.00     0.273 C 
HETATM   12  N1  UNL     1      18.008  76.570  55.080  1.00  0.00     0.086 N 
HETATM   13  C1  UNL     1      18.573  75.530  54.205  1.00  0.00     0.309 C 
HETATM   14  C14 UNL     1      18.553  76.356  56.384  1.00  0.00     0.302 C 
HETATM   15  C13 UNL     1      18.227  77.554  57.249  1.00  0.00     0.303 C 
ENDBRANCH   7   8
ENDBRANCH   1   7
BRANCH   4  16
HETATM   16  C10 UNL     1      17.764  73.718  62.750  1.00  0.00     0.268 C 
BRANCH  16  17
HETATM   17  N3  UNL     1      17.447  74.223  64.077  1.00  0.00    -0.075 N 
ATOM     18  H33 UNL     1      18.211  74.761  64.485  1.00  0.00     0.274 HD
ATOM     19  H32 UNL     1      16.749  74.966  64.057  1.00  0.00     0.274 HD
ATOM     20  H31 UNL     1      17.166  73.436  64.661  1.00  0.00     0.274 HD
ENDBRANCH  16  17
ENDBRANCH   4  16
TORSDOF 4
ENDMDL
