MODEL 5
REMARK VINA RESULT: -6.954538476      2.159      6.015
REMARK  4 active torsions:
REMARK  status: ('A' for Active; 'I' for Inactive)
REMARK    1  A    between atoms: N2_6  and  C5_7 
REMARK    2  A    between atoms: C5_7  and  C6_8 
REMARK    3  A    between atoms: C9_11  and  C10_12 
REMARK    4  A    between atoms: C10_12  and  N3_13 
ROOT
HETATM    1  C6  UNL     1      16.868  76.797  59.886  1.00  0.00    -0.030 A 
HETATM    2  C7  UNL     1      17.861  76.980  60.820  1.00  0.00     0.009 A 
HETATM    3  C8  UNL     1      18.119  75.979  61.724  1.00  0.00     0.009 A 
HETATM    4  C9  UNL     1      17.442  74.781  61.765  1.00  0.00    -0.033 A 
HETATM    5  C11 UNL     1      16.445  74.602  60.825  1.00  0.00     0.009 A 
HETATM    6  C12 UNL     1      16.170  75.608  59.901  1.00  0.00     0.009 A 
ENDROOT
BRANCH   1   7
HETATM    7  C5  UNL     1      16.557  77.833  58.902  1.00  0.00     0.311 C 
BRANCH   7   8
HETATM    8  N2  UNL     1      16.832  77.501  57.542  1.00  0.00     0.094 N 
HETATM    9  C4  UNL     1      16.201  78.322  56.563  1.00  0.00     0.274 C 
HETATM   10  C3  UNL     1      15.919  77.662  55.260  1.00  0.00     0.060 C 
HETATM   11  C2  UNL     1      16.679  76.402  55.013  1.00  0.00     0.273 C 
HETATM   12  N1  UNL     1      18.100  76.539  55.112  1.00  0.00     0.086 N 
HETATM   13  C1  UNL     1      18.689  75.497  54.257  1.00  0.00     0.309 C 
HETATM   14  C14 UNL     1      18.622  76.340  56.428  1.00  0.00     0.302 C 
HETATM   15  C13 UNL     1      18.271  77.542  57.277  1.00  0.00     0.303 C 
ENDBRANCH   7   8
ENDBRANCH   1   7
BRANCH   4  16
HETATM   16  C10 UNL     1      17.744  73.713  62.757  1.00  0.00     0.268 C 
BRANCH  16  17
HETATM   17  N3  UNL     1      17.505  74.245  64.090  1.00  0.00    -0.075 N 
ATOM     18  H33 UNL     1      18.365  74.361  64.625  1.00  0.00     0.274 HD
ATOM     19  H32 UNL     1      17.216  75.223  64.076  1.00  0.00     0.274 HD
ATOM     20  H31 UNL     1      16.829  73.643  64.559  1.00  0.00     0.274 HD
ENDBRANCH  16  17
ENDBRANCH   4  16
TORSDOF 4
ENDMDL
