MODEL 4
REMARK VINA RESULT: -6.971746963      3.999      6.684
REMARK  4 active torsions:
REMARK  status: ('A' for Active; 'I' for Inactive)
REMARK    1  A    between atoms: N2_6  and  C5_7 
REMARK    2  A    between atoms: C5_7  and  C6_8 
REMARK    3  A    between atoms: C9_11  and  C10_12 
REMARK    4  A    between atoms: C10_12  and  N3_13 
ROOT
HETATM    1  C6  UNL     1      18.960  73.051  58.826  1.00  0.00    -0.030 A 
HETATM    2  C7  UNL     1      19.456  72.182  59.769  1.00  0.00     0.009 A 
HETATM    3  C8  UNL     1      19.260  72.458  61.099  1.00  0.00     0.009 A 
HETATM    4  C9  UNL     1      18.588  73.565  61.568  1.00  0.00    -0.033 A 
HETATM    5  C11 UNL     1      18.091  74.436  60.616  1.00  0.00     0.009 A 
HETATM    6  C12 UNL     1      18.282  74.170  59.261  1.00  0.00     0.009 A 
ENDROOT
BRANCH   1   7
HETATM    7  C5  UNL     1      19.142  72.799  57.396  1.00  0.00     0.311 C 
BRANCH   7   8
HETATM    8  N2  UNL     1      18.419  71.691  56.863  1.00  0.00     0.094 N 
HETATM    9  C4  UNL     1      17.008  71.866  56.752  1.00  0.00     0.274 C 
HETATM   10  C3  UNL     1      16.201  70.620  56.847  1.00  0.00     0.060 C 
HETATM   11  C2  UNL     1      16.963  69.355  56.636  1.00  0.00     0.273 C 
HETATM   12  N1  UNL     1      17.678  69.295  55.398  1.00  0.00     0.086 N 
HETATM   13  C1  UNL     1      17.806  67.871  55.050  1.00  0.00     0.309 C 
HETATM   14  C14 UNL     1      19.003  69.828  55.455  1.00  0.00     0.302 C 
HETATM   15  C13 UNL     1      18.916  71.337  55.532  1.00  0.00     0.303 C 
ENDBRANCH   7   8
ENDBRANCH   1   7
BRANCH   4  16
HETATM   16  C10 UNL     1      18.390  73.840  63.017  1.00  0.00     0.268 C 
BRANCH  16  17
HETATM   17  N3  UNL     1      17.085  74.459  63.192  1.00  0.00    -0.075 N 
ATOM     18  H33 UNL     1      16.709  74.321  64.130  1.00  0.00     0.274 HD
ATOM     19  H32 UNL     1      17.134  75.478  63.210  1.00  0.00     0.274 HD
ATOM     20  H31 UNL     1      16.463  74.109  62.464  1.00  0.00     0.274 HD
ENDBRANCH  16  17
ENDBRANCH   4  16
TORSDOF 4
ENDMDL
