MODEL 6
REMARK VINA RESULT: -7.461434026      2.943      6.653
REMARK  2 active torsions:
REMARK  status: ('A' for Active; 'I' for Inactive)
REMARK    1  A    between atoms: N2_6  and  C5_7 
REMARK    2  A    between atoms: C5_7  and  C6_8 
ROOT
HETATM    1  C6  UNL     1      16.011  75.880  59.312  1.00  0.00    -0.029 A 
HETATM    2  C7  UNL     1      17.001  76.723  59.763  1.00  0.00     0.011 A 
HETATM    3  C8  UNL     1      17.855  76.365  60.786  1.00  0.00     0.031 A 
HETATM    4  C9  UNL     1      17.751  75.125  61.415  1.00  0.00     0.042 A 
HETATM    5  N3  UNL     1      18.579  74.770  62.414  1.00  0.00    -0.365 N 
ATOM      6  H3  UNL     1      19.297  75.430  62.710  1.00  0.00     0.165 HD
HETATM    7  C10 UNL     1      18.500  73.575  63.039  1.00  0.00     0.088 A 
HETATM    8  C11 UNL     1      17.523  72.692  62.625  1.00  0.00     0.018 A 
HETATM    9  C12 UNL     1      16.668  73.045  61.603  1.00  0.00     0.015 A 
HETATM   10  C13 UNL     1      16.760  74.278  60.967  1.00  0.00    -0.009 A 
HETATM   11  C14 UNL     1      15.912  74.643  59.944  1.00  0.00     0.022 A 
ENDROOT
BRANCH   1  12
HETATM   12  C5  UNL     1      15.057  76.150  58.247  1.00  0.00     0.311 C 
BRANCH  12  13
HETATM   13  N2  UNL     1      14.520  75.030  57.554  1.00  0.00     0.094 N 
HETATM   14  C4  UNL     1      15.159  74.927  56.275  1.00  0.00     0.274 C 
HETATM   15  C3  UNL     1      15.101  73.492  55.836  1.00  0.00     0.060 C 
HETATM   16  C2  UNL     1      13.798  72.814  56.145  1.00  0.00     0.273 C 
HETATM   17  N1  UNL     1      12.650  73.508  55.629  1.00  0.00     0.086 N 
HETATM   18  C1  UNL     1      12.672  73.491  54.177  1.00  0.00     0.309 C 
HETATM   19  C16 UNL     1      12.497  74.839  56.138  1.00  0.00     0.302 C 
HETATM   20  C15 UNL     1      13.077  75.054  57.489  1.00  0.00     0.303 C 
ENDBRANCH  12  13
ENDBRANCH   1  12
TORSDOF 2
ENDMDL
