MODEL 4
REMARK VINA RESULT: -7.605437509      1.397      7.011
REMARK  2 active torsions:
REMARK  status: ('A' for Active; 'I' for Inactive)
REMARK    1  A    between atoms: N2_6  and  C5_7 
REMARK    2  A    between atoms: C5_7  and  C6_8 
ROOT
HETATM    1  C6  UNL     1      16.203  76.206  59.310  1.00  0.00    -0.029 A 
HETATM    2  C7  UNL     1      17.258  76.917  59.835  1.00  0.00     0.011 A 
HETATM    3  C8  UNL     1      18.033  76.420  60.863  1.00  0.00     0.031 A 
HETATM    4  C9  UNL     1      17.779  75.167  61.421  1.00  0.00     0.042 A 
HETATM    5  N3  UNL     1      18.529  74.676  62.423  1.00  0.00    -0.365 N 
ATOM      6  H3  UNL     1      19.301  75.242  62.777  1.00  0.00     0.165 HD
HETATM    7  C10 UNL     1      18.305  73.467  62.980  1.00  0.00     0.088 A 
HETATM    8  C11 UNL     1      17.257  72.714  62.490  1.00  0.00     0.018 A 
HETATM    9  C12 UNL     1      16.480  73.206  61.463  1.00  0.00     0.015 A 
HETATM   10  C13 UNL     1      16.723  74.453  60.897  1.00  0.00    -0.009 A 
HETATM   11  C14 UNL     1      15.954  74.956  59.871  1.00  0.00     0.022 A 
ENDROOT
BRANCH   1  12
HETATM   12  C5  UNL     1      15.322  76.629  58.231  1.00  0.00     0.311 C 
BRANCH  12  13
HETATM   13  N2  UNL     1      15.934  77.096  57.035  1.00  0.00     0.094 N 
HETATM   14  C4  UNL     1      14.938  77.736  56.226  1.00  0.00     0.274 C 
HETATM   15  C3  UNL     1      15.625  78.740  55.346  1.00  0.00     0.060 C 
HETATM   16  C2  UNL     1      16.935  78.263  54.788  1.00  0.00     0.273 C 
HETATM   17  N1  UNL     1      16.843  77.012  54.089  1.00  0.00     0.086 N 
HETATM   18  C1  UNL     1      16.037  77.171  52.891  1.00  0.00     0.309 C 
HETATM   19  C16 UNL     1      16.376  75.925  54.897  1.00  0.00     0.302 C 
HETATM   20  C15 UNL     1      16.673  76.062  56.347  1.00  0.00     0.303 C 
ENDBRANCH  12  13
ENDBRANCH   1  12
TORSDOF 2
ENDMDL
