MODEL 3
REMARK VINA RESULT: -7.611571730      0.811      1.680
REMARK  2 active torsions:
REMARK  status: ('A' for Active; 'I' for Inactive)
REMARK    1  A    between atoms: N2_6  and  C5_7 
REMARK    2  A    between atoms: C5_7  and  C6_8 
ROOT
HETATM    1  C6  UNL     1      16.842  76.498  59.398  1.00  0.00    -0.029 A 
HETATM    2  C7  UNL     1      15.540  76.296  59.000  1.00  0.00     0.011 A 
HETATM    3  C8  UNL     1      15.108  76.612  57.728  1.00  0.00     0.031 A 
HETATM    4  C9  UNL     1      15.978  77.154  56.782  1.00  0.00     0.042 A 
HETATM    5  N3  UNL     1      15.565  77.465  55.541  1.00  0.00    -0.365 N 
ATOM      6  H3  UNL     1      14.590  77.296  55.294  1.00  0.00     0.165 HD
HETATM    7  C10 UNL     1      16.387  77.990  54.606  1.00  0.00     0.088 A 
HETATM    8  C11 UNL     1      17.703  78.212  54.955  1.00  0.00     0.018 A 
HETATM    9  C12 UNL     1      18.139  77.898  56.225  1.00  0.00     0.015 A 
HETATM   10  C13 UNL     1      17.283  77.357  57.178  1.00  0.00    -0.009 A 
HETATM   11  C14 UNL     1      17.706  77.039  58.450  1.00  0.00     0.022 A 
ENDROOT
BRANCH   1  12
HETATM   12  C5  UNL     1      17.405  76.204  60.707  1.00  0.00     0.311 C 
BRANCH  12  13
HETATM   13  N2  UNL     1      17.788  74.859  60.965  1.00  0.00     0.094 N 
HETATM   14  C4  UNL     1      16.612  74.091  61.251  1.00  0.00     0.274 C 
HETATM   15  C3  UNL     1      16.890  72.658  60.897  1.00  0.00     0.060 C 
HETATM   16  C2  UNL     1      18.269  72.196  61.273  1.00  0.00     0.273 C 
HETATM   17  N1  UNL     1      18.590  72.407  62.657  1.00  0.00     0.086 N 
HETATM   18  C1  UNL     1      17.746  71.575  63.495  1.00  0.00     0.309 C 
HETATM   19  C16 UNL     1      18.545  73.780  63.063  1.00  0.00     0.302 C 
HETATM   20  C15 UNL     1      18.816  74.756  61.975  1.00  0.00     0.303 C 
ENDBRANCH  12  13
ENDBRANCH   1  12
TORSDOF 2
ENDMDL
