MODEL 8
REMARK VINA RESULT: -7.325543838      1.412      2.476
REMARK  2 active torsions:
REMARK  status: ('A' for Active; 'I' for Inactive)
REMARK    1  A    between atoms: N2_6  and  C5_7 
REMARK    2  A    between atoms: C5_7  and  C6_8 
ROOT
HETATM    1  C6  UNL     1      16.862  76.826  57.970  1.00  0.00    -0.029 A 
HETATM    2  C7  UNL     1      15.534  76.900  58.321  1.00  0.00     0.011 A 
HETATM    3  C8  UNL     1      14.608  77.562  57.541  1.00  0.00     0.031 A 
HETATM    4  C9  UNL     1      14.980  78.194  56.355  1.00  0.00     0.042 A 
HETATM    5  N3  UNL     1      14.084  78.842  55.590  1.00  0.00    -0.365 N 
ATOM      6  H3  UNL     1      13.111  78.867  55.894  1.00  0.00     0.165 HD
HETATM    7  C10 UNL     1      14.418  79.460  54.437  1.00  0.00     0.088 A 
HETATM    8  C11 UNL     1      15.739  79.417  54.039  1.00  0.00     0.018 A 
HETATM    9  C12 UNL     1      16.667  78.756  54.815  1.00  0.00     0.015 A 
HETATM   10  C13 UNL     1      16.310  78.122  56.000  1.00  0.00    -0.009 A 
HETATM   11  C14 UNL     1      17.228  77.458  56.784  1.00  0.00     0.022 A 
ENDROOT
BRANCH   1  12
HETATM   12  C5  UNL     1      17.922  76.159  58.711  1.00  0.00     0.311 C 
BRANCH  12  13
HETATM   13  N2  UNL     1      17.542  75.093  59.574  1.00  0.00     0.094 N 
HETATM   14  C4  UNL     1      18.121  75.316  60.866  1.00  0.00     0.274 C 
HETATM   15  C3  UNL     1      17.265  74.627  61.888  1.00  0.00     0.060 C 
HETATM   16  C2  UNL     1      16.758  73.283  61.451  1.00  0.00     0.273 C 
HETATM   17  N1  UNL     1      17.797  72.384  61.027  1.00  0.00     0.086 N 
HETATM   18  C1  UNL     1      18.647  72.043  62.154  1.00  0.00     0.309 C 
HETATM   19  C16 UNL     1      18.564  72.863  59.916  1.00  0.00     0.302 C 
HETATM   20  C15 UNL     1      17.833  73.793  59.016  1.00  0.00     0.303 C 
ENDBRANCH  12  13
ENDBRANCH   1  12
TORSDOF 2
ENDMDL
