MODEL 2
REMARK VINA RESULT: -8.039319302      0.834      1.604
REMARK  2 active torsions:
REMARK  status: ('A' for Active; 'I' for Inactive)
REMARK    1  A    between atoms: N2_6  and  C5_7 
REMARK    2  A    between atoms: C5_7  and  C6_8 
ROOT
HETATM    1  C6  UNL     1      17.371  76.713  59.646  1.00  0.00    -0.029 A 
HETATM    2  C7  UNL     1      18.474  76.950  58.858  1.00  0.00     0.011 A 
HETATM    3  C8  UNL     1      18.358  77.351  57.542  1.00  0.00     0.031 A 
HETATM    4  C9  UNL     1      17.109  77.534  56.948  1.00  0.00     0.042 A 
HETATM    5  N3  UNL     1      16.989  77.924  55.667  1.00  0.00    -0.365 N 
ATOM      6  H3  UNL     1      17.836  78.088  55.125  1.00  0.00     0.165 HD
HETATM    7  C10 UNL     1      15.792  78.109  55.069  1.00  0.00     0.088 A 
HETATM    8  C11 UNL     1      14.654  77.884  55.816  1.00  0.00     0.018 A 
HETATM    9  C12 UNL     1      14.765  77.483  57.131  1.00  0.00     0.015 A 
HETATM   10  C13 UNL     1      16.003  77.297  57.736  1.00  0.00    -0.009 A 
HETATM   11  C14 UNL     1      16.127  76.897  59.048  1.00  0.00     0.022 A 
ENDROOT
BRANCH   1  12
HETATM   12  C5  UNL     1      17.373  76.289  61.038  1.00  0.00     0.311 C 
BRANCH  12  13
HETATM   13  N2  UNL     1      17.535  74.899  61.295  1.00  0.00     0.094 N 
HETATM   14  C4  UNL     1      18.870  74.668  61.765  1.00  0.00     0.274 C 
HETATM   15  C3  UNL     1      18.862  73.425  62.607  1.00  0.00     0.060 C 
HETATM   16  C2  UNL     1      17.996  72.327  62.061  1.00  0.00     0.273 C 
HETATM   17  N1  UNL     1      18.304  71.970  60.704  1.00  0.00     0.086 N 
HETATM   18  C1  UNL     1      19.630  71.383  60.634  1.00  0.00     0.309 C 
HETATM   19  C16 UNL     1      18.155  73.047  59.771  1.00  0.00     0.302 C 
HETATM   20  C15 UNL     1      17.159  74.076  60.169  1.00  0.00     0.303 C 
ENDBRANCH  12  13
ENDBRANCH   1  12
TORSDOF 2
ENDMDL
