MODEL 5
REMARK VINA RESULT: -7.516641706      1.332      7.139
REMARK  2 active torsions:
REMARK  status: ('A' for Active; 'I' for Inactive)
REMARK    1  A    between atoms: N2_6  and  C5_7 
REMARK    2  A    between atoms: C5_7  and  C6_8 
ROOT
HETATM    1  C6  UNL     1      17.722  75.765  58.827  1.00  0.00    -0.029 A 
HETATM    2  C7  UNL     1      17.497  76.606  59.894  1.00  0.00     0.011 A 
HETATM    3  C8  UNL     1      17.599  76.171  61.200  1.00  0.00     0.031 A 
HETATM    4  C9  UNL     1      17.935  74.851  61.499  1.00  0.00     0.042 A 
HETATM    5  N3  UNL     1      18.036  74.419  62.769  1.00  0.00    -0.365 N 
ATOM      6  H3  UNL     1      17.860  75.081  63.524  1.00  0.00     0.165 HD
HETATM    7  C10 UNL     1      18.360  73.148  63.086  1.00  0.00     0.088 A 
HETATM    8  C11 UNL     1      18.596  72.264  62.052  1.00  0.00     0.018 A 
HETATM    9  C12 UNL     1      18.496  72.694  60.746  1.00  0.00     0.015 A 
HETATM   10  C13 UNL     1      18.161  74.007  60.433  1.00  0.00    -0.009 A 
HETATM   11  C14 UNL     1      18.057  74.449  59.132  1.00  0.00     0.022 A 
ENDROOT
BRANCH   1  12
HETATM   12  C5  UNL     1      17.643  76.112  57.416  1.00  0.00     0.311 C 
BRANCH  12  13
HETATM   13  N2  UNL     1      16.597  76.990  57.018  1.00  0.00     0.094 N 
HETATM   14  C4  UNL     1      15.415  76.218  56.770  1.00  0.00     0.274 C 
HETATM   15  C3  UNL     1      14.223  77.105  56.982  1.00  0.00     0.060 C 
HETATM   16  C2  UNL     1      14.402  78.500  56.456  1.00  0.00     0.273 C 
HETATM   17  N1  UNL     1      14.782  78.550  55.072  1.00  0.00     0.086 N 
HETATM   18  C1  UNL     1      13.703  78.043  54.242  1.00  0.00     0.309 C 
HETATM   19  C16 UNL     1      16.022  77.892  54.784  1.00  0.00     0.302 C 
HETATM   20  C15 UNL     1      16.977  77.850  55.922  1.00  0.00     0.303 C 
ENDBRANCH  12  13
ENDBRANCH   1  12
TORSDOF 2
ENDMDL
