MODEL 2
REMARK VINA RESULT: -9.813625036      0.955      1.504
REMARK  5 active torsions:
REMARK  status: ('A' for Active; 'I' for Inactive)
REMARK    1  A    between atoms: N2_6  and  C5_7 
REMARK    2  A    between atoms: C5_7  and  C6_8 
REMARK    3  A    between atoms: C9_11  and  C10_12 
REMARK    4  A    between atoms: C13_15  and  C14_16 
REMARK    5  A    between atoms: C14_16  and  N3_17 
ROOT
HETATM    1  C10 UNL     1      15.499  78.990  56.259  1.00  0.00    -0.005 A 
HETATM    2  C11 UNL     1      14.295  79.691  56.297  1.00  0.00     0.014 A 
HETATM    3  C12 UNL     1      13.766  80.292  55.173  1.00  0.00     0.010 A 
HETATM    4  C13 UNL     1      14.463  80.190  53.967  1.00  0.00    -0.029 A 
HETATM    5  C21 UNL     1      15.656  79.508  53.883  1.00  0.00     0.032 A 
HETATM    6  C22 UNL     1      16.141  78.925  55.042  1.00  0.00     0.056 A 
HETATM    7  C23 UNL     1      17.396  78.200  55.001  1.00  0.00     0.100 C 
HETATM    8  N5  UNL     1      18.415  77.631  54.955  1.00  0.00    -0.191 NA
ENDROOT
BRANCH   1   9
HETATM    9  C9  UNL     1      16.003  78.376  57.479  1.00  0.00    -0.024 A 
HETATM   10  C8  UNL     1      15.223  77.466  58.163  1.00  0.00     0.013 A 
HETATM   11  C7  UNL     1      15.663  76.854  59.327  1.00  0.00     0.010 A 
HETATM   12  C6  UNL     1      16.910  77.133  59.849  1.00  0.00    -0.030 A 
HETATM   13  C25 UNL     1      17.698  78.040  59.172  1.00  0.00     0.010 A 
HETATM   14  C24 UNL     1      17.247  78.650  58.004  1.00  0.00     0.013 A 
BRANCH  12  15
HETATM   15  C5  UNL     1      17.343  76.458  61.092  1.00  0.00     0.311 C 
BRANCH  15  16
HETATM   16  N2  UNL     1      17.121  75.051  60.948  1.00  0.00     0.094 N 
HETATM   17  C4  UNL     1      17.388  74.309  62.162  1.00  0.00     0.274 C 
HETATM   18  C3  UNL     1      18.829  74.373  62.556  1.00  0.00     0.060 C 
HETATM   19  C2  UNL     1      19.728  73.599  61.624  1.00  0.00     0.273 C 
HETATM   20  N1  UNL     1      19.020  72.601  60.870  1.00  0.00     0.086 N 
HETATM   21  C1  UNL     1      20.024  71.766  60.216  1.00  0.00     0.309 C 
HETATM   22  C27 UNL     1      18.149  73.114  59.868  1.00  0.00     0.302 C 
HETATM   23  C26 UNL     1      17.984  74.592  59.857  1.00  0.00     0.303 C 
ENDBRANCH  15  16
ENDBRANCH  12  15
ENDBRANCH   1   9
BRANCH   4  24
HETATM   24  C14 UNL     1      13.936  80.817  52.737  1.00  0.00     0.311 C 
BRANCH  24  25
HETATM   25  N3  UNL     1      14.484  82.136  52.501  1.00  0.00     0.094 N 
HETATM   26  C15 UNL     1      14.820  82.231  51.111  1.00  0.00     0.274 C 
HETATM   27  C16 UNL     1      13.720  82.742  50.246  1.00  0.00     0.060 C 
HETATM   28  C17 UNL     1      13.772  84.267  50.156  1.00  0.00     0.273 C 
HETATM   29  N4  UNL     1      13.055  84.782  51.280  1.00  0.00     0.086 N 
HETATM   30  C18 UNL     1      12.720  86.183  51.152  1.00  0.00     0.309 C 
HETATM   31  C19 UNL     1      13.813  84.503  52.473  1.00  0.00     0.302 C 
HETATM   32  C20 UNL     1      13.492  83.099  52.925  1.00  0.00     0.303 C 
ENDBRANCH  24  25
ENDBRANCH   4  24
TORSDOF 5
ENDMDL
