MODEL 1
REMARK VINA RESULT: -9.979779620      0.000      0.000
REMARK  5 active torsions:
REMARK  status: ('A' for Active; 'I' for Inactive)
REMARK    1  A    between atoms: N2_6  and  C5_7 
REMARK    2  A    between atoms: C5_7  and  C6_8 
REMARK    3  A    between atoms: C9_11  and  C10_12 
REMARK    4  A    between atoms: C13_15  and  C14_16 
REMARK    5  A    between atoms: C14_16  and  N3_17 
ROOT
HETATM    1  C10 UNL     1      15.362  79.028  56.508  1.00  0.00    -0.005 A 
HETATM    2  C11 UNL     1      14.146  79.709  56.511  1.00  0.00     0.014 A 
HETATM    3  C12 UNL     1      13.723  80.447  55.425  1.00  0.00     0.010 A 
HETATM    4  C13 UNL     1      14.542  80.511  54.296  1.00  0.00    -0.029 A 
HETATM    5  C21 UNL     1      15.752  79.855  54.250  1.00  0.00     0.032 A 
HETATM    6  C22 UNL     1      16.127  79.128  55.368  1.00  0.00     0.056 A 
HETATM    7  C23 UNL     1      17.395  78.424  55.366  1.00  0.00     0.100 C 
HETATM    8  N5  UNL     1      18.425  77.874  55.353  1.00  0.00    -0.191 NA
ENDROOT
BRANCH   1   9
HETATM    9  C9  UNL     1      15.751  78.262  57.685  1.00  0.00    -0.024 A 
HETATM   10  C8  UNL     1      16.873  78.625  58.401  1.00  0.00     0.013 A 
HETATM   11  C7  UNL     1      17.279  77.927  59.529  1.00  0.00     0.010 A 
HETATM   12  C6  UNL     1      16.569  76.834  59.981  1.00  0.00    -0.030 A 
HETATM   13  C25 UNL     1      15.446  76.463  59.274  1.00  0.00     0.010 A 
HETATM   14  C24 UNL     1      15.045  77.170  58.142  1.00  0.00     0.013 A 
BRANCH  12  15
HETATM   15  C5  UNL     1      17.035  76.118  61.189  1.00  0.00     0.311 C 
BRANCH  15  16
HETATM   16  N2  UNL     1      16.993  74.710  60.930  1.00  0.00     0.094 N 
HETATM   17  C4  UNL     1      17.324  73.911  62.091  1.00  0.00     0.274 C 
HETATM   18  C3  UNL     1      18.737  74.119  62.533  1.00  0.00     0.060 C 
HETATM   19  C2  UNL     1      19.745  73.537  61.571  1.00  0.00     0.273 C 
HETATM   20  N1  UNL     1      19.181  72.524  60.721  1.00  0.00     0.086 N 
HETATM   21  C1  UNL     1      20.294  71.873  60.036  1.00  0.00     0.309 C 
HETATM   22  C27 UNL     1      18.274  73.006  59.735  1.00  0.00     0.302 C 
HETATM   23  C26 UNL     1      17.928  74.449  59.833  1.00  0.00     0.303 C 
ENDBRANCH  15  16
ENDBRANCH  12  15
ENDBRANCH   1   9
BRANCH   4  24
HETATM   24  C14 UNL     1      14.132  81.290  53.110  1.00  0.00     0.311 C 
BRANCH  24  25
HETATM   25  N3  UNL     1      13.044  82.204  53.389  1.00  0.00     0.094 N 
HETATM   26  C15 UNL     1      13.606  83.507  53.594  1.00  0.00     0.274 C 
HETATM   27  C16 UNL     1      13.724  84.327  52.355  1.00  0.00     0.060 C 
HETATM   28  C17 UNL     1      12.447  85.135  52.123  1.00  0.00     0.273 C 
HETATM   29  N4  UNL     1      11.537  84.291  51.414  1.00  0.00     0.086 N 
HETATM   30  C18 UNL     1      10.432  85.013  50.821  1.00  0.00     0.309 C 
HETATM   31  C19 UNL     1      11.099  83.244  52.300  1.00  0.00     0.302 C 
HETATM   32  C20 UNL     1      12.125  82.137  52.276  1.00  0.00     0.303 C 
ENDBRANCH  24  25
ENDBRANCH   4  24
TORSDOF 5
ENDMDL
