MODEL 10
REMARK VINA RESULT: -9.021882145      1.606     11.532
REMARK  5 active torsions:
REMARK  status: ('A' for Active; 'I' for Inactive)
REMARK    1  A    between atoms: N2_6  and  C5_7 
REMARK    2  A    between atoms: C5_7  and  C6_8 
REMARK    3  A    between atoms: C9_11  and  C10_12 
REMARK    4  A    between atoms: C13_15  and  C14_16 
REMARK    5  A    between atoms: C14_16  and  N3_17 
ROOT
HETATM    1  C10 UNL     1      15.940  78.392  57.127  1.00  0.00    -0.005 A 
HETATM    2  C11 UNL     1      17.224  78.772  57.513  1.00  0.00     0.014 A 
HETATM    3  C12 UNL     1      17.889  78.144  58.547  1.00  0.00     0.010 A 
HETATM    4  C13 UNL     1      17.250  77.101  59.221  1.00  0.00    -0.029 A 
HETATM    5  C21 UNL     1      15.981  76.693  58.873  1.00  0.00     0.032 A 
HETATM    6  C22 UNL     1      15.361  77.358  57.828  1.00  0.00     0.056 A 
HETATM    7  C23 UNL     1      14.023  76.965  57.431  1.00  0.00     0.100 C 
HETATM    8  N5  UNL     1      12.940  76.646  57.132  1.00  0.00    -0.191 NA
ENDROOT
BRANCH   1   9
HETATM    9  C9  UNL     1      15.293  79.092  56.025  1.00  0.00    -0.024 A 
HETATM   10  C8  UNL     1      14.166  79.852  56.262  1.00  0.00     0.013 A 
HETATM   11  C7  UNL     1      13.518  80.538  55.245  1.00  0.00     0.010 A 
HETATM   12  C6  UNL     1      13.982  80.485  53.946  1.00  0.00    -0.030 A 
HETATM   13  C25 UNL     1      15.107  79.728  53.699  1.00  0.00     0.010 A 
HETATM   14  C24 UNL     1      15.751  79.043  54.727  1.00  0.00     0.013 A 
BRANCH  12  15
HETATM   15  C5  UNL     1      13.263  81.232  52.891  1.00  0.00     0.311 C 
BRANCH  15  16
HETATM   16  N2  UNL     1      13.933  82.478  52.676  1.00  0.00     0.094 N 
HETATM   17  C4  UNL     1      13.638  83.463  53.696  1.00  0.00     0.274 C 
HETATM   18  C3  UNL     1      12.198  83.862  53.693  1.00  0.00     0.060 C 
HETATM   19  C2  UNL     1      11.817  84.680  52.483  1.00  0.00     0.273 C 
HETATM   20  N1  UNL     1      12.952  85.302  51.854  1.00  0.00     0.086 N 
HETATM   21  C1  UNL     1      12.429  86.253  50.877  1.00  0.00     0.309 C 
HETATM   22  C27 UNL     1      13.826  84.406  51.177  1.00  0.00     0.302 C 
HETATM   23  C26 UNL     1      13.526  82.960  51.354  1.00  0.00     0.303 C 
ENDBRANCH  15  16
ENDBRANCH  12  15
ENDBRANCH   1   9
BRANCH   4  24
HETATM   24  C14 UNL     1      17.922  76.400  60.334  1.00  0.00     0.311 C 
BRANCH  24  25
HETATM   25  N3  UNL     1      17.434  75.050  60.521  1.00  0.00     0.094 N 
HETATM   26  C15 UNL     1      18.507  74.149  60.217  1.00  0.00     0.274 C 
HETATM   27  C16 UNL     1      19.364  73.797  61.384  1.00  0.00     0.060 C 
HETATM   28  C17 UNL     1      18.807  72.571  62.109  1.00  0.00     0.273 C 
HETATM   29  N4  UNL     1      17.826  73.039  63.037  1.00  0.00     0.086 N 
HETATM   30  C18 UNL     1      17.464  72.052  64.031  1.00  0.00     0.309 C 
HETATM   31  C19 UNL     1      16.689  73.520  62.298  1.00  0.00     0.302 C 
HETATM   32  C20 UNL     1      16.957  74.946  61.882  1.00  0.00     0.303 C 
ENDBRANCH  24  25
ENDBRANCH   4  24
TORSDOF 5
ENDMDL
