MODEL 3
REMARK VINA RESULT: -9.764350449      1.914      2.274
REMARK  5 active torsions:
REMARK  status: ('A' for Active; 'I' for Inactive)
REMARK    1  A    between atoms: N2_6  and  C5_7 
REMARK    2  A    between atoms: C5_7  and  C6_8 
REMARK    3  A    between atoms: C9_11  and  C10_12 
REMARK    4  A    between atoms: C13_15  and  C14_16 
REMARK    5  A    between atoms: C14_16  and  N3_17 
ROOT
HETATM    1  C10 UNL     1      16.066  79.114  55.440  1.00  0.00    -0.005 A 
HETATM    2  C11 UNL     1      15.644  80.435  55.303  1.00  0.00     0.014 A 
HETATM    3  C12 UNL     1      15.230  80.944  54.089  1.00  0.00     0.010 A 
HETATM    4  C13 UNL     1      15.239  80.107  52.971  1.00  0.00    -0.029 A 
HETATM    5  C21 UNL     1      15.650  78.796  53.061  1.00  0.00     0.032 A 
HETATM    6  C22 UNL     1      16.054  78.336  54.304  1.00  0.00     0.056 A 
HETATM    7  C23 UNL     1      16.498  76.963  54.444  1.00  0.00     0.100 C 
HETATM    8  N5  UNL     1      16.866  75.859  54.536  1.00  0.00    -0.191 NA
ENDROOT
BRANCH   1   9
HETATM    9  C9  UNL     1      16.487  78.634  56.749  1.00  0.00    -0.024 A 
HETATM   10  C8  UNL     1      15.552  78.134  57.631  1.00  0.00     0.013 A 
HETATM   11  C7  UNL     1      15.907  77.663  58.887  1.00  0.00     0.010 A 
HETATM   12  C6  UNL     1      17.223  77.677  59.304  1.00  0.00    -0.030 A 
HETATM   13  C25 UNL     1      18.166  78.173  58.430  1.00  0.00     0.010 A 
HETATM   14  C24 UNL     1      17.799  78.644  57.171  1.00  0.00     0.013 A 
BRANCH  12  15
HETATM   15  C5  UNL     1      17.560  77.165  60.650  1.00  0.00     0.311 C 
BRANCH  15  16
HETATM   16  N2  UNL     1      17.142  75.798  60.738  1.00  0.00     0.094 N 
HETATM   17  C4  UNL     1      17.256  75.256  62.075  1.00  0.00     0.274 C 
HETATM   18  C3  UNL     1      18.676  75.191  62.537  1.00  0.00     0.060 C 
HETATM   19  C2  UNL     1      19.485  74.147  61.807  1.00  0.00     0.273 C 
HETATM   20  N1  UNL     1      18.664  73.137  61.195  1.00  0.00     0.086 N 
HETATM   21  C1  UNL     1      19.559  72.069  60.755  1.00  0.00     0.309 C 
HETATM   22  C27 UNL     1      17.913  73.577  60.069  1.00  0.00     0.302 C 
HETATM   23  C26 UNL     1      17.965  75.038  59.794  1.00  0.00     0.303 C 
ENDBRANCH  15  16
ENDBRANCH  12  15
ENDBRANCH   1   9
BRANCH   4  24
HETATM   24  C14 UNL     1      14.806  80.608  51.651  1.00  0.00     0.311 C 
BRANCH  24  25
HETATM   25  N3  UNL     1      14.905  82.049  51.539  1.00  0.00     0.094 N 
HETATM   26  C15 UNL     1      15.991  82.347  50.652  1.00  0.00     0.274 C 
HETATM   27  C16 UNL     1      15.603  82.453  49.218  1.00  0.00     0.060 C 
HETATM   28  C17 UNL     1      15.196  83.886  48.877  1.00  0.00     0.273 C 
HETATM   29  N4  UNL     1      13.812  84.022  49.207  1.00  0.00     0.086 N 
HETATM   30  C18 UNL     1      13.198  85.196  48.625  1.00  0.00     0.309 C 
HETATM   31  C19 UNL     1      13.676  83.980  50.639  1.00  0.00     0.302 C 
HETATM   32  C20 UNL     1      13.626  82.536  51.073  1.00  0.00     0.303 C 
ENDBRANCH  24  25
ENDBRANCH   4  24
TORSDOF 5
ENDMDL
