MODEL 2
REMARK VINA RESULT: -7.583607167      1.561      2.122
REMARK  19 active torsions:
REMARK  status: ('A' for Active; 'I' for Inactive)
REMARK    1  A    between atoms: C2_2  and  C3_3 
REMARK    2  A    between atoms: C3_3  and  C5_5 
REMARK    3  A    between atoms: C5_5  and  N1_6 
REMARK    4  A    between atoms: C5_5  and  C18_30 
REMARK       I    between atoms: N1_6  and  C6_8 
REMARK    5  A    between atoms: C6_8  and  C7_10 
REMARK    6  A    between atoms: C7_10  and  N2_11 
REMARK    7  A    between atoms: C7_10  and  C15_27 
REMARK    8  A    between atoms: N2_11  and  C8_14 
REMARK    9  A    between atoms: C8_14  and  C9_15 
REMARK   10  A    between atoms: C9_15  and  O2_16 
REMARK   11  A    between atoms: C9_15  and  C10_18 
REMARK   12  A    between atoms: C10_18  and  N3_19 
REMARK   13  A    between atoms: C10_18  and  C11_23 
REMARK   14  A    between atoms: C11_23  and  C12_24 
REMARK       I    between atoms: C18_30  and  N4_32 
REMARK   15  A    between atoms: N4_32  and  C19_34 
REMARK   16  A    between atoms: C19_34  and  C20_35 
REMARK   17  A    between atoms: C19_34  and  C27_42 
REMARK   18  A    between atoms: C20_35  and  C21_36 
REMARK   19  A    between atoms: C27_42  and  O5_44 
ROOT
HETATM    1  N1  UNL     1      35.471 -10.862   3.393  1.00  0.00    -0.346 N 
ATOM      2  H1  UNL     1      36.451 -10.818   3.674  1.00  0.00     0.163 HD
HETATM    3  C6  UNL     1      34.787 -12.063   3.603  1.00  0.00     0.249 C 
HETATM    4  O1  UNL     1      33.552 -12.089   3.236  1.00  0.00    -0.271 OA
ENDROOT
BRANCH   1   5
HETATM    5  C5  UNL     1      34.885  -9.678   2.805  1.00  0.00     0.180 C 
BRANCH   5   6
HETATM    6  C3  UNL     1      35.497  -8.479   3.481  1.00  0.00     0.013 C 
HETATM    7  C4  UNL     1      35.986  -8.926   4.858  1.00  0.00     0.012 C 
BRANCH   6   8
HETATM    8  C2  UNL     1      36.684  -7.919   2.760  1.00  0.00     0.002 C 
HETATM    9  C1  UNL     1      36.875  -6.449   2.858  1.00  0.00     0.005 C 
ENDBRANCH   6   8
ENDBRANCH   5   6
BRANCH   5  10
HETATM   10  C18 UNL     1      34.946  -9.648   1.329  1.00  0.00     0.241 C 
HETATM   11  O3  UNL     1      35.786 -10.360   0.716  1.00  0.00    -0.271 OA
HETATM   12  N4  UNL     1      34.082  -8.843   0.537  1.00  0.00    -0.345 N 
ATOM     13  H4  UNL     1      33.395  -8.253   1.008  1.00  0.00     0.163 HD
BRANCH  12  14
HETATM   14  C19 UNL     1      34.136  -8.826  -0.920  1.00  0.00     0.188 C 
BRANCH  14  15
HETATM   15  C20 UNL     1      32.900  -9.491  -1.492  1.00  0.00     0.074 C 
BRANCH  15  16
HETATM   16  C21 UNL     1      33.063 -10.942  -1.707  1.00  0.00    -0.056 A 
HETATM   17  C22 UNL     1      32.661 -11.873  -0.750  1.00  0.00     0.007 A 
HETATM   18  C23 UNL     1      32.773 -13.234  -0.918  1.00  0.00     0.001 A 
HETATM   19  C24 UNL     1      33.306 -13.735  -2.075  1.00  0.00     0.000 A 
HETATM   20  C25 UNL     1      33.723 -12.855  -3.060  1.00  0.00     0.001 A 
HETATM   21  C26 UNL     1      33.600 -11.498  -2.871  1.00  0.00     0.007 A 
ENDBRANCH  15  16
ENDBRANCH  14  15
BRANCH  14  22
HETATM   22  C27 UNL     1      34.169  -7.426  -1.379  1.00  0.00     0.281 C 
HETATM   23  O4  UNL     1      33.074  -6.788  -1.548  1.00  0.00    -0.263 OA
BRANCH  22  24
HETATM   24  O5  UNL     1      35.331  -6.729  -1.648  1.00  0.00    -0.325 OA
HETATM   25  C28 UNL     1      35.761  -5.699  -0.784  1.00  0.00     0.213 C 
ENDBRANCH  22  24
ENDBRANCH  14  22
ENDBRANCH  12  14
ENDBRANCH   5  10
ENDBRANCH   1   5
BRANCH   3  26
HETATM   26  C7  UNL     1      35.400 -13.251   4.206  1.00  0.00     0.280 C 
BRANCH  26  27
HETATM   27  N2  UNL     1      36.036 -12.954   5.447  1.00  0.00    -0.059 N 
ATOM     28  H22 UNL     1      35.604 -12.141   5.887  1.00  0.00     0.278 HD
ATOM     29  H21 UNL     1      35.813 -13.665   6.144  1.00  0.00     0.278 HD
BRANCH  27  30
HETATM   30  C8  UNL     1      37.464 -12.775   5.344  1.00  0.00     0.266 C 
BRANCH  30  31
HETATM   31  C9  UNL     1      38.248 -13.812   6.106  1.00  0.00     0.174 C 
BRANCH  31  32
HETATM   32  O2  UNL     1      39.498 -13.325   6.468  1.00  0.00    -0.392 OA
ATOM     33  H2  UNL     1      40.169 -13.632   5.869  1.00  0.00     0.210 HD
ENDBRANCH  31  32
BRANCH  31  34
HETATM   34  C10 UNL     1      38.470 -15.008   5.194  1.00  0.00     0.214 C 
BRANCH  34  35
HETATM   35  N3  UNL     1      39.780 -14.938   4.641  1.00  0.00    -0.072 N 
ATOM     36  H33 UNL     1      39.779 -14.579   3.686  1.00  0.00     0.274 HD
ATOM     37  H32 UNL     1      40.343 -14.202   5.070  1.00  0.00     0.274 HD
ATOM     38  H31 UNL     1      40.221 -15.855   4.711  1.00  0.00     0.274 HD
ENDBRANCH  34  35
BRANCH  34  39
HETATM   39  C11 UNL     1      38.080 -16.303   5.808  1.00  0.00     0.039 C 
BRANCH  39  40
HETATM   40  C12 UNL     1      37.286 -16.236   7.067  1.00  0.00    -0.021 C 
HETATM   41  C13 UNL     1      36.176 -17.299   6.944  1.00  0.00     0.009 C 
HETATM   42  C14 UNL     1      38.055 -16.610   8.305  1.00  0.00     0.009 C 
ENDBRANCH  39  40
ENDBRANCH  34  39
ENDBRANCH  31  34
ENDBRANCH  30  31
ENDBRANCH  27  30
ENDBRANCH  26  27
BRANCH  26  43
HETATM   43  C15 UNL     1      34.446 -14.423   4.276  1.00  0.00     0.017 C 
HETATM   44  C16 UNL     1      33.989 -14.629   5.730  1.00  0.00     0.012 C 
HETATM   45  C17 UNL     1      34.996 -15.692   3.716  1.00  0.00     0.012 C 
ENDBRANCH  26  43
ENDBRANCH   3  26
TORSDOF 19
ENDMDL
