MODEL 3
REMARK VINA RESULT: -7.457283546      2.458      6.035
REMARK  19 active torsions:
REMARK  status: ('A' for Active; 'I' for Inactive)
REMARK    1  A    between atoms: C2_2  and  C3_3 
REMARK    2  A    between atoms: C3_3  and  C5_5 
REMARK    3  A    between atoms: C5_5  and  N1_6 
REMARK    4  A    between atoms: C5_5  and  C18_30 
REMARK       I    between atoms: N1_6  and  C6_8 
REMARK    5  A    between atoms: C6_8  and  C7_10 
REMARK    6  A    between atoms: C7_10  and  N2_11 
REMARK    7  A    between atoms: C7_10  and  C15_27 
REMARK    8  A    between atoms: N2_11  and  C8_14 
REMARK    9  A    between atoms: C8_14  and  C9_15 
REMARK   10  A    between atoms: C9_15  and  O2_16 
REMARK   11  A    between atoms: C9_15  and  C10_18 
REMARK   12  A    between atoms: C10_18  and  N3_19 
REMARK   13  A    between atoms: C10_18  and  C11_23 
REMARK   14  A    between atoms: C11_23  and  C12_24 
REMARK       I    between atoms: C18_30  and  N4_32 
REMARK   15  A    between atoms: N4_32  and  C19_34 
REMARK   16  A    between atoms: C19_34  and  C20_35 
REMARK   17  A    between atoms: C19_34  and  C27_42 
REMARK   18  A    between atoms: C20_35  and  C21_36 
REMARK   19  A    between atoms: C27_42  and  O5_44 
ROOT
HETATM    1  N1  UNL     1      34.273  -9.657   0.818  1.00  0.00    -0.346 N 
ATOM      2  H1  UNL     1      33.372  -9.471   1.259  1.00  0.00     0.163 HD
HETATM    3  C6  UNL     1      35.332 -10.051   1.642  1.00  0.00     0.249 C 
HETATM    4  O1  UNL     1      36.457 -10.277   1.057  1.00  0.00    -0.271 OA
ENDROOT
BRANCH   1   5
HETATM    5  C5  UNL     1      34.368  -9.496  -0.616  1.00  0.00     0.180 C 
BRANCH   5   6
HETATM    6  C3  UNL     1      33.349 -10.406  -1.248  1.00  0.00     0.013 C 
HETATM    7  C4  UNL     1      33.268 -10.048  -2.732  1.00  0.00     0.012 C 
BRANCH   6   8
HETATM    8  C2  UNL     1      33.705 -11.859  -1.171  1.00  0.00     0.002 C 
HETATM    9  C1  UNL     1      32.617 -12.778  -0.752  1.00  0.00     0.005 C 
ENDBRANCH   6   8
ENDBRANCH   5   6
BRANCH   5  10
HETATM   10  C18 UNL     1      34.299  -8.090  -1.067  1.00  0.00     0.241 C 
HETATM   11  O3  UNL     1      33.235  -7.431  -0.922  1.00  0.00    -0.271 OA
HETATM   12  N4  UNL     1      35.399  -7.418  -1.668  1.00  0.00    -0.345 N 
ATOM     13  H4  UNL     1      36.271  -7.930  -1.802  1.00  0.00     0.163 HD
BRANCH  12  14
HETATM   14  C19 UNL     1      35.331  -6.027  -2.100  1.00  0.00     0.188 C 
BRANCH  14  15
HETATM   15  C20 UNL     1      36.727  -5.448  -2.206  1.00  0.00     0.074 C 
BRANCH  15  16
HETATM   16  C21 UNL     1      37.151  -4.718  -0.996  1.00  0.00    -0.056 A 
HETATM   17  C22 UNL     1      36.882  -5.202   0.283  1.00  0.00     0.007 A 
HETATM   18  C23 UNL     1      37.277  -4.566   1.438  1.00  0.00     0.001 A 
HETATM   19  C24 UNL     1      37.973  -3.389   1.361  1.00  0.00     0.000 A 
HETATM   20  C25 UNL     1      38.267  -2.861   0.114  1.00  0.00     0.001 A 
HETATM   21  C26 UNL     1      37.863  -3.516  -1.025  1.00  0.00     0.007 A 
ENDBRANCH  15  16
ENDBRANCH  14  15
BRANCH  14  22
HETATM   22  C27 UNL     1      34.700  -5.972  -3.431  1.00  0.00     0.281 C 
HETATM   23  O4  UNL     1      35.105  -6.754  -4.358  1.00  0.00    -0.263 OA
BRANCH  22  24
HETATM   24  O5  UNL     1      33.670  -5.114  -3.761  1.00  0.00    -0.325 OA
HETATM   25  C28 UNL     1      33.945  -3.789  -4.165  1.00  0.00     0.213 C 
ENDBRANCH  22  24
ENDBRANCH  14  22
ENDBRANCH  12  14
ENDBRANCH   5  10
ENDBRANCH   1   5
BRANCH   3  26
HETATM   26  C7  UNL     1      35.212 -10.214   3.094  1.00  0.00     0.280 C 
BRANCH  26  27
HETATM   27  N2  UNL     1      35.383 -11.571   3.497  1.00  0.00    -0.059 N 
ATOM     28  H22 UNL     1      35.782 -12.124   2.739  1.00  0.00     0.278 HD
ATOM     29  H21 UNL     1      36.134 -11.651   4.183  1.00  0.00     0.278 HD
BRANCH  27  30
HETATM   30  C8  UNL     1      34.176 -12.189   3.994  1.00  0.00     0.266 C 
BRANCH  30  31
HETATM   31  C9  UNL     1      34.346 -12.812   5.355  1.00  0.00     0.174 C 
BRANCH  31  32
HETATM   32  O2  UNL     1      34.039 -11.904   6.360  1.00  0.00    -0.392 OA
ATOM     33  H2  UNL     1      34.364 -12.203   7.201  1.00  0.00     0.210 HD
ENDBRANCH  31  32
BRANCH  31  34
HETATM   34  C10 UNL     1      35.806 -13.202   5.523  1.00  0.00     0.214 C 
BRANCH  34  35
HETATM   35  N3  UNL     1      36.273 -12.733   6.783  1.00  0.00    -0.072 N 
ATOM     36  H33 UNL     1      37.017 -13.319   7.163  1.00  0.00     0.274 HD
ATOM     37  H32 UNL     1      36.803 -11.864   6.701  1.00  0.00     0.274 HD
ATOM     38  H31 UNL     1      35.483 -12.647   7.421  1.00  0.00     0.274 HD
ENDBRANCH  34  35
BRANCH  34  39
HETATM   39  C11 UNL     1      36.080 -14.627   5.204  1.00  0.00     0.039 C 
BRANCH  39  40
HETATM   40  C12 UNL     1      35.318 -15.646   5.980  1.00  0.00    -0.021 C 
HETATM   41  C13 UNL     1      34.526 -16.479   4.952  1.00  0.00     0.009 C 
HETATM   42  C14 UNL     1      36.179 -16.638   6.715  1.00  0.00     0.009 C 
ENDBRANCH  39  40
ENDBRANCH  34  39
ENDBRANCH  31  34
ENDBRANCH  30  31
ENDBRANCH  27  30
ENDBRANCH  26  27
BRANCH  26  43
HETATM   43  C15 UNL     1      36.079  -9.238   3.860  1.00  0.00     0.017 C 
HETATM   44  C16 UNL     1      35.726  -9.301   5.356  1.00  0.00     0.012 C 
HETATM   45  C17 UNL     1      36.003  -7.834   3.364  1.00  0.00     0.012 C 
ENDBRANCH  26  43
ENDBRANCH   3  26
TORSDOF 19
ENDMDL
