MODEL 1
REMARK VINA RESULT: -8.069099107      0.000      0.000
REMARK  19 active torsions:
REMARK  status: ('A' for Active; 'I' for Inactive)
REMARK    1  A    between atoms: C2_2  and  C3_3 
REMARK    2  A    between atoms: C3_3  and  C5_5 
REMARK    3  A    between atoms: C5_5  and  N1_6 
REMARK    4  A    between atoms: C5_5  and  C18_30 
REMARK       I    between atoms: N1_6  and  C6_8 
REMARK    5  A    between atoms: C6_8  and  C7_10 
REMARK    6  A    between atoms: C7_10  and  N2_11 
REMARK    7  A    between atoms: C7_10  and  C15_27 
REMARK    8  A    between atoms: N2_11  and  C8_14 
REMARK    9  A    between atoms: C8_14  and  C9_15 
REMARK   10  A    between atoms: C9_15  and  O2_16 
REMARK   11  A    between atoms: C9_15  and  C10_18 
REMARK   12  A    between atoms: C10_18  and  N3_19 
REMARK   13  A    between atoms: C10_18  and  C11_23 
REMARK   14  A    between atoms: C11_23  and  C12_24 
REMARK       I    between atoms: C18_30  and  N4_32 
REMARK   15  A    between atoms: N4_32  and  C19_34 
REMARK   16  A    between atoms: C19_34  and  C20_35 
REMARK   17  A    between atoms: C19_34  and  C27_42 
REMARK   18  A    between atoms: C20_35  and  C21_36 
REMARK   19  A    between atoms: C27_42  and  O5_44 
ROOT
HETATM    1  N1  UNL     1      35.370 -10.872   3.565  1.00  0.00    -0.346 N 
ATOM      2  H1  UNL     1      36.312 -10.866   3.954  1.00  0.00     0.163 HD
HETATM    3  C6  UNL     1      34.633 -12.057   3.660  1.00  0.00     0.249 C 
HETATM    4  O1  UNL     1      33.447 -12.034   3.156  1.00  0.00    -0.271 OA
ENDROOT
BRANCH   1   5
HETATM    5  C5  UNL     1      34.887  -9.654   2.951  1.00  0.00     0.180 C 
BRANCH   5   6
HETATM    6  C3  UNL     1      35.550  -8.496   3.648  1.00  0.00     0.013 C 
HETATM    7  C4  UNL     1      36.062  -9.001   4.996  1.00  0.00     0.012 C 
BRANCH   6   8
HETATM    8  C2  UNL     1      36.733  -7.945   2.914  1.00  0.00     0.002 C 
HETATM    9  C1  UNL     1      36.840  -6.464   2.864  1.00  0.00     0.005 C 
ENDBRANCH   6   8
ENDBRANCH   5   6
BRANCH   5  10
HETATM   10  C18 UNL     1      35.008  -9.636   1.478  1.00  0.00     0.241 C 
HETATM   11  O3  UNL     1      35.891 -10.331   0.907  1.00  0.00    -0.271 OA
HETATM   12  N4  UNL     1      34.157  -8.860   0.644  1.00  0.00    -0.345 N 
ATOM     13  H4  UNL     1      33.437  -8.283   1.080  1.00  0.00     0.163 HD
BRANCH  12  14
HETATM   14  C19 UNL     1      34.272  -8.855  -0.809  1.00  0.00     0.188 C 
BRANCH  14  15
HETATM   15  C20 UNL     1      33.120  -9.625  -1.423  1.00  0.00     0.074 C 
BRANCH  15  16
HETATM   16  C21 UNL     1      33.382 -11.073  -1.541  1.00  0.00    -0.056 A 
HETATM   17  C22 UNL     1      32.740 -12.001  -0.723  1.00  0.00     0.007 A 
HETATM   18  C23 UNL     1      32.937 -13.361  -0.814  1.00  0.00     0.001 A 
HETATM   19  C24 UNL     1      33.806 -13.861  -1.746  1.00  0.00     0.000 A 
HETATM   20  C25 UNL     1      34.472 -12.982  -2.585  1.00  0.00     0.001 A 
HETATM   21  C26 UNL     1      34.258 -11.628  -2.477  1.00  0.00     0.007 A 
ENDBRANCH  15  16
ENDBRANCH  14  15
BRANCH  14  22
HETATM   22  C27 UNL     1      34.209  -7.461  -1.287  1.00  0.00     0.281 C 
HETATM   23  O4  UNL     1      33.072  -6.895  -1.441  1.00  0.00    -0.263 OA
BRANCH  22  24
HETATM   24  O5  UNL     1      35.319  -6.698  -1.587  1.00  0.00    -0.325 OA
HETATM   25  C28 UNL     1      35.724  -5.655  -0.724  1.00  0.00     0.213 C 
ENDBRANCH  22  24
ENDBRANCH  14  22
ENDBRANCH  12  14
ENDBRANCH   5  10
ENDBRANCH   1   5
BRANCH   3  26
HETATM   26  C7  UNL     1      35.140 -13.278   4.290  1.00  0.00     0.280 C 
BRANCH  26  27
HETATM   27  N2  UNL     1      35.306 -13.126   5.699  1.00  0.00    -0.059 N 
ATOM     28  H22 UNL     1      35.026 -12.190   5.994  1.00  0.00     0.278 HD
ATOM     29  H21 UNL     1      34.614 -13.680   6.205  1.00  0.00     0.278 HD
BRANCH  27  30
HETATM   30  C8  UNL     1      36.638 -13.427   6.167  1.00  0.00     0.266 C 
BRANCH  30  31
HETATM   31  C9  UNL     1      37.531 -12.216   6.234  1.00  0.00     0.174 C 
BRANCH  31  32
HETATM   32  O2  UNL     1      38.095 -11.943   4.995  1.00  0.00    -0.392 OA
ATOM     33  H2  UNL     1      37.543 -11.358   4.490  1.00  0.00     0.210 HD
ENDBRANCH  31  32
BRANCH  31  34
HETATM   34  C10 UNL     1      38.668 -12.513   7.199  1.00  0.00     0.214 C 
BRANCH  34  35
HETATM   35  N3  UNL     1      39.566 -13.437   6.592  1.00  0.00    -0.072 N 
ATOM     36  H33 UNL     1      39.124 -14.336   6.397  1.00  0.00     0.274 HD
ATOM     37  H32 UNL     1      39.796 -13.179   5.632  1.00  0.00     0.274 HD
ATOM     38  H31 UNL     1      40.395 -13.531   7.179  1.00  0.00     0.274 HD
ENDBRANCH  34  35
BRANCH  34  39
HETATM   39  C11 UNL     1      39.275 -11.296   7.796  1.00  0.00     0.039 C 
BRANCH  39  40
HETATM   40  C12 UNL     1      39.468 -11.298   9.273  1.00  0.00    -0.021 C 
HETATM   41  C13 UNL     1      38.362 -12.199   9.859  1.00  0.00     0.009 C 
HETATM   42  C14 UNL     1      40.763 -11.915   9.728  1.00  0.00     0.009 C 
ENDBRANCH  39  40
ENDBRANCH  34  39
ENDBRANCH  31  34
ENDBRANCH  30  31
ENDBRANCH  27  30
ENDBRANCH  26  27
BRANCH  26  43
HETATM   43  C15 UNL     1      34.345 -14.505   3.901  1.00  0.00     0.017 C 
HETATM   44  C16 UNL     1      33.551 -15.011   5.117  1.00  0.00     0.012 C 
HETATM   45  C17 UNL     1      35.165 -15.606   3.319  1.00  0.00     0.012 C 
ENDBRANCH  26  43
ENDBRANCH   3  26
TORSDOF 19
ENDMDL
