MODEL 2
REMARK VINA RESULT: -6.294619176      1.632      4.612
REMARK  2 active torsions:
REMARK  status: ('A' for Active; 'I' for Inactive)
REMARK    1  A    between atoms: C15_16  and  O1_17 
REMARK    2  A    between atoms: C16_19  and  O2_20 
ROOT
HETATM    1  C1  UNL     1      33.790  -4.514  13.106  1.00  0.00     0.149 C 
HETATM    2  N1  UNL     1      34.918  -3.666  12.843  1.00  0.00    -0.384 N 
HETATM    3  C2  UNL     1      34.857  -2.558  11.875  1.00  0.00     0.127 C 
HETATM    4  C3  UNL     1      35.304  -1.343  12.620  1.00  0.00     0.059 C 
HETATM    5  C4  UNL     1      36.606  -1.583  13.267  1.00  0.00    -0.043 A 
HETATM    6  C5  UNL     1      37.486  -0.508  13.472  1.00  0.00     0.008 A 
HETATM    7  C6  UNL     1      38.688  -0.701  14.100  1.00  0.00     0.001 A 
HETATM    8  C7  UNL     1      39.095  -1.937  14.557  1.00  0.00     0.013 A 
HETATM    9  C8  UNL     1      38.260  -3.004  14.372  1.00  0.00    -0.009 A 
HETATM   10  C9  UNL     1      37.018  -2.812  13.725  1.00  0.00     0.008 A 
HETATM   11  C10 UNL     1      36.153  -3.863  13.506  1.00  0.00     0.042 A 
HETATM   12  C11 UNL     1      36.471  -5.125  13.916  1.00  0.00     0.042 A 
HETATM   13  C12 UNL     1      37.679  -5.344  14.557  1.00  0.00    -0.020 A 
HETATM   14  C13 UNL     1      38.018  -6.607  14.979  1.00  0.00     0.015 A 
HETATM   15  C14 UNL     1      39.209  -6.852  15.617  1.00  0.00     0.040 A 
HETATM   16  C15 UNL     1      40.086  -5.823  15.841  1.00  0.00     0.099 A 
HETATM   17  C16 UNL     1      39.771  -4.517  15.422  1.00  0.00     0.110 A 
HETATM   18  C17 UNL     1      38.585  -4.299  14.793  1.00  0.00     0.021 A 
ENDROOT
BRANCH  16  19
HETATM   19  O1  UNL     1      41.293  -6.003  16.474  1.00  0.00    -0.358 OA
ATOM     20  H1  UNL     1      41.854  -5.278  16.721  1.00  0.00     0.217 HD
ENDBRANCH  16  19
BRANCH  17  21
HETATM   21  O2  UNL     1      40.679  -3.522  15.669  1.00  0.00    -0.357 OA
ATOM     22  H2  UNL     1      41.207  -3.582  16.457  1.00  0.00     0.217 HD
ENDBRANCH  17  21
TORSDOF 2
ENDMDL
