MODEL 4
REMARK VINA RESULT: -6.241488388      6.411      9.813
REMARK  2 active torsions:
REMARK  status: ('A' for Active; 'I' for Inactive)
REMARK    1  A    between atoms: C15_16  and  O1_17 
REMARK    2  A    between atoms: C16_19  and  O2_20 
ROOT
HETATM    1  C1  UNL     1      30.637   3.109  11.687  1.00  0.00     0.149 C 
HETATM    2  N1  UNL     1      31.821   3.907  11.834  1.00  0.00    -0.384 N 
HETATM    3  C2  UNL     1      31.814   5.365  11.629  1.00  0.00     0.127 C 
HETATM    4  C3  UNL     1      32.394   5.953  12.873  1.00  0.00     0.059 C 
HETATM    5  C4  UNL     1      33.698   5.336  13.178  1.00  0.00    -0.043 A 
HETATM    6  C5  UNL     1      34.674   6.081  13.859  1.00  0.00     0.008 A 
HETATM    7  C6  UNL     1      35.880   5.518  14.181  1.00  0.00     0.001 A 
HETATM    8  C7  UNL     1      36.199   4.215  13.860  1.00  0.00     0.013 A 
HETATM    9  C8  UNL     1      35.269   3.465  13.197  1.00  0.00    -0.009 A 
HETATM   10  C9  UNL     1      34.022   4.038  12.861  1.00  0.00     0.008 A 
HETATM   11  C10 UNL     1      33.061   3.321  12.180  1.00  0.00     0.042 A 
HETATM   12  C11 UNL     1      33.288   2.026  11.814  1.00  0.00     0.042 A 
HETATM   13  C12 UNL     1      34.499   1.434  12.133  1.00  0.00    -0.020 A 
HETATM   14  C13 UNL     1      34.746   0.131  11.773  1.00  0.00     0.015 A 
HETATM   15  C14 UNL     1      35.938  -0.480  12.076  1.00  0.00     0.040 A 
HETATM   16  C15 UNL     1      36.908   0.215  12.750  1.00  0.00     0.099 A 
HETATM   17  C16 UNL     1      36.688   1.553  13.132  1.00  0.00     0.110 A 
HETATM   18  C17 UNL     1      35.500   2.135  12.821  1.00  0.00     0.021 A 
ENDROOT
BRANCH  16  19
HETATM   19  O1  UNL     1      38.122  -0.338  13.082  1.00  0.00    -0.358 OA
ATOM     20  H1  UNL     1      38.710   0.059  13.713  1.00  0.00     0.217 HD
ENDBRANCH  16  19
BRANCH  17  21
HETATM   21  O2  UNL     1      37.688   2.206  13.802  1.00  0.00    -0.357 OA
ATOM     22  H2  UNL     1      37.839   3.122  13.600  1.00  0.00     0.217 HD
ENDBRANCH  17  21
TORSDOF 2
ENDMDL
