MODEL 7
REMARK VINA RESULT: -6.045210185      2.285      5.106
REMARK  2 active torsions:
REMARK  status: ('A' for Active; 'I' for Inactive)
REMARK    1  A    between atoms: C15_16  and  O1_17 
REMARK    2  A    between atoms: C16_19  and  O2_20 
ROOT
HETATM    1  C1  UNL     1      33.614  -2.309  11.964  1.00  0.00     0.149 C 
HETATM    2  N1  UNL     1      35.028  -2.134  12.141  1.00  0.00    -0.384 N 
HETATM    3  C2  UNL     1      35.739  -0.943  11.648  1.00  0.00     0.127 C 
HETATM    4  C3  UNL     1      36.469  -0.388  12.826  1.00  0.00     0.059 C 
HETATM    5  C4  UNL     1      37.294  -1.432  13.461  1.00  0.00    -0.043 A 
HETATM    6  C5  UNL     1      38.475  -1.070  14.129  1.00  0.00     0.008 A 
HETATM    7  C6  UNL     1      39.240  -2.019  14.755  1.00  0.00     0.001 A 
HETATM    8  C7  UNL     1      38.902  -3.356  14.762  1.00  0.00     0.013 A 
HETATM    9  C8  UNL     1      37.758  -3.739  14.119  1.00  0.00    -0.009 A 
HETATM   10  C9  UNL     1      36.964  -2.767  13.472  1.00  0.00     0.008 A 
HETATM   11  C10 UNL     1      35.810  -3.112  12.800  1.00  0.00     0.042 A 
HETATM   12  C11 UNL     1      35.398  -4.412  12.747  1.00  0.00     0.042 A 
HETATM   13  C12 UNL     1      36.154  -5.389  13.375  1.00  0.00    -0.020 A 
HETATM   14  C13 UNL     1      35.755  -6.703  13.333  1.00  0.00     0.015 A 
HETATM   15  C14 UNL     1      36.485  -7.691  13.948  1.00  0.00     0.040 A 
HETATM   16  C15 UNL     1      37.637  -7.370  14.618  1.00  0.00     0.099 A 
HETATM   17  C16 UNL     1      38.075  -6.033  14.679  1.00  0.00     0.110 A 
HETATM   18  C17 UNL     1      37.335  -5.073  14.064  1.00  0.00     0.021 A 
ENDROOT
BRANCH  16  19
HETATM   19  O1  UNL     1      38.412  -8.311  15.252  1.00  0.00    -0.358 OA
ATOM     20  H1  UNL     1      38.269  -8.568  16.155  1.00  0.00     0.217 HD
ENDBRANCH  16  19
BRANCH  17  21
HETATM   21  O2  UNL     1      39.232  -5.762  15.360  1.00  0.00    -0.357 OA
ATOM     22  H2  UNL     1      39.438  -4.854  15.552  1.00  0.00     0.217 HD
ENDBRANCH  17  21
TORSDOF 2
ENDMDL
