MODEL 6
REMARK VINA RESULT: -6.146313932      2.325      3.343
REMARK  1 active torsions:
REMARK  status: ('A' for Active; 'I' for Inactive)
REMARK    1  A    between atoms: C2_2  and  C3_4 
ROOT
HETATM    1  C3  UNL     1       5.891 -11.025   4.388  1.00  0.00     0.037 A 
HETATM    2  C4  UNL     1       4.851 -11.441   3.601  1.00  0.00     0.104 A 
HETATM    3  N1  UNL     1       5.269 -12.369   2.717  1.00  0.00    -0.364 N 
ATOM      4  H1  UNL     1       4.704 -12.846   2.014  1.00  0.00     0.165 HD
HETATM    5  C5  UNL     1       6.602 -12.539   2.954  1.00  0.00     0.049 A 
HETATM    6  C6  UNL     1       7.514 -13.376   2.327  1.00  0.00    -0.034 A 
HETATM    7  C7  UNL     1       7.055 -14.245   1.229  1.00  0.00     0.050 C 
HETATM    8  C8  UNL     1       8.832 -13.388   2.733  1.00  0.00     0.009 A 
HETATM    9  C9  UNL     1       9.220 -12.566   3.757  1.00  0.00     0.002 A 
HETATM   10  C10 UNL     1       8.340 -11.724   4.400  1.00  0.00     0.015 A 
HETATM   11  C11 UNL     1       7.005 -11.718   3.982  1.00  0.00     0.006 A 
ENDROOT
BRANCH   1  12
HETATM   12  C2  UNL     1       5.827 -10.032   5.455  1.00  0.00     0.158 C 
HETATM   13  C1  UNL     1       5.323  -8.664   5.183  1.00  0.00     0.097 C 
HETATM   14  O1  UNL     1       6.202 -10.335   6.622  1.00  0.00    -0.293 OA
ENDBRANCH   1  12
TORSDOF 1
ENDMDL
