MODEL 4
REMARK VINA RESULT: -6.322805209      2.828      4.660
REMARK  1 active torsions:
REMARK  status: ('A' for Active; 'I' for Inactive)
REMARK    1  A    between atoms: C2_2  and  C3_4 
ROOT
HETATM    1  C3  UNL     1       7.762 -13.142   2.943  1.00  0.00     0.037 A 
HETATM    2  C4  UNL     1       8.849 -13.025   3.766  1.00  0.00     0.104 A 
HETATM    3  N1  UNL     1       8.608 -12.129   4.743  1.00  0.00    -0.364 N 
ATOM      4  H1  UNL     1       9.244 -11.849   5.490  1.00  0.00     0.165 HD
HETATM    5  C5  UNL     1       7.340 -11.671   4.528  1.00  0.00     0.049 A 
HETATM    6  C6  UNL     1       6.602 -10.738   5.242  1.00  0.00    -0.034 A 
HETATM    7  C7  UNL     1       7.205 -10.097   6.423  1.00  0.00     0.050 C 
HETATM    8  C8  UNL     1       5.320 -10.422   4.843  1.00  0.00     0.009 A 
HETATM    9  C9  UNL     1       4.795 -11.040   3.740  1.00  0.00     0.002 A 
HETATM   10  C10 UNL     1       5.502 -11.970   3.010  1.00  0.00     0.015 A 
HETATM   11  C11 UNL     1       6.801 -12.286   3.422  1.00  0.00     0.006 A 
ENDROOT
BRANCH   1  12
HETATM   12  C2  UNL     1       7.646 -14.012   1.777  1.00  0.00     0.158 C 
HETATM   13  C1  UNL     1       8.460 -15.248   1.675  1.00  0.00     0.097 C 
HETATM   14  O1  UNL     1       6.848 -13.716   0.845  1.00  0.00    -0.293 OA
ENDBRANCH   1  12
TORSDOF 1
ENDMDL
