MODEL 14
REMARK VINA RESULT: -5.840601099      2.831      4.569
REMARK  1 active torsions:
REMARK  status: ('A' for Active; 'I' for Inactive)
REMARK    1  A    between atoms: C2_2  and  C3_4 
ROOT
HETATM    1  C3  UNL     1       7.140 -12.041   3.811  1.00  0.00     0.037 A 
HETATM    2  C4  UNL     1       7.775 -12.240   5.007  1.00  0.00     0.104 A 
HETATM    3  N1  UNL     1       7.307 -11.386   5.939  1.00  0.00    -0.364 N 
ATOM      4  H1  UNL     1       7.603 -11.317   6.913  1.00  0.00     0.165 HD
HETATM    5  C5  UNL     1       6.355 -10.633   5.314  1.00  0.00     0.049 A 
HETATM    6  C6  UNL     1       5.565  -9.610   5.816  1.00  0.00    -0.034 A 
HETATM    7  C7  UNL     1       5.711  -9.215   7.228  1.00  0.00     0.050 C 
HETATM    8  C8  UNL     1       4.654  -8.977   4.996  1.00  0.00     0.009 A 
HETATM    9  C9  UNL     1       4.546  -9.373   3.691  1.00  0.00     0.002 A 
HETATM   10  C10 UNL     1       5.317 -10.385   3.162  1.00  0.00     0.015 A 
HETATM   11  C11 UNL     1       6.237 -11.023   4.000  1.00  0.00     0.006 A 
ENDROOT
BRANCH   1  12
HETATM   12  C2  UNL     1       7.377 -12.772   2.571  1.00  0.00     0.158 C 
HETATM   13  C1  UNL     1       8.759 -13.079   2.129  1.00  0.00     0.097 C 
HETATM   14  O1  UNL     1       6.401 -13.149   1.864  1.00  0.00    -0.293 OA
ENDBRANCH   1  12
TORSDOF 1
ENDMDL
