MODEL 20
REMARK VINA RESULT: -5.747278724      1.760      2.818
REMARK  1 active torsions:
REMARK  status: ('A' for Active; 'I' for Inactive)
REMARK    1  A    between atoms: C2_2  and  C3_4 
ROOT
HETATM    1  C3  UNL     1       8.916 -10.848   6.977  1.00  0.00     0.037 A 
HETATM    2  C4  UNL     1      10.203 -11.210   6.685  1.00  0.00     0.104 A 
HETATM    3  N1  UNL     1      10.276 -11.744   5.450  1.00  0.00    -0.364 N 
ATOM      4  H1  UNL     1      11.110 -12.096   4.981  1.00  0.00     0.165 HD
HETATM    5  C5  UNL     1       9.004 -11.718   4.955  1.00  0.00     0.049 A 
HETATM    6  C6  UNL     1       8.522 -12.147   3.727  1.00  0.00    -0.034 A 
HETATM    7  C7  UNL     1       9.460 -12.731   2.751  1.00  0.00     0.050 C 
HETATM    8  C8  UNL     1       7.181 -12.023   3.431  1.00  0.00     0.009 A 
HETATM    9  C9  UNL     1       6.342 -11.475   4.363  1.00  0.00     0.002 A 
HETATM   10  C10 UNL     1       6.788 -11.040   5.591  1.00  0.00     0.015 A 
HETATM   11  C11 UNL     1       8.150 -11.168   5.883  1.00  0.00     0.006 A 
ENDROOT
BRANCH   1  12
HETATM   12  C2  UNL     1       8.447 -10.239   8.217  1.00  0.00     0.158 C 
HETATM   13  C1  UNL     1       7.637  -8.997   8.188  1.00  0.00     0.097 C 
HETATM   14  O1  UNL     1       8.729 -10.771   9.328  1.00  0.00    -0.293 OA
ENDBRANCH   1  12
TORSDOF 1
ENDMDL
