MODEL 5
REMARK VINA RESULT: -6.269305579      2.136      3.753
REMARK  1 active torsions:
REMARK  status: ('A' for Active; 'I' for Inactive)
REMARK    1  A    between atoms: C2_2  and  C3_4 
ROOT
HETATM    1  C3  UNL     1       8.657 -12.451   4.000  1.00  0.00     0.037 A 
HETATM    2  C4  UNL     1       9.190 -12.102   5.212  1.00  0.00     0.104 A 
HETATM    3  N1  UNL     1       8.312 -11.366   5.921  1.00  0.00    -0.364 N 
ATOM      4  H1  UNL     1       8.450 -10.976   6.853  1.00  0.00     0.165 HD
HETATM    5  C5  UNL     1       7.201 -11.249   5.137  1.00  0.00     0.049 A 
HETATM    6  C6  UNL     1       6.005 -10.593   5.387  1.00  0.00    -0.034 A 
HETATM    7  C7  UNL     1       5.825  -9.891   6.670  1.00  0.00     0.050 C 
HETATM    8  C8  UNL     1       5.002 -10.602   4.441  1.00  0.00     0.009 A 
HETATM    9  C9  UNL     1       5.206 -11.266   3.261  1.00  0.00     0.002 A 
HETATM   10  C10 UNL     1       6.382 -11.926   2.981  1.00  0.00     0.015 A 
HETATM   11  C11 UNL     1       7.395 -11.912   3.947  1.00  0.00     0.006 A 
ENDROOT
BRANCH   1  12
HETATM   12  C2  UNL     1       9.307 -13.244   2.962  1.00  0.00     0.158 C 
HETATM   13  C1  UNL     1       9.265 -14.725   3.008  1.00  0.00     0.097 C 
HETATM   14  O1  UNL     1       9.912 -12.668   2.015  1.00  0.00    -0.293 OA
ENDBRANCH   1  12
TORSDOF 1
ENDMDL
