MODEL 8
REMARK VINA RESULT: -6.058215418      2.653      3.994
REMARK  1 active torsions:
REMARK  status: ('A' for Active; 'I' for Inactive)
REMARK    1  A    between atoms: C2_2  and  C3_4 
ROOT
HETATM    1  C3  UNL     1       6.000 -11.620   3.325  1.00  0.00     0.037 A 
HETATM    2  C4  UNL     1       5.255 -12.446   2.527  1.00  0.00     0.104 A 
HETATM    3  N1  UNL     1       6.022 -13.433   2.024  1.00  0.00    -0.364 N 
ATOM      4  H1  UNL     1       5.725 -14.185   1.401  1.00  0.00     0.165 HD
HETATM    5  C5  UNL     1       7.277 -13.223   2.516  1.00  0.00     0.049 A 
HETATM    6  C6  UNL     1       8.442 -13.946   2.311  1.00  0.00    -0.034 A 
HETATM    7  C7  UNL     1       8.406 -15.137   1.444  1.00  0.00     0.050 C 
HETATM    8  C8  UNL     1       9.617 -13.549   2.917  1.00  0.00     0.009 A 
HETATM    9  C9  UNL     1       9.610 -12.438   3.716  1.00  0.00     0.002 A 
HETATM   10  C10 UNL     1       8.471 -11.698   3.939  1.00  0.00     0.015 A 
HETATM   11  C11 UNL     1       7.284 -12.107   3.322  1.00  0.00     0.006 A 
ENDROOT
BRANCH   1  12
HETATM   12  C2  UNL     1       5.520 -10.443   4.041  1.00  0.00     0.158 C 
HETATM   13  C1  UNL     1       4.888  -9.319   3.309  1.00  0.00     0.097 C 
HETATM   14  O1  UNL     1       5.640 -10.376   5.297  1.00  0.00    -0.293 OA
ENDBRANCH   1  12
TORSDOF 1
ENDMDL
