MODEL 1
REMARK VINA RESULT: -9.213277535      0.000      0.000
REMARK  5 active torsions:
REMARK  status: ('A' for Active; 'I' for Inactive)
REMARK    1  A    between atoms: C3_6  and  C4_7 
REMARK    2  A    between atoms: C4_7  and  N3_8 
REMARK    3  A    between atoms: C6_10  and  O1_11 
REMARK    4  A    between atoms: C7_13  and  C8_14 
REMARK    5  A    between atoms: C8_14  and  O2_15 
ROOT
HETATM    1  N1  UNL     1      42.736  -5.353  55.619  1.00  0.00    -0.063 NA
HETATM    2  C1  UNL     1      42.924  -4.787  56.923  1.00  0.00     0.195 A 
HETATM    3  N2  UNL     1      43.260  -5.653  57.919  1.00  0.00    -0.328 N 
ATOM      4  H2  UNL     1      43.397  -6.641  57.708  1.00  0.00     0.168 HD
HETATM    5  C2  UNL     1      43.413  -5.205  59.186  1.00  0.00     0.076 A 
HETATM    6  C3  UNL     1      43.630  -5.924  60.367  1.00  0.00     0.015 A 
HETATM    7  C10 UNL     1      43.573  -4.968  61.361  1.00  0.00     0.099 A 
HETATM    8  N4  UNL     1      43.335  -3.739  60.794  1.00  0.00    -0.359 N 
ATOM      9  H4  UNL     1      43.254  -2.863  61.311  1.00  0.00     0.165 HD
HETATM   10  C11 UNL     1      43.224  -3.856  59.461  1.00  0.00     0.128 A 
HETATM   11  C12 UNL     1      42.889  -3.028  58.415  1.00  0.00     0.276 A 
HETATM   12  O3  UNL     1      42.720  -1.800  58.614  1.00  0.00    -0.266 OA
HETATM   13  N5  UNL     1      42.743  -3.497  57.159  1.00  0.00    -0.295 N 
ATOM     14  H5  UNL     1      42.497  -2.864  56.398  1.00  0.00     0.171 HD
ENDROOT
BRANCH   6  15
HETATM   15  C4  UNL     1      43.926  -7.370  60.410  1.00  0.00     0.315 C 
BRANCH  15  16
HETATM   16  N3  UNL     1      42.663  -8.005  60.541  1.00  0.00     0.095 N 
HETATM   17  C5  UNL     1      42.492  -8.419  61.950  1.00  0.00     0.304 C 
HETATM   18  C6  UNL     1      41.175  -9.146  61.877  1.00  0.00     0.154 C 
HETATM   19  C7  UNL     1      40.576  -8.795  60.539  1.00  0.00     0.068 C 
HETATM   20  C9  UNL     1      41.411  -7.492  60.217  1.00  0.00     0.282 C 
BRANCH  18  21
HETATM   21  O1  UNL     1      41.421 -10.536  61.942  1.00  0.00    -0.393 OA
ATOM     22  H1  UNL     1      41.280 -10.828  62.836  1.00  0.00     0.210 HD
ENDBRANCH  18  21
BRANCH  19  23
HETATM   23  C8  UNL     1      39.115  -8.393  60.645  1.00  0.00     0.173 C 
BRANCH  23  24
HETATM   24  O2  UNL     1      38.422  -8.366  59.429  1.00  0.00    -0.400 OA
ATOM     25  H2  UNL     1      37.690  -7.761  59.399  1.00  0.00     0.209 HD
ENDBRANCH  23  24
ENDBRANCH  19  23
ENDBRANCH  15  16
ENDBRANCH   6  15
TORSDOF 5
ENDMDL
