MODEL 6
REMARK VINA RESULT: -7.768007576      1.344      2.170
REMARK  5 active torsions:
REMARK  status: ('A' for Active; 'I' for Inactive)
REMARK    1  A    between atoms: C3_6  and  C4_7 
REMARK    2  A    between atoms: C4_7  and  N3_8 
REMARK    3  A    between atoms: C6_10  and  O1_11 
REMARK    4  A    between atoms: C7_13  and  C8_14 
REMARK    5  A    between atoms: C8_14  and  O2_15 
ROOT
HETATM    1  N1  UNL     1      42.192  -3.508  56.570  1.00  0.00    -0.063 NA
HETATM    2  C1  UNL     1      42.526  -3.570  57.963  1.00  0.00     0.195 A 
HETATM    3  N2  UNL     1      42.662  -4.813  58.502  1.00  0.00    -0.328 N 
ATOM      4  H2  UNL     1      42.558  -5.638  57.910  1.00  0.00     0.168 HD
HETATM    5  C2  UNL     1      42.934  -4.958  59.818  1.00  0.00     0.076 A 
HETATM    6  C3  UNL     1      42.992  -6.119  60.597  1.00  0.00     0.015 A 
HETATM    7  C10 UNL     1      43.178  -5.657  61.884  1.00  0.00     0.099 A 
HETATM    8  N4  UNL     1      43.229  -4.283  61.868  1.00  0.00    -0.359 N 
ATOM      9  H4  UNL     1      43.366  -3.695  62.691  1.00  0.00     0.165 HD
HETATM   10  C11 UNL     1      43.074  -3.827  60.615  1.00  0.00     0.128 A 
HETATM   11  C12 UNL     1      42.931  -2.597  60.016  1.00  0.00     0.276 A 
HETATM   12  O3  UNL     1      43.060  -1.548  60.693  1.00  0.00    -0.266 OA
HETATM   13  N5  UNL     1      42.660  -2.478  58.699  1.00  0.00    -0.295 N 
ATOM     14  H5  UNL     1      42.560  -1.555  58.276  1.00  0.00     0.171 HD
ENDROOT
BRANCH   6  15
HETATM   15  C4  UNL     1      42.937  -7.487  60.042  1.00  0.00     0.315 C 
BRANCH  15  16
HETATM   16  N3  UNL     1      41.946  -8.160  60.805  1.00  0.00     0.095 N 
HETATM   17  C5  UNL     1      40.899  -8.650  59.883  1.00  0.00     0.304 C 
HETATM   18  C6  UNL     1      39.910  -9.232  60.858  1.00  0.00     0.154 C 
HETATM   19  C7  UNL     1      40.626  -9.317  62.181  1.00  0.00     0.068 C 
HETATM   20  C9  UNL     1      42.120  -9.234  61.672  1.00  0.00     0.282 C 
BRANCH  18  21
HETATM   21  O1  UNL     1      38.808  -8.353  60.963  1.00  0.00    -0.393 OA
ATOM     22  H1  UNL     1      38.240  -8.660  61.661  1.00  0.00     0.210 HD
ENDBRANCH  18  21
BRANCH  19  23
HETATM   23  C8  UNL     1      40.441 -10.666  62.855  1.00  0.00     0.173 C 
BRANCH  23  24
HETATM   24  O2  UNL     1      39.413 -10.715  63.803  1.00  0.00    -0.400 OA
ATOM     25  H2  UNL     1      39.145 -11.590  64.058  1.00  0.00     0.209 HD
ENDBRANCH  23  24
ENDBRANCH  19  23
ENDBRANCH  15  16
ENDBRANCH   6  15
TORSDOF 5
ENDMDL
