MODEL 3
REMARK VINA RESULT: -8.537795949      0.766      1.769
REMARK  5 active torsions:
REMARK  status: ('A' for Active; 'I' for Inactive)
REMARK    1  A    between atoms: C3_6  and  C4_7 
REMARK    2  A    between atoms: C4_7  and  N3_8 
REMARK    3  A    between atoms: C6_10  and  O1_11 
REMARK    4  A    between atoms: C7_13  and  C8_14 
REMARK    5  A    between atoms: C8_14  and  O2_15 
ROOT
HETATM    1  N1  UNL     1      42.949  -5.373  55.778  1.00  0.00    -0.063 NA
HETATM    2  C1  UNL     1      43.054  -4.754  57.067  1.00  0.00     0.195 A 
HETATM    3  N2  UNL     1      43.356  -5.573  58.112  1.00  0.00    -0.328 N 
ATOM      4  H2  UNL     1      43.527  -6.566  57.947  1.00  0.00     0.168 HD
HETATM    5  C2  UNL     1      43.432  -5.075  59.367  1.00  0.00     0.076 A 
HETATM    6  C3  UNL     1      43.603  -5.743  60.585  1.00  0.00     0.015 A 
HETATM    7  C10 UNL     1      43.472  -4.752  61.537  1.00  0.00     0.099 A 
HETATM    8  N4  UNL     1      43.236  -3.552  60.911  1.00  0.00    -0.359 N 
ATOM      9  H4  UNL     1      43.108  -2.659  61.389  1.00  0.00     0.165 HD
HETATM   10  C11 UNL     1      43.198  -3.722  59.579  1.00  0.00     0.128 A 
HETATM   11  C12 UNL     1      42.901  -2.941  58.486  1.00  0.00     0.276 A 
HETATM   12  O3  UNL     1      42.693  -1.711  58.629  1.00  0.00    -0.266 OA
HETATM   13  N5  UNL     1      42.832  -3.461  57.243  1.00  0.00    -0.295 N 
ATOM     14  H5  UNL     1      42.612  -2.863  56.446  1.00  0.00     0.171 HD
ENDROOT
BRANCH   6  15
HETATM   15  C4  UNL     1      43.928  -7.179  60.699  1.00  0.00     0.315 C 
BRANCH  15  16
HETATM   16  N3  UNL     1      42.696  -7.819  60.996  1.00  0.00     0.095 N 
HETATM   17  C5  UNL     1      42.023  -8.151  59.722  1.00  0.00     0.304 C 
HETATM   18  C6  UNL     1      40.721  -8.716  60.225  1.00  0.00     0.154 C 
HETATM   19  C7  UNL     1      40.911  -8.956  61.701  1.00  0.00     0.068 C 
HETATM   20  C9  UNL     1      42.490  -8.964  61.760  1.00  0.00     0.282 C 
BRANCH  18  21
HETATM   21  O1  UNL     1      39.703  -7.757  60.022  1.00  0.00    -0.393 OA
ATOM     22  H1  UNL     1      40.109  -6.912  59.867  1.00  0.00     0.210 HD
ENDBRANCH  18  21
BRANCH  19  23
HETATM   23  C8  UNL     1      40.425 -10.330  62.132  1.00  0.00     0.173 C 
BRANCH  23  24
HETATM   24  O2  UNL     1      40.185 -10.466  63.504  1.00  0.00    -0.400 OA
ATOM     25  H2  UNL     1      39.282 -10.647  63.735  1.00  0.00     0.209 HD
ENDBRANCH  23  24
ENDBRANCH  19  23
ENDBRANCH  15  16
ENDBRANCH   6  15
TORSDOF 5
ENDMDL
