MODEL 4
REMARK VINA RESULT: -8.381060743      2.045      5.917
REMARK  5 active torsions:
REMARK  status: ('A' for Active; 'I' for Inactive)
REMARK    1  A    between atoms: C3_6  and  C4_7 
REMARK    2  A    between atoms: C4_7  and  N3_8 
REMARK    3  A    between atoms: C6_10  and  O1_11 
REMARK    4  A    between atoms: C7_13  and  C8_14 
REMARK    5  A    between atoms: C8_14  and  O2_15 
ROOT
HETATM    1  N1  UNL     1      38.419  -8.414  59.352  1.00  0.00    -0.063 NA
HETATM    2  C1  UNL     1      39.631  -8.536  60.108  1.00  0.00     0.195 A 
HETATM    3  N2  UNL     1      40.688  -7.788  59.687  1.00  0.00    -0.328 N 
ATOM      4  H2  UNL     1      40.581  -7.157  58.892  1.00  0.00     0.168 HD
HETATM    5  C2  UNL     1      41.880  -7.878  60.319  1.00  0.00     0.076 A 
HETATM    6  C3  UNL     1      43.114  -7.306  59.988  1.00  0.00     0.015 A 
HETATM    7  C10 UNL     1      43.995  -7.844  60.905  1.00  0.00     0.099 A 
HETATM    8  N4  UNL     1      43.313  -8.694  61.742  1.00  0.00    -0.359 N 
ATOM      9  H4  UNL     1      43.733  -9.215  62.513  1.00  0.00     0.165 HD
HETATM   10  C11 UNL     1      42.015  -8.741  61.401  1.00  0.00     0.128 A 
HETATM   11  C12 UNL     1      40.913  -9.469  61.784  1.00  0.00     0.276 A 
HETATM   12  O3  UNL     1      40.985 -10.252  62.762  1.00  0.00    -0.266 OA
HETATM   13  N5  UNL     1      39.734  -9.361  61.138  1.00  0.00    -0.295 N 
ATOM     14  H5  UNL     1      38.928  -9.909  61.441  1.00  0.00     0.171 HD
ENDROOT
BRANCH   6  15
HETATM   15  C4  UNL     1      43.296  -6.299  58.923  1.00  0.00     0.315 C 
BRANCH  15  16
HETATM   16  N3  UNL     1      43.239  -5.043  59.583  1.00  0.00     0.095 N 
HETATM   17  C5  UNL     1      42.193  -4.222  58.936  1.00  0.00     0.304 C 
HETATM   18  C6  UNL     1      42.344  -2.925  59.686  1.00  0.00     0.154 C 
HETATM   19  C7  UNL     1      43.209  -3.230  60.882  1.00  0.00     0.068 C 
HETATM   20  C9  UNL     1      43.029  -4.799  60.937  1.00  0.00     0.282 C 
BRANCH  18  21
HETATM   21  O1  UNL     1      42.996  -1.992  58.847  1.00  0.00    -0.393 OA
ATOM     22  H1  UNL     1      42.669  -1.123  59.048  1.00  0.00     0.210 HD
ENDBRANCH  18  21
BRANCH  19  23
HETATM   23  C8  UNL     1      42.643  -2.654  62.169  1.00  0.00     0.173 C 
BRANCH  23  24
HETATM   24  O2  UNL     1      42.809  -3.463  63.299  1.00  0.00    -0.400 OA
ATOM     25  H2  UNL     1      43.703  -3.535  63.611  1.00  0.00     0.209 HD
ENDBRANCH  23  24
ENDBRANCH  19  23
ENDBRANCH  15  16
ENDBRANCH   6  15
TORSDOF 5
ENDMDL
