MODEL 5
REMARK VINA RESULT: -8.338994044      2.018      5.884
REMARK  5 active torsions:
REMARK  status: ('A' for Active; 'I' for Inactive)
REMARK    1  A    between atoms: C3_6  and  C4_7 
REMARK    2  A    between atoms: C4_7  and  N3_8 
REMARK    3  A    between atoms: C6_10  and  O1_11 
REMARK    4  A    between atoms: C7_13  and  C8_14 
REMARK    5  A    between atoms: C8_14  and  O2_15 
ROOT
HETATM    1  N1  UNL     1      38.400  -8.356  59.242  1.00  0.00    -0.063 NA
HETATM    2  C1  UNL     1      39.572  -8.523  60.050  1.00  0.00     0.195 A 
HETATM    3  N2  UNL     1      40.659  -7.779  59.705  1.00  0.00    -0.328 N 
ATOM      4  H2  UNL     1      40.599  -7.121  58.929  1.00  0.00     0.168 HD
HETATM    5  C2  UNL     1      41.818  -7.910  60.391  1.00  0.00     0.076 A 
HETATM    6  C3  UNL     1      43.075  -7.348  60.138  1.00  0.00     0.015 A 
HETATM    7  C10 UNL     1      43.902  -7.930  61.077  1.00  0.00     0.099 A 
HETATM    8  N4  UNL     1      43.168  -8.796  61.852  1.00  0.00    -0.359 N 
ATOM      9  H4  UNL     1      43.543  -9.349  62.623  1.00  0.00     0.165 HD
HETATM   10  C11 UNL     1      41.888  -8.810  61.448  1.00  0.00     0.128 A 
HETATM   11  C12 UNL     1      40.757  -9.532  61.753  1.00  0.00     0.276 A 
HETATM   12  O3  UNL     1      40.771 -10.348  62.707  1.00  0.00    -0.266 OA
HETATM   13  N5  UNL     1      39.612  -9.383  61.056  1.00  0.00    -0.295 N 
ATOM     14  H5  UNL     1      38.785  -9.928  61.301  1.00  0.00     0.171 HD
ENDROOT
BRANCH   6  15
HETATM   15  C4  UNL     1      43.323  -6.309  59.117  1.00  0.00     0.315 C 
BRANCH  15  16
HETATM   16  N3  UNL     1      43.175  -5.073  59.799  1.00  0.00     0.095 N 
HETATM   17  C5  UNL     1      44.346  -4.882  60.680  1.00  0.00     0.304 C 
HETATM   18  C6  UNL     1      43.973  -3.600  61.379  1.00  0.00     0.154 C 
HETATM   19  C7  UNL     1      42.814  -3.024  60.606  1.00  0.00     0.068 C 
HETATM   20  C9  UNL     1      42.996  -3.808  59.246  1.00  0.00     0.282 C 
BRANCH  18  21
HETATM   21  O1  UNL     1      43.565  -3.907  62.697  1.00  0.00    -0.393 OA
ATOM     22  H1  UNL     1      43.027  -4.690  62.674  1.00  0.00     0.210 HD
ENDBRANCH  18  21
BRANCH  19  23
HETATM   23  C8  UNL     1      42.992  -1.544  60.313  1.00  0.00     0.173 C 
BRANCH  23  24
HETATM   24  O2  UNL     1      43.394  -1.246  59.006  1.00  0.00    -0.400 OA
ATOM     25  H2  UNL     1      42.944  -0.511  58.607  1.00  0.00     0.209 HD
ENDBRANCH  23  24
ENDBRANCH  19  23
ENDBRANCH  15  16
ENDBRANCH   6  15
TORSDOF 5
ENDMDL
