MODEL 2
REMARK VINA RESULT: -6.528167062      0.963      3.579
REMARK  4 active torsions:
REMARK  status: ('A' for Active; 'I' for Inactive)
REMARK    1  A    between atoms: O1_2  and  C2_3 
REMARK    2  A    between atoms: C15_20  and  O3_21 
REMARK    3  A    between atoms: C17_23  and  C18_24 
REMARK    4  A    between atoms: C18_24  and  N3_25 
ROOT
HETATM    1  C2  UNL     1       6.529  -3.276   7.468  1.00  0.00     0.079 A 
HETATM    2  C3  UNL     1       7.840  -3.591   7.167  1.00  0.00     0.050 A 
HETATM    3  C4  UNL     1       8.408  -3.301   5.963  1.00  0.00    -0.018 A 
HETATM    4  C5  UNL     1       9.782  -3.494   5.558  1.00  0.00     0.001 A 
HETATM    5  C6  UNL     1      10.636  -2.414   5.420  1.00  0.00     0.107 A 
HETATM    6  N1  UNL     1      11.902  -2.589   4.991  1.00  0.00    -0.327 N 
HETATM    7  C7  UNL     1      12.803  -1.456   4.828  1.00  0.00     0.159 C 
HETATM    8  C8  UNL     1      12.387  -3.798   4.677  1.00  0.00     0.259 A 
HETATM    9  O2  UNL     1      13.549  -4.020   4.265  1.00  0.00    -0.267 OA
HETATM   10  C9  UNL     1      11.575  -4.948   4.796  1.00  0.00     0.059 A 
HETATM   11  C10 UNL     1      12.064  -6.203   4.451  1.00  0.00     0.105 A 
HETATM   12  N2  UNL     1      11.213  -7.221   4.581  1.00  0.00    -0.374 N 
ATOM     13  H2  UNL     1      11.528  -8.160   4.337  1.00  0.00     0.164 HD
HETATM   14  C11 UNL     1       9.966  -7.059   5.017  1.00  0.00     0.088 A 
HETATM   15  C12 UNL     1       9.423  -5.846   5.364  1.00  0.00     0.030 A 
HETATM   16  C13 UNL     1      10.274  -4.740   5.245  1.00  0.00    -0.005 A 
HETATM   17  C14 UNL     1       7.646  -2.669   4.957  1.00  0.00     0.050 A 
HETATM   18  C15 UNL     1       6.339  -2.347   5.217  1.00  0.00     0.079 A 
HETATM   19  C17 UNL     1       5.815  -2.621   6.418  1.00  0.00     0.026 A 
ENDROOT
BRANCH   1  20
HETATM   20  O1  UNL     1       5.893  -3.530   8.628  1.00  0.00    -0.355 OA
HETATM   21  C1  UNL     1       6.110  -3.355   9.947  1.00  0.00     0.210 C 
ENDBRANCH   1  20
BRANCH  18  22
HETATM   22  O3  UNL     1       5.627  -1.771   4.171  1.00  0.00    -0.355 OA
HETATM   23  C16 UNL     1       4.484  -2.227   3.583  1.00  0.00     0.210 C 
ENDBRANCH  18  22
BRANCH  19  24
HETATM   24  C18 UNL     1       4.464  -2.133   6.819  1.00  0.00     0.160 C 
BRANCH  24  25
HETATM   25  N3  UNL     1       4.471  -0.779   7.213  1.00  0.00    -0.417 N 
HETATM   26  C19 UNL     1       4.488  -0.280   8.513  1.00  0.00     0.142 C 
HETATM   27  C20 UNL     1       3.435  -0.045   6.405  1.00  0.00     0.142 C 
ENDBRANCH  24  25
ENDBRANCH  19  24
TORSDOF 4
ENDMDL
