MODEL 3
REMARK VINA RESULT: -6.373755983      5.155     10.759
REMARK  4 active torsions:
REMARK  status: ('A' for Active; 'I' for Inactive)
REMARK    1  A    between atoms: O1_2  and  C2_3 
REMARK    2  A    between atoms: C15_20  and  O3_21 
REMARK    3  A    between atoms: C17_23  and  C18_24 
REMARK    4  A    between atoms: C18_24  and  N3_25 
ROOT
HETATM    1  C2  UNL     1      13.826 -11.580   3.569  1.00  0.00     0.079 A 
HETATM    2  C3  UNL     1      12.771 -10.798   3.998  1.00  0.00     0.050 A 
HETATM    3  C4  UNL     1      11.999 -10.072   3.141  1.00  0.00    -0.018 A 
HETATM    4  C5  UNL     1      10.821  -9.293   3.448  1.00  0.00     0.001 A 
HETATM    5  C6  UNL     1       9.564  -9.739   3.079  1.00  0.00     0.107 A 
HETATM    6  N1  UNL     1       8.470  -8.986   3.318  1.00  0.00    -0.327 N 
HETATM    7  C7  UNL     1       7.145  -9.441   2.919  1.00  0.00     0.159 C 
HETATM    8  C8  UNL     1       8.546  -7.788   3.912  1.00  0.00     0.259 A 
HETATM    9  O2  UNL     1       7.568  -7.043   4.150  1.00  0.00    -0.267 OA
HETATM   10  C9  UNL     1       9.795  -7.270   4.321  1.00  0.00     0.059 A 
HETATM   11  C10 UNL     1       9.884  -6.017   4.918  1.00  0.00     0.105 A 
HETATM   12  N2  UNL     1      11.110  -5.610   5.249  1.00  0.00    -0.374 N 
ATOM     13  H2  UNL     1      11.222  -4.696   5.687  1.00  0.00     0.164 HD
HETATM   14  C11 UNL     1      12.192  -6.352   5.030  1.00  0.00     0.088 A 
HETATM   15  C12 UNL     1      12.171  -7.591   4.437  1.00  0.00     0.030 A 
HETATM   16  C13 UNL     1      10.907  -8.067   4.066  1.00  0.00    -0.005 A 
HETATM   17  C14 UNL     1      12.275 -10.086   1.758  1.00  0.00     0.050 A 
HETATM   18  C15 UNL     1      13.319 -10.845   1.296  1.00  0.00     0.079 A 
HETATM   19  C17 UNL     1      14.045 -11.569   2.158  1.00  0.00     0.026 A 
ENDROOT
BRANCH   1  20
HETATM   20  O1  UNL     1      14.638 -12.322   4.348  1.00  0.00    -0.355 OA
HETATM   21  C1  UNL     1      14.576 -13.473   5.047  1.00  0.00     0.210 C 
ENDBRANCH   1  20
BRANCH  18  22
HETATM   22  O3  UNL     1      13.572 -10.779  -0.069  1.00  0.00    -0.355 OA
HETATM   23  C16 UNL     1      12.827 -11.298  -1.087  1.00  0.00     0.210 C 
ENDBRANCH  18  22
BRANCH  19  24
HETATM   24  C18 UNL     1      15.071 -12.549   1.697  1.00  0.00     0.160 C 
BRANCH  24  25
HETATM   25  N3  UNL     1      16.162 -11.929   1.055  1.00  0.00    -0.417 N 
HETATM   26  C19 UNL     1      16.723 -12.273  -0.173  1.00  0.00     0.142 C 
HETATM   27  C20 UNL     1      17.255 -11.727   2.069  1.00  0.00     0.142 C 
ENDBRANCH  24  25
ENDBRANCH  19  24
TORSDOF 4
ENDMDL
