MODEL 4
REMARK VINA RESULT: -6.103430150      4.367      7.313
REMARK  4 active torsions:
REMARK  status: ('A' for Active; 'I' for Inactive)
REMARK    1  A    between atoms: O1_2  and  C2_3 
REMARK    2  A    between atoms: C15_20  and  O3_21 
REMARK    3  A    between atoms: C17_23  and  C18_24 
REMARK    4  A    between atoms: C18_24  and  N3_25 
ROOT
HETATM    1  C2  UNL     1       9.393  -7.773   4.080  1.00  0.00     0.079 A 
HETATM    2  C3  UNL     1      10.026  -8.871   3.533  1.00  0.00     0.050 A 
HETATM    3  C4  UNL     1      11.376  -9.046   3.592  1.00  0.00    -0.018 A 
HETATM    4  C5  UNL     1      12.147 -10.184   3.143  1.00  0.00     0.001 A 
HETATM    5  C6  UNL     1      12.706 -11.061   4.054  1.00  0.00     0.107 A 
HETATM    6  N1  UNL     1      13.470 -12.092   3.637  1.00  0.00    -0.327 N 
HETATM    7  C7  UNL     1      14.076 -13.011   4.590  1.00  0.00     0.159 C 
HETATM    8  C8  UNL     1      13.722 -12.311   2.339  1.00  0.00     0.259 A 
HETATM    9  O2  UNL     1      14.430 -13.244   1.895  1.00  0.00    -0.267 OA
HETATM   10  C9  UNL     1      13.181 -11.459   1.351  1.00  0.00     0.059 A 
HETATM   11  C10 UNL     1      13.457 -11.668   0.004  1.00  0.00     0.105 A 
HETATM   12  N2  UNL     1      12.914 -10.796  -0.848  1.00  0.00    -0.374 N 
ATOM     13  H2  UNL     1      13.093 -10.910  -1.846  1.00  0.00     0.164 HD
HETATM   14  C11 UNL     1      12.149  -9.785  -0.445  1.00  0.00     0.088 A 
HETATM   15  C12 UNL     1      11.848  -9.522   0.869  1.00  0.00     0.030 A 
HETATM   16  C13 UNL     1      12.394 -10.406   1.808  1.00  0.00    -0.005 A 
HETATM   17  C14 UNL     1      12.187  -8.074   4.216  1.00  0.00     0.050 A 
HETATM   18  C15 UNL     1      11.595  -6.967   4.765  1.00  0.00     0.079 A 
HETATM   19  C17 UNL     1      10.263  -6.834   4.715  1.00  0.00     0.026 A 
ENDROOT
BRANCH   1  20
HETATM   20  O1  UNL     1       8.069  -7.523   4.062  1.00  0.00    -0.355 OA
HETATM   21  C1  UNL     1       6.933  -8.171   3.733  1.00  0.00     0.210 C 
ENDBRANCH   1  20
BRANCH  18  22
HETATM   22  O3  UNL     1      12.449  -6.023   5.322  1.00  0.00    -0.355 OA
HETATM   23  C16 UNL     1      13.091  -4.997   4.693  1.00  0.00     0.210 C 
ENDBRANCH  18  22
BRANCH  19  24
HETATM   24  C18 UNL     1       9.550  -5.749   5.449  1.00  0.00     0.160 C 
BRANCH  24  25
HETATM   25  N3  UNL     1       9.457  -4.558   4.700  1.00  0.00    -0.417 N 
HETATM   26  C19 UNL     1      10.118  -3.356   4.943  1.00  0.00     0.142 C 
HETATM   27  C20 UNL     1       8.003  -4.286   4.422  1.00  0.00     0.142 C 
ENDBRANCH  24  25
ENDBRANCH  19  24
TORSDOF 4
ENDMDL
