MODEL 5
REMARK VINA RESULT: -6.040805497      3.815      6.862
REMARK  4 active torsions:
REMARK  status: ('A' for Active; 'I' for Inactive)
REMARK    1  A    between atoms: O1_2  and  C2_3 
REMARK    2  A    between atoms: C15_20  and  O3_21 
REMARK    3  A    between atoms: C17_23  and  C18_24 
REMARK    4  A    between atoms: C18_24  and  N3_25 
ROOT
HETATM    1  C2  UNL     1       4.286  -5.353   2.043  1.00  0.00     0.079 A 
HETATM    2  C3  UNL     1       4.882  -5.151   3.272  1.00  0.00     0.050 A 
HETATM    3  C4  UNL     1       4.756  -3.985   3.967  1.00  0.00    -0.018 A 
HETATM    4  C5  UNL     1       5.249  -3.681   5.292  1.00  0.00     0.001 A 
HETATM    5  C6  UNL     1       4.381  -3.588   6.364  1.00  0.00     0.107 A 
HETATM    6  N1  UNL     1       4.834  -3.251   7.589  1.00  0.00    -0.327 N 
HETATM    7  C7  UNL     1       3.924  -3.135   8.720  1.00  0.00     0.159 C 
HETATM    8  C8  UNL     1       6.128  -2.992   7.823  1.00  0.00     0.259 A 
HETATM    9  O2  UNL     1       6.603  -2.666   8.935  1.00  0.00    -0.267 OA
HETATM   10  C9  UNL     1       7.074  -3.072   6.777  1.00  0.00     0.059 A 
HETATM   11  C10 UNL     1       8.414  -2.783   7.008  1.00  0.00     0.105 A 
HETATM   12  N2  UNL     1       9.224  -2.868   5.951  1.00  0.00    -0.374 N 
ATOM     13  H2  UNL     1      10.215  -2.661   6.074  1.00  0.00     0.164 HD
HETATM   14  C11 UNL     1       8.787  -3.212   4.743  1.00  0.00     0.088 A 
HETATM   15  C12 UNL     1       7.476  -3.500   4.450  1.00  0.00     0.030 A 
HETATM   16  C13 UNL     1       6.580  -3.424   5.525  1.00  0.00    -0.005 A 
HETATM   17  C14 UNL     1       4.008  -2.919   3.426  1.00  0.00     0.050 A 
HETATM   18  C15 UNL     1       3.407  -3.080   2.205  1.00  0.00     0.079 A 
HETATM   19  C17 UNL     1       3.526  -4.246   1.556  1.00  0.00     0.026 A 
ENDROOT
BRANCH   1  20
HETATM   20  O1  UNL     1       4.363  -6.469   1.292  1.00  0.00    -0.355 OA
HETATM   21  C1  UNL     1       5.237  -7.473   1.080  1.00  0.00     0.210 C 
ENDBRANCH   1  20
BRANCH  18  22
HETATM   22  O3  UNL     1       2.725  -1.978   1.703  1.00  0.00    -0.355 OA
HETATM   23  C16 UNL     1       1.552  -1.442   2.147  1.00  0.00     0.210 C 
ENDBRANCH  18  22
BRANCH  19  24
HETATM   24  C18 UNL     1       2.750  -4.542   0.318  1.00  0.00     0.160 C 
BRANCH  24  25
HETATM   25  N3  UNL     1       3.373  -4.043  -0.845  1.00  0.00    -0.417 N 
HETATM   26  C19 UNL     1       3.024  -2.903  -1.565  1.00  0.00     0.142 C 
HETATM   27  C20 UNL     1       3.593  -5.190  -1.793  1.00  0.00     0.142 C 
ENDBRANCH  24  25
ENDBRANCH  19  24
TORSDOF 4
ENDMDL
