MODEL 9
REMARK VINA RESULT: -4.407135071      2.836      4.265
REMARK  2 active torsions:
REMARK  status: ('A' for Active; 'I' for Inactive)
REMARK    1  A    between atoms: C1_2  and  C2_4 
REMARK    2  A    between atoms: C6_10  and  C7_11 
ROOT
HETATM    1  C2  UNL     1      -2.861  -7.441  38.045  1.00  0.00     0.335 C 
HETATM    2  C3  UNL     1      -3.621  -8.712  38.023  1.00  0.00     0.123 C 
HETATM    3  S1  UNL     1      -3.635  -9.161  39.779  1.00  0.00    -0.130 SA
HETATM    4  C4  UNL     1      -2.486  -7.809  40.282  1.00  0.00     0.296 C 
HETATM    5  C5  UNL     1      -2.880  -7.443  41.685  1.00  0.00     0.123 C 
HETATM    6  S2  UNL     1      -4.580  -6.882  41.284  1.00  0.00    -0.130 SA
HETATM    7  C6  UNL     1      -4.099  -6.190  39.667  1.00  0.00     0.297 C 
HETATM    8  N1  UNL     1      -2.847  -6.832  39.350  1.00  0.00     0.134 N 
ENDROOT
BRANCH   1   9
HETATM    9  C1  UNL     1      -1.462  -7.696  37.630  1.00  0.00     0.208 C 
HETATM   10  O1  UNL     1      -1.011  -8.814  37.307  1.00  0.00    -0.646 OA
HETATM   11  O2  UNL     1      -0.517  -6.648  37.575  1.00  0.00    -0.646 OA
ENDBRANCH   1   9
BRANCH   7  12
HETATM   12  C7  UNL     1      -3.935  -4.688  39.880  1.00  0.00     0.133 C 
HETATM   13  S3  UNL     1      -4.502  -4.187  41.529  1.00  0.00    -0.095 SA
ENDBRANCH   7  12
TORSDOF 2
ENDMDL
