MODEL 7
REMARK VINA RESULT: -4.483556359      9.060     10.584
REMARK  2 active torsions:
REMARK  status: ('A' for Active; 'I' for Inactive)
REMARK    1  A    between atoms: C1_2  and  C2_4 
REMARK    2  A    between atoms: C6_10  and  C7_11 
ROOT
HETATM    1  C2  UNL     1      -7.392   0.735  44.527  1.00  0.00     0.335 C 
HETATM    2  C3  UNL     1      -6.894   1.424  45.740  1.00  0.00     0.123 C 
HETATM    3  S1  UNL     1      -7.135   0.153  47.009  1.00  0.00    -0.130 SA
HETATM    4  C4  UNL     1      -8.044  -0.996  45.890  1.00  0.00     0.296 C 
HETATM    5  C5  UNL     1      -7.723  -2.380  46.382  1.00  0.00     0.123 C 
HETATM    6  S2  UNL     1      -5.916  -2.295  46.076  1.00  0.00    -0.130 SA
HETATM    7  C6  UNL     1      -6.098  -1.277  44.574  1.00  0.00     0.297 C 
HETATM    8  N1  UNL     1      -7.414  -0.698  44.679  1.00  0.00     0.134 N 
ENDROOT
BRANCH   1   9
HETATM    9  C1  UNL     1      -8.768   1.196  44.228  1.00  0.00     0.208 C 
HETATM   10  O1  UNL     1      -9.340   2.142  44.807  1.00  0.00    -0.646 OA
HETATM   11  O2  UNL     1      -9.546   0.567  43.231  1.00  0.00    -0.646 OA
ENDBRANCH   1   9
BRANCH   7  12
HETATM   12  C7  UNL     1      -5.988  -2.238  43.394  1.00  0.00     0.133 C 
HETATM   13  S3  UNL     1      -5.636  -3.930  43.948  1.00  0.00    -0.095 SA
ENDBRANCH   7  12
TORSDOF 2
ENDMDL
