MODEL 4
REMARK VINA RESULT: -4.662632289      2.339      3.111
REMARK  2 active torsions:
REMARK  status: ('A' for Active; 'I' for Inactive)
REMARK    1  A    between atoms: C1_2  and  C2_4 
REMARK    2  A    between atoms: C6_10  and  C7_11 
ROOT
HETATM    1  C2  UNL     1      -3.705  -5.006  40.468  1.00  0.00     0.335 C 
HETATM    2  C3  UNL     1      -3.910  -4.383  41.796  1.00  0.00     0.123 C 
HETATM    3  S1  UNL     1      -4.942  -5.620  42.627  1.00  0.00    -0.130 SA
HETATM    4  C4  UNL     1      -5.171  -6.652  41.116  1.00  0.00     0.296 C 
HETATM    5  C5  UNL     1      -5.315  -8.065  41.608  1.00  0.00     0.123 C 
HETATM    6  S2  UNL     1      -3.650  -8.192  42.367  1.00  0.00    -0.130 SA
HETATM    7  C6  UNL     1      -2.859  -7.156  41.091  1.00  0.00     0.297 C 
HETATM    8  N1  UNL     1      -3.945  -6.426  40.485  1.00  0.00     0.134 N 
ENDROOT
BRANCH   1   9
HETATM    9  C1  UNL     1      -4.625  -4.386  39.486  1.00  0.00     0.208 C 
HETATM   10  O1  UNL     1      -5.250  -3.322  39.673  1.00  0.00    -0.646 OA
HETATM   11  O2  UNL     1      -4.861  -4.987  38.230  1.00  0.00    -0.646 OA
ENDBRANCH   1   9
BRANCH   7  12
HETATM   12  C7  UNL     1      -2.199  -8.120  40.111  1.00  0.00     0.133 C 
HETATM   13  S3  UNL     1      -3.003  -8.067  38.485  1.00  0.00    -0.095 SA
ENDBRANCH   7  12
TORSDOF 2
ENDMDL
