MODEL 6
REMARK VINA RESULT: -4.494694232      2.795      4.573
REMARK  2 active torsions:
REMARK  status: ('A' for Active; 'I' for Inactive)
REMARK    1  A    between atoms: C1_2  and  C2_4 
REMARK    2  A    between atoms: C6_10  and  C7_11 
ROOT
HETATM    1  C2  UNL     1      -3.013  -9.173  40.012  1.00  0.00     0.335 C 
HETATM    2  C3  UNL     1      -1.695  -8.745  39.490  1.00  0.00     0.123 C 
HETATM    3  S1  UNL     1      -2.169  -7.461  38.302  1.00  0.00    -0.130 SA
HETATM    4  C4  UNL     1      -3.978  -7.790  38.450  1.00  0.00     0.296 C 
HETATM    5  C5  UNL     1      -4.651  -6.469  38.207  1.00  0.00     0.123 C 
HETATM    6  S2  UNL     1      -3.920  -5.595  39.645  1.00  0.00    -0.130 SA
HETATM    7  C6  UNL     1      -3.937  -7.078  40.707  1.00  0.00     0.297 C 
HETATM    8  N1  UNL     1      -4.039  -8.186  39.789  1.00  0.00     0.134 N 
ENDROOT
BRANCH   1   9
HETATM    9  C1  UNL     1      -3.422 -10.432  39.346  1.00  0.00     0.208 C 
HETATM   10  O1  UNL     1      -4.456 -11.075  39.619  1.00  0.00    -0.646 OA
HETATM   11  O2  UNL     1      -2.635 -11.003  38.322  1.00  0.00    -0.646 OA
ENDBRANCH   1   9
BRANCH   7  12
HETATM   12  C7  UNL     1      -5.174  -6.952  41.591  1.00  0.00     0.133 C 
HETATM   13  S3  UNL     1      -5.079  -5.488  42.659  1.00  0.00    -0.095 SA
ENDBRANCH   7  12
TORSDOF 2
ENDMDL
