MODEL 8
REMARK VINA RESULT: -4.417911003      2.457      3.109
REMARK  2 active torsions:
REMARK  status: ('A' for Active; 'I' for Inactive)
REMARK    1  A    between atoms: C1_2  and  C2_4 
REMARK    2  A    between atoms: C6_10  and  C7_11 
ROOT
HETATM    1  C2  UNL     1      -3.715  -4.795  40.567  1.00  0.00     0.335 C 
HETATM    2  C3  UNL     1      -3.144  -4.936  41.926  1.00  0.00     0.123 C 
HETATM    3  S1  UNL     1      -4.123  -6.307  42.595  1.00  0.00    -0.130 SA
HETATM    4  C4  UNL     1      -5.277  -6.373  41.159  1.00  0.00     0.296 C 
HETATM    5  C5  UNL     1      -5.697  -7.811  41.042  1.00  0.00     0.123 C 
HETATM    6  S2  UNL     1      -4.026  -8.489  40.703  1.00  0.00    -0.130 SA
HETATM    7  C6  UNL     1      -3.500  -7.032  39.742  1.00  0.00     0.297 C 
HETATM    8  N1  UNL     1      -4.408  -5.983  40.136  1.00  0.00     0.134 N 
ENDROOT
BRANCH   1   9
HETATM    9  C1  UNL     1      -4.669  -3.663  40.547  1.00  0.00     0.208 C 
HETATM   10  O1  UNL     1      -4.860  -2.880  41.500  1.00  0.00    -0.646 OA
HETATM   11  O2  UNL     1      -5.452  -3.390  39.404  1.00  0.00    -0.646 OA
ENDBRANCH   1   9
BRANCH   7  12
HETATM   12  C7  UNL     1      -3.665  -7.410  38.273  1.00  0.00     0.133 C 
HETATM   13  S3  UNL     1      -2.176  -8.218  37.625  1.00  0.00    -0.095 SA
ENDBRANCH   7  12
TORSDOF 2
ENDMDL
