MODEL 5
REMARK VINA RESULT: -4.568971915      1.930      2.334
REMARK  2 active torsions:
REMARK  status: ('A' for Active; 'I' for Inactive)
REMARK    1  A    between atoms: C1_2  and  C2_4 
REMARK    2  A    between atoms: C6_10  and  C7_11 
ROOT
HETATM    1  C2  UNL     1     -17.669  27.344  -2.631  1.00  0.00     0.335 C 
HETATM    2  C3  UNL     1     -17.809  27.280  -1.158  1.00  0.00     0.123 C 
HETATM    3  S1  UNL     1     -17.554  25.513  -0.842  1.00  0.00    -0.130 SA
HETATM    4  C4  UNL     1     -17.533  25.050  -2.627  1.00  0.00     0.296 C 
HETATM    5  C5  UNL     1     -16.622  23.859  -2.726  1.00  0.00     0.123 C 
HETATM    6  S2  UNL     1     -15.103  24.709  -2.146  1.00  0.00    -0.130 SA
HETATM    7  C6  UNL     1     -15.542  26.291  -2.941  1.00  0.00     0.297 C 
HETATM    8  N1  UNL     1     -16.964  26.207  -3.167  1.00  0.00     0.134 N 
ENDROOT
BRANCH   1   9
HETATM    9  C1  UNL     1     -19.013  27.396  -3.252  1.00  0.00     0.208 C 
HETATM   10  O1  UNL     1     -20.081  27.534  -2.621  1.00  0.00    -0.646 OA
HETATM   11  O2  UNL     1     -19.173  27.290  -4.651  1.00  0.00    -0.646 OA
ENDBRANCH   1   9
BRANCH   7  12
HETATM   12  C7  UNL     1     -14.757  26.341  -4.247  1.00  0.00     0.133 C 
HETATM   13  S3  UNL     1     -13.018  25.888  -3.994  1.00  0.00    -0.095 SA
ENDBRANCH   7  12
TORSDOF 2
ENDMDL
