MODEL 2
REMARK VINA RESULT: -4.944941396      1.998      2.566
REMARK  2 active torsions:
REMARK  status: ('A' for Active; 'I' for Inactive)
REMARK    1  A    between atoms: C1_2  and  C2_4 
REMARK    2  A    between atoms: C6_10  and  C7_11 
ROOT
HETATM    1  C2  UNL     1     -19.744  26.074   1.087  1.00  0.00     0.335 C 
HETATM    2  C3  UNL     1     -19.045  24.965   1.774  1.00  0.00     0.123 C 
HETATM    3  S1  UNL     1     -18.818  23.780   0.422  1.00  0.00    -0.130 SA
HETATM    4  C4  UNL     1     -19.836  24.738  -0.781  1.00  0.00     0.296 C 
HETATM    5  C5  UNL     1     -19.247  24.449  -2.132  1.00  0.00     0.123 C 
HETATM    6  S2  UNL     1     -17.593  25.169  -1.797  1.00  0.00    -0.130 SA
HETATM    7  C6  UNL     1     -18.255  26.498  -0.739  1.00  0.00     0.297 C 
HETATM    8  N1  UNL     1     -19.563  26.037  -0.342  1.00  0.00     0.134 N 
ENDROOT
BRANCH   1   9
HETATM    9  C1  UNL     1     -21.194  25.999   1.377  1.00  0.00     0.208 C 
HETATM   10  O1  UNL     1     -21.688  25.446   2.381  1.00  0.00    -0.646 OA
HETATM   11  O2  UNL     1     -22.143  26.570   0.501  1.00  0.00    -0.646 OA
ENDBRANCH   1   9
BRANCH   7  12
HETATM   12  C7  UNL     1     -18.329  27.743  -1.618  1.00  0.00     0.133 C 
HETATM   13  S3  UNL     1     -17.548  27.462  -3.231  1.00  0.00    -0.095 SA
ENDBRANCH   7  12
TORSDOF 2
ENDMDL
