MODEL 3
REMARK VINA RESULT: -4.629985425      1.198      1.198
REMARK  2 active torsions:
REMARK  status: ('A' for Active; 'I' for Inactive)
REMARK    1  A    between atoms: C1_2  and  C2_4 
REMARK    2  A    between atoms: C6_10  and  C7_11 
ROOT
HETATM    1  C2  UNL     1     -18.626  26.355  -0.466  1.00  0.00     0.335 C 
HETATM    2  C3  UNL     1     -19.260  25.539   0.595  1.00  0.00     0.123 C 
HETATM    3  S1  UNL     1     -19.148  23.872  -0.109  1.00  0.00    -0.130 SA
HETATM    4  C4  UNL     1     -18.526  24.450  -1.746  1.00  0.00     0.296 C 
HETATM    5  C5  UNL     1     -17.650  23.342  -2.260  1.00  0.00     0.123 C 
HETATM    6  S2  UNL     1     -16.410  23.414  -0.909  1.00  0.00    -0.130 SA
HETATM    7  C6  UNL     1     -16.534  25.225  -0.731  1.00  0.00     0.297 C 
HETATM    8  N1  UNL     1     -17.794  25.569  -1.341  1.00  0.00     0.134 N 
ENDROOT
BRANCH   1   9
HETATM    9  C1  UNL     1     -19.678  27.008  -1.280  1.00  0.00     0.208 C 
HETATM   10  O1  UNL     1     -19.459  27.725  -2.277  1.00  0.00    -0.646 OA
HETATM   11  O2  UNL     1     -21.045  26.852  -0.964  1.00  0.00    -0.646 OA
ENDBRANCH   1   9
BRANCH   7  12
HETATM   12  C7  UNL     1     -15.349  25.808  -1.495  1.00  0.00     0.133 C 
HETATM   13  S3  UNL     1     -13.774  25.382  -0.703  1.00  0.00    -0.095 SA
ENDBRANCH   7  12
TORSDOF 2
ENDMDL
