MODEL 17
REMARK VINA RESULT: -4.007260093      3.061      4.911
REMARK  2 active torsions:
REMARK  status: ('A' for Active; 'I' for Inactive)
REMARK    1  A    between atoms: C6_8  and  C7_9 
REMARK    2  A    between atoms: C8_12  and  C9_13 
ROOT
HETATM    1  C1  UNL     1     -13.407  24.413  -2.662  1.00  0.00     0.029 C 
HETATM    2  C2  UNL     1     -14.474  25.302  -2.028  1.00  0.00     0.044 C 
HETATM    3  C3  UNL     1     -13.983  25.860  -0.745  1.00  0.00     0.029 C 
HETATM    4  S1  UNL     1     -14.817  26.611  -3.272  1.00  0.00    -0.121 SA
HETATM    5  C4  UNL     1     -16.487  25.965  -3.680  1.00  0.00     0.297 C 
HETATM    6  C5  UNL     1     -17.425  27.013  -4.085  1.00  0.00     0.123 C 
HETATM    7  S2  UNL     1     -17.890  27.735  -2.462  1.00  0.00    -0.130 SA
HETATM    8  C6  UNL     1     -17.104  26.411  -1.461  1.00  0.00     0.297 C 
HETATM    9  N1  UNL     1     -16.833  25.392  -2.423  1.00  0.00     0.134 N 
HETATM   10  C8  UNL     1     -15.771  24.577  -1.962  1.00  0.00     0.343 C 
ENDROOT
BRANCH  10  11
HETATM   11  C9  UNL     1     -15.757  23.265  -2.636  1.00  0.00     0.209 C 
HETATM   12  O1  UNL     1     -15.569  22.240  -1.943  1.00  0.00    -0.646 OA
HETATM   13  O2  UNL     1     -15.940  23.104  -3.997  1.00  0.00    -0.646 OA
ENDBRANCH  10  11
BRANCH   8  14
HETATM   14  C7  UNL     1     -18.163  25.935  -0.484  1.00  0.00     0.133 C 
HETATM   15  S3  UNL     1     -19.826  26.420  -1.050  1.00  0.00    -0.095 SA
ENDBRANCH   8  14
TORSDOF 2
ENDMDL
