MODEL 5
REMARK VINA RESULT: -4.374247860      1.495      1.664
REMARK  2 active torsions:
REMARK  status: ('A' for Active; 'I' for Inactive)
REMARK    1  A    between atoms: C6_8  and  C7_9 
REMARK    2  A    between atoms: C8_12  and  C9_13 
ROOT
HETATM    1  C1  UNL     1     -19.869  26.576  -1.793  1.00  0.00     0.029 C 
HETATM    2  C2  UNL     1     -18.579  25.994  -1.219  1.00  0.00     0.044 C 
HETATM    3  C3  UNL     1     -18.572  26.117   0.259  1.00  0.00     0.029 C 
HETATM    4  S1  UNL     1     -18.550  24.241  -1.773  1.00  0.00    -0.121 SA
HETATM    5  C4  UNL     1     -17.168  24.504  -2.955  1.00  0.00     0.297 C 
HETATM    6  C5  UNL     1     -16.327  23.320  -3.127  1.00  0.00     0.123 C 
HETATM    7  S2  UNL     1     -15.294  23.380  -1.611  1.00  0.00    -0.130 SA
HETATM    8  C6  UNL     1     -15.822  25.069  -1.119  1.00  0.00     0.297 C 
HETATM    9  N1  UNL     1     -16.482  25.557  -2.286  1.00  0.00     0.134 N 
HETATM   10  C8  UNL     1     -17.401  26.570  -1.921  1.00  0.00     0.343 C 
ENDROOT
BRANCH  10  11
HETATM   11  C9  UNL     1     -17.751  27.430  -3.067  1.00  0.00     0.209 C 
HETATM   12  O1  UNL     1     -18.090  28.615  -2.843  1.00  0.00    -0.646 OA
HETATM   13  O2  UNL     1     -17.725  26.999  -4.380  1.00  0.00    -0.646 OA
ENDBRANCH  10  11
BRANCH   8  14
HETATM   14  C7  UNL     1     -14.547  25.855  -0.874  1.00  0.00     0.133 C 
HETATM   15  S3  UNL     1     -13.482  25.833  -2.353  1.00  0.00    -0.095 SA
ENDBRANCH   8  14
TORSDOF 2
ENDMDL
