MODEL 3
REMARK VINA RESULT: -4.498783944      4.665      6.711
REMARK  2 active torsions:
REMARK  status: ('A' for Active; 'I' for Inactive)
REMARK    1  A    between atoms: C6_8  and  C7_9 
REMARK    2  A    between atoms: C8_12  and  C9_13 
ROOT
HETATM    1  C1  UNL     1     -18.839  22.576   0.838  1.00  0.00     0.029 C 
HETATM    2  C2  UNL     1     -19.834  22.274   1.957  1.00  0.00     0.044 C 
HETATM    3  C3  UNL     1     -20.721  21.152   1.567  1.00  0.00     0.029 C 
HETATM    4  S1  UNL     1     -18.805  21.873   3.426  1.00  0.00    -0.121 SA
HETATM    5  C4  UNL     1     -19.236  23.424   4.311  1.00  0.00     0.297 C 
HETATM    6  C5  UNL     1     -19.239  23.273   5.766  1.00  0.00     0.123 C 
HETATM    7  S2  UNL     1     -20.851  22.440   6.045  1.00  0.00    -0.130 SA
HETATM    8  C6  UNL     1     -21.464  22.689   4.331  1.00  0.00     0.297 C 
HETATM    9  N1  UNL     1     -20.544  23.638   3.791  1.00  0.00     0.134 N 
HETATM   10  C8  UNL     1     -20.522  23.524   2.380  1.00  0.00     0.343 C 
ENDROOT
BRANCH  10  11
HETATM   11  C9  UNL     1     -19.992  24.743   1.741  1.00  0.00     0.209 C 
HETATM   12  O1  UNL     1     -20.534  25.149   0.689  1.00  0.00    -0.646 OA
HETATM   13  O2  UNL     1     -18.925  25.465   2.243  1.00  0.00    -0.646 OA
ENDBRANCH  10  11
BRANCH   8  14
HETATM   14  C7  UNL     1     -22.840  23.315   4.462  1.00  0.00     0.133 C 
HETATM   15  S3  UNL     1     -22.754  24.872   5.405  1.00  0.00    -0.095 SA
ENDBRANCH   8  14
TORSDOF 2
ENDMDL
