MODEL 1
REMARK VINA RESULT: -4.643073188      0.000      0.000
REMARK  2 active torsions:
REMARK  status: ('A' for Active; 'I' for Inactive)
REMARK    1  A    between atoms: C6_8  and  C7_9 
REMARK    2  A    between atoms: C8_12  and  C9_13 
ROOT
HETATM    1  C1  UNL     1     -20.503  26.101   0.289  1.00  0.00     0.029 C 
HETATM    2  C2  UNL     1     -19.121  25.454   0.241  1.00  0.00     0.044 C 
HETATM    3  C3  UNL     1     -18.657  25.129   1.612  1.00  0.00     0.029 C 
HETATM    4  S1  UNL     1     -19.323  23.953  -0.802  1.00  0.00    -0.121 SA
HETATM    5  C4  UNL     1     -18.361  24.643  -2.206  1.00  0.00     0.297 C 
HETATM    6  C5  UNL     1     -17.655  23.619  -2.976  1.00  0.00     0.123 C 
HETATM    7  S2  UNL     1     -16.206  23.285  -1.899  1.00  0.00    -0.130 SA
HETATM    8  C6  UNL     1     -16.499  24.713  -0.782  1.00  0.00     0.297 C 
HETATM    9  N1  UNL     1     -17.467  25.487  -1.489  1.00  0.00     0.134 N 
HETATM   10  C8  UNL     1     -18.194  26.285  -0.573  1.00  0.00     0.343 C 
ENDROOT
BRANCH  10  11
HETATM   11  C9  UNL     1     -18.848  27.427  -1.242  1.00  0.00     0.209 C 
HETATM   12  O1  UNL     1     -18.447  28.583  -0.976  1.00  0.00    -0.646 OA
HETATM   13  O2  UNL     1     -19.882  27.289  -2.149  1.00  0.00    -0.646 OA
ENDBRANCH  10  11
BRANCH   8  14
HETATM   14  C7  UNL     1     -15.184  25.466  -0.706  1.00  0.00     0.133 C 
HETATM   15  S3  UNL     1     -14.632  25.968  -2.369  1.00  0.00    -0.095 SA
ENDBRANCH   8  14
TORSDOF 2
ENDMDL
