MODEL 8
REMARK VINA RESULT: -4.659620726      3.988      5.578
REMARK  2 active torsions:
REMARK  status: ('A' for Active; 'I' for Inactive)
REMARK    1  A    between atoms: C1_2  and  C2_4 
REMARK    2  A    between atoms: C6_10  and  C7_11 
ROOT
HETATM    1  C2  UNL     1      84.033  98.318  21.730  1.00  0.00     0.335 C 
HETATM    2  C3  UNL     1      83.551  98.256  23.117  1.00  0.00     0.123 C 
HETATM    3  S1  UNL     1      82.672  96.666  23.169  1.00  0.00    -0.130 SA
HETATM    4  C4  UNL     1      82.421  96.650  21.343  1.00  0.00     0.296 C 
HETATM    5  C5  UNL     1      81.237  97.533  21.098  1.00  0.00     0.123 C 
HETATM    6  S2  UNL     1      81.777  98.417  19.584  1.00  0.00    -0.130 SA
HETATM    7  C6  UNL     1      83.458  97.674  19.517  1.00  0.00     0.297 C 
HETATM    8  N1  UNL     1      83.600  97.269  20.915  1.00  0.00     0.134 N 
ENDROOT
BRANCH   1   9
HETATM    9  C1  UNL     1      85.511  98.408  21.751  1.00  0.00     0.208 C 
HETATM   10  O1  UNL     1      86.213  97.670  22.469  1.00  0.00    -0.646 OA
HETATM   11  O2  UNL     1      86.135  99.339  20.952  1.00  0.00    -0.646 OA
ENDBRANCH   1   9
BRANCH   7  12
HETATM   12  C7  UNL     1      83.344  96.469  18.616  1.00  0.00     0.133 C 
HETATM   13  S3  UNL     1      82.020  96.643  17.404  1.00  0.00    -0.095 SA
ENDBRANCH   7  12
TORSDOF 2
ENDMDL
