MODEL 15
REMARK VINA RESULT: -4.245833350      2.324      3.991
REMARK  2 active torsions:
REMARK  status: ('A' for Active; 'I' for Inactive)
REMARK    1  A    between atoms: C1_2  and  C2_4 
REMARK    2  A    between atoms: C6_10  and  C7_11 
ROOT
HETATM    1  C2  UNL     1      82.704  94.954  17.324  1.00  0.00     0.335 C 
HETATM    2  C3  UNL     1      81.275  94.702  17.552  1.00  0.00     0.123 C 
HETATM    3  S1  UNL     1      81.016  93.093  16.746  1.00  0.00    -0.130 SA
HETATM    4  C4  UNL     1      82.492  93.303  15.663  1.00  0.00     0.296 C 
HETATM    5  C5  UNL     1      82.036  94.175  14.535  1.00  0.00     0.123 C 
HETATM    6  S2  UNL     1      83.500  95.261  14.328  1.00  0.00    -0.130 SA
HETATM    7  C6  UNL     1      84.446  94.583  15.752  1.00  0.00     0.297 C 
HETATM    8  N1  UNL     1      83.344  94.006  16.522  1.00  0.00     0.134 N 
ENDROOT
BRANCH   1   9
HETATM    9  C1  UNL     1      83.373  95.084  18.639  1.00  0.00     0.208 C 
HETATM   10  O1  UNL     1      83.161  94.289  19.575  1.00  0.00    -0.646 OA
HETATM   11  O2  UNL     1      84.259  96.118  18.840  1.00  0.00    -0.646 OA
ENDBRANCH   1   9
BRANCH   7  12
HETATM   12  C7  UNL     1      85.331  93.499  15.184  1.00  0.00     0.133 C 
HETATM   13  S3  UNL     1      85.617  93.706  13.416  1.00  0.00    -0.095 SA
ENDBRANCH   7  12
TORSDOF 2
ENDMDL
