MODEL 9
REMARK VINA RESULT: -4.607701630      5.298      6.921
REMARK  2 active torsions:
REMARK  status: ('A' for Active; 'I' for Inactive)
REMARK    1  A    between atoms: C1_2  and  C2_4 
REMARK    2  A    between atoms: C6_10  and  C7_11 
ROOT
HETATM    1  C2  UNL     1      84.255  98.393  23.352  1.00  0.00     0.335 C 
HETATM    2  C3  UNL     1      83.654  98.305  24.690  1.00  0.00     0.123 C 
HETATM    3  S1  UNL     1      82.471  96.937  24.512  1.00  0.00    -0.130 SA
HETATM    4  C4  UNL     1      82.380  97.142  22.683  1.00  0.00     0.296 C 
HETATM    5  C5  UNL     1      81.424  98.272  22.458  1.00  0.00     0.123 C 
HETATM    6  S2  UNL     1      82.259  99.159  21.086  1.00  0.00    -0.130 SA
HETATM    7  C6  UNL     1      83.756  98.091  21.049  1.00  0.00     0.297 C 
HETATM    8  N1  UNL     1      83.692  97.538  22.402  1.00  0.00     0.134 N 
ENDROOT
BRANCH   1   9
HETATM    9  C1  UNL     1      85.714  98.169  23.478  1.00  0.00     0.208 C 
HETATM   10  O1  UNL     1      86.541  98.748  22.749  1.00  0.00    -0.646 OA
HETATM   11  O2  UNL     1      86.175  97.291  24.433  1.00  0.00    -0.646 OA
ENDBRANCH   1   9
BRANCH   7  12
HETATM   12  C7  UNL     1      83.479  97.025  20.018  1.00  0.00     0.133 C 
HETATM   13  S3  UNL     1      82.302  97.572  18.765  1.00  0.00    -0.095 SA
ENDBRANCH   7  12
TORSDOF 2
ENDMDL
