MODEL 7
REMARK VINA RESULT: -4.756199642      5.026      6.416
REMARK  2 active torsions:
REMARK  status: ('A' for Active; 'I' for Inactive)
REMARK    1  A    between atoms: C1_2  and  C2_4 
REMARK    2  A    between atoms: C6_10  and  C7_11 
ROOT
HETATM    1  C2  UNL     1      83.585  97.838  20.796  1.00  0.00     0.335 C 
HETATM    2  C3  UNL     1      82.561  98.345  19.871  1.00  0.00     0.123 C 
HETATM    3  S1  UNL     1      81.764  99.663  20.835  1.00  0.00    -0.130 SA
HETATM    4  C4  UNL     1      82.312  98.938  22.439  1.00  0.00     0.296 C 
HETATM    5  C5  UNL     1      81.333  97.845  22.735  1.00  0.00     0.123 C 
HETATM    6  S2  UNL     1      82.454  96.552  23.397  1.00  0.00    -0.130 SA
HETATM    7  C6  UNL     1      84.014  97.481  23.105  1.00  0.00     0.297 C 
HETATM    8  N1  UNL     1      83.553  98.408  22.071  1.00  0.00     0.134 N 
ENDROOT
BRANCH   1   9
HETATM    9  C1  UNL     1      84.913  98.010  20.163  1.00  0.00     0.208 C 
HETATM   10  O1  UNL     1      85.402  97.157  19.399  1.00  0.00    -0.646 OA
HETATM   11  O2  UNL     1      85.637  99.151  20.429  1.00  0.00    -0.646 OA
ENDBRANCH   1   9
BRANCH   7  12
HETATM   12  C7  UNL     1      84.309  98.213  24.391  1.00  0.00     0.133 C 
HETATM   13  S3  UNL     1      85.853  97.670  25.149  1.00  0.00    -0.095 SA
ENDBRANCH   7  12
TORSDOF 2
ENDMDL
