MODEL 3
REMARK VINA RESULT: -10.291213533      0.478      1.050
REMARK  8 active torsions:
REMARK  status: ('A' for Active; 'I' for Inactive)
REMARK    1  A    between atoms: N5_13  and  C6_14 
REMARK    2  A    between atoms: C7_16  and  C8_17 
REMARK    3  A    between atoms: C8_17  and  O2_18 
REMARK    4  A    between atoms: O2_18  and  P1_19 
REMARK    5  A    between atoms: P1_19  and  O5_22 
REMARK    6  A    between atoms: O5_22  and  P2_23 
REMARK    7  A    between atoms: C9_27  and  O9_28 
REMARK    8  A    between atoms: C10_30  and  O10_31 
ROOT
HETATM    1  C6  UNL     1      17.367  -6.621   5.315  1.00  0.00     0.262 C 
HETATM    2  O1  UNL     1      17.885  -5.827   4.293  1.00  0.00    -0.353 OA
HETATM    3  C7  UNL     1      18.440  -4.782   5.031  1.00  0.00     0.180 C 
HETATM    4  C9  UNL     1      19.196  -5.423   6.163  1.00  0.00     0.182 C 
HETATM    5  C10 UNL     1      18.588  -6.832   6.181  1.00  0.00     0.198 C 
ENDROOT
BRANCH   1   6
HETATM    6  N5  UNL     1      16.797  -7.849   4.836  1.00  0.00    -0.297 N 
HETATM    7  C3  UNL     1      15.656  -8.378   5.325  1.00  0.00     0.142 A 
HETATM    8  N3  UNL     1      14.815  -7.954   6.300  1.00  0.00    -0.336 N 
HETATM    9  C4  UNL     1      15.374  -9.552   4.661  1.00  0.00     0.119 A 
HETATM   10  C2  UNL     1      13.708  -8.637   6.648  1.00  0.00     0.183 A 
ATOM     11  H3  UNL     1      15.029  -7.084   6.788  1.00  0.00     0.168 HD
HETATM   12  N2  UNL     1      13.438  -9.768   6.006  1.00  0.00    -0.339 N 
HETATM   13  C1  UNL     1      14.243 -10.239   5.024  1.00  0.00     0.148 A 
ATOM     14  H2  UNL     1      12.603 -10.297   6.260  1.00  0.00     0.167 HD
HETATM   15  N1  UNL     1      13.918 -11.435   4.376  1.00  0.00    -0.080 NA
HETATM   16  N4  UNL     1      16.369  -9.705   3.769  1.00  0.00    -0.346 N 
HETATM   17  C5  UNL     1      17.222  -8.671   3.885  1.00  0.00     0.188 A 
ATOM     18  H4  UNL     1      16.462 -10.480   3.112  1.00  0.00     0.167 HD
ENDBRANCH   1   6
BRANCH   5  19
HETATM   19  O10 UNL     1      18.290  -7.235   7.461  1.00  0.00    -0.388 OA
ATOM     20  H10 UNL     1      18.669  -6.679   8.131  1.00  0.00     0.210 HD
ENDBRANCH   5  19
BRANCH   3  21
HETATM   21  C8  UNL     1      19.315  -3.890   4.182  1.00  0.00     0.216 C 
BRANCH  21  22
HETATM   22  O2  UNL     1      18.506  -3.125   3.401  1.00  0.00    -0.287 OA
BRANCH  22  23
HETATM   23  P1  UNL     1      19.147  -1.805   2.676  1.00  0.00     0.418 P 
HETATM   24  O3  UNL     1      20.042  -2.618   1.743  1.00  0.00    -0.624 OA
HETATM   25  O4  UNL     1      18.337  -1.210   1.282  1.00  0.00    -0.624 OA
BRANCH  23  26
HETATM   26  O5  UNL     1      20.348  -0.958   3.327  1.00  0.00    -0.173 OA
BRANCH  26  27
HETATM   27  P2  UNL     1      20.070   0.585   3.826  1.00  0.00     0.431 P 
HETATM   28  O6  UNL     1      20.261   0.998   5.377  1.00  0.00    -0.616 OA
HETATM   29  O7  UNL     1      19.356   1.665   2.739  1.00  0.00    -0.616 OA
HETATM   30  O8  UNL     1      21.440   1.033   3.314  1.00  0.00    -0.616 OA
ENDBRANCH  26  27
ENDBRANCH  23  26
ENDBRANCH  22  23
ENDBRANCH  21  22
ENDBRANCH   3  21
BRANCH   4  31
HETATM   31  O9  UNL     1      18.838  -4.843   7.389  1.00  0.00    -0.390 OA
ATOM     32  H9  UNL     1      18.438  -5.487   7.961  1.00  0.00     0.210 HD
ENDBRANCH   4  31
TORSDOF 8
ENDMDL
