MODEL 10
REMARK VINA RESULT: -9.328010641      2.855      4.529
REMARK  8 active torsions:
REMARK  status: ('A' for Active; 'I' for Inactive)
REMARK    1  A    between atoms: N5_13  and  C6_14 
REMARK    2  A    between atoms: C7_16  and  C8_17 
REMARK    3  A    between atoms: C8_17  and  O2_18 
REMARK    4  A    between atoms: O2_18  and  P1_19 
REMARK    5  A    between atoms: P1_19  and  O5_22 
REMARK    6  A    between atoms: O5_22  and  P2_23 
REMARK    7  A    between atoms: C9_27  and  O9_28 
REMARK    8  A    between atoms: C10_30  and  O10_31 
ROOT
HETATM    1  C6  UNL     1      19.092  -3.786   3.609  1.00  0.00     0.262 C 
HETATM    2  O1  UNL     1      18.589  -2.486   3.588  1.00  0.00    -0.353 OA
HETATM    3  C7  UNL     1      19.418  -1.902   2.631  1.00  0.00     0.180 C 
HETATM    4  C9  UNL     1      19.487  -2.874   1.485  1.00  0.00     0.182 C 
HETATM    5  C10 UNL     1      19.000  -4.169   2.150  1.00  0.00     0.198 C 
ENDROOT
BRANCH   1   6
HETATM    6  N5  UNL     1      18.347  -4.661   4.470  1.00  0.00    -0.297 N 
HETATM    7  C3  UNL     1      18.674  -5.954   4.677  1.00  0.00     0.142 A 
HETATM    8  N3  UNL     1      19.684  -6.714   4.189  1.00  0.00    -0.336 N 
HETATM    9  C4  UNL     1      17.771  -6.521   5.549  1.00  0.00     0.119 A 
HETATM   10  C2  UNL     1      19.842  -8.009   4.523  1.00  0.00     0.183 A 
ATOM     11  H3  UNL     1      20.351  -6.289   3.543  1.00  0.00     0.168 HD
HETATM   12  N2  UNL     1      18.969  -8.553   5.363  1.00  0.00    -0.339 N 
HETATM   13  C1  UNL     1      17.941  -7.841   5.883  1.00  0.00     0.148 A 
ATOM     14  H2  UNL     1      19.076  -9.534   5.625  1.00  0.00     0.167 HD
HETATM   15  N1  UNL     1      17.048  -8.456   6.765  1.00  0.00    -0.080 NA
HETATM   16  N4  UNL     1      16.904  -5.539   5.854  1.00  0.00    -0.346 N 
HETATM   17  C5  UNL     1      17.263  -4.421   5.196  1.00  0.00     0.188 A 
ATOM     18  H4  UNL     1      16.105  -5.627   6.482  1.00  0.00     0.167 HD
ENDBRANCH   1   6
BRANCH   5  19
HETATM   19  O10 UNL     1      19.795  -5.238   1.811  1.00  0.00    -0.388 OA
ATOM     20  H10 UNL     1      20.105  -5.210   0.914  1.00  0.00     0.210 HD
ENDBRANCH   5  19
BRANCH   3  21
HETATM   21  C8  UNL     1      18.921  -0.540   2.206  1.00  0.00     0.216 C 
BRANCH  21  22
HETATM   22  O2  UNL     1      19.151   0.330   3.226  1.00  0.00    -0.287 OA
BRANCH  22  23
HETATM   23  P1  UNL     1      20.582   1.122   3.265  1.00  0.00     0.418 P 
HETATM   24  O3  UNL     1      20.783   0.910   4.765  1.00  0.00    -0.624 OA
HETATM   25  O4  UNL     1      21.999   0.185   3.004  1.00  0.00    -0.624 OA
BRANCH  23  26
HETATM   26  O5  UNL     1      20.683   2.726   3.332  1.00  0.00    -0.173 OA
BRANCH  26  27
HETATM   27  P2  UNL     1      20.630   3.596   1.936  1.00  0.00     0.431 P 
HETATM   28  O6  UNL     1      20.917   2.887   0.512  1.00  0.00    -0.616 OA
HETATM   29  O7  UNL     1      20.506   5.278   2.041  1.00  0.00    -0.616 OA
HETATM   30  O8  UNL     1      19.102   3.522   1.909  1.00  0.00    -0.616 OA
ENDBRANCH  26  27
ENDBRANCH  23  26
ENDBRANCH  22  23
ENDBRANCH  21  22
ENDBRANCH   3  21
BRANCH   4  31
HETATM   31  O9  UNL     1      20.818  -3.117   1.119  1.00  0.00    -0.390 OA
ATOM     32  H9  UNL     1      21.298  -2.301   1.037  1.00  0.00     0.210 HD
ENDBRANCH   4  31
TORSDOF 8
ENDMDL
