MODEL 6
REMARK VINA RESULT: -9.683247179      1.057      2.148
REMARK  8 active torsions:
REMARK  status: ('A' for Active; 'I' for Inactive)
REMARK    1  A    between atoms: N5_13  and  C6_14 
REMARK    2  A    between atoms: C7_16  and  C8_17 
REMARK    3  A    between atoms: C8_17  and  O2_18 
REMARK    4  A    between atoms: O2_18  and  P1_19 
REMARK    5  A    between atoms: P1_19  and  O5_22 
REMARK    6  A    between atoms: O5_22  and  P2_23 
REMARK    7  A    between atoms: C9_27  and  O9_28 
REMARK    8  A    between atoms: C10_30  and  O10_31 
ROOT
HETATM    1  C6  UNL     1      17.453  -6.624   5.237  1.00  0.00     0.262 C 
HETATM    2  O1  UNL     1      18.026  -5.896   4.194  1.00  0.00    -0.353 OA
HETATM    3  C7  UNL     1      18.600  -4.839   4.900  1.00  0.00     0.180 C 
HETATM    4  C9  UNL     1      19.303  -5.454   6.080  1.00  0.00     0.182 C 
HETATM    5  C10 UNL     1      18.643  -6.838   6.143  1.00  0.00     0.198 C 
ENDROOT
BRANCH   1   6
HETATM    6  N5  UNL     1      16.850  -7.850   4.797  1.00  0.00    -0.297 N 
HETATM    7  C3  UNL     1      15.702  -8.338   5.311  1.00  0.00     0.142 A 
HETATM    8  N3  UNL     1      14.879  -7.866   6.279  1.00  0.00    -0.336 N 
HETATM    9  C4  UNL     1      15.386  -9.523   4.683  1.00  0.00     0.119 A 
HETATM   10  C2  UNL     1      13.759  -8.512   6.656  1.00  0.00     0.183 A 
ATOM     11  H3  UNL     1      15.117  -6.988   6.741  1.00  0.00     0.168 HD
HETATM   12  N2  UNL     1      13.457  -9.655   6.049  1.00  0.00    -0.339 N 
HETATM   13  C1  UNL     1      14.242 -10.173   5.074  1.00  0.00     0.148 A 
ATOM     14  H2  UNL     1      12.613 -10.157   6.325  1.00  0.00     0.167 HD
HETATM   15  N1  UNL     1      13.884 -11.378   4.464  1.00  0.00    -0.080 NA
HETATM   16  N4  UNL     1      16.369  -9.726   3.788  1.00  0.00    -0.346 N 
HETATM   17  C5  UNL     1      17.247  -8.709   3.867  1.00  0.00     0.188 A 
ATOM     18  H4  UNL     1      16.438 -10.521   3.153  1.00  0.00     0.167 HD
ENDBRANCH   1   6
BRANCH   5  19
HETATM   19  O10 UNL     1      18.297  -7.171   7.432  1.00  0.00    -0.388 OA
ATOM     20  H10 UNL     1      17.734  -6.532   7.851  1.00  0.00     0.210 HD
ENDBRANCH   5  19
BRANCH   3  21
HETATM   21  C8  UNL     1      19.529  -4.019   4.036  1.00  0.00     0.216 C 
BRANCH  21  22
HETATM   22  O2  UNL     1      19.050  -2.747   3.991  1.00  0.00    -0.287 OA
BRANCH  22  23
HETATM   23  P1  UNL     1      19.635  -1.736   2.844  1.00  0.00     0.418 P 
HETATM   24  O3  UNL     1      19.286  -0.471   3.626  1.00  0.00    -0.624 OA
HETATM   25  O4  UNL     1      21.289  -1.286   2.971  1.00  0.00    -0.624 OA
BRANCH  23  26
HETATM   26  O5  UNL     1      18.793  -1.333   1.534  1.00  0.00    -0.173 OA
BRANCH  26  27
HETATM   27  P2  UNL     1      19.276  -1.888   0.063  1.00  0.00     0.431 P 
HETATM   28  O6  UNL     1      18.403  -1.579  -1.262  1.00  0.00    -0.616 OA
HETATM   29  O7  UNL     1      20.564  -2.981  -0.002  1.00  0.00    -0.616 OA
HETATM   30  O8  UNL     1      20.285  -0.747  -0.073  1.00  0.00    -0.616 OA
ENDBRANCH  26  27
ENDBRANCH  23  26
ENDBRANCH  22  23
ENDBRANCH  21  22
ENDBRANCH   3  21
BRANCH   4  31
HETATM   31  O9  UNL     1      18.936  -4.807   7.268  1.00  0.00    -0.390 OA
ATOM     32  H9  UNL     1      18.193  -5.240   7.670  1.00  0.00     0.210 HD
ENDBRANCH   4  31
TORSDOF 8
ENDMDL
