MODEL 9
REMARK VINA RESULT: -9.333133642      2.879      4.783
REMARK  8 active torsions:
REMARK  status: ('A' for Active; 'I' for Inactive)
REMARK    1  A    between atoms: N5_13  and  C6_14 
REMARK    2  A    between atoms: C7_16  and  C8_17 
REMARK    3  A    between atoms: C8_17  and  O2_18 
REMARK    4  A    between atoms: O2_18  and  P1_19 
REMARK    5  A    between atoms: P1_19  and  O5_22 
REMARK    6  A    between atoms: O5_22  and  P2_23 
REMARK    7  A    between atoms: C9_27  and  O9_28 
REMARK    8  A    between atoms: C10_30  and  O10_31 
ROOT
HETATM    1  C6  UNL     1      19.491  -3.889   3.443  1.00  0.00     0.262 C 
HETATM    2  O1  UNL     1      19.433  -2.510   3.647  1.00  0.00    -0.353 OA
HETATM    3  C7  UNL     1      20.272  -2.061   2.628  1.00  0.00     0.180 C 
HETATM    4  C9  UNL     1      19.875  -2.819   1.391  1.00  0.00     0.182 C 
HETATM    5  C10 UNL     1      19.090  -3.995   1.990  1.00  0.00     0.198 C 
ENDROOT
BRANCH   1   6
HETATM    6  N5  UNL     1      18.625  -4.621   4.322  1.00  0.00    -0.297 N 
HETATM    7  C3  UNL     1      18.796  -5.928   4.612  1.00  0.00     0.142 A 
HETATM    8  N3  UNL     1      19.726  -6.825   4.204  1.00  0.00    -0.336 N 
HETATM    9  C4  UNL     1      17.807  -6.338   5.481  1.00  0.00     0.119 A 
HETATM   10  C2  UNL     1      19.724  -8.107   4.614  1.00  0.00     0.183 A 
ATOM     11  H3  UNL     1      20.456  -6.517   3.561  1.00  0.00     0.168 HD
HETATM   12  N2  UNL     1      18.770  -8.500   5.451  1.00  0.00    -0.339 N 
HETATM   13  C1  UNL     1      17.815  -7.647   5.892  1.00  0.00     0.148 A 
ATOM     14  H2  UNL     1      18.755  -9.469   5.769  1.00  0.00     0.167 HD
HETATM   15  N1  UNL     1      16.831  -8.105   6.773  1.00  0.00    -0.080 NA
HETATM   16  N4  UNL     1      17.050  -5.248   5.699  1.00  0.00    -0.346 N 
HETATM   17  C5  UNL     1      17.554  -4.218   4.994  1.00  0.00     0.188 A 
ATOM     18  H4  UNL     1      16.227  -5.208   6.301  1.00  0.00     0.167 HD
ENDBRANCH   1   6
BRANCH   5  19
HETATM   19  O10 UNL     1      19.449  -5.187   1.407  1.00  0.00    -0.388 OA
ATOM     20  H10 UNL     1      19.295  -5.213   0.471  1.00  0.00     0.210 HD
ENDBRANCH   5  19
BRANCH   3  21
HETATM   21  C8  UNL     1      20.187  -0.564   2.442  1.00  0.00     0.216 C 
BRANCH  21  22
HETATM   22  O2  UNL     1      20.978   0.024   3.379  1.00  0.00    -0.287 OA
BRANCH  22  23
HETATM   23  P1  UNL     1      20.472   1.426   4.055  1.00  0.00     0.418 P 
HETATM   24  O3  UNL     1      19.085   1.359   3.419  1.00  0.00    -0.624 OA
HETATM   25  O4  UNL     1      19.709   1.321   5.591  1.00  0.00    -0.624 OA
BRANCH  23  26
HETATM   26  O5  UNL     1      20.843   2.865   3.441  1.00  0.00    -0.173 OA
BRANCH  26  27
HETATM   27  P2  UNL     1      20.175   3.328   2.010  1.00  0.00     0.431 P 
HETATM   28  O6  UNL     1      18.670   3.913   1.953  1.00  0.00    -0.616 OA
HETATM   29  O7  UNL     1      21.000   2.959   0.580  1.00  0.00    -0.616 OA
HETATM   30  O8  UNL     1      20.923   4.661   2.054  1.00  0.00    -0.616 OA
ENDBRANCH  26  27
ENDBRANCH  23  26
ENDBRANCH  22  23
ENDBRANCH  21  22
ENDBRANCH   3  21
BRANCH   4  31
HETATM   31  O9  UNL     1      20.998  -3.391   0.776  1.00  0.00    -0.390 OA
ATOM     32  H9  UNL     1      21.005  -3.201  -0.154  1.00  0.00     0.210 HD
ENDBRANCH   4  31
TORSDOF 8
ENDMDL
