MODEL 8
REMARK VINA RESULT: -9.610293088      1.434      1.883
REMARK  8 active torsions:
REMARK  status: ('A' for Active; 'I' for Inactive)
REMARK    1  A    between atoms: N5_13  and  C6_14 
REMARK    2  A    between atoms: C7_16  and  C8_17 
REMARK    3  A    between atoms: C8_17  and  O2_18 
REMARK    4  A    between atoms: O2_18  and  P1_19 
REMARK    5  A    between atoms: P1_19  and  O5_22 
REMARK    6  A    between atoms: O5_22  and  P2_23 
REMARK    7  A    between atoms: C9_27  and  O9_28 
REMARK    8  A    between atoms: C10_30  and  O10_31 
ROOT
HETATM    1  C6  UNL     1      17.192  -7.516   4.771  1.00  0.00     0.262 C 
HETATM    2  O1  UNL     1      17.909  -6.504   4.133  1.00  0.00    -0.353 OA
HETATM    3  C7  UNL     1      17.883  -5.511   5.110  1.00  0.00     0.180 C 
HETATM    4  C9  UNL     1      18.221  -6.190   6.410  1.00  0.00     0.182 C 
HETATM    5  C10 UNL     1      17.964  -7.663   6.062  1.00  0.00     0.198 C 
ENDROOT
BRANCH   1   6
HETATM    6  N5  UNL     1      17.136  -8.730   4.007  1.00  0.00    -0.297 N 
HETATM    7  C3  UNL     1      16.127  -9.620   4.102  1.00  0.00     0.142 A 
HETATM    8  N3  UNL     1      15.003  -9.627   4.860  1.00  0.00    -0.336 N 
HETATM    9  C4  UNL     1      16.362 -10.674   3.245  1.00  0.00     0.119 A 
HETATM   10  C2  UNL     1      14.102 -10.626   4.809  1.00  0.00     0.183 A 
ATOM     11  H3  UNL     1      14.833  -8.845   5.492  1.00  0.00     0.168 HD
HETATM   12  N2  UNL     1      14.332 -11.641   3.983  1.00  0.00    -0.339 N 
HETATM   13  C1  UNL     1      15.437 -11.686   3.202  1.00  0.00     0.148 A 
ATOM     14  H2  UNL     1      13.658 -12.406   3.935  1.00  0.00     0.167 HD
HETATM   15  N1  UNL     1      15.637 -12.774   2.346  1.00  0.00    -0.080 NA
HETATM   16  N4  UNL     1      17.530 -10.388   2.642  1.00  0.00    -0.346 N 
HETATM   17  C5  UNL     1      17.987  -9.212   3.110  1.00  0.00     0.188 A 
ATOM     18  H4  UNL     1      17.993 -10.968   1.942  1.00  0.00     0.167 HD
ENDBRANCH   1   6
BRANCH   5  19
HETATM   19  O10 UNL     1      17.256  -8.297   7.056  1.00  0.00    -0.388 OA
ATOM     20  H10 UNL     1      17.745  -8.399   7.863  1.00  0.00     0.210 HD
ENDBRANCH   5  19
BRANCH   3  21
HETATM   21  C8  UNL     1      18.825  -4.374   4.788  1.00  0.00     0.216 C 
BRANCH  21  22
HETATM   22  O2  UNL     1      18.194  -3.535   3.923  1.00  0.00    -0.287 OA
BRANCH  22  23
HETATM   23  P1  UNL     1      19.070  -2.862   2.716  1.00  0.00     0.418 P 
HETATM   24  O3  UNL     1      19.748  -4.174   2.329  1.00  0.00    -0.624 OA
HETATM   25  O4  UNL     1      18.356  -2.839   1.153  1.00  0.00    -0.624 OA
BRANCH  23  26
HETATM   26  O5  UNL     1      20.441  -2.064   2.982  1.00  0.00    -0.173 OA
BRANCH  26  27
HETATM   27  P2  UNL     1      20.454  -0.423   2.867  1.00  0.00     0.431 P 
HETATM   28  O6  UNL     1      21.812   0.411   3.136  1.00  0.00    -0.616 OA
HETATM   29  O7  UNL     1      18.979   0.384   2.696  1.00  0.00    -0.616 OA
HETATM   30  O8  UNL     1      20.547  -0.498   1.342  1.00  0.00    -0.616 OA
ENDBRANCH  26  27
ENDBRANCH  23  26
ENDBRANCH  22  23
ENDBRANCH  21  22
ENDBRANCH   3  21
BRANCH   4  31
HETATM   31  O9  UNL     1      17.280  -5.867   7.398  1.00  0.00    -0.390 OA
ATOM     32  H9  UNL     1      16.407  -5.817   7.027  1.00  0.00     0.210 HD
ENDBRANCH   4  31
TORSDOF 8
ENDMDL
