MODEL 5
REMARK VINA RESULT: -9.699169073      2.921      4.751
REMARK  8 active torsions:
REMARK  status: ('A' for Active; 'I' for Inactive)
REMARK    1  A    between atoms: N5_13  and  C6_14 
REMARK    2  A    between atoms: C7_16  and  C8_17 
REMARK    3  A    between atoms: C8_17  and  O2_18 
REMARK    4  A    between atoms: O2_18  and  P1_19 
REMARK    5  A    between atoms: P1_19  and  O5_22 
REMARK    6  A    between atoms: O5_22  and  P2_23 
REMARK    7  A    between atoms: C9_27  and  O9_28 
REMARK    8  A    between atoms: C10_30  and  O10_31 
ROOT
HETATM    1  C6  UNL     1      19.567  -3.633   2.612  1.00  0.00     0.262 C 
HETATM    2  O1  UNL     1      18.778  -2.611   3.140  1.00  0.00    -0.353 OA
HETATM    3  C7  UNL     1      19.355  -1.497   2.532  1.00  0.00     0.180 C 
HETATM    4  C9  UNL     1      19.534  -1.855   1.082  1.00  0.00     0.182 C 
HETATM    5  C10 UNL     1      19.425  -3.385   1.128  1.00  0.00     0.198 C 
ENDROOT
BRANCH   1   6
HETATM    6  N5  UNL     1      19.130  -4.940   3.010  1.00  0.00    -0.297 N 
HETATM    7  C3  UNL     1      18.547  -5.197   4.200  1.00  0.00     0.142 A 
HETATM    8  N3  UNL     1      18.243  -4.389   5.244  1.00  0.00    -0.336 N 
HETATM    9  C4  UNL     1      18.243  -6.539   4.281  1.00  0.00     0.119 A 
HETATM   10  C2  UNL     1      17.652  -4.846   6.365  1.00  0.00     0.183 A 
ATOM     11  H3  UNL     1      18.470  -3.396   5.179  1.00  0.00     0.168 HD
HETATM   12  N2  UNL     1      17.361  -6.139   6.441  1.00  0.00    -0.339 N 
HETATM   13  C1  UNL     1      17.641  -6.993   5.427  1.00  0.00     0.148 A 
ATOM     14  H2  UNL     1      16.914  -6.500   7.284  1.00  0.00     0.167 HD
HETATM   15  N1  UNL     1      17.315  -8.347   5.552  1.00  0.00    -0.080 NA
HETATM   16  N4  UNL     1      18.656  -7.069   3.116  1.00  0.00    -0.346 N 
HETATM   17  C5  UNL     1      19.190  -6.094   2.357  1.00  0.00     0.188 A 
ATOM     18  H4  UNL     1      18.578  -8.051   2.851  1.00  0.00     0.167 HD
ENDBRANCH   1   6
BRANCH   5  19
HETATM   19  O10 UNL     1      20.409  -3.982   0.375  1.00  0.00    -0.388 OA
ATOM     20  H10 UNL     1      20.114  -4.258  -0.484  1.00  0.00     0.210 HD
ENDBRANCH   5  19
BRANCH   3  21
HETATM   21  C8  UNL     1      18.519  -0.252   2.722  1.00  0.00     0.216 C 
BRANCH  21  22
HETATM   22  O2  UNL     1      19.080   0.485   3.718  1.00  0.00    -0.287 OA
BRANCH  22  23
HETATM   23  P1  UNL     1      20.515   1.217   3.430  1.00  0.00     0.418 P 
HETATM   24  O3  UNL     1      20.985   1.109   4.879  1.00  0.00    -0.624 OA
HETATM   25  O4  UNL     1      21.832   0.205   2.990  1.00  0.00    -0.624 OA
BRANCH  23  26
HETATM   26  O5  UNL     1      20.670   2.815   3.346  1.00  0.00    -0.173 OA
BRANCH  26  27
HETATM   27  P2  UNL     1      20.542   3.563   1.886  1.00  0.00     0.431 P 
HETATM   28  O6  UNL     1      20.878   2.767   0.520  1.00  0.00    -0.616 OA
HETATM   29  O7  UNL     1      20.285   5.234   1.857  1.00  0.00    -0.616 OA
HETATM   30  O8  UNL     1      19.025   3.367   1.881  1.00  0.00    -0.616 OA
ENDBRANCH  26  27
ENDBRANCH  23  26
ENDBRANCH  22  23
ENDBRANCH  21  22
ENDBRANCH   3  21
BRANCH   4  31
HETATM   31  O9  UNL     1      20.845  -1.583   0.663  1.00  0.00    -0.390 OA
ATOM     32  H9  UNL     1      21.055  -2.075  -0.122  1.00  0.00     0.210 HD
ENDBRANCH   4  31
TORSDOF 8
ENDMDL
