MODEL 1
REMARK VINA RESULT: -10.514339397      0.000      0.000
REMARK  8 active torsions:
REMARK  status: ('A' for Active; 'I' for Inactive)
REMARK    1  A    between atoms: N5_13  and  C6_14 
REMARK    2  A    between atoms: C7_16  and  C8_17 
REMARK    3  A    between atoms: C8_17  and  O2_18 
REMARK    4  A    between atoms: O2_18  and  P1_19 
REMARK    5  A    between atoms: P1_19  and  O5_22 
REMARK    6  A    between atoms: O5_22  and  P2_23 
REMARK    7  A    between atoms: C9_27  and  O9_28 
REMARK    8  A    between atoms: C10_30  and  O10_31 
ROOT
HETATM    1  C6  UNL     1      17.376  -6.611   5.414  1.00  0.00     0.262 C 
HETATM    2  O1  UNL     1      17.937  -5.818   4.413  1.00  0.00    -0.353 OA
HETATM    3  C7  UNL     1      18.486  -4.788   5.175  1.00  0.00     0.180 C 
HETATM    4  C9  UNL     1      19.197  -5.447   6.325  1.00  0.00     0.182 C 
HETATM    5  C10 UNL     1      18.566  -6.847   6.314  1.00  0.00     0.198 C 
ENDROOT
BRANCH   1   6
HETATM    6  N5  UNL     1      16.801  -7.825   4.909  1.00  0.00    -0.297 N 
HETATM    7  C3  UNL     1      15.657  -8.360   5.387  1.00  0.00     0.142 A 
HETATM    8  N3  UNL     1      14.818  -7.952   6.369  1.00  0.00    -0.336 N 
HETATM    9  C4  UNL     1      15.370  -9.519   4.698  1.00  0.00     0.119 A 
HETATM   10  C2  UNL     1      13.707  -8.637   6.702  1.00  0.00     0.183 A 
ATOM     11  H3  UNL     1      15.034  -7.093   6.875  1.00  0.00     0.168 HD
HETATM   12  N2  UNL     1      13.433  -9.754   6.037  1.00  0.00    -0.339 N 
HETATM   13  C1  UNL     1      14.236 -10.208   5.046  1.00  0.00     0.148 A 
ATOM     14  H2  UNL     1      12.596 -10.285   6.280  1.00  0.00     0.167 HD
HETATM   15  N1  UNL     1      13.907 -11.389   4.373  1.00  0.00    -0.080 NA
HETATM   16  N4  UNL     1      16.365  -9.658   3.804  1.00  0.00    -0.346 N 
HETATM   17  C5  UNL     1      17.223  -8.630   3.941  1.00  0.00     0.188 A 
ATOM     18  H4  UNL     1      16.455 -10.420   3.132  1.00  0.00     0.167 HD
ENDBRANCH   1   6
BRANCH   5  19
HETATM   19  O10 UNL     1      18.224  -7.253   7.582  1.00  0.00    -0.388 OA
ATOM     20  H10 UNL     1      18.574  -8.105   7.815  1.00  0.00     0.210 HD
ENDBRANCH   5  19
BRANCH   3  21
HETATM   21  C8  UNL     1      19.400  -3.904   4.359  1.00  0.00     0.216 C 
BRANCH  21  22
HETATM   22  O2  UNL     1      18.626  -3.088   3.594  1.00  0.00    -0.287 OA
BRANCH  22  23
HETATM   23  P1  UNL     1      19.368  -2.035   2.585  1.00  0.00     0.418 P 
HETATM   24  O3  UNL     1      20.685  -2.053   3.358  1.00  0.00    -0.624 OA
HETATM   25  O4  UNL     1      20.214  -2.702   1.246  1.00  0.00    -0.624 OA
BRANCH  23  26
HETATM   26  O5  UNL     1      19.161  -0.443   2.690  1.00  0.00    -0.173 OA
BRANCH  26  27
HETATM   27  P2  UNL     1      20.258   0.460   3.518  1.00  0.00     0.431 P 
HETATM   28  O6  UNL     1      21.768   0.632   2.967  1.00  0.00    -0.616 OA
HETATM   29  O7  UNL     1      19.849   1.005   5.065  1.00  0.00    -0.616 OA
HETATM   30  O8  UNL     1      19.672   1.753   2.948  1.00  0.00    -0.616 OA
ENDBRANCH  26  27
ENDBRANCH  23  26
ENDBRANCH  22  23
ENDBRANCH  21  22
ENDBRANCH   3  21
BRANCH   4  31
HETATM   31  O9  UNL     1      18.812  -4.871   7.543  1.00  0.00    -0.390 OA
ATOM     32  H9  UNL     1      17.959  -5.190   7.811  1.00  0.00     0.210 HD
ENDBRANCH   4  31
TORSDOF 8
ENDMDL
