MODEL 2
REMARK VINA RESULT: -8.867664385      2.690      4.875
REMARK  7 active torsions:
REMARK  status: ('A' for Active; 'I' for Inactive)
REMARK    1  A    between atoms: C1_2  and  C2_4 
REMARK    2  A    between atoms: C2_4  and  C3_5 
REMARK    3  A    between atoms: C3_5  and  C4_6 
REMARK    4  A    between atoms: C8_10  and  N1_11 
REMARK    5  A    between atoms: N1_11  and  C9_13 
REMARK    6  A    between atoms: C14_23  and  O3_24 
REMARK    7  A    between atoms: O3_24  and  C15_25 
ROOT
HETATM    1  C2  UNL     1     -12.127   7.799  19.517  1.00  0.00     0.054 C 
HETATM    2  C12 UNL     1     -12.189   8.366  18.101  1.00  0.00     0.023 C 
HETATM    3  C13 UNL     1     -11.799   9.826  18.058  1.00  0.00     0.034 C 
HETATM    4  C14 UNL     1     -12.850  10.687  18.763  1.00  0.00     0.129 C 
HETATM    5  C21 UNL     1     -13.529   9.825  19.841  1.00  0.00     0.034 C 
HETATM    6  C22 UNL     1     -12.480   8.938  20.433  1.00  0.00     0.023 C 
ENDROOT
BRANCH   1   7
HETATM    7  C1  UNL     1     -13.114   6.716  19.637  1.00  0.00     0.182 C 
HETATM    8  O1  UNL     1     -13.383   6.193  20.737  1.00  0.00    -0.647 OA
HETATM    9  O2  UNL     1     -13.790   6.229  18.522  1.00  0.00    -0.647 OA
ENDBRANCH   1   7
BRANCH   1  10
HETATM   10  C3  UNL     1     -10.742   7.305  19.807  1.00  0.00     0.077 C 
BRANCH  10  11
HETATM   11  C4  UNL     1     -10.101   6.626  18.624  1.00  0.00     0.012 A 
HETATM   12  C5  UNL     1     -10.182   5.256  18.494  1.00  0.00     0.025 A 
HETATM   13  C6  UNL     1      -9.602   4.625  17.443  1.00  0.00     0.006 A 
HETATM   14  C7  UNL     1      -8.918   5.400  16.499  1.00  0.00     0.048 A 
HETATM   15  C8  UNL     1      -8.827   6.765  16.614  1.00  0.00     0.107 A 
HETATM   16  N3  UNL     1      -9.442   7.304  17.701  1.00  0.00    -0.346 N 
ATOM     17  H3  UNL     1      -9.391   8.316  17.813  1.00  0.00     0.167 HD
BRANCH  15  18
HETATM   18  N1  UNL     1      -8.155   7.603  15.701  1.00  0.00    -0.323 N 
ATOM     19  H1  UNL     1      -7.348   7.206  15.220  1.00  0.00     0.169 HD
BRANCH  18  20
HETATM   20  C9  UNL     1      -8.488   8.931  15.388  1.00  0.00     0.149 A 
HETATM   21  N2  UNL     1      -9.314   9.397  14.484  1.00  0.00    -0.346 N 
HETATM   22  C10 UNL     1      -9.499  10.667  14.334  1.00  0.00     0.097 A 
ATOM     23  H2  UNL     1      -9.821   8.744  13.887  1.00  0.00     0.167 HD
HETATM   24  C11 UNL     1      -8.802  11.516  15.154  1.00  0.00     0.070 A 
HETATM   25  S1  UNL     1      -7.910  10.403  16.103  1.00  0.00    -0.064 SA
ENDBRANCH  18  20
ENDBRANCH  15  18
ENDBRANCH  10  11
ENDBRANCH   1  10
BRANCH   4  26
HETATM   26  O3  UNL     1     -13.802  11.039  17.854  1.00  0.00    -0.343 OA
BRANCH  26  27
HETATM   27  C15 UNL     1     -14.027  12.135  17.108  1.00  0.00     0.109 A 
HETATM   28  C16 UNL     1     -15.337  12.603  16.890  1.00  0.00     0.040 A 
HETATM   29  C17 UNL     1     -15.581  13.718  16.131  1.00  0.00     0.005 A 
HETATM   30  C18 UNL     1     -14.567  14.434  15.548  1.00  0.00     0.027 A 
HETATM   31  C19 UNL     1     -13.275  13.999  15.746  1.00  0.00     0.075 A 
HETATM   32 CL1  UNL     1     -11.964  14.900  15.009  1.00  0.00    -0.081 Cl
HETATM   33  C20 UNL     1     -13.026  12.858  16.521  1.00  0.00     0.171 A 
HETATM   34  F1  UNL     1     -11.709  12.534  16.639  1.00  0.00    -0.201 F 
ENDBRANCH  26  27
ENDBRANCH   4  26
TORSDOF 7
ENDMDL
