MODEL 3
REMARK VINA RESULT: -8.856642664      3.502      7.128
REMARK  7 active torsions:
REMARK  status: ('A' for Active; 'I' for Inactive)
REMARK    1  A    between atoms: C1_2  and  C2_4 
REMARK    2  A    between atoms: C2_4  and  C3_5 
REMARK    3  A    between atoms: C3_5  and  C4_6 
REMARK    4  A    between atoms: C8_10  and  N1_11 
REMARK    5  A    between atoms: N1_11  and  C9_13 
REMARK    6  A    between atoms: C14_23  and  O3_24 
REMARK    7  A    between atoms: O3_24  and  C15_25 
ROOT
HETATM    1  C2  UNL     1      -9.851  12.646  15.160  1.00  0.00     0.054 C 
HETATM    2  C12 UNL     1     -10.736  11.440  15.466  1.00  0.00     0.023 C 
HETATM    3  C13 UNL     1     -10.383  10.800  16.790  1.00  0.00     0.034 C 
HETATM    4  C14 UNL     1      -9.004  10.140  16.721  1.00  0.00     0.129 C 
HETATM    5  C21 UNL     1      -8.164  10.896  15.677  1.00  0.00     0.034 C 
HETATM    6  C22 UNL     1      -8.515  12.346  15.783  1.00  0.00     0.023 C 
ENDROOT
BRANCH   1   7
HETATM    7  C1  UNL     1      -9.721  12.781  13.702  1.00  0.00     0.182 C 
HETATM    8  O1  UNL     1      -9.953  11.829  12.932  1.00  0.00    -0.647 OA
HETATM    9  O2  UNL     1      -9.331  13.984  13.121  1.00  0.00    -0.647 OA
ENDBRANCH   1   7
BRANCH   1  10
HETATM   10  C3  UNL     1     -10.445  13.880  15.768  1.00  0.00     0.077 C 
BRANCH  10  11
HETATM   11  C4  UNL     1     -11.946  13.933  15.644  1.00  0.00     0.012 A 
HETATM   12  C5  UNL     1     -12.527  14.737  14.686  1.00  0.00     0.025 A 
HETATM   13  C6  UNL     1     -13.875  14.807  14.566  1.00  0.00     0.006 A 
HETATM   14  C7  UNL     1     -14.660  14.044  15.439  1.00  0.00     0.048 A 
HETATM   15  C8  UNL     1     -14.099  13.238  16.399  1.00  0.00     0.107 A 
HETATM   16  N3  UNL     1     -12.739  13.235  16.439  1.00  0.00    -0.346 N 
ATOM     17  H3  UNL     1     -12.294  12.646  17.142  1.00  0.00     0.167 HD
BRANCH  15  18
HETATM   18  N1  UNL     1     -14.829  12.446  17.308  1.00  0.00    -0.323 N 
ATOM     19  H1  UNL     1     -15.713  12.828  17.644  1.00  0.00     0.169 HD
BRANCH  18  20
HETATM   20  C9  UNL     1     -14.459  11.182  17.796  1.00  0.00     0.149 A 
HETATM   21  N2  UNL     1     -13.967  10.149  17.157  1.00  0.00    -0.346 N 
HETATM   22  C10 UNL     1     -13.681   9.051  17.776  1.00  0.00     0.097 A 
ATOM     23  H2  UNL     1     -13.806  10.212  16.152  1.00  0.00     0.167 HD
HETATM   24  C11 UNL     1     -13.909   9.000  19.127  1.00  0.00     0.070 A 
HETATM   25  S1  UNL     1     -14.532  10.569  19.417  1.00  0.00    -0.064 SA
ENDBRANCH  18  20
ENDBRANCH  15  18
ENDBRANCH  10  11
ENDBRANCH   1  10
BRANCH   4  26
HETATM   26  O3  UNL     1      -9.158   8.860  16.281  1.00  0.00    -0.343 OA
BRANCH  26  27
HETATM   27  C15 UNL     1      -8.846   7.652  16.781  1.00  0.00     0.109 A 
HETATM   28  C16 UNL     1      -7.738   6.933  16.294  1.00  0.00     0.040 A 
HETATM   29  C17 UNL     1      -7.408   5.701  16.795  1.00  0.00     0.005 A 
HETATM   30  C18 UNL     1      -8.137   5.106  17.794  1.00  0.00     0.027 A 
HETATM   31  C19 UNL     1      -9.226   5.787  18.290  1.00  0.00     0.075 A 
HETATM   32 CL1  UNL     1     -10.170   5.044  19.566  1.00  0.00    -0.081 Cl
HETATM   33  C20 UNL     1      -9.562   7.047  17.777  1.00  0.00     0.171 A 
HETATM   34  F1  UNL     1     -10.659   7.614  18.351  1.00  0.00    -0.201 F 
ENDBRANCH  26  27
ENDBRANCH   4  26
TORSDOF 7
ENDMDL
