MODEL 1
REMARK VINA RESULT: -9.183965505      0.000      0.000
REMARK  7 active torsions:
REMARK  status: ('A' for Active; 'I' for Inactive)
REMARK    1  A    between atoms: C1_2  and  C2_4 
REMARK    2  A    between atoms: C2_4  and  C3_5 
REMARK    3  A    between atoms: C3_5  and  C4_6 
REMARK    4  A    between atoms: C8_10  and  N1_11 
REMARK    5  A    between atoms: N1_11  and  C9_13 
REMARK    6  A    between atoms: C14_23  and  O3_24 
REMARK    7  A    between atoms: O3_24  and  C15_25 
ROOT
HETATM    1  C2  UNL     1      -9.317  10.799  15.341  1.00  0.00     0.054 C 
HETATM    2  C12 UNL     1     -10.580  11.450  14.783  1.00  0.00     0.023 C 
HETATM    3  C13 UNL     1     -10.283  12.763  14.094  1.00  0.00     0.034 C 
HETATM    4  C14 UNL     1      -9.838  13.817  15.110  1.00  0.00     0.129 C 
HETATM    5  C21 UNL     1      -9.172  13.091  16.291  1.00  0.00     0.034 C 
HETATM    6  C22 UNL     1      -8.409  11.932  15.733  1.00  0.00     0.023 C 
ENDROOT
BRANCH   1   7
HETATM    7  C1  UNL     1      -9.679   9.997  16.519  1.00  0.00     0.182 C 
HETATM    8  O1  UNL     1     -10.755   9.370  16.581  1.00  0.00    -0.647 OA
HETATM    9  O2  UNL     1      -8.830   9.908  17.619  1.00  0.00    -0.647 OA
ENDBRANCH   1   7
BRANCH   1  10
HETATM   10  C3  UNL     1      -8.672   9.953  14.286  1.00  0.00     0.077 C 
BRANCH  10  11
HETATM   11  C4  UNL     1      -7.780   8.881  14.857  1.00  0.00     0.012 A 
HETATM   12  C5  UNL     1      -6.411   8.997  14.745  1.00  0.00     0.025 A 
HETATM   13  C6  UNL     1      -5.591   8.038  15.241  1.00  0.00     0.006 A 
HETATM   14  C7  UNL     1      -6.172   6.929  15.869  1.00  0.00     0.048 A 
HETATM   15  C8  UNL     1      -7.533   6.797  15.990  1.00  0.00     0.107 A 
HETATM   16  N3  UNL     1      -8.269   7.811  15.460  1.00  0.00    -0.346 N 
ATOM     17  H3  UNL     1      -9.284   7.741  15.535  1.00  0.00     0.167 HD
BRANCH  15  18
HETATM   18  N1  UNL     1      -8.181   5.708  16.608  1.00  0.00    -0.323 N 
ATOM     19  H1  UNL     1      -7.855   4.775  16.356  1.00  0.00     0.169 HD
BRANCH  18  20
HETATM   20  C9  UNL     1      -9.232   5.783  17.536  1.00  0.00     0.149 A 
HETATM   21  N2  UNL     1      -9.747   6.827  18.137  1.00  0.00    -0.346 N 
HETATM   22  C10 UNL     1     -10.725   6.707  18.973  1.00  0.00     0.097 A 
ATOM     23  H2  UNL     1      -9.369   7.754  17.940  1.00  0.00     0.167 HD
HETATM   24  C11 UNL     1     -11.210   5.448  19.213  1.00  0.00     0.070 A 
HETATM   25  S1  UNL     1     -10.203   4.505  18.197  1.00  0.00    -0.064 SA
ENDBRANCH  18  20
ENDBRANCH  15  18
ENDBRANCH  10  11
ENDBRANCH   1  10
BRANCH   4  26
HETATM   26  O3  UNL     1     -10.943  14.455  15.585  1.00  0.00    -0.343 OA
BRANCH  26  27
HETATM   27  C15 UNL     1     -12.264  14.208  15.535  1.00  0.00     0.109 A 
HETATM   28  C16 UNL     1     -13.084  14.855  14.591  1.00  0.00     0.040 A 
HETATM   29  C17 UNL     1     -14.431  14.612  14.528  1.00  0.00     0.005 A 
HETATM   30  C18 UNL     1     -15.049  13.730  15.378  1.00  0.00     0.027 A 
HETATM   31  C19 UNL     1     -14.271  13.082  16.311  1.00  0.00     0.075 A 
HETATM   32 CL1  UNL     1     -15.041  11.951  17.406  1.00  0.00    -0.081 Cl
HETATM   33  C20 UNL     1     -12.893  13.331  16.375  1.00  0.00     0.171 A 
HETATM   34  F1  UNL     1     -12.238  12.629  17.340  1.00  0.00    -0.201 F 
ENDBRANCH  26  27
ENDBRANCH   4  26
TORSDOF 7
ENDMDL
