MODEL 2
REMARK VINA RESULT: -5.748090698      1.540      1.798
REMARK  2 active torsions:
REMARK  status: ('A' for Active; 'I' for Inactive)
REMARK    1  A    between atoms: C6_8  and  C7_9 
REMARK    2  A    between atoms: C8_12  and  C9_13 
ROOT
HETATM    1  C1  UNL     1       5.518  -6.498 -40.941  1.00  0.00     0.029 C 
HETATM    2  C2  UNL     1       5.152  -7.788 -40.194  1.00  0.00     0.044 C 
HETATM    3  C3  UNL     1       6.282  -8.741 -40.381  1.00  0.00     0.029 C 
HETATM    4  S1  UNL     1       3.580  -8.442 -40.898  1.00  0.00    -0.121 SA
HETATM    5  C4  UNL     1       2.595  -8.019 -39.400  1.00  0.00     0.297 C 
HETATM    6  C5  UNL     1       1.398  -8.855 -39.240  1.00  0.00     0.123 C 
HETATM    7  S2  UNL     1       2.083 -10.310 -38.347  1.00  0.00    -0.130 SA
HETATM    8  C6  UNL     1       3.827  -9.717 -38.403  1.00  0.00     0.297 C 
HETATM    9  N1  UNL     1       3.592  -8.290 -38.426  1.00  0.00     0.134 N 
HETATM   10  C8  UNL     1       4.749  -7.536 -38.787  1.00  0.00     0.343 C 
ENDROOT
BRANCH  10  11
HETATM   11  C9  UNL     1       4.508  -6.106 -38.453  1.00  0.00     0.209 C 
HETATM   12  O1  UNL     1       3.499  -5.448 -38.776  1.00  0.00    -0.646 OA
HETATM   13  O2  UNL     1       5.471  -5.390 -37.713  1.00  0.00    -0.646 OA
ENDBRANCH  10  11
BRANCH   8  14
HETATM   14  C7  UNL     1       4.488 -10.203 -37.161  1.00  0.00     0.133 C 
HETATM   15  S3  UNL     1       3.149 -10.677 -35.998  1.00  0.00    -0.095 SA
ENDBRANCH   8  14
TORSDOF 2
ENDMDL
