MODEL 7
REMARK VINA RESULT: -5.387347418      2.812      4.810
REMARK  2 active torsions:
REMARK  status: ('A' for Active; 'I' for Inactive)
REMARK    1  A    between atoms: C6_8  and  C7_9 
REMARK    2  A    between atoms: C8_12  and  C9_13 
ROOT
HETATM    1  C1  UNL     1       3.844  -8.648 -39.284  1.00  0.00     0.029 C 
HETATM    2  C2  UNL     1       4.390  -7.728 -40.386  1.00  0.00     0.044 C 
HETATM    3  C3  UNL     1       5.449  -8.487 -41.108  1.00  0.00     0.029 C 
HETATM    4  S1  UNL     1       5.057  -6.205 -39.594  1.00  0.00    -0.121 SA
HETATM    5  C4  UNL     1       3.696  -5.137 -40.227  1.00  0.00     0.297 C 
HETATM    6  C5  UNL     1       4.076  -3.723 -40.343  1.00  0.00     0.123 C 
HETATM    7  S2  UNL     1       4.845  -3.687 -42.014  1.00  0.00    -0.130 SA
HETATM    8  C6  UNL     1       4.691  -5.503 -42.293  1.00  0.00     0.297 C 
HETATM    9  N1  UNL     1       3.521  -5.767 -41.486  1.00  0.00     0.134 N 
HETATM   10  C8  UNL     1       3.314  -7.158 -41.236  1.00  0.00     0.343 C 
ENDROOT
BRANCH  10  11
HETATM   11  C9  UNL     1       1.936  -7.347 -40.710  1.00  0.00     0.209 C 
HETATM   12  O1  UNL     1       1.518  -6.933 -39.610  1.00  0.00    -0.646 OA
HETATM   13  O2  UNL     1       0.985  -8.048 -41.479  1.00  0.00    -0.646 OA
ENDBRANCH  10  11
BRANCH   8  14
HETATM   14  C7  UNL     1       4.479  -5.698 -43.754  1.00  0.00     0.133 C 
HETATM   15  S3  UNL     1       4.375  -4.026 -44.503  1.00  0.00    -0.095 SA
ENDBRANCH   8  14
TORSDOF 2
ENDMDL
