MODEL 8
REMARK VINA RESULT: -5.294979409      1.858      2.776
REMARK  2 active torsions:
REMARK  status: ('A' for Active; 'I' for Inactive)
REMARK    1  A    between atoms: C6_8  and  C7_9 
REMARK    2  A    between atoms: C8_12  and  C9_13 
ROOT
HETATM    1  C1  UNL     1       6.614  -8.198 -40.107  1.00  0.00     0.029 C 
HETATM    2  C2  UNL     1       5.348  -8.742 -39.431  1.00  0.00     0.044 C 
HETATM    3  C3  UNL     1       5.733  -9.990 -38.715  1.00  0.00     0.029 C 
HETATM    4  S1  UNL     1       4.085  -9.061 -40.734  1.00  0.00    -0.121 SA
HETATM    5  C4  UNL     1       3.019  -7.652 -40.212  1.00  0.00     0.297 C 
HETATM    6  C5  UNL     1       1.608  -7.827 -40.579  1.00  0.00     0.123 C 
HETATM    7  S2  UNL     1       0.977  -8.800 -39.150  1.00  0.00    -0.130 SA
HETATM    8  C6  UNL     1       2.622  -8.959 -38.334  1.00  0.00     0.297 C 
HETATM    9  N1  UNL     1       3.242  -7.744 -38.814  1.00  0.00     0.134 N 
HETATM   10  C8  UNL     1       4.655  -7.716 -38.610  1.00  0.00     0.343 C 
ENDROOT
BRANCH  10  11
HETATM   11  C9  UNL     1       5.138  -6.324 -38.812  1.00  0.00     0.209 C 
HETATM   12  O1  UNL     1       5.340  -5.782 -39.916  1.00  0.00    -0.646 OA
HETATM   13  O2  UNL     1       5.408  -5.509 -37.693  1.00  0.00    -0.646 OA
ENDBRANCH  10  11
BRANCH   8  14
HETATM   14  C7  UNL     1       2.375  -8.976 -36.866  1.00  0.00     0.133 C 
HETATM   15  S3  UNL     1       3.038 -10.567 -36.234  1.00  0.00    -0.095 SA
ENDBRANCH   8  14
TORSDOF 2
ENDMDL
