MODEL 7
REMARK VINA RESULT: -7.026103455      3.849      7.154
REMARK  3 active torsions:
REMARK  status: ('A' for Active; 'I' for Inactive)
REMARK    1  A    between atoms: N1_2  and  C3_4 
REMARK    2  A    between atoms: C3_4  and  C4_5 
REMARK       I    between atoms: C4_5  and  N2_7 
REMARK    3  A    between atoms: N2_7  and  C5_9 
ROOT
HETATM    1  C5  UNL     1      22.250  36.203  21.633  1.00  0.00     0.035 A 
HETATM    2  C6  UNL     1      21.765  37.291  20.968  1.00  0.00     0.032 A 
HETATM    3  C7  UNL     1      20.874  38.161  21.591  1.00  0.00     0.033 A 
HETATM    4  C8  UNL     1      20.499  37.885  22.897  1.00  0.00     0.046 A 
HETATM    5  N3  UNL     1      19.633  38.709  23.538  1.00  0.00    -0.322 N 
ATOM      6  H3  UNL     1      19.263  39.527  23.054  1.00  0.00     0.169 HD
HETATM    7  C9  UNL     1      19.261  38.460  24.796  1.00  0.00     0.257 A 
HETATM    8  O2  UNL     1      18.462  39.235  25.360  1.00  0.00    -0.267 OA
HETATM    9  C10 UNL     1      19.731  37.370  25.499  1.00  0.00     0.043 A 
HETATM   10  C11 UNL     1      19.328  37.133  26.808  1.00  0.00     0.018 A 
HETATM   11  C12 UNL     1      19.800  36.045  27.502  1.00  0.00     0.001 A 
HETATM   12  C13 UNL     1      20.674  35.205  26.868  1.00  0.00     0.001 A 
HETATM   13  C14 UNL     1      21.104  35.397  25.571  1.00  0.00     0.013 A 
HETATM   14  C15 UNL     1      20.618  36.499  24.885  1.00  0.00    -0.008 A 
HETATM   15  C16 UNL     1      20.989  36.780  23.578  1.00  0.00     0.004 A 
HETATM   16  C17 UNL     1      21.859  35.939  22.956  1.00  0.00     0.044 A 
ENDROOT
BRANCH   1  17
HETATM   17  N2  UNL     1      23.162  35.310  21.057  1.00  0.00    -0.326 N 
HETATM   18  C4  UNL     1      24.565  35.399  21.037  1.00  0.00     0.250 C 
HETATM   19  O1  UNL     1      25.166  36.346  21.573  1.00  0.00    -0.271 OA
ATOM     20  H2  UNL     1      22.759  34.495  20.595  1.00  0.00     0.169 HD
BRANCH  18  21
HETATM   21  C3  UNL     1      25.379  34.340  20.362  1.00  0.00     0.373 C 
BRANCH  21  22
HETATM   22  N1  UNL     1      26.668  34.193  21.009  1.00  0.00     0.088 N 
HETATM   23  C1  UNL     1      27.004  32.767  21.127  1.00  0.00     0.310 C 
HETATM   24  C2  UNL     1      27.721  34.764  20.166  1.00  0.00     0.310 C 
ENDBRANCH  21  22
ENDBRANCH  18  21
ENDBRANCH   1  17
TORSDOF 3
ENDMDL
