MODEL 4
REMARK VINA RESULT: -7.550622221      3.886      7.061
REMARK  3 active torsions:
REMARK  status: ('A' for Active; 'I' for Inactive)
REMARK    1  A    between atoms: N1_2  and  C3_4 
REMARK    2  A    between atoms: C3_4  and  C4_5 
REMARK       I    between atoms: C4_5  and  N2_7 
REMARK    3  A    between atoms: N2_7  and  C5_9 
ROOT
HETATM    1  C5  UNL     1      23.048  37.264  21.620  1.00  0.00     0.035 A 
HETATM    2  C6  UNL     1      22.035  37.734  20.836  1.00  0.00     0.032 A 
HETATM    3  C7  UNL     1      20.857  38.204  21.410  1.00  0.00     0.033 A 
HETATM    4  C8  UNL     1      20.749  38.178  22.792  1.00  0.00     0.046 A 
HETATM    5  N3  UNL     1      19.617  38.628  23.388  1.00  0.00    -0.322 N 
ATOM      6  H3  UNL     1      18.852  38.983  22.815  1.00  0.00     0.169 HD
HETATM    7  C9  UNL     1      19.495  38.611  24.718  1.00  0.00     0.257 A 
HETATM    8  O2  UNL     1      18.442  39.031  25.239  1.00  0.00    -0.267 OA
HETATM    9  C10 UNL     1      20.499  38.144  25.541  1.00  0.00     0.043 A 
HETATM   10  C11 UNL     1      20.346  38.137  26.923  1.00  0.00     0.018 A 
HETATM   11  C12 UNL     1      21.350  37.670  27.738  1.00  0.00     0.001 A 
HETATM   12  C13 UNL     1      22.498  37.213  27.150  1.00  0.00     0.001 A 
HETATM   13  C14 UNL     1      22.696  37.199  25.785  1.00  0.00     0.013 A 
HETATM   14  C15 UNL     1      21.674  37.674  24.978  1.00  0.00    -0.008 A 
HETATM   15  C16 UNL     1      21.776  37.701  23.595  1.00  0.00     0.004 A 
HETATM   16  C17 UNL     1      22.921  37.245  23.019  1.00  0.00     0.044 A 
ENDROOT
BRANCH   1  17
HETATM   17  N2  UNL     1      24.259  36.798  21.092  1.00  0.00    -0.326 N 
HETATM   18  C4  UNL     1      24.665  35.466  20.905  1.00  0.00     0.250 C 
HETATM   19  O1  UNL     1      23.929  34.510  21.210  1.00  0.00    -0.271 OA
ATOM     20  H2  UNL     1      24.928  37.514  20.809  1.00  0.00     0.169 HD
BRANCH  18  21
HETATM   21  C3  UNL     1      26.010  35.160  20.326  1.00  0.00     0.373 C 
BRANCH  21  22
HETATM   22  N1  UNL     1      26.565  33.959  20.919  1.00  0.00     0.088 N 
HETATM   23  C1  UNL     1      26.151  32.784  20.139  1.00  0.00     0.310 C 
HETATM   24  C2  UNL     1      28.026  33.983  20.826  1.00  0.00     0.310 C 
ENDBRANCH  21  22
ENDBRANCH  18  21
ENDBRANCH   1  17
TORSDOF 3
ENDMDL
