MODEL 15
REMARK VINA RESULT: -6.508171100      2.275      3.472
REMARK  3 active torsions:
REMARK  status: ('A' for Active; 'I' for Inactive)
REMARK    1  A    between atoms: N1_2  and  C3_4 
REMARK    2  A    between atoms: C3_4  and  C4_5 
REMARK       I    between atoms: C4_5  and  N2_7 
REMARK    3  A    between atoms: N2_7  and  C5_9 
ROOT
HETATM    1  C5  UNL     1      22.559  32.750  21.054  1.00  0.00     0.035 A 
HETATM    2  C6  UNL     1      23.002  31.489  21.329  1.00  0.00     0.032 A 
HETATM    3  C7  UNL     1      24.363  31.231  21.455  1.00  0.00     0.033 A 
HETATM    4  C8  UNL     1      25.246  32.287  21.293  1.00  0.00     0.046 A 
HETATM    5  N3  UNL     1      26.581  32.075  21.408  1.00  0.00    -0.322 N 
ATOM      6  H3  UNL     1      26.926  31.138  21.614  1.00  0.00     0.169 HD
HETATM    7  C9  UNL     1      27.446  33.080  21.255  1.00  0.00     0.257 A 
HETATM    8  O2  UNL     1      28.668  32.855  21.366  1.00  0.00    -0.267 OA
HETATM    9  C10 UNL     1      27.034  34.367  20.976  1.00  0.00     0.043 A 
HETATM   10  C11 UNL     1      27.956  35.396  20.821  1.00  0.00     0.018 A 
HETATM   11  C12 UNL     1      27.538  36.676  20.544  1.00  0.00     0.001 A 
HETATM   12  C13 UNL     1      26.195  36.905  20.424  1.00  0.00     0.001 A 
HETATM   13  C14 UNL     1      25.243  35.917  20.569  1.00  0.00     0.013 A 
HETATM   14  C15 UNL     1      25.680  34.633  20.849  1.00  0.00    -0.008 A 
HETATM   15  C16 UNL     1      24.802  33.571  21.012  1.00  0.00     0.004 A 
HETATM   16  C17 UNL     1      23.467  33.809  20.892  1.00  0.00     0.044 A 
ENDROOT
BRANCH   1  17
HETATM   17  N2  UNL     1      21.199  33.065  20.936  1.00  0.00    -0.326 N 
HETATM   18  C4  UNL     1      20.158  32.241  20.474  1.00  0.00     0.250 C 
HETATM   19  O1  UNL     1      20.365  31.071  20.106  1.00  0.00    -0.271 OA
ATOM     20  H2  UNL     1      20.931  34.007  21.219  1.00  0.00     0.169 HD
BRANCH  18  21
HETATM   21  C3  UNL     1      18.755  32.760  20.415  1.00  0.00     0.373 C 
BRANCH  21  22
HETATM   22  N1  UNL     1      18.575  33.623  19.263  1.00  0.00     0.088 N 
HETATM   23  C1  UNL     1      18.754  32.847  18.028  1.00  0.00     0.310 C 
HETATM   24  C2  UNL     1      17.194  34.109  19.212  1.00  0.00     0.310 C 
ENDBRANCH  21  22
ENDBRANCH  18  21
ENDBRANCH   1  17
TORSDOF 3
ENDMDL
