MODEL 5
REMARK VINA RESULT: -7.475121210      3.063      4.457
REMARK  3 active torsions:
REMARK  status: ('A' for Active; 'I' for Inactive)
REMARK    1  A    between atoms: N1_2  and  C3_4 
REMARK    2  A    between atoms: C3_4  and  C4_5 
REMARK       I    between atoms: C4_5  and  N2_7 
REMARK    3  A    between atoms: N2_7  and  C5_9 
ROOT
HETATM    1  C5  UNL     1      21.900  35.196  21.973  1.00  0.00     0.035 A 
HETATM    2  C6  UNL     1      21.610  33.870  21.838  1.00  0.00     0.032 A 
HETATM    3  C7  UNL     1      22.577  32.978  21.384  1.00  0.00     0.033 A 
HETATM    4  C8  UNL     1      23.832  33.477  21.075  1.00  0.00     0.046 A 
HETATM    5  N3  UNL     1      24.801  32.639  20.629  1.00  0.00    -0.322 N 
ATOM      6  H3  UNL     1      24.598  31.645  20.525  1.00  0.00     0.169 HD
HETATM    7  C9  UNL     1      26.016  33.102  20.327  1.00  0.00     0.257 A 
HETATM    8  O2  UNL     1      26.887  32.308  19.919  1.00  0.00    -0.267 OA
HETATM    9  C10 UNL     1      26.345  34.437  20.451  1.00  0.00     0.043 A 
HETATM   10  C11 UNL     1      27.618  34.893  20.129  1.00  0.00     0.018 A 
HETATM   11  C12 UNL     1      27.939  36.224  20.255  1.00  0.00     0.001 A 
HETATM   12  C13 UNL     1      26.972  37.081  20.703  1.00  0.00     0.001 A 
HETATM   13  C14 UNL     1      25.695  36.676  21.035  1.00  0.00     0.013 A 
HETATM   14  C15 UNL     1      25.388  35.331  20.902  1.00  0.00    -0.008 A 
HETATM   15  C16 UNL     1      24.133  34.825  21.209  1.00  0.00     0.004 A 
HETATM   16  C17 UNL     1      23.178  35.686  21.655  1.00  0.00     0.044 A 
ENDROOT
BRANCH   1  17
HETATM   17  N2  UNL     1      20.968  36.130  22.443  1.00  0.00    -0.326 N 
HETATM   18  C4  UNL     1      21.151  37.111  23.433  1.00  0.00     0.250 C 
HETATM   19  O1  UNL     1      22.239  37.251  24.021  1.00  0.00    -0.271 OA
ATOM     20  H2  UNL     1      20.043  36.095  22.015  1.00  0.00     0.169 HD
BRANCH  18  21
HETATM   21  C3  UNL     1      20.026  38.024  23.809  1.00  0.00     0.373 C 
BRANCH  21  22
HETATM   22  N1  UNL     1      19.939  38.167  25.249  1.00  0.00     0.088 N 
HETATM   23  C1  UNL     1      18.852  39.094  25.591  1.00  0.00     0.310 C 
HETATM   24  C2  UNL     1      19.557  36.890  25.857  1.00  0.00     0.310 C 
ENDBRANCH  21  22
ENDBRANCH  18  21
ENDBRANCH   1  17
TORSDOF 3
ENDMDL
