MODEL 14
REMARK VINA RESULT: -7.742412978      3.135      4.726
REMARK  4 active torsions:
REMARK  status: ('A' for Active; 'I' for Inactive)
REMARK    1  A    between atoms: C1_2  and  C2_4 
REMARK    2  A    between atoms: C2_4  and  C3_5 
REMARK    3  A    between atoms: C3_5  and  C4_6 
REMARK    4  A    between atoms: C4_6  and  N1_7 
ROOT
HETATM    1  N1  UNL     1      20.951  36.290  22.367  1.00  0.00    -0.365 N 
HETATM    2  C5  UNL     1      20.324  35.096  22.404  1.00  0.00     0.092 A 
HETATM    3  C6  UNL     1      20.963  33.922  22.065  1.00  0.00     0.047 A 
HETATM    4  C7  UNL     1      22.295  33.986  21.674  1.00  0.00     0.048 A 
HETATM    5  N2  UNL     1      23.001  32.913  21.327  1.00  0.00    -0.322 N 
ATOM      6  H2  UNL     1      22.544  32.001  21.348  1.00  0.00     0.169 HD
HETATM    7  C8  UNL     1      24.293  32.976  20.949  1.00  0.00     0.257 A 
HETATM    8  O3  UNL     1      24.950  31.949  20.623  1.00  0.00    -0.267 OA
HETATM    9  C9  UNL     1      24.955  34.189  20.903  1.00  0.00     0.046 A 
HETATM   10  C10 UNL     1      26.274  34.269  20.521  1.00  0.00     0.060 A 
HETATM   11  C11 UNL     1      26.904  35.487  20.489  1.00  0.00     0.117 A 
HETATM   12  F1  UNL     1      28.199  35.514  20.108  1.00  0.00    -0.206 F 
HETATM   13  C12 UNL     1      26.257  36.654  20.828  1.00  0.00     0.043 A 
HETATM   14  C13 UNL     1      24.937  36.577  21.210  1.00  0.00     0.016 A 
HETATM   15  C14 UNL     1      24.285  35.370  21.252  1.00  0.00    -0.006 A 
HETATM   16  C15 UNL     1      22.961  35.293  21.638  1.00  0.00     0.018 A 
HETATM   17  C16 UNL     1      22.243  36.417  21.995  1.00  0.00     0.105 A 
ENDROOT
BRANCH   1  18
HETATM   18  C4  UNL     1      20.139  37.443  22.759  1.00  0.00     0.128 C 
BRANCH  18  19
HETATM   19  C3  UNL     1      19.748  37.356  24.193  1.00  0.00     0.031 C 
BRANCH  19  20
HETATM   20  C2  UNL     1      20.899  37.209  25.132  1.00  0.00     0.114 C 
BRANCH  20  21
HETATM   21  C1  UNL     1      21.537  38.495  25.492  1.00  0.00     0.172 C 
HETATM   22  O1  UNL     1      20.882  39.391  26.061  1.00  0.00    -0.648 OA
HETATM   23  O2  UNL     1      22.863  38.703  25.192  1.00  0.00    -0.648 OA
ENDBRANCH  20  21
ENDBRANCH  19  20
ENDBRANCH  18  19
ENDBRANCH   1  18
TORSDOF 4
ENDMDL
