MODEL 6
REMARK VINA RESULT: -8.365901331      2.441      3.406
REMARK  4 active torsions:
REMARK  status: ('A' for Active; 'I' for Inactive)
REMARK    1  A    between atoms: C1_2  and  C2_4 
REMARK    2  A    between atoms: C2_4  and  C3_5 
REMARK    3  A    between atoms: C3_5  and  C4_6 
REMARK    4  A    between atoms: C4_6  and  N1_7 
ROOT
HETATM    1  N1  UNL     1      21.844  33.220  21.793  1.00  0.00    -0.365 N 
HETATM    2  C5  UNL     1      22.099  31.895  21.819  1.00  0.00     0.092 A 
HETATM    3  C6  UNL     1      23.363  31.387  21.601  1.00  0.00     0.047 A 
HETATM    4  C7  UNL     1      24.397  32.279  21.344  1.00  0.00     0.048 A 
HETATM    5  N2  UNL     1      25.650  31.892  21.120  1.00  0.00    -0.322 N 
ATOM      6  H2  UNL     1      25.861  30.895  21.136  1.00  0.00     0.169 HD
HETATM    7  C8  UNL     1      26.652  32.758  20.873  1.00  0.00     0.257 A 
HETATM    8  O3  UNL     1      27.836  32.375  20.663  1.00  0.00    -0.267 OA
HETATM    9  C9  UNL     1      26.413  34.120  20.840  1.00  0.00     0.046 A 
HETATM   10  C10 UNL     1      27.427  35.017  20.592  1.00  0.00     0.060 A 
HETATM   11  C11 UNL     1      27.159  36.361  20.569  1.00  0.00     0.117 A 
HETATM   12  F1  UNL     1      28.187  37.202  20.321  1.00  0.00    -0.206 F 
HETATM   13  C12 UNL     1      25.895  36.860  20.787  1.00  0.00     0.043 A 
HETATM   14  C13 UNL     1      24.879  35.965  21.036  1.00  0.00     0.016 A 
HETATM   15  C14 UNL     1      25.121  34.615  21.066  1.00  0.00    -0.006 A 
HETATM   16  C15 UNL     1      24.102  33.717  21.318  1.00  0.00     0.018 A 
HETATM   17  C16 UNL     1      22.806  34.136  21.549  1.00  0.00     0.105 A 
ENDROOT
BRANCH   1  18
HETATM   18  C4  UNL     1      20.455  33.603  22.047  1.00  0.00     0.128 C 
BRANCH  18  19
HETATM   19  C3  UNL     1      19.755  33.939  20.777  1.00  0.00     0.031 C 
BRANCH  19  20
HETATM   20  C2  UNL     1      18.831  32.874  20.288  1.00  0.00     0.114 C 
BRANCH  20  21
HETATM   21  C1  UNL     1      18.129  33.230  19.035  1.00  0.00     0.172 C 
HETATM   22  O1  UNL     1      18.742  33.252  17.948  1.00  0.00    -0.648 OA
HETATM   23  O2  UNL     1      16.790  33.541  19.071  1.00  0.00    -0.648 OA
ENDBRANCH  20  21
ENDBRANCH  19  20
ENDBRANCH  18  19
ENDBRANCH   1  18
TORSDOF 4
ENDMDL
