MODEL 8
REMARK VINA RESULT: -8.134334861      2.508      2.909
REMARK  4 active torsions:
REMARK  status: ('A' for Active; 'I' for Inactive)
REMARK    1  A    between atoms: C1_2  and  C2_4 
REMARK    2  A    between atoms: C2_4  and  C3_5 
REMARK    3  A    between atoms: C3_5  and  C4_6 
REMARK    4  A    between atoms: C4_6  and  N1_7 
ROOT
HETATM    1  N1  UNL     1      22.034  35.144  21.660  1.00  0.00    -0.365 N 
HETATM    2  C5  UNL     1      21.984  36.493  21.654  1.00  0.00     0.092 A 
HETATM    3  C6  UNL     1      23.100  37.267  21.416  1.00  0.00     0.047 A 
HETATM    4  C7  UNL     1      24.309  36.625  21.178  1.00  0.00     0.048 A 
HETATM    5  N2  UNL     1      25.443  37.279  20.938  1.00  0.00    -0.322 N 
ATOM      6  H2  UNL     1      25.424  38.299  20.930  1.00  0.00     0.169 HD
HETATM    7  C8  UNL     1      26.614  36.655  20.705  1.00  0.00     0.257 A 
HETATM    8  O3  UNL     1      27.681  37.290  20.479  1.00  0.00    -0.267 OA
HETATM    9  C9  UNL     1      26.689  35.274  20.708  1.00  0.00     0.046 A 
HETATM   10  C10 UNL     1      27.877  34.623  20.469  1.00  0.00     0.060 A 
HETATM   11  C11 UNL     1      27.919  33.253  20.475  1.00  0.00     0.117 A 
HETATM   12  F1  UNL     1      29.109  32.660  20.236  1.00  0.00    -0.206 F 
HETATM   13  C12 UNL     1      26.800  32.487  20.715  1.00  0.00     0.043 A 
HETATM   14  C13 UNL     1      25.610  33.136  20.953  1.00  0.00     0.016 A 
HETATM   15  C14 UNL     1      25.542  34.507  20.952  1.00  0.00    -0.006 A 
HETATM   16  C15 UNL     1      24.347  35.158  21.188  1.00  0.00     0.018 A 
HETATM   17  C16 UNL     1      23.179  34.463  21.436  1.00  0.00     0.105 A 
ENDROOT
BRANCH   1  18
HETATM   18  C4  UNL     1      20.765  34.465  21.925  1.00  0.00     0.128 C 
BRANCH  18  19
HETATM   19  C3  UNL     1      19.983  35.185  22.967  1.00  0.00     0.031 C 
BRANCH  19  20
HETATM   20  C2  UNL     1      20.193  34.672  24.352  1.00  0.00     0.114 C 
BRANCH  20  21
HETATM   21  C1  UNL     1      20.196  35.733  25.383  1.00  0.00     0.172 C 
HETATM   22  O1  UNL     1      20.603  35.494  26.538  1.00  0.00    -0.648 OA
HETATM   23  O2  UNL     1      19.743  36.991  25.064  1.00  0.00    -0.648 OA
ENDBRANCH  20  21
ENDBRANCH  19  20
ENDBRANCH  18  19
ENDBRANCH   1  18
TORSDOF 4
ENDMDL
