MODEL 20
REMARK VINA RESULT: -7.461173694      2.696      3.716
REMARK  4 active torsions:
REMARK  status: ('A' for Active; 'I' for Inactive)
REMARK    1  A    between atoms: C1_2  and  C2_4 
REMARK    2  A    between atoms: C2_4  and  C3_5 
REMARK    3  A    between atoms: C3_5  and  C4_6 
REMARK    4  A    between atoms: C4_6  and  N1_7 
ROOT
HETATM    1  N1  UNL     1      22.003  33.074  21.812  1.00  0.00    -0.365 N 
HETATM    2  C5  UNL     1      22.312  31.760  21.821  1.00  0.00     0.092 A 
HETATM    3  C6  UNL     1      23.592  31.307  21.579  1.00  0.00     0.047 A 
HETATM    4  C7  UNL     1      24.584  32.243  21.318  1.00  0.00     0.048 A 
HETATM    5  N2  UNL     1      25.849  31.910  21.072  1.00  0.00    -0.322 N 
ATOM      6  H2  UNL     1      26.101  30.922  21.074  1.00  0.00     0.169 HD
HETATM    7  C8  UNL     1      26.811  32.820  20.821  1.00  0.00     0.257 A 
HETATM    8  O3  UNL     1      28.006  32.488  20.590  1.00  0.00    -0.267 OA
HETATM    9  C9  UNL     1      26.517  34.171  20.806  1.00  0.00     0.046 A 
HETATM   10  C10 UNL     1      27.488  35.111  20.553  1.00  0.00     0.060 A 
HETATM   11  C11 UNL     1      27.166  36.444  20.548  1.00  0.00     0.117 A 
HETATM   12  F1  UNL     1      28.155  37.328  20.295  1.00  0.00    -0.206 F 
HETATM   13  C12 UNL     1      25.885  36.887  20.790  1.00  0.00     0.043 A 
HETATM   14  C13 UNL     1      24.911  35.949  21.043  1.00  0.00     0.016 A 
HETATM   15  C14 UNL     1      25.209  34.609  21.055  1.00  0.00    -0.006 A 
HETATM   16  C15 UNL     1      24.231  33.668  21.312  1.00  0.00     0.018 A 
HETATM   17  C16 UNL     1      22.922  34.031  21.565  1.00  0.00     0.105 A 
ENDROOT
BRANCH   1  18
HETATM   18  C4  UNL     1      20.602  33.396  22.090  1.00  0.00     0.128 C 
BRANCH  18  19
HETATM   19  C3  UNL     1      19.999  32.395  23.013  1.00  0.00     0.031 C 
BRANCH  19  20
HETATM   20  C2  UNL     1      18.874  31.615  22.418  1.00  0.00     0.114 C 
BRANCH  20  21
HETATM   21  C1  UNL     1      19.077  30.151  22.469  1.00  0.00     0.172 C 
HETATM   22  O1  UNL     1      18.580  29.410  21.597  1.00  0.00    -0.648 OA
HETATM   23  O2  UNL     1      19.817  29.602  23.491  1.00  0.00    -0.648 OA
ENDBRANCH  20  21
ENDBRANCH  19  20
ENDBRANCH  18  19
ENDBRANCH   1  18
TORSDOF 4
ENDMDL
