MODEL 13
REMARK VINA RESULT: -7.787343039      2.970      4.678
REMARK  4 active torsions:
REMARK  status: ('A' for Active; 'I' for Inactive)
REMARK    1  A    between atoms: C1_2  and  C2_4 
REMARK    2  A    between atoms: C2_4  and  C3_5 
REMARK    3  A    between atoms: C3_5  and  C4_6 
REMARK    4  A    between atoms: C4_6  and  N1_7 
ROOT
HETATM    1  N1  UNL     1      22.491  37.099  22.120  1.00  0.00    -0.365 N 
HETATM    2  C5  UNL     1      21.470  36.245  22.342  1.00  0.00     0.092 A 
HETATM    3  C6  UNL     1      21.590  34.888  22.124  1.00  0.00     0.047 A 
HETATM    4  C7  UNL     1      22.805  34.400  21.659  1.00  0.00     0.048 A 
HETATM    5  N2  UNL     1      23.023  33.110  21.416  1.00  0.00    -0.322 N 
ATOM      6  H2  UNL     1      22.264  32.449  21.578  1.00  0.00     0.169 HD
HETATM    7  C8  UNL     1      24.203  32.637  20.967  1.00  0.00     0.257 A 
HETATM    8  O3  UNL     1      24.394  31.411  20.742  1.00  0.00    -0.267 OA
HETATM    9  C9  UNL     1      25.262  33.496  20.732  1.00  0.00     0.046 A 
HETATM   10  C10 UNL     1      26.472  33.028  20.276  1.00  0.00     0.060 A 
HETATM   11  C11 UNL     1      27.504  33.903  20.055  1.00  0.00     0.117 A 
HETATM   12  F1  UNL     1      28.673  33.396  19.607  1.00  0.00    -0.206 F 
HETATM   13  C12 UNL     1      27.376  35.256  20.275  1.00  0.00     0.043 A 
HETATM   14  C13 UNL     1      26.166  35.727  20.732  1.00  0.00     0.016 A 
HETATM   15  C14 UNL     1      25.118  34.871  20.961  1.00  0.00    -0.006 A 
HETATM   16  C15 UNL     1      23.904  35.343  21.422  1.00  0.00     0.018 A 
HETATM   17  C16 UNL     1      23.695  36.686  21.669  1.00  0.00     0.105 A 
ENDROOT
BRANCH   1  18
HETATM   18  C4  UNL     1      22.209  38.508  22.403  1.00  0.00     0.128 C 
BRANCH  18  19
HETATM   19  C3  UNL     1      21.590  38.667  23.748  1.00  0.00     0.031 C 
BRANCH  19  20
HETATM   20  C2  UNL     1      22.569  38.927  24.844  1.00  0.00     0.114 C 
BRANCH  20  21
HETATM   21  C1  UNL     1      22.631  37.845  25.852  1.00  0.00     0.172 C 
HETATM   22  O1  UNL     1      21.687  37.039  25.975  1.00  0.00    -0.648 OA
HETATM   23  O2  UNL     1      23.737  37.732  26.660  1.00  0.00    -0.648 OA
ENDBRANCH  20  21
ENDBRANCH  19  20
ENDBRANCH  18  19
ENDBRANCH   1  18
TORSDOF 4
ENDMDL
