MODEL 2
REMARK VINA RESULT: -8.769595892      2.211      3.196
REMARK  4 active torsions:
REMARK  status: ('A' for Active; 'I' for Inactive)
REMARK    1  A    between atoms: C1_2  and  C2_4 
REMARK    2  A    between atoms: C2_4  and  C3_5 
REMARK    3  A    between atoms: C3_5  and  C4_6 
REMARK    4  A    between atoms: C4_6  and  N1_7 
ROOT
HETATM    1  N1  UNL     1      21.901  33.038  21.704  1.00  0.00    -0.365 N 
HETATM    2  C5  UNL     1      22.212  31.727  21.776  1.00  0.00     0.092 A 
HETATM    3  C6  UNL     1      23.505  31.271  21.623  1.00  0.00     0.047 A 
HETATM    4  C7  UNL     1      24.509  32.203  21.387  1.00  0.00     0.048 A 
HETATM    5  N2  UNL     1      25.787  31.867  21.225  1.00  0.00    -0.322 N 
ATOM      6  H2  UNL     1      26.041  30.881  21.276  1.00  0.00     0.169 HD
HETATM    7  C8  UNL     1      26.759  32.772  20.999  1.00  0.00     0.257 A 
HETATM    8  O3  UNL     1      27.966  32.438  20.848  1.00  0.00    -0.267 OA
HETATM    9  C9  UNL     1      26.462  34.121  20.920  1.00  0.00     0.046 A 
HETATM   10  C10 UNL     1      27.445  35.056  20.692  1.00  0.00     0.060 A 
HETATM   11  C11 UNL     1      27.119  36.386  20.623  1.00  0.00     0.117 A 
HETATM   12  F1  UNL     1      28.119  37.266  20.396  1.00  0.00    -0.206 F 
HETATM   13  C12 UNL     1      25.826  36.832  20.775  1.00  0.00     0.043 A 
HETATM   14  C13 UNL     1      24.841  35.899  21.004  1.00  0.00     0.016 A 
HETATM   15  C14 UNL     1      25.141  34.561  21.079  1.00  0.00    -0.006 A 
HETATM   16  C15 UNL     1      24.153  33.624  21.312  1.00  0.00     0.018 A 
HETATM   17  C16 UNL     1      22.831  33.991  21.477  1.00  0.00     0.105 A 
ENDROOT
BRANCH   1  18
HETATM   18  C4  UNL     1      20.486  33.363  21.891  1.00  0.00     0.128 C 
BRANCH  18  19
HETATM   19  C3  UNL     1      19.888  33.877  20.628  1.00  0.00     0.031 C 
BRANCH  19  20
HETATM   20  C2  UNL     1      19.234  32.828  19.791  1.00  0.00     0.114 C 
BRANCH  20  21
HETATM   21  C1  UNL     1      20.118  32.268  18.746  1.00  0.00     0.172 C 
HETATM   22  O1  UNL     1      19.895  31.139  18.265  1.00  0.00    -0.648 OA
HETATM   23  O2  UNL     1      21.196  32.999  18.305  1.00  0.00    -0.648 OA
ENDBRANCH  20  21
ENDBRANCH  19  20
ENDBRANCH  18  19
ENDBRANCH   1  18
TORSDOF 4
ENDMDL
