MODEL 3
REMARK VINA RESULT: -9.444728293      4.978      9.943
REMARK  9 active torsions:
REMARK  status: ('A' for Active; 'I' for Inactive)
REMARK    1  A    between atoms: N1_1  and  C1_5 
REMARK    2  A    between atoms: C1_5  and  C2_6 
REMARK    3  A    between atoms: C5_9  and  C6_10 
REMARK       I    between atoms: C6_10  and  N2_12 
REMARK    4  A    between atoms: N2_12  and  C7_14 
REMARK    5  A    between atoms: C7_14  and  C8_15 
REMARK    6  A    between atoms: C7_14  and  C15_22 
REMARK    7  A    between atoms: C8_15  and  C9_16 
REMARK    8  A    between atoms: C17_24  and  C18_25 
REMARK    9  A    between atoms: C22_33  and  O2_34 
ROOT
HETATM    1  C7  UNL     1      40.162 -20.978  28.642  1.00  0.00     0.138 C 
ENDROOT
BRANCH   1   2
HETATM    2  N2  UNL     1      39.534 -19.706  28.292  1.00  0.00    -0.350 N 
HETATM    3  C6  UNL     1      39.323 -18.638  29.173  1.00  0.00     0.222 C 
HETATM    4  O1  UNL     1      39.705 -18.772  30.387  1.00  0.00    -0.273 OA
ATOM      5  H2  UNL     1      39.224 -19.587  27.328  1.00  0.00     0.163 HD
BRANCH   3   6
HETATM    6  C5  UNL     1      38.695 -17.340  28.829  1.00  0.00     0.078 C 
HETATM    7  C4  UNL     1      38.433 -17.236  27.338  1.00  0.00     0.014 C 
HETATM    8  C3  UNL     1      38.058 -15.795  27.090  1.00  0.00     0.007 C 
HETATM    9  C2  UNL     1      36.736 -15.527  27.757  1.00  0.00     0.011 C 
HETATM   10  C28 UNL     1      36.377 -16.481  28.844  1.00  0.00     0.007 C 
HETATM   11  C27 UNL     1      37.545 -16.942  29.672  1.00  0.00     0.014 C 
BRANCH   9  12
HETATM   12  C1  UNL     1      36.689 -14.087  28.252  1.00  0.00     0.234 C 
BRANCH  12  13
HETATM   13  N1  UNL     1      37.489 -13.254  27.363  1.00  0.00    -0.079 N 
ATOM     14  H13 UNL     1      38.478 -13.256  27.615  1.00  0.00     0.274 HD
ATOM     15  H12 UNL     1      37.578 -13.657  26.430  1.00  0.00     0.274 HD
ATOM     16  H11 UNL     1      37.094 -12.314  27.345  1.00  0.00     0.274 HD
ENDBRANCH  12  13
ENDBRANCH   9  12
ENDBRANCH   3   6
ENDBRANCH   1   2
BRANCH   1  17
HETATM   17  C8  UNL     1      39.634 -22.146  27.904  1.00  0.00     0.070 C 
BRANCH  17  18
HETATM   18  C9  UNL     1      40.058 -23.444  28.505  1.00  0.00    -0.056 A 
HETATM   19  C10 UNL     1      40.434 -24.469  27.659  1.00  0.00     0.007 A 
HETATM   20  C11 UNL     1      40.843 -25.706  28.170  1.00  0.00     0.001 A 
HETATM   21  C12 UNL     1      40.873 -25.920  29.511  1.00  0.00     0.000 A 
HETATM   22  C13 UNL     1      40.501 -24.912  30.377  1.00  0.00     0.001 A 
HETATM   23  C14 UNL     1      40.097 -23.682  29.845  1.00  0.00     0.007 A 
ENDBRANCH  17  18
ENDBRANCH   1  17
BRANCH   1  24
HETATM   24  C15 UNL     1      41.641 -20.858  28.440  1.00  0.00     0.033 A 
HETATM   25  C16 UNL     1      42.571 -21.089  29.394  1.00  0.00     0.039 A 
HETATM   26  C17 UNL     1      43.920 -20.977  29.104  1.00  0.00    -0.023 A 
HETATM   27  C25 UNL     1      44.293 -20.618  27.824  1.00  0.00     0.029 A 
HETATM   28  C26 UNL     1      43.337 -20.386  26.876  1.00  0.00     0.089 A 
HETATM   29  N5  UNL     1      42.034 -20.503  27.174  1.00  0.00    -0.367 N 
ATOM     30  H5  UNL     1      41.331 -20.328  26.456  1.00  0.00     0.165 HD
BRANCH  26  31
HETATM   31  C18 UNL     1      44.919 -21.277  30.123  1.00  0.00    -0.025 A 
HETATM   32  C19 UNL     1      44.480 -21.815  31.320  1.00  0.00     0.014 A 
HETATM   33  C20 UNL     1      45.387 -22.148  32.318  1.00  0.00     0.033 A 
HETATM   34  C21 UNL     1      46.740 -21.949  32.134  1.00  0.00     0.062 A 
HETATM   35  N3  UNL     1      47.848 -22.164  32.882  1.00  0.00    -0.298 N 
HETATM   36  C23 UNL     1      47.184 -21.415  30.943  1.00  0.00     0.045 A 
HETATM   37  N4  UNL     1      48.915 -21.786  32.197  1.00  0.00    -0.279 N 
ATOM     38  H3  UNL     1      47.858 -22.556  33.823  1.00  0.00     0.187 HD
HETATM   39  C22 UNL     1      48.559 -21.315  30.995  1.00  0.00     0.167 A 
ATOM     40  H4  UNL     1      49.875 -21.845  32.537  1.00  0.00     0.189 HD
HETATM   41  C24 UNL     1      46.265 -21.087  29.954  1.00  0.00     0.030 A 
BRANCH  39  42
HETATM   42  O2  UNL     1      49.386 -20.824  29.987  1.00  0.00    -0.344 OA
ATOM     43  H2  UNL     1      50.290 -21.056  29.809  1.00  0.00     0.219 HD
ENDBRANCH  39  42
ENDBRANCH  26  31
ENDBRANCH   1  24
TORSDOF 9
ENDMDL
