MODEL 4
REMARK VINA RESULT: -9.425293583      2.893      5.615
REMARK  9 active torsions:
REMARK  status: ('A' for Active; 'I' for Inactive)
REMARK    1  A    between atoms: N1_1  and  C1_5 
REMARK    2  A    between atoms: C1_5  and  C2_6 
REMARK    3  A    between atoms: C5_9  and  C6_10 
REMARK       I    between atoms: C6_10  and  N2_12 
REMARK    4  A    between atoms: N2_12  and  C7_14 
REMARK    5  A    between atoms: C7_14  and  C8_15 
REMARK    6  A    between atoms: C7_14  and  C15_22 
REMARK    7  A    between atoms: C8_15  and  C9_16 
REMARK    8  A    between atoms: C17_24  and  C18_25 
REMARK    9  A    between atoms: C22_33  and  O2_34 
ROOT
HETATM    1  C7  UNL     1      41.502 -21.397  29.108  1.00  0.00     0.138 C 
ENDROOT
BRANCH   1   2
HETATM    2  N2  UNL     1      41.715 -22.752  28.606  1.00  0.00    -0.350 N 
HETATM    3  C6  UNL     1      41.496 -23.929  29.333  1.00  0.00     0.222 C 
HETATM    4  O1  UNL     1      41.077 -23.825  30.538  1.00  0.00    -0.273 OA
ATOM      5  H2  UNL     1      42.050 -22.850  27.648  1.00  0.00     0.163 HD
BRANCH   3   6
HETATM    6  C5  UNL     1      41.701 -25.310  28.833  1.00  0.00     0.078 C 
HETATM    7  C4  UNL     1      40.448 -26.147  29.009  1.00  0.00     0.014 C 
HETATM    8  C3  UNL     1      40.865 -27.570  28.725  1.00  0.00     0.007 C 
HETATM    9  C2  UNL     1      41.228 -27.676  27.269  1.00  0.00     0.011 C 
HETATM   10  C28 UNL     1      41.570 -26.383  26.611  1.00  0.00     0.007 C 
HETATM   11  C27 UNL     1      42.317 -25.421  27.492  1.00  0.00     0.014 C 
BRANCH   9  12
HETATM   12  C1  UNL     1      42.344 -28.697  27.087  1.00  0.00     0.234 C 
BRANCH  12  13
HETATM   13  N1  UNL     1      42.722 -29.223  28.392  1.00  0.00    -0.079 N 
ATOM     14  H13 UNL     1      41.927 -29.295  29.027  1.00  0.00     0.274 HD
ATOM     15  H12 UNL     1      42.967 -30.213  28.355  1.00  0.00     0.274 HD
ATOM     16  H11 UNL     1      43.474 -28.650  28.775  1.00  0.00     0.274 HD
ENDBRANCH  12  13
ENDBRANCH   9  12
ENDBRANCH   3   6
ENDBRANCH   1   2
BRANCH   1  17
HETATM   17  C8  UNL     1      42.665 -20.496  28.952  1.00  0.00     0.070 C 
BRANCH  17  18
HETATM   18  C9  UNL     1      43.790 -20.848  29.866  1.00  0.00    -0.056 A 
HETATM   19  C10 UNL     1      45.054 -20.382  29.562  1.00  0.00     0.007 A 
HETATM   20  C11 UNL     1      46.145 -20.681  30.386  1.00  0.00     0.001 A 
HETATM   21  C12 UNL     1      45.977 -21.438  31.501  1.00  0.00     0.000 A 
HETATM   22  C13 UNL     1      44.724 -21.915  31.826  1.00  0.00     0.001 A 
HETATM   23  C14 UNL     1      43.647 -21.605  30.989  1.00  0.00     0.007 A 
ENDBRANCH  17  18
ENDBRANCH   1  17
BRANCH   1  24
HETATM   24  C15 UNL     1      40.297 -20.816  28.433  1.00  0.00     0.033 A 
HETATM   25  C16 UNL     1      39.969 -19.505  28.438  1.00  0.00     0.039 A 
HETATM   26  C17 UNL     1      38.846 -19.058  27.763  1.00  0.00    -0.023 A 
HETATM   27  C25 UNL     1      38.068 -19.980  27.091  1.00  0.00     0.029 A 
HETATM   28  C26 UNL     1      38.417 -21.301  27.101  1.00  0.00     0.089 A 
HETATM   29  N5  UNL     1      39.511 -21.716  27.759  1.00  0.00    -0.367 N 
ATOM     30  H5  UNL     1      39.760 -22.705  27.757  1.00  0.00     0.165 HD
BRANCH  26  31
HETATM   31  C18 UNL     1      38.525 -17.636  27.729  1.00  0.00    -0.025 A 
HETATM   32  C19 UNL     1      39.440 -16.781  27.141  1.00  0.00     0.014 A 
HETATM   33  C20 UNL     1      39.179 -15.420  27.054  1.00  0.00     0.033 A 
HETATM   34  C21 UNL     1      38.002 -14.896  27.550  1.00  0.00     0.062 A 
HETATM   35  N3  UNL     1      37.460 -13.657  27.615  1.00  0.00    -0.298 N 
HETATM   36  C23 UNL     1      37.085 -15.743  28.135  1.00  0.00     0.045 A 
HETATM   37  N4  UNL     1      36.278 -13.730  28.206  1.00  0.00    -0.279 N 
ATOM     38  H3  UNL     1      37.894 -12.804  27.265  1.00  0.00     0.187 HD
HETATM   39  C22 UNL     1      36.002 -14.996  28.547  1.00  0.00     0.167 A 
ATOM     40  H4  UNL     1      35.664 -12.934  28.378  1.00  0.00     0.189 HD
HETATM   41  C24 UNL     1      37.361 -17.102  28.216  1.00  0.00     0.030 A 
BRANCH  39  42
HETATM   42  O2  UNL     1      34.862 -15.482  29.183  1.00  0.00    -0.344 OA
ATOM     43  H2  UNL     1      34.587 -16.386  29.280  1.00  0.00     0.219 HD
ENDBRANCH  39  42
ENDBRANCH  26  31
ENDBRANCH   1  24
TORSDOF 9
ENDMDL
