MODEL 2
REMARK VINA RESULT: -9.585137349      0.744      1.142
REMARK  9 active torsions:
REMARK  status: ('A' for Active; 'I' for Inactive)
REMARK    1  A    between atoms: N1_1  and  C1_5 
REMARK    2  A    between atoms: C1_5  and  C2_6 
REMARK    3  A    between atoms: C5_9  and  C6_10 
REMARK       I    between atoms: C6_10  and  N2_12 
REMARK    4  A    between atoms: N2_12  and  C7_14 
REMARK    5  A    between atoms: C7_14  and  C8_15 
REMARK    6  A    between atoms: C7_14  and  C15_22 
REMARK    7  A    between atoms: C8_15  and  C9_16 
REMARK    8  A    between atoms: C17_24  and  C18_25 
REMARK    9  A    between atoms: C22_33  and  O2_34 
ROOT
HETATM    1  C7  UNL     1      37.894 -21.202  26.246  1.00  0.00     0.138 C 
ENDROOT
BRANCH   1   2
HETATM    2  N2  UNL     1      38.596 -22.438  26.582  1.00  0.00    -0.350 N 
HETATM    3  C6  UNL     1      39.439 -23.150  25.720  1.00  0.00     0.222 C 
HETATM    4  O1  UNL     1      39.619 -22.693  24.537  1.00  0.00    -0.273 OA
ATOM      5  H2  UNL     1      38.460 -22.813  27.520  1.00  0.00     0.163 HD
BRANCH   3   6
HETATM    6  C5  UNL     1      40.164 -24.400  26.050  1.00  0.00     0.078 C 
HETATM    7  C4  UNL     1      39.214 -25.464  26.566  1.00  0.00     0.014 C 
HETATM    8  C3  UNL     1      40.091 -26.564  27.114  1.00  0.00     0.007 C 
HETATM    9  C2  UNL     1      40.830 -27.197  25.967  1.00  0.00     0.011 C 
HETATM   10  C28 UNL     1      40.932 -26.352  24.744  1.00  0.00     0.007 C 
HETATM   11  C27 UNL     1      41.109 -24.884  25.018  1.00  0.00     0.014 C 
BRANCH   9  12
HETATM   12  C1  UNL     1      42.205 -27.660  26.431  1.00  0.00     0.234 C 
BRANCH  12  13
HETATM   13  N1  UNL     1      42.040 -28.697  27.440  1.00  0.00    -0.079 N 
ATOM     14  H13 UNL     1      41.764 -28.318  28.346  1.00  0.00     0.274 HD
ATOM     15  H12 UNL     1      41.217 -29.276  27.271  1.00  0.00     0.274 HD
ATOM     16  H11 UNL     1      42.898 -29.247  27.495  1.00  0.00     0.274 HD
ENDBRANCH  12  13
ENDBRANCH   9  12
ENDBRANCH   3   6
ENDBRANCH   1   2
BRANCH   1  17
HETATM   17  C8  UNL     1      36.418 -21.310  26.265  1.00  0.00     0.070 C 
BRANCH  17  18
HETATM   18  C9  UNL     1      35.882 -22.041  25.080  1.00  0.00    -0.056 A 
HETATM   19  C10 UNL     1      35.457 -21.305  23.991  1.00  0.00     0.007 A 
HETATM   20  C11 UNL     1      34.948 -21.940  22.852  1.00  0.00     0.001 A 
HETATM   21  C12 UNL     1      34.860 -23.294  22.801  1.00  0.00     0.000 A 
HETATM   22  C13 UNL     1      35.277 -24.051  23.877  1.00  0.00     0.001 A 
HETATM   23  C14 UNL     1      35.784 -23.397  25.005  1.00  0.00     0.007 A 
ENDBRANCH  17  18
ENDBRANCH   1  17
BRANCH   1  24
HETATM   24  C15 UNL     1      38.349 -20.120  27.177  1.00  0.00     0.033 A 
HETATM   25  C16 UNL     1      37.848 -18.864  27.202  1.00  0.00     0.039 A 
HETATM   26  C17 UNL     1      38.317 -17.938  28.118  1.00  0.00    -0.023 A 
HETATM   27  C25 UNL     1      39.308 -18.324  28.999  1.00  0.00     0.029 A 
HETATM   28  C26 UNL     1      39.801 -19.597  28.955  1.00  0.00     0.089 A 
HETATM   29  N5  UNL     1      39.333 -20.482  28.061  1.00  0.00    -0.367 N 
ATOM     30  H5  UNL     1      39.710 -21.430  28.040  1.00  0.00     0.165 HD
BRANCH  26  31
HETATM   31  C18 UNL     1      37.738 -16.601  28.175  1.00  0.00    -0.025 A 
HETATM   32  C19 UNL     1      38.481 -15.553  27.660  1.00  0.00     0.014 A 
HETATM   33  C20 UNL     1      37.972 -14.261  27.661  1.00  0.00     0.033 A 
HETATM   34  C21 UNL     1      36.718 -13.999  28.174  1.00  0.00     0.062 A 
HETATM   35  N3  UNL     1      35.956 -12.889  28.315  1.00  0.00    -0.298 N 
HETATM   36  C23 UNL     1      35.973 -15.038  28.687  1.00  0.00     0.045 A 
HETATM   37  N4  UNL     1      34.807 -13.219  28.883  1.00  0.00    -0.279 N 
ATOM     38  H3  UNL     1      36.225 -11.948  28.029  1.00  0.00     0.187 HD
HETATM   39  C22 UNL     1      34.769 -14.534  29.133  1.00  0.00     0.167 A 
ATOM     40  H4  UNL     1      34.056 -12.564  29.099  1.00  0.00     0.189 HD
HETATM   41  C24 UNL     1      36.495 -16.326  28.681  1.00  0.00     0.030 A 
BRANCH  39  42
HETATM   42  O2  UNL     1      33.738 -15.265  29.719  1.00  0.00    -0.344 OA
ATOM     43  H2  UNL     1      33.807 -16.041  30.263  1.00  0.00     0.219 HD
ENDBRANCH  39  42
ENDBRANCH  26  31
ENDBRANCH   1  24
TORSDOF 9
ENDMDL
