MODEL 1
REMARK VINA RESULT: -9.670122309      0.000      0.000
REMARK  9 active torsions:
REMARK  status: ('A' for Active; 'I' for Inactive)
REMARK    1  A    between atoms: N1_1  and  C1_5 
REMARK    2  A    between atoms: C1_5  and  C2_6 
REMARK    3  A    between atoms: C5_9  and  C6_10 
REMARK       I    between atoms: C6_10  and  N2_12 
REMARK    4  A    between atoms: N2_12  and  C7_14 
REMARK    5  A    between atoms: C7_14  and  C8_15 
REMARK    6  A    between atoms: C7_14  and  C15_22 
REMARK    7  A    between atoms: C8_15  and  C9_16 
REMARK    8  A    between atoms: C17_24  and  C18_25 
REMARK    9  A    between atoms: C22_33  and  O2_34 
ROOT
HETATM    1  C7  UNL     1      37.890 -21.300  26.308  1.00  0.00     0.138 C 
ENDROOT
BRANCH   1   2
HETATM    2  N2  UNL     1      38.529 -22.552  26.705  1.00  0.00    -0.350 N 
HETATM    3  C6  UNL     1      39.282 -23.379  25.862  1.00  0.00     0.222 C 
HETATM    4  O1  UNL     1      39.430 -23.023  24.641  1.00  0.00    -0.273 OA
ATOM      5  H2  UNL     1      38.418 -22.847  27.674  1.00  0.00     0.163 HD
BRANCH   3   6
HETATM    6  C5  UNL     1      39.943 -24.647  26.254  1.00  0.00     0.078 C 
HETATM    7  C4  UNL     1      41.453 -24.508  26.232  1.00  0.00     0.014 C 
HETATM    8  C3  UNL     1      41.994 -25.910  26.375  1.00  0.00     0.007 C 
HETATM    9  C2  UNL     1      41.649 -26.412  27.751  1.00  0.00     0.011 C 
HETATM   10  C28 UNL     1      40.517 -25.705  28.412  1.00  0.00     0.007 C 
HETATM   11  C27 UNL     1      39.414 -25.293  27.477  1.00  0.00     0.014 C 
BRANCH   9  12
HETATM   12  C1  UNL     1      41.407 -27.916  27.706  1.00  0.00     0.234 C 
BRANCH  12  13
HETATM   13  N1  UNL     1      40.837 -28.342  28.977  1.00  0.00    -0.079 N 
ATOM     14  H13 UNL     1      41.380 -29.085  29.417  1.00  0.00     0.274 HD
ATOM     15  H12 UNL     1      40.944 -27.637  29.706  1.00  0.00     0.274 HD
ATOM     16  H11 UNL     1      39.863 -28.607  28.832  1.00  0.00     0.274 HD
ENDBRANCH  12  13
ENDBRANCH   9  12
ENDBRANCH   3   6
ENDBRANCH   1   2
BRANCH   1  17
HETATM   17  C8  UNL     1      36.411 -21.348  26.280  1.00  0.00     0.070 C 
BRANCH  17  18
HETATM   18  C9  UNL     1      35.880 -21.941  25.019  1.00  0.00    -0.056 A 
HETATM   19  C10 UNL     1      35.538 -21.090  23.986  1.00  0.00     0.007 A 
HETATM   20  C11 UNL     1      35.037 -21.594  22.780  1.00  0.00     0.001 A 
HETATM   21  C12 UNL     1      34.877 -22.931  22.606  1.00  0.00     0.000 A 
HETATM   22  C13 UNL     1      35.212 -23.801  23.623  1.00  0.00     0.001 A 
HETATM   23  C14 UNL     1      35.711 -23.278  24.821  1.00  0.00     0.007 A 
ENDBRANCH  17  18
ENDBRANCH   1  17
BRANCH   1  24
HETATM   24  C15 UNL     1      38.359 -20.207  27.220  1.00  0.00     0.033 A 
HETATM   25  C16 UNL     1      37.868 -18.948  27.229  1.00  0.00     0.039 A 
HETATM   26  C17 UNL     1      38.350 -18.012  28.129  1.00  0.00    -0.023 A 
HETATM   27  C25 UNL     1      39.343 -18.392  29.010  1.00  0.00     0.029 A 
HETATM   28  C26 UNL     1      39.826 -19.669  28.981  1.00  0.00     0.089 A 
HETATM   29  N5  UNL     1      39.345 -20.564  28.104  1.00  0.00    -0.367 N 
ATOM     30  H5  UNL     1      39.715 -21.515  28.095  1.00  0.00     0.165 HD
BRANCH  26  31
HETATM   31  C18 UNL     1      37.782 -16.670  28.169  1.00  0.00    -0.025 A 
HETATM   32  C19 UNL     1      38.534 -15.633  27.644  1.00  0.00     0.014 A 
HETATM   33  C20 UNL     1      38.035 -14.337  27.629  1.00  0.00     0.033 A 
HETATM   34  C21 UNL     1      36.783 -14.060  28.136  1.00  0.00     0.062 A 
HETATM   35  N3  UNL     1      36.029 -12.942  28.263  1.00  0.00    -0.298 N 
HETATM   36  C23 UNL     1      36.027 -15.087  28.659  1.00  0.00     0.045 A 
HETATM   37  N4  UNL     1      34.876 -13.256  28.831  1.00  0.00    -0.279 N 
ATOM     38  H3  UNL     1      36.306 -12.006  27.967  1.00  0.00     0.187 HD
HETATM   39  C22 UNL     1      34.827 -14.568  29.096  1.00  0.00     0.167 A 
ATOM     40  H4  UNL     1      34.130 -12.592  29.038  1.00  0.00     0.189 HD
HETATM   41  C24 UNL     1      36.540 -16.379  28.668  1.00  0.00     0.030 A 
BRANCH  39  42
HETATM   42  O2  UNL     1      33.788 -15.284  29.688  1.00  0.00    -0.344 OA
ATOM     43  H2  UNL     1      33.793 -16.189  29.978  1.00  0.00     0.219 HD
ENDBRANCH  39  42
ENDBRANCH  26  31
ENDBRANCH   1  24
TORSDOF 9
ENDMDL
