MODEL 6
REMARK VINA RESULT: -8.748412249      2.083      3.097
REMARK  10 active torsions:
REMARK  status: ('A' for Active; 'I' for Inactive)
REMARK    1  A    between atoms: O1_2  and  C2_3 
REMARK       I    between atoms: C2_3  and  N1_5 
REMARK    2  A    between atoms: N1_5  and  C3_7 
REMARK    3  A    between atoms: C6_10  and  C7_11 
REMARK    4  A    between atoms: C10_16  and  C11_17 
REMARK    5  A    between atoms: C11_17  and  C12_18 
REMARK    6  A    between atoms: C11_17  and  N3_25 
REMARK    7  A    between atoms: C12_18  and  C13_19 
REMARK       I    between atoms: N3_25  and  C19_27 
REMARK    8  A    between atoms: C19_27  and  C20_29 
REMARK    9  A    between atoms: C23_32  and  C24_33 
REMARK   10  A    between atoms: C24_33  and  N4_34 
ROOT
HETATM    1  C11 UNL     1      40.302 -20.509  28.485  1.00  0.00     0.138 C 
ENDROOT
BRANCH   1   2
HETATM    2  C10 UNL     1      41.681 -20.507  28.005  1.00  0.00     0.033 A 
HETATM    3  N2  UNL     1      41.926 -20.342  26.696  1.00  0.00    -0.367 N 
HETATM    4  C9  UNL     1      43.121 -20.314  26.125  1.00  0.00     0.089 A 
ATOM      5  H2  UNL     1      41.118 -20.229  26.084  1.00  0.00     0.165 HD
HETATM    6  C8  UNL     1      44.225 -20.466  26.938  1.00  0.00     0.029 A 
HETATM    7  C7  UNL     1      44.042 -20.639  28.297  1.00  0.00    -0.023 A 
HETATM    8  C27 UNL     1      42.779 -20.661  28.829  1.00  0.00     0.039 A 
BRANCH   7   9
HETATM    9  C6  UNL     1      45.240 -20.787  29.105  1.00  0.00    -0.026 A 
HETATM   10  C5  UNL     1      45.413 -20.183  30.332  1.00  0.00     0.014 A 
HETATM   11  C4  UNL     1      46.546 -20.335  31.085  1.00  0.00     0.030 A 
HETATM   12  C3  UNL     1      47.610 -21.134  30.627  1.00  0.00     0.036 A 
HETATM   13  C29 UNL     1      47.444 -21.737  29.406  1.00  0.00     0.030 A 
HETATM   14  C28 UNL     1      46.273 -21.568  28.650  1.00  0.00     0.014 A 
BRANCH  12  15
HETATM   15  N1  UNL     1      48.758 -21.276  31.446  1.00  0.00    -0.303 N 
HETATM   16  C2  UNL     1      49.936 -20.529  31.320  1.00  0.00     0.364 C 
HETATM   17  O2  UNL     1      50.093 -19.640  30.449  1.00  0.00    -0.238 OA
ATOM     18  H1  UNL     1      48.723 -21.976  32.187  1.00  0.00     0.171 HD
BRANCH  16  19
HETATM   19  O1  UNL     1      50.981 -20.797  32.210  1.00  0.00    -0.309 OA
HETATM   20  C1  UNL     1      51.364 -19.835  33.182  1.00  0.00     0.215 C 
ENDBRANCH  16  19
ENDBRANCH  12  15
ENDBRANCH   7   9
ENDBRANCH   1   2
BRANCH   1  21
HETATM   21  C12 UNL     1      39.657 -21.850  28.236  1.00  0.00     0.070 C 
BRANCH  21  22
HETATM   22  C13 UNL     1      40.387 -23.014  28.749  1.00  0.00    -0.056 A 
HETATM   23  C14 UNL     1      41.038 -23.903  27.882  1.00  0.00     0.007 A 
HETATM   24  C15 UNL     1      41.714 -25.007  28.305  1.00  0.00     0.001 A 
HETATM   25  C16 UNL     1      41.769 -25.280  29.651  1.00  0.00     0.000 A 
HETATM   26  C17 UNL     1      41.151 -24.448  30.542  1.00  0.00     0.001 A 
HETATM   27  C18 UNL     1      40.462 -23.315  30.075  1.00  0.00     0.007 A 
ENDBRANCH  21  22
ENDBRANCH   1  21
BRANCH   1  28
HETATM   28  N3  UNL     1      39.475 -19.537  27.774  1.00  0.00    -0.350 N 
HETATM   29  C19 UNL     1      39.111 -18.295  28.344  1.00  0.00     0.222 C 
HETATM   30  O3  UNL     1      39.559 -18.101  29.521  1.00  0.00    -0.273 OA
ATOM     31  H3  UNL     1      39.149 -19.762  26.834  1.00  0.00     0.163 HD
BRANCH  29  32
HETATM   32  C20 UNL     1      38.299 -17.247  27.730  1.00  0.00     0.078 C 
HETATM   33  C21 UNL     1      36.939 -17.054  28.300  1.00  0.00     0.014 C 
HETATM   34  C22 UNL     1      36.830 -15.925  29.302  1.00  0.00     0.007 C 
HETATM   35  C23 UNL     1      37.279 -14.610  28.711  1.00  0.00     0.011 C 
HETATM   36  C25 UNL     1      38.133 -14.825  27.478  1.00  0.00     0.007 C 
HETATM   37  C26 UNL     1      39.099 -15.959  27.669  1.00  0.00     0.014 C 
BRANCH  35  38
HETATM   38  C24 UNL     1      36.097 -13.726  28.430  1.00  0.00     0.234 C 
BRANCH  38  39
HETATM   39  N4  UNL     1      36.520 -12.573  27.646  1.00  0.00    -0.079 N 
ATOM     40  H43 UNL     1      37.503 -12.347  27.795  1.00  0.00     0.274 HD
ATOM     41  H42 UNL     1      36.567 -12.783  26.648  1.00  0.00     0.274 HD
ATOM     42  H41 UNL     1      35.910 -11.780  27.843  1.00  0.00     0.274 HD
ENDBRANCH  38  39
ENDBRANCH  35  38
ENDBRANCH  29  32
ENDBRANCH   1  28
TORSDOF 10
ENDMDL
