MODEL 2
REMARK VINA RESULT: -8.914383383      1.998      5.272
REMARK  10 active torsions:
REMARK  status: ('A' for Active; 'I' for Inactive)
REMARK    1  A    between atoms: O1_2  and  C2_3 
REMARK       I    between atoms: C2_3  and  N1_5 
REMARK    2  A    between atoms: N1_5  and  C3_7 
REMARK    3  A    between atoms: C6_10  and  C7_11 
REMARK    4  A    between atoms: C10_16  and  C11_17 
REMARK    5  A    between atoms: C11_17  and  C12_18 
REMARK    6  A    between atoms: C11_17  and  N3_25 
REMARK    7  A    between atoms: C12_18  and  C13_19 
REMARK       I    between atoms: N3_25  and  C19_27 
REMARK    8  A    between atoms: C19_27  and  C20_29 
REMARK    9  A    between atoms: C23_32  and  C24_33 
REMARK   10  A    between atoms: C24_33  and  N4_34 
ROOT
HETATM    1  C11 UNL     1      39.418 -19.868  28.317  1.00  0.00     0.138 C 
ENDROOT
BRANCH   1   2
HETATM    2  C10 UNL     1      40.328 -20.793  28.986  1.00  0.00     0.033 A 
HETATM    3  N2  UNL     1      39.885 -22.004  29.359  1.00  0.00    -0.367 N 
HETATM    4  C9  UNL     1      40.598 -22.942  29.965  1.00  0.00     0.089 A 
ATOM      5  H2  UNL     1      38.908 -22.222  29.157  1.00  0.00     0.165 HD
HETATM    6  C8  UNL     1      41.920 -22.663  30.244  1.00  0.00     0.029 A 
HETATM    7  C7  UNL     1      42.439 -21.433  29.885  1.00  0.00    -0.023 A 
HETATM    8  C27 UNL     1      41.650 -20.503  29.261  1.00  0.00     0.039 A 
BRANCH   7   9
HETATM    9  C6  UNL     1      43.838 -21.198  30.199  1.00  0.00    -0.026 A 
HETATM   10  C5  UNL     1      44.470 -21.718  31.308  1.00  0.00     0.014 A 
HETATM   11  C4  UNL     1      45.790 -21.491  31.589  1.00  0.00     0.030 A 
HETATM   12  C3  UNL     1      46.579 -20.697  30.734  1.00  0.00     0.036 A 
HETATM   13  C29 UNL     1      45.956 -20.178  29.630  1.00  0.00     0.030 A 
HETATM   14  C28 UNL     1      44.600 -20.422  29.360  1.00  0.00     0.014 A 
BRANCH  12  15
HETATM   15  N1  UNL     1      47.946 -20.503  31.056  1.00  0.00    -0.303 N 
HETATM   16  C2  UNL     1      49.016 -21.209  30.491  1.00  0.00     0.364 C 
HETATM   17  O2  UNL     1      48.865 -22.101  29.623  1.00  0.00    -0.238 OA
ATOM     18  H1  UNL     1      48.168 -19.793  31.754  1.00  0.00     0.171 HD
BRANCH  16  19
HETATM   19  O1  UNL     1      50.309 -20.896  30.924  1.00  0.00    -0.309 OA
HETATM   20  C1  UNL     1      50.588 -19.630  31.502  1.00  0.00     0.215 C 
ENDBRANCH  16  19
ENDBRANCH  12  15
ENDBRANCH   7   9
ENDBRANCH   1   2
BRANCH   1  21
HETATM   21  C12 UNL     1      39.077 -18.713  29.225  1.00  0.00     0.070 C 
BRANCH  21  22
HETATM   22  C13 UNL     1      38.928 -17.409  28.571  1.00  0.00    -0.056 A 
HETATM   23  C14 UNL     1      38.064 -16.432  29.085  1.00  0.00     0.007 A 
HETATM   24  C15 UNL     1      37.875 -15.214  28.506  1.00  0.00     0.001 A 
HETATM   25  C16 UNL     1      38.561 -14.910  27.354  1.00  0.00     0.000 A 
HETATM   26  C17 UNL     1      39.417 -15.825  26.808  1.00  0.00     0.001 A 
HETATM   27  C18 UNL     1      39.591 -17.074  27.428  1.00  0.00     0.007 A 
ENDBRANCH  21  22
ENDBRANCH   1  21
BRANCH   1  28
HETATM   28  N3  UNL     1      38.142 -20.498  27.987  1.00  0.00    -0.350 N 
HETATM   29  C19 UNL     1      37.857 -20.995  26.694  1.00  0.00     0.222 C 
HETATM   30  O3  UNL     1      38.799 -20.842  25.850  1.00  0.00    -0.273 OA
ATOM     31  H3  UNL     1      37.433 -20.584  28.715  1.00  0.00     0.163 HD
BRANCH  29  32
HETATM   32  C20 UNL     1      36.627 -21.647  26.251  1.00  0.00     0.078 C 
HETATM   33  C21 UNL     1      35.753 -20.853  25.347  1.00  0.00     0.014 C 
HETATM   34  C22 UNL     1      35.917 -21.169  23.875  1.00  0.00     0.007 C 
HETATM   35  C23 UNL     1      35.677 -22.632  23.589  1.00  0.00     0.011 C 
HETATM   36  C25 UNL     1      35.797 -23.465  24.850  1.00  0.00     0.007 C 
HETATM   37  C26 UNL     1      36.956 -23.020  25.695  1.00  0.00     0.014 C 
BRANCH  35  38
HETATM   38  C24 UNL     1      34.351 -22.826  22.910  1.00  0.00     0.234 C 
BRANCH  38  39
HETATM   39  N4  UNL     1      34.543 -23.538  21.652  1.00  0.00    -0.079 N 
ATOM     40  H43 UNL     1      33.719 -24.078  21.387  1.00  0.00     0.274 HD
ATOM     41  H42 UNL     1      34.567 -22.905  20.853  1.00  0.00     0.274 HD
ATOM     42  H41 UNL     1      35.380 -24.118  21.709  1.00  0.00     0.274 HD
ENDBRANCH  38  39
ENDBRANCH  35  38
ENDBRANCH  29  32
ENDBRANCH   1  28
TORSDOF 10
ENDMDL
