MODEL 5
REMARK VINA RESULT: -8.798469733      1.992      5.271
REMARK  10 active torsions:
REMARK  status: ('A' for Active; 'I' for Inactive)
REMARK    1  A    between atoms: O1_2  and  C2_3 
REMARK       I    between atoms: C2_3  and  N1_5 
REMARK    2  A    between atoms: N1_5  and  C3_7 
REMARK    3  A    between atoms: C6_10  and  C7_11 
REMARK    4  A    between atoms: C10_16  and  C11_17 
REMARK    5  A    between atoms: C11_17  and  C12_18 
REMARK    6  A    between atoms: C11_17  and  N3_25 
REMARK    7  A    between atoms: C12_18  and  C13_19 
REMARK       I    between atoms: N3_25  and  C19_27 
REMARK    8  A    between atoms: C19_27  and  C20_29 
REMARK    9  A    between atoms: C23_32  and  C24_33 
REMARK   10  A    between atoms: C24_33  and  N4_34 
ROOT
HETATM    1  C11 UNL     1      39.432 -19.850  28.339  1.00  0.00     0.138 C 
ENDROOT
BRANCH   1   2
HETATM    2  C10 UNL     1      40.331 -20.797  28.994  1.00  0.00     0.033 A 
HETATM    3  N2  UNL     1      39.877 -22.013  29.333  1.00  0.00    -0.367 N 
HETATM    4  C9  UNL     1      40.579 -22.969  29.923  1.00  0.00     0.089 A 
ATOM      5  H2  UNL     1      38.902 -22.220  29.117  1.00  0.00     0.165 HD
HETATM    6  C8  UNL     1      41.900 -22.705  30.222  1.00  0.00     0.029 A 
HETATM    7  C7  UNL     1      42.430 -21.471  29.897  1.00  0.00    -0.023 A 
HETATM    8  C27 UNL     1      41.652 -20.521  29.289  1.00  0.00     0.039 A 
BRANCH   7   9
HETATM    9  C6  UNL     1      43.827 -21.251  30.229  1.00  0.00    -0.026 A 
HETATM   10  C5  UNL     1      44.633 -20.342  29.577  1.00  0.00     0.014 A 
HETATM   11  C4  UNL     1      45.947 -20.142  29.904  1.00  0.00     0.030 A 
HETATM   12  C3  UNL     1      46.547 -20.876  30.946  1.00  0.00     0.036 A 
HETATM   13  C29 UNL     1      45.751 -21.781  31.597  1.00  0.00     0.030 A 
HETATM   14  C28 UNL     1      44.404 -21.971  31.247  1.00  0.00     0.014 A 
BRANCH  12  15
HETATM   15  N1  UNL     1      47.906 -20.625  31.259  1.00  0.00    -0.303 N 
HETATM   16  C2  UNL     1      49.004 -21.195  30.601  1.00  0.00     0.364 C 
HETATM   17  O2  UNL     1      48.888 -22.000  29.647  1.00  0.00    -0.238 OA
ATOM     18  H1  UNL     1      48.100 -19.978  32.024  1.00  0.00     0.171 HD
BRANCH  16  19
HETATM   19  O1  UNL     1      50.286 -20.844  31.040  1.00  0.00    -0.309 OA
HETATM   20  C1  UNL     1      50.478 -19.701  31.860  1.00  0.00     0.215 C 
ENDBRANCH  16  19
ENDBRANCH  12  15
ENDBRANCH   7   9
ENDBRANCH   1   2
BRANCH   1  21
HETATM   21  C12 UNL     1      39.107 -18.703  29.264  1.00  0.00     0.070 C 
BRANCH  21  22
HETATM   22  C13 UNL     1      38.892 -17.404  28.619  1.00  0.00    -0.056 A 
HETATM   23  C14 UNL     1      39.604 -17.038  27.468  1.00  0.00     0.007 A 
HETATM   24  C15 UNL     1      39.455 -15.838  26.841  1.00  0.00     0.001 A 
HETATM   25  C16 UNL     1      38.564 -14.925  27.353  1.00  0.00     0.000 A 
HETATM   26  C17 UNL     1      37.844 -15.228  28.474  1.00  0.00     0.001 A 
HETATM   27  C18 UNL     1      38.019 -16.475  29.098  1.00  0.00     0.007 A 
ENDBRANCH  21  22
ENDBRANCH   1  21
BRANCH   1  28
HETATM   28  N3  UNL     1      38.149 -20.459  28.001  1.00  0.00    -0.350 N 
HETATM   29  C19 UNL     1      37.874 -20.976  26.714  1.00  0.00     0.222 C 
HETATM   30  O3  UNL     1      38.832 -20.861  25.882  1.00  0.00    -0.273 OA
ATOM     31  H3  UNL     1      37.426 -20.514  28.719  1.00  0.00     0.163 HD
BRANCH  29  32
HETATM   32  C20 UNL     1      36.637 -21.610  26.264  1.00  0.00     0.078 C 
HETATM   33  C21 UNL     1      35.769 -20.795  25.373  1.00  0.00     0.014 C 
HETATM   34  C22 UNL     1      35.927 -21.091  23.896  1.00  0.00     0.007 C 
HETATM   35  C23 UNL     1      35.673 -22.548  23.590  1.00  0.00     0.011 C 
HETATM   36  C25 UNL     1      35.786 -23.400  24.839  1.00  0.00     0.007 C 
HETATM   37  C26 UNL     1      36.951 -22.978  25.688  1.00  0.00     0.014 C 
BRANCH  35  38
HETATM   38  C24 UNL     1      34.344 -22.720  22.910  1.00  0.00     0.234 C 
BRANCH  38  39
HETATM   39  N4  UNL     1      34.505 -23.539  21.715  1.00  0.00    -0.079 N 
ATOM     40  H43 UNL     1      35.468 -23.541  21.378  1.00  0.00     0.274 HD
ATOM     41  H42 UNL     1      34.419 -24.535  21.918  1.00  0.00     0.274 HD
ATOM     42  H41 UNL     1      33.848 -23.234  20.998  1.00  0.00     0.274 HD
ENDBRANCH  38  39
ENDBRANCH  35  38
ENDBRANCH  29  32
ENDBRANCH   1  28
TORSDOF 10
ENDMDL
