MODEL 4
REMARK VINA RESULT: -8.845714431      3.831      9.264
REMARK  10 active torsions:
REMARK  status: ('A' for Active; 'I' for Inactive)
REMARK    1  A    between atoms: O1_2  and  C2_3 
REMARK       I    between atoms: C2_3  and  N1_5 
REMARK    2  A    between atoms: N1_5  and  C3_7 
REMARK    3  A    between atoms: C6_10  and  C7_11 
REMARK    4  A    between atoms: C10_16  and  C11_17 
REMARK    5  A    between atoms: C11_17  and  C12_18 
REMARK    6  A    between atoms: C11_17  and  N3_25 
REMARK    7  A    between atoms: C12_18  and  C13_19 
REMARK       I    between atoms: N3_25  and  C19_27 
REMARK    8  A    between atoms: C19_27  and  C20_29 
REMARK    9  A    between atoms: C23_32  and  C24_33 
REMARK   10  A    between atoms: C24_33  and  N4_34 
ROOT
HETATM    1  C11 UNL     1      38.999 -20.311  27.250  1.00  0.00     0.138 C 
ENDROOT
BRANCH   1   2
HETATM    2  C10 UNL     1      38.045 -20.852  26.286  1.00  0.00     0.033 A 
HETATM    3  N2  UNL     1      37.404 -20.019  25.452  1.00  0.00    -0.367 N 
HETATM    4  C9  UNL     1      36.521 -20.370  24.528  1.00  0.00     0.089 A 
ATOM      5  H2  UNL     1      37.615 -19.025  25.537  1.00  0.00     0.165 HD
HETATM    6  C8  UNL     1      36.224 -21.711  24.400  1.00  0.00     0.029 A 
HETATM    7  C7  UNL     1      36.851 -22.622  25.229  1.00  0.00    -0.023 A 
HETATM    8  C27 UNL     1      37.755 -22.197  26.167  1.00  0.00     0.039 A 
BRANCH   7   9
HETATM    9  C6  UNL     1      36.504 -24.021  25.045  1.00  0.00    -0.026 A 
HETATM   10  C5  UNL     1      37.354 -25.063  25.347  1.00  0.00     0.014 A 
HETATM   11  C4  UNL     1      37.012 -26.377  25.173  1.00  0.00     0.030 A 
HETATM   12  C3  UNL     1      35.747 -26.728  24.664  1.00  0.00     0.036 A 
HETATM   13  C29 UNL     1      34.898 -25.695  24.361  1.00  0.00     0.030 A 
HETATM   14  C28 UNL     1      35.268 -24.353  24.548  1.00  0.00     0.014 A 
BRANCH  12  15
HETATM   15  N1  UNL     1      35.430 -28.102  24.514  1.00  0.00    -0.303 N 
HETATM   16  C2  UNL     1      34.926 -28.691  23.347  1.00  0.00     0.364 C 
HETATM   17  O2  UNL     1      34.701 -28.045  22.297  1.00  0.00    -0.238 OA
ATOM     18  H1  UNL     1      35.582 -28.709  25.320  1.00  0.00     0.171 HD
BRANCH  16  19
HETATM   19  O1  UNL     1      34.661 -30.065  23.368  1.00  0.00    -0.309 OA
HETATM   20  C1  UNL     1      34.109 -30.674  24.526  1.00  0.00     0.215 C 
ENDBRANCH  16  19
ENDBRANCH  12  15
ENDBRANCH   7   9
ENDBRANCH   1   2
BRANCH   1  21
HETATM   21  C12 UNL     1      39.351 -21.349  28.286  1.00  0.00     0.070 C 
BRANCH  21  22
HETATM   22  C13 UNL     1      40.714 -21.278  28.824  1.00  0.00    -0.056 A 
HETATM   23  C14 UNL     1      41.744 -20.647  28.112  1.00  0.00     0.007 A 
HETATM   24  C15 UNL     1      43.029 -20.569  28.558  1.00  0.00     0.001 A 
HETATM   25  C16 UNL     1      43.349 -21.135  29.769  1.00  0.00     0.000 A 
HETATM   26  C17 UNL     1      42.385 -21.764  30.505  1.00  0.00     0.001 A 
HETATM   27  C18 UNL     1      41.068 -21.828  30.019  1.00  0.00     0.007 A 
ENDBRANCH  21  22
ENDBRANCH   1  21
BRANCH   1  28
HETATM   28  N3  UNL     1      38.444 -19.184  27.995  1.00  0.00    -0.350 N 
HETATM   29  C19 UNL     1      38.952 -17.870  27.867  1.00  0.00     0.222 C 
HETATM   30  O3  UNL     1      39.928 -17.757  27.057  1.00  0.00    -0.273 OA
ATOM     31  H3  UNL     1      37.663 -19.350  28.629  1.00  0.00     0.163 HD
BRANCH  29  32
HETATM   32  C20 UNL     1      38.476 -16.671  28.552  1.00  0.00     0.078 C 
HETATM   33  C21 UNL     1      38.681 -15.383  27.837  1.00  0.00     0.014 C 
HETATM   34  C22 UNL     1      37.470 -14.883  27.079  1.00  0.00     0.007 C 
HETATM   35  C23 UNL     1      36.270 -14.729  27.983  1.00  0.00     0.011 C 
HETATM   36  C25 UNL     1      36.440 -15.527  29.261  1.00  0.00     0.007 C 
HETATM   37  C26 UNL     1      37.038 -16.877  28.990  1.00  0.00     0.014 C 
BRANCH  35  38
HETATM   38  C24 UNL     1      36.000 -13.276  28.258  1.00  0.00     0.234 C 
BRANCH  38  39
HETATM   39  N4  UNL     1      36.707 -12.452  27.286  1.00  0.00    -0.079 N 
ATOM     40  H43 UNL     1      37.717 -12.591  27.328  1.00  0.00     0.274 HD
ATOM     41  H42 UNL     1      36.554 -12.771  26.329  1.00  0.00     0.274 HD
ATOM     42  H41 UNL     1      36.448 -11.474  27.412  1.00  0.00     0.274 HD
ENDBRANCH  38  39
ENDBRANCH  35  38
ENDBRANCH  29  32
ENDBRANCH   1  28
TORSDOF 10
ENDMDL
