MODEL 2
REMARK VINA RESULT: -9.647694295      4.712     10.646
REMARK  10 active torsions:
REMARK  status: ('A' for Active; 'I' for Inactive)
REMARK    1  A    between atoms: O1_2  and  C2_3 
REMARK       I    between atoms: C2_3  and  N1_5 
REMARK    2  A    between atoms: N1_5  and  C3_7 
REMARK    3  A    between atoms: C6_10  and  C7_11 
REMARK    4  A    between atoms: C10_16  and  C11_17 
REMARK    5  A    between atoms: C11_17  and  C12_18 
REMARK    6  A    between atoms: C11_17  and  N3_25 
REMARK    7  A    between atoms: C12_18  and  C13_19 
REMARK       I    between atoms: N3_25  and  C19_27 
REMARK    8  A    between atoms: C19_27  and  C20_29 
REMARK    9  A    between atoms: C21_30  and  C22_31 
REMARK   10  A    between atoms: C27_37  and  N4_38 
ROOT
HETATM    1  C11 UNL     1      -2.520  10.203 -21.294  1.00  0.00     0.139 C 
ENDROOT
BRANCH   1   2
HETATM    2  C10 UNL     1      -1.834   9.493 -22.401  1.00  0.00     0.033 A 
HETATM    3  N2  UNL     1      -1.521  10.170 -23.520  1.00  0.00    -0.367 N 
HETATM    4  C9  UNL     1      -0.898   9.599 -24.562  1.00  0.00     0.089 A 
ATOM      5  H2  UNL     1      -1.769  11.158 -23.580  1.00  0.00     0.165 HD
HETATM    6  C8  UNL     1      -0.570   8.247 -24.458  1.00  0.00     0.029 A 
HETATM    7  C7  UNL     1      -0.872   7.523 -23.332  1.00  0.00    -0.023 A 
HETATM    8  C29 UNL     1      -1.510   8.156 -22.295  1.00  0.00     0.039 A 
BRANCH   7   9
HETATM    9  C6  UNL     1      -0.527   6.115 -23.213  1.00  0.00    -0.026 A 
HETATM   10  C5  UNL     1       0.271   5.458 -24.117  1.00  0.00     0.014 A 
HETATM   11  C4  UNL     1       0.579   4.092 -23.959  1.00  0.00     0.030 A 
HETATM   12  C3  UNL     1       0.109   3.349 -22.916  1.00  0.00     0.036 A 
HETATM   13  C31 UNL     1      -0.705   4.033 -22.001  1.00  0.00     0.030 A 
HETATM   14  C30 UNL     1      -1.006   5.361 -22.152  1.00  0.00     0.014 A 
BRANCH  12  15
HETATM   15  N1  UNL     1       0.392   1.979 -22.706  1.00  0.00    -0.303 N 
HETATM   16  C2  UNL     1       0.983   1.391 -21.580  1.00  0.00     0.364 C 
HETATM   17  O2  UNL     1       1.323   2.086 -20.616  1.00  0.00    -0.238 OA
ATOM     18  H1  UNL     1       0.136   1.345 -23.462  1.00  0.00     0.171 HD
BRANCH  16  19
HETATM   19  O1  UNL     1       1.214   0.013 -21.486  1.00  0.00    -0.309 OA
HETATM   20  C1  UNL     1       1.636  -0.740 -22.612  1.00  0.00     0.215 C 
ENDBRANCH  16  19
ENDBRANCH  12  15
ENDBRANCH   7   9
ENDBRANCH   1   2
BRANCH   1  21
HETATM   21  C12 UNL     1      -2.670  11.692 -21.639  1.00  0.00     0.070 C 
BRANCH  21  22
HETATM   22  C13 UNL     1      -4.106  11.983 -21.821  1.00  0.00    -0.056 A 
HETATM   23  C14 UNL     1      -5.102  11.238 -21.232  1.00  0.00     0.007 A 
HETATM   24  C15 UNL     1      -6.417  11.588 -21.461  1.00  0.00     0.001 A 
HETATM   25  C16 UNL     1      -6.766  12.657 -22.257  1.00  0.00     0.000 A 
HETATM   26  C17 UNL     1      -5.743  13.394 -22.841  1.00  0.00     0.001 A 
HETATM   27  C18 UNL     1      -4.443  13.047 -22.615  1.00  0.00     0.007 A 
ENDBRANCH  21  22
ENDBRANCH   1  21
BRANCH   1  28
HETATM   28  N3  UNL     1      -1.715  10.169 -20.081  1.00  0.00    -0.347 N 
HETATM   29  C19 UNL     1      -1.888   9.162 -19.103  1.00  0.00     0.241 C 
HETATM   30  O3  UNL     1      -2.770   8.293 -19.317  1.00  0.00    -0.269 OA
ATOM     31  H3  UNL     1      -1.008  10.889 -19.934  1.00  0.00     0.163 HD
BRANCH  29  32
HETATM   32  C20 UNL     1      -1.067   9.125 -17.873  1.00  0.00     0.075 C 
HETATM   33  C21 UNL     1      -0.584   7.970 -17.466  1.00  0.00     0.019 C 
BRANCH  33  34
HETATM   34  C22 UNL     1       0.236   7.813 -16.272  1.00  0.00    -0.006 A 
HETATM   35  C23 UNL     1       0.208   8.678 -15.211  1.00  0.00     0.037 A 
HETATM   36  C24 UNL     1       0.996   8.520 -14.067  1.00  0.00     0.035 A 
HETATM   37 CL1  UNL     1       0.918   9.657 -12.745  1.00  0.00    -0.084 Cl
HETATM   38  C25 UNL     1       1.854   7.441 -13.989  1.00  0.00     0.026 A 
HETATM   39  C26 UNL     1       1.881   6.573 -15.058  1.00  0.00     0.034 A 
HETATM   40  C27 UNL     1       1.106   6.724 -16.188  1.00  0.00     0.069 A 
BRANCH  40  41
HETATM   41  N4  UNL     1       1.139   5.830 -17.277  1.00  0.00    -0.234 N 
HETATM   42  C28 UNL     1       1.705   6.034 -18.459  1.00  0.00     0.226 A 
HETATM   43  N5  UNL     1       1.521   4.934 -19.239  1.00  0.00    -0.279 N 
HETATM   44  N6  UNL     1       0.846   4.095 -18.498  1.00  0.00    -0.227 N 
ATOM     45  H5  UNL     1       1.841   4.794 -20.197  1.00  0.00     0.189 HD
HETATM   46  N7  UNL     1       0.602   4.627 -17.292  1.00  0.00    -0.220 N 
ATOM     47  H6  UNL     1       0.546   3.166 -18.795  1.00  0.00     0.210 HD
ATOM     48  H7  UNL     1       0.095   4.182 -16.527  1.00  0.00     0.210 HD
ENDBRANCH  40  41
ENDBRANCH  33  34
ENDBRANCH  29  32
ENDBRANCH   1  28
TORSDOF 10
ENDMDL
