MODEL 4
REMARK VINA RESULT: -9.239852025      4.727     10.654
REMARK  10 active torsions:
REMARK  status: ('A' for Active; 'I' for Inactive)
REMARK    1  A    between atoms: O1_2  and  C2_3 
REMARK       I    between atoms: C2_3  and  N1_5 
REMARK    2  A    between atoms: N1_5  and  C3_7 
REMARK    3  A    between atoms: C6_10  and  C7_11 
REMARK    4  A    between atoms: C10_16  and  C11_17 
REMARK    5  A    between atoms: C11_17  and  C12_18 
REMARK    6  A    between atoms: C11_17  and  N3_25 
REMARK    7  A    between atoms: C12_18  and  C13_19 
REMARK       I    between atoms: N3_25  and  C19_27 
REMARK    8  A    between atoms: C19_27  and  C20_29 
REMARK    9  A    between atoms: C21_30  and  C22_31 
REMARK   10  A    between atoms: C27_37  and  N4_38 
ROOT
HETATM    1  C11 UNL     1      -2.004  10.394 -21.032  1.00  0.00     0.139 C 
ENDROOT
BRANCH   1   2
HETATM    2  C10 UNL     1      -1.322   9.701 -22.152  1.00  0.00     0.033 A 
HETATM    3  N2  UNL     1      -0.892  10.421 -23.203  1.00  0.00    -0.367 N 
HETATM    4  C9  UNL     1      -0.264   9.868 -24.252  1.00  0.00     0.089 A 
ATOM      5  H2  UNL     1      -1.050  11.429 -23.204  1.00  0.00     0.165 HD
HETATM    6  C8  UNL     1      -0.060   8.488 -24.229  1.00  0.00     0.029 A 
HETATM    7  C7  UNL     1      -0.484   7.719 -23.174  1.00  0.00    -0.023 A 
HETATM    8  C29 UNL     1      -1.122   8.336 -22.126  1.00  0.00     0.039 A 
BRANCH   7   9
HETATM    9  C6  UNL     1      -0.270   6.282 -23.140  1.00  0.00    -0.026 A 
HETATM   10  C5  UNL     1       0.517   5.618 -24.049  1.00  0.00     0.014 A 
HETATM   11  C4  UNL     1       0.696   4.222 -23.975  1.00  0.00     0.030 A 
HETATM   12  C3  UNL     1       0.108   3.456 -23.012  1.00  0.00     0.036 A 
HETATM   13  C31 UNL     1      -0.693   4.147 -22.091  1.00  0.00     0.030 A 
HETATM   14  C30 UNL     1      -0.869   5.504 -22.160  1.00  0.00     0.014 A 
BRANCH  12  15
HETATM   15  N1  UNL     1       0.260   2.055 -22.887  1.00  0.00    -0.303 N 
HETATM   16  C2  UNL     1       1.066   1.360 -21.976  1.00  0.00     0.364 C 
HETATM   17  O2  UNL     1       1.754   1.974 -21.152  1.00  0.00    -0.238 OA
ATOM     18  H1  UNL     1      -0.281   1.484 -23.535  1.00  0.00     0.171 HD
BRANCH  16  19
HETATM   19  O1  UNL     1       1.135  -0.038 -21.947  1.00  0.00    -0.309 OA
HETATM   20  C1  UNL     1       1.942  -0.754 -22.869  1.00  0.00     0.215 C 
ENDBRANCH  16  19
ENDBRANCH  12  15
ENDBRANCH   7   9
ENDBRANCH   1   2
BRANCH   1  21
HETATM   21  C12 UNL     1      -2.236  11.870 -21.391  1.00  0.00     0.070 C 
BRANCH  21  22
HETATM   22  C13 UNL     1      -3.679  12.065 -21.636  1.00  0.00    -0.056 A 
HETATM   23  C14 UNL     1      -4.175  13.072 -22.432  1.00  0.00     0.007 A 
HETATM   24  C15 UNL     1      -5.541  13.173 -22.602  1.00  0.00     0.001 A 
HETATM   25  C16 UNL     1      -6.423  12.302 -22.002  1.00  0.00     0.000 A 
HETATM   26  C17 UNL     1      -5.899  11.293 -21.203  1.00  0.00     0.001 A 
HETATM   27  C18 UNL     1      -4.549  11.193 -21.035  1.00  0.00     0.007 A 
ENDBRANCH  21  22
ENDBRANCH   1  21
BRANCH   1  28
HETATM   28  N3  UNL     1      -1.158  10.416 -19.847  1.00  0.00    -0.347 N 
HETATM   29  C19 UNL     1      -1.404   9.565 -18.744  1.00  0.00     0.241 C 
HETATM   30  O3  UNL     1      -2.387   8.787 -18.821  1.00  0.00    -0.269 OA
ATOM     31  H3  UNL     1      -0.368  11.060 -19.812  1.00  0.00     0.163 HD
BRANCH  29  32
HETATM   32  C20 UNL     1      -0.541   9.585 -17.542  1.00  0.00     0.075 C 
HETATM   33  C21 UNL     1      -0.467   8.502 -16.796  1.00  0.00     0.019 C 
BRANCH  33  34
HETATM   34  C22 UNL     1       0.348   8.406 -15.591  1.00  0.00    -0.006 A 
HETATM   35  C23 UNL     1       0.373   9.361 -14.611  1.00  0.00     0.037 A 
HETATM   36  C24 UNL     1       1.155   9.260 -13.458  1.00  0.00     0.035 A 
HETATM   37 CL1  UNL     1       1.146  10.512 -12.241  1.00  0.00    -0.084 Cl
HETATM   38  C25 UNL     1       1.952   8.146 -13.284  1.00  0.00     0.026 A 
HETATM   39  C26 UNL     1       1.927   7.187 -14.272  1.00  0.00     0.034 A 
HETATM   40  C27 UNL     1       1.156   7.282 -15.412  1.00  0.00     0.069 A 
BRANCH  40  41
HETATM   41  N4  UNL     1       1.134   6.294 -16.418  1.00  0.00    -0.234 N 
HETATM   42  C28 UNL     1       0.394   5.194 -16.440  1.00  0.00     0.226 A 
HETATM   43  N5  UNL     1       0.660   4.499 -17.579  1.00  0.00    -0.279 N 
HETATM   44  N6  UNL     1       1.557   5.206 -18.213  1.00  0.00    -0.227 N 
ATOM     45  H5  UNL     1       0.247   3.614 -17.874  1.00  0.00     0.189 HD
HETATM   46  N7  UNL     1       1.860   6.310 -17.517  1.00  0.00    -0.220 N 
ATOM     47  H6  UNL     1       1.969   4.954 -19.112  1.00  0.00     0.210 HD
ATOM     48  H7  UNL     1       2.530   7.031 -17.788  1.00  0.00     0.210 HD
ENDBRANCH  40  41
ENDBRANCH  33  34
ENDBRANCH  29  32
ENDBRANCH   1  28
TORSDOF 10
ENDMDL
