MODEL 5
REMARK VINA RESULT: -9.226565178      4.226      9.375
REMARK  10 active torsions:
REMARK  status: ('A' for Active; 'I' for Inactive)
REMARK    1  A    between atoms: O1_2  and  C2_3 
REMARK       I    between atoms: C2_3  and  N1_5 
REMARK    2  A    between atoms: N1_5  and  C3_7 
REMARK    3  A    between atoms: C6_10  and  C7_11 
REMARK    4  A    between atoms: C10_16  and  C11_17 
REMARK    5  A    between atoms: C11_17  and  C12_18 
REMARK    6  A    between atoms: C11_17  and  N3_25 
REMARK    7  A    between atoms: C12_18  and  C13_19 
REMARK       I    between atoms: N3_25  and  C19_27 
REMARK    8  A    between atoms: C19_27  and  C20_29 
REMARK    9  A    between atoms: C21_30  and  C22_31 
REMARK   10  A    between atoms: C27_37  and  N4_38 
ROOT
HETATM    1  C11 UNL     1       1.924   5.060 -18.662  1.00  0.00     0.139 C 
ENDROOT
BRANCH   1   2
HETATM    2  C10 UNL     1       0.929   5.242 -19.747  1.00  0.00     0.033 A 
HETATM    3  N2  UNL     1       0.767   4.267 -20.660  1.00  0.00    -0.367 N 
HETATM    4  C9  UNL     1      -0.114   4.357 -21.668  1.00  0.00     0.089 A 
ATOM      5  H2  UNL     1       1.338   3.425 -20.583  1.00  0.00     0.165 HD
HETATM    6  C8  UNL     1      -0.883   5.518 -21.752  1.00  0.00     0.029 A 
HETATM    7  C7  UNL     1      -0.748   6.534 -20.840  1.00  0.00    -0.023 A 
HETATM    8  C29 UNL     1       0.169   6.391 -19.828  1.00  0.00     0.039 A 
BRANCH   7   9
HETATM    9  C6  UNL     1      -1.551   7.744 -20.918  1.00  0.00    -0.026 A 
HETATM   10  C5  UNL     1      -2.187   8.294 -19.833  1.00  0.00     0.014 A 
HETATM   11  C4  UNL     1      -2.954   9.470 -19.957  1.00  0.00     0.030 A 
HETATM   12  C3  UNL     1      -3.109  10.124 -21.144  1.00  0.00     0.036 A 
HETATM   13  C31 UNL     1      -2.453   9.550 -22.244  1.00  0.00     0.030 A 
HETATM   14  C30 UNL     1      -1.707   8.407 -22.126  1.00  0.00     0.014 A 
BRANCH  12  15
HETATM   15  N1  UNL     1      -3.860  11.309 -21.324  1.00  0.00    -0.303 N 
HETATM   16  C2  UNL     1      -5.251  11.459 -21.257  1.00  0.00     0.364 C 
HETATM   17  O2  UNL     1      -5.975  10.486 -21.016  1.00  0.00    -0.238 OA
ATOM     18  H1  UNL     1      -3.325  12.154 -21.525  1.00  0.00     0.171 HD
BRANCH  16  19
HETATM   19  O1  UNL     1      -5.885  12.692 -21.455  1.00  0.00    -0.309 OA
HETATM   20  C1  UNL     1      -6.350  13.083 -22.737  1.00  0.00     0.215 C 
ENDBRANCH  16  19
ENDBRANCH  12  15
ENDBRANCH   7   9
ENDBRANCH   1   2
BRANCH   1  21
HETATM   21  C12 UNL     1       1.467   3.940 -17.715  1.00  0.00     0.070 C 
BRANCH  21  22
HETATM   22  C13 UNL     1       2.592   3.607 -16.817  1.00  0.00    -0.056 A 
HETATM   23  C14 UNL     1       3.869   3.369 -17.272  1.00  0.00     0.007 A 
HETATM   24  C15 UNL     1       4.854   3.065 -16.355  1.00  0.00     0.001 A 
HETATM   25  C16 UNL     1       4.604   2.993 -15.003  1.00  0.00     0.000 A 
HETATM   26  C17 UNL     1       3.307   3.237 -14.567  1.00  0.00     0.001 A 
HETATM   27  C18 UNL     1       2.333   3.537 -15.473  1.00  0.00     0.007 A 
ENDBRANCH  21  22
ENDBRANCH   1  21
BRANCH   1  28
HETATM   28  N3  UNL     1       2.008   6.254 -17.833  1.00  0.00    -0.347 N 
HETATM   29  C19 UNL     1       3.171   7.058 -17.805  1.00  0.00     0.241 C 
HETATM   30  O3  UNL     1       4.138   6.701 -18.524  1.00  0.00    -0.269 OA
ATOM     31  H3  UNL     1       1.207   6.517 -17.258  1.00  0.00     0.163 HD
BRANCH  29  32
HETATM   32  C20 UNL     1       3.254   8.273 -16.966  1.00  0.00     0.075 C 
HETATM   33  C21 UNL     1       2.636   8.285 -15.803  1.00  0.00     0.019 C 
BRANCH  33  34
HETATM   34  C22 UNL     1       2.648   9.424 -14.894  1.00  0.00    -0.006 A 
HETATM   35  C23 UNL     1       3.792   9.992 -14.401  1.00  0.00     0.037 A 
HETATM   36  C24 UNL     1       3.796  11.086 -13.531  1.00  0.00     0.035 A 
HETATM   37 CL1  UNL     1       5.287  11.768 -12.934  1.00  0.00    -0.084 Cl
HETATM   38  C25 UNL     1       2.590  11.633 -13.137  1.00  0.00     0.026 A 
HETATM   39  C26 UNL     1       1.440  11.059 -13.634  1.00  0.00     0.034 A 
HETATM   40  C27 UNL     1       1.432   9.980 -14.493  1.00  0.00     0.069 A 
BRANCH  40  41
HETATM   41  N4  UNL     1       0.250   9.399 -14.997  1.00  0.00    -0.234 N 
HETATM   42  C28 UNL     1      -0.206   9.475 -16.240  1.00  0.00     0.226 A 
HETATM   43  N5  UNL     1      -1.375   8.784 -16.329  1.00  0.00    -0.279 N 
HETATM   44  N6  UNL     1      -1.588   8.309 -15.130  1.00  0.00    -0.227 N 
ATOM     45  H5  UNL     1      -1.961   8.662 -17.155  1.00  0.00     0.189 HD
HETATM   46  N7  UNL     1      -0.601   8.677 -14.300  1.00  0.00    -0.220 N 
ATOM     47  H6  UNL     1      -2.391   7.739 -14.862  1.00  0.00     0.210 HD
ATOM     48  H7  UNL     1      -0.524   8.440 -13.310  1.00  0.00     0.210 HD
ENDBRANCH  40  41
ENDBRANCH  33  34
ENDBRANCH  29  32
ENDBRANCH   1  28
TORSDOF 10
ENDMDL
