MODEL 1
REMARK VINA RESULT: -9.665554602      0.000      0.000
REMARK  10 active torsions:
REMARK  status: ('A' for Active; 'I' for Inactive)
REMARK    1  A    between atoms: O1_2  and  C2_3 
REMARK       I    between atoms: C2_3  and  N1_5 
REMARK    2  A    between atoms: N1_5  and  C3_7 
REMARK    3  A    between atoms: C6_10  and  C7_11 
REMARK    4  A    between atoms: C10_16  and  C11_17 
REMARK    5  A    between atoms: C11_17  and  C12_18 
REMARK    6  A    between atoms: C11_17  and  N3_25 
REMARK    7  A    between atoms: C12_18  and  C13_19 
REMARK       I    between atoms: N3_25  and  C19_27 
REMARK    8  A    between atoms: C19_27  and  C20_29 
REMARK    9  A    between atoms: C21_30  and  C22_31 
REMARK   10  A    between atoms: C27_37  and  N4_38 
ROOT
HETATM    1  C11 UNL     1      -0.834   8.577 -18.043  1.00  0.00     0.139 C 
ENDROOT
BRANCH   1   2
HETATM    2  C10 UNL     1       0.424   9.330 -17.818  1.00  0.00     0.033 A 
HETATM    3  N2  UNL     1       1.229   9.589 -18.864  1.00  0.00    -0.367 N 
HETATM    4  C9  UNL     1       2.381  10.266 -18.742  1.00  0.00     0.089 A 
ATOM      5  H2  UNL     1       0.952   9.257 -19.789  1.00  0.00     0.165 HD
HETATM    6  C8  UNL     1       2.738  10.709 -17.469  1.00  0.00     0.029 A 
HETATM    7  C7  UNL     1       1.943  10.465 -16.376  1.00  0.00    -0.023 A 
HETATM    8  C29 UNL     1       0.775   9.767 -16.557  1.00  0.00     0.039 A 
BRANCH   7   9
HETATM    9  C6  UNL     1       2.306  10.929 -15.047  1.00  0.00    -0.026 A 
HETATM   10  C5  UNL     1       3.582  10.850 -14.546  1.00  0.00     0.014 A 
HETATM   11  C4  UNL     1       3.886  11.315 -13.251  1.00  0.00     0.030 A 
HETATM   12  C3  UNL     1       2.947  11.863 -12.428  1.00  0.00     0.036 A 
HETATM   13  C31 UNL     1       1.648  11.937 -12.953  1.00  0.00     0.030 A 
HETATM   14  C30 UNL     1       1.350  11.487 -14.212  1.00  0.00     0.014 A 
BRANCH  12  15
HETATM   15  N1  UNL     1       3.199  12.352 -11.125  1.00  0.00    -0.303 N 
HETATM   16  C2  UNL     1       3.957  13.473 -10.763  1.00  0.00     0.364 C 
HETATM   17  O2  UNL     1       4.500  14.168 -11.629  1.00  0.00    -0.238 OA
ATOM     18  H1  UNL     1       2.779  11.826 -10.358  1.00  0.00     0.171 HD
BRANCH  16  19
HETATM   19  O1  UNL     1       4.136  13.860  -9.429  1.00  0.00    -0.309 OA
HETATM   20  C1  UNL     1       3.801  15.168  -8.992  1.00  0.00     0.215 C 
ENDBRANCH  16  19
ENDBRANCH  12  15
ENDBRANCH   7   9
ENDBRANCH   1   2
BRANCH   1  21
HETATM   21  C12 UNL     1      -0.556   7.334 -18.901  1.00  0.00     0.070 C 
BRANCH  21  22
HETATM   22  C13 UNL     1       0.050   6.301 -18.036  1.00  0.00    -0.056 A 
HETATM   23  C14 UNL     1      -0.323   6.108 -16.725  1.00  0.00     0.007 A 
HETATM   24  C15 UNL     1       0.301   5.116 -15.997  1.00  0.00     0.001 A 
HETATM   25  C16 UNL     1       1.283   4.315 -16.536  1.00  0.00     0.000 A 
HETATM   26  C17 UNL     1       1.644   4.529 -17.861  1.00  0.00     0.001 A 
HETATM   27  C18 UNL     1       1.026   5.509 -18.581  1.00  0.00     0.007 A 
ENDBRANCH  21  22
ENDBRANCH   1  21
BRANCH   1  28
HETATM   28  N3  UNL     1      -1.779   9.372 -18.814  1.00  0.00    -0.347 N 
HETATM   29  C19 UNL     1      -2.819  10.101 -18.191  1.00  0.00     0.241 C 
HETATM   30  O3  UNL     1      -2.900  10.036 -16.938  1.00  0.00    -0.269 OA
ATOM     31  H3  UNL     1      -1.689   9.404 -19.830  1.00  0.00     0.163 HD
BRANCH  29  32
HETATM   32  C20 UNL     1      -3.776  10.912 -18.975  1.00  0.00     0.075 C 
HETATM   33  C21 UNL     1      -3.790  10.786 -20.286  1.00  0.00     0.019 C 
BRANCH  33  34
HETATM   34  C22 UNL     1      -4.688  11.532 -21.159  1.00  0.00    -0.006 A 
HETATM   35  C23 UNL     1      -6.045  11.359 -21.180  1.00  0.00     0.037 A 
HETATM   36  C24 UNL     1      -6.900  12.080 -22.018  1.00  0.00     0.035 A 
HETATM   37 CL1  UNL     1      -8.625  11.815 -22.003  1.00  0.00    -0.084 Cl
HETATM   38  C25 UNL     1      -6.362  13.018 -22.878  1.00  0.00     0.026 A 
HETATM   39  C26 UNL     1      -4.995  13.189 -22.855  1.00  0.00     0.034 A 
HETATM   40  C27 UNL     1      -4.148  12.481 -22.029  1.00  0.00     0.069 A 
BRANCH  40  41
HETATM   41  N4  UNL     1      -2.750  12.664 -22.011  1.00  0.00    -0.234 N 
HETATM   42  C28 UNL     1      -1.874  12.193 -22.888  1.00  0.00     0.226 A 
HETATM   43  N5  UNL     1      -0.623  12.585 -22.524  1.00  0.00    -0.279 N 
HETATM   44  N6  UNL     1      -0.785  13.286 -21.432  1.00  0.00    -0.227 N 
ATOM     45  H5  UNL     1       0.255  12.377 -23.001  1.00  0.00     0.189 HD
HETATM   46  N7  UNL     1      -2.082  13.344 -21.103  1.00  0.00    -0.220 N 
ATOM     47  H6  UNL     1      -0.030  13.726 -20.905  1.00  0.00     0.210 HD
ATOM     48  H7  UNL     1      -2.480  13.828 -20.297  1.00  0.00     0.210 HD
ENDBRANCH  40  41
ENDBRANCH  33  34
ENDBRANCH  29  32
ENDBRANCH   1  28
TORSDOF 10
ENDMDL
