MODEL 10
REMARK VINA RESULT: -9.897081908      6.471      9.019
REMARK  10 active torsions:
REMARK  status: ('A' for Active; 'I' for Inactive)
REMARK    1  A    between atoms: N4_12  and  C7_13 
REMARK    2  A    between atoms: C8_15  and  C9_16 
REMARK    3  A    between atoms: C9_16  and  O2_17 
REMARK    4  A    between atoms: O2_17  and  P1_18 
REMARK    5  A    between atoms: P1_18  and  O5_21 
REMARK    6  A    between atoms: O5_21  and  P2_22 
REMARK    7  A    between atoms: P2_22  and  O8_25 
REMARK    8  A    between atoms: O8_25  and  P3_26 
REMARK    9  A    between atoms: C10_30  and  O12_31 
REMARK   10  A    between atoms: C11_33  and  O13_34 
ROOT
HETATM    1  C7  UNL     1      20.666   1.658   1.268  1.00  0.00     0.261 C 
HETATM    2  O1  UNL     1      21.042   0.638   2.072  1.00  0.00    -0.353 OA
HETATM    3  C8  UNL     1      20.475   0.738   3.287  1.00  0.00     0.180 C 
HETATM    4  C10 UNL     1      19.806   2.041   3.440  1.00  0.00     0.182 C 
HETATM    5  C11 UNL     1      20.051   2.737   2.115  1.00  0.00     0.198 C 
ENDROOT
BRANCH   3   6
HETATM    6  C9  UNL     1      19.459  -0.404   3.527  1.00  0.00     0.216 C 
BRANCH   6   7
HETATM    7  O2  UNL     1      20.157  -1.541   3.076  1.00  0.00    -0.287 OA
BRANCH   7   8
HETATM    8  P1  UNL     1      19.442  -2.854   3.003  1.00  0.00     0.417 P 
HETATM    9  O3  UNL     1      20.670  -3.562   2.217  1.00  0.00    -0.624 OA
HETATM   10  O4  UNL     1      18.158  -2.269   2.227  1.00  0.00    -0.624 OA
BRANCH   8  11
HETATM   11  O5  UNL     1      18.760  -4.225   3.248  1.00  0.00    -0.180 OA
BRANCH  11  12
HETATM   12  P2  UNL     1      18.563  -4.971   4.546  1.00  0.00     0.428 P 
HETATM   13  O6  UNL     1      19.732  -4.105   5.282  1.00  0.00    -0.624 OA
HETATM   14  O7  UNL     1      17.010  -4.383   4.584  1.00  0.00    -0.624 OA
BRANCH  12  15
HETATM   15  O8  UNL     1      18.272  -5.782   5.809  1.00  0.00    -0.173 OA
BRANCH  15  16
HETATM   16  P3  UNL     1      16.936  -6.677   6.059  1.00  0.00     0.431 P 
HETATM   17  O9  UNL     1      16.577  -7.952   5.000  1.00  0.00    -0.616 OA
HETATM   18  O10 UNL     1      15.753  -6.250   7.109  1.00  0.00    -0.616 OA
HETATM   19  O11 UNL     1      17.652  -7.674   6.951  1.00  0.00    -0.616 OA
ENDBRANCH  15  16
ENDBRANCH  12  15
ENDBRANCH  11  12
ENDBRANCH   8  11
ENDBRANCH   7   8
ENDBRANCH   6   7
ENDBRANCH   3   6
BRANCH   4  20
HETATM   20  O12 UNL     1      20.327   2.796   4.503  1.00  0.00    -0.390 OA
ATOM     21  H12 UNL     1      19.759   3.515   4.754  1.00  0.00     0.210 HD
ENDBRANCH   4  20
BRANCH   1  22
HETATM   22  N4  UNL     1      19.824   1.125   0.233  1.00  0.00    -0.312 N 
HETATM   23  C3  UNL     1      19.739  -0.109  -0.244  1.00  0.00     0.124 A 
HETATM   24  N3  UNL     1      20.429  -1.198   0.056  1.00  0.00    -0.338 N 
HETATM   25  C4  UNL     1      18.711  -0.160  -1.192  1.00  0.00     0.051 A 
HETATM   26  C2  UNL     1      20.086  -2.331  -0.584  1.00  0.00     0.183 A 
ATOM     27  H3  UNL     1      21.185  -1.179   0.740  1.00  0.00     0.168 HD
HETATM   28  N2  UNL     1      19.127  -2.424  -1.469  1.00  0.00    -0.340 N 
HETATM   29  C1  UNL     1      18.405  -1.329  -1.812  1.00  0.00     0.131 A 
ATOM     30  H2  UNL     1      18.921  -3.324  -1.903  1.00  0.00     0.167 HD
HETATM   31  N1  UNL     1      17.395  -1.422  -2.764  1.00  0.00    -0.082 NA
HETATM   32  C5  UNL     1      18.204   1.133  -1.255  1.00  0.00     0.036 A 
HETATM   33  C6  UNL     1      18.904   1.874  -0.385  1.00  0.00     0.096 A 
ENDBRANCH   1  22
BRANCH   5  34
HETATM   34  O13 UNL     1      21.024   3.724   2.355  1.00  0.00    -0.388 OA
ATOM     35  H13 UNL     1      21.768   3.557   1.787  1.00  0.00     0.210 HD
ENDBRANCH   5  34
TORSDOF 10
ENDMDL
