MODEL 4
REMARK VINA RESULT: -10.335557373      1.027      1.836
REMARK  10 active torsions:
REMARK  status: ('A' for Active; 'I' for Inactive)
REMARK    1  A    between atoms: N4_12  and  C7_13 
REMARK    2  A    between atoms: C8_15  and  C9_16 
REMARK    3  A    between atoms: C9_16  and  O2_17 
REMARK    4  A    between atoms: O2_17  and  P1_18 
REMARK    5  A    between atoms: P1_18  and  O5_21 
REMARK    6  A    between atoms: O5_21  and  P2_22 
REMARK    7  A    between atoms: P2_22  and  O8_25 
REMARK    8  A    between atoms: O8_25  and  P3_26 
REMARK    9  A    between atoms: C10_30  and  O12_31 
REMARK   10  A    between atoms: C11_33  and  O13_34 
ROOT
HETATM    1  C7  UNL     1      16.758  -6.160   6.610  1.00  0.00     0.261 C 
HETATM    2  O1  UNL     1      16.730  -5.153   5.707  1.00  0.00    -0.353 OA
HETATM    3  C8  UNL     1      17.962  -4.878   5.242  1.00  0.00     0.180 C 
HETATM    4  C10 UNL     1      18.983  -5.598   6.024  1.00  0.00     0.182 C 
HETATM    5  C11 UNL     1      18.180  -6.367   7.055  1.00  0.00     0.198 C 
ENDROOT
BRANCH   3   6
HETATM    6  C9  UNL     1      18.092  -5.249   3.745  1.00  0.00     0.216 C 
BRANCH   6   7
HETATM    7  O2  UNL     1      19.432  -4.922   3.461  1.00  0.00    -0.287 OA
BRANCH   7   8
HETATM    8  P1  UNL     1      19.737  -3.629   2.769  1.00  0.00     0.417 P 
HETATM    9  O3  UNL     1      19.933  -2.841   4.171  1.00  0.00    -0.624 OA
HETATM   10  O4  UNL     1      18.350  -3.582   1.951  1.00  0.00    -0.624 OA
BRANCH   8  11
HETATM   11  O5  UNL     1      20.331  -2.439   1.973  1.00  0.00    -0.180 OA
BRANCH  11  12
HETATM   12  P2  UNL     1      20.096  -0.959   2.157  1.00  0.00     0.428 P 
HETATM   13  O6  UNL     1      21.630  -0.725   2.656  1.00  0.00    -0.624 OA
HETATM   14  O7  UNL     1      19.778  -0.864   0.530  1.00  0.00    -0.624 OA
BRANCH  12  15
HETATM   15  O8  UNL     1      19.749   0.523   2.298  1.00  0.00    -0.173 OA
BRANCH  15  16
HETATM   16  P3  UNL     1      19.995   1.417   3.635  1.00  0.00     0.431 P 
HETATM   17  O9  UNL     1      20.257   3.086   3.485  1.00  0.00    -0.616 OA
HETATM   18  O10 UNL     1      20.287   0.766   5.110  1.00  0.00    -0.616 OA
HETATM   19  O11 UNL     1      18.518   1.709   3.829  1.00  0.00    -0.616 OA
ENDBRANCH  15  16
ENDBRANCH  12  15
ENDBRANCH  11  12
ENDBRANCH   8  11
ENDBRANCH   7   8
ENDBRANCH   6   7
ENDBRANCH   3   6
BRANCH   4  20
HETATM   20  O12 UNL     1      19.895  -4.733   6.648  1.00  0.00    -0.390 OA
ATOM     21  H12 UNL     1      20.799  -4.962   6.467  1.00  0.00     0.210 HD
ENDBRANCH   4  20
BRANCH   1  22
HETATM   22  N4  UNL     1      16.117  -7.304   6.026  1.00  0.00    -0.312 N 
HETATM   23  C3  UNL     1      16.542  -8.126   5.076  1.00  0.00     0.124 A 
HETATM   24  N3  UNL     1      17.654  -8.112   4.359  1.00  0.00    -0.338 N 
HETATM   25  C4  UNL     1      15.599  -9.145   4.902  1.00  0.00     0.051 A 
HETATM   26  C2  UNL     1      17.823  -9.115   3.479  1.00  0.00     0.183 A 
ATOM     27  H3  UNL     1      18.350  -7.374   4.469  1.00  0.00     0.168 HD
HETATM   28  N2  UNL     1      16.973 -10.092   3.291  1.00  0.00    -0.340 N 
HETATM   29  C1  UNL     1      15.817 -10.135   3.998  1.00  0.00     0.131 A 
ATOM     30  H2  UNL     1      17.179 -10.822   2.611  1.00  0.00     0.167 HD
HETATM   31  N1  UNL     1      14.903 -11.164   3.790  1.00  0.00    -0.082 NA
HETATM   32  C5  UNL     1      14.579  -8.861   5.803  1.00  0.00     0.036 A 
HETATM   33  C6  UNL     1      14.928  -7.744   6.455  1.00  0.00     0.096 A 
ENDBRANCH   1  22
BRANCH   5  34
HETATM   34  O13 UNL     1      18.364  -5.706   8.282  1.00  0.00    -0.388 OA
ATOM     35  H13 UNL     1      19.294  -5.685   8.477  1.00  0.00     0.210 HD
ENDBRANCH   5  34
TORSDOF 10
ENDMDL
