MODEL 5
REMARK VINA RESULT: -10.244129082      5.902      9.742
REMARK  10 active torsions:
REMARK  status: ('A' for Active; 'I' for Inactive)
REMARK    1  A    between atoms: N4_12  and  C7_13 
REMARK    2  A    between atoms: C8_15  and  C9_16 
REMARK    3  A    between atoms: C9_16  and  O2_17 
REMARK    4  A    between atoms: O2_17  and  P1_18 
REMARK    5  A    between atoms: P1_18  and  O5_21 
REMARK    6  A    between atoms: O5_21  and  P2_22 
REMARK    7  A    between atoms: P2_22  and  O8_25 
REMARK    8  A    between atoms: O8_25  and  P3_26 
REMARK    9  A    between atoms: C10_30  and  O12_31 
REMARK   10  A    between atoms: C11_33  and  O13_34 
ROOT
HETATM    1  C7  UNL     1      19.367  -1.974   0.832  1.00  0.00     0.261 C 
HETATM    2  O1  UNL     1      18.456  -2.586   1.622  1.00  0.00    -0.353 OA
HETATM    3  C8  UNL     1      18.955  -3.710   2.166  1.00  0.00     0.180 C 
HETATM    4  C10 UNL     1      20.254  -4.046   1.558  1.00  0.00     0.182 C 
HETATM    5  C11 UNL     1      20.480  -2.944   0.542  1.00  0.00     0.198 C 
ENDROOT
BRANCH   3   6
HETATM    6  C9  UNL     1      19.117  -3.567   3.699  1.00  0.00     0.216 C 
BRANCH   6   7
HETATM    7  O2  UNL     1      17.914  -4.109   4.189  1.00  0.00    -0.287 OA
BRANCH   7   8
HETATM    8  P1  UNL     1      17.955  -5.386   4.971  1.00  0.00     0.417 P 
HETATM    9  O3  UNL     1      16.533  -5.079   5.686  1.00  0.00    -0.624 OA
HETATM   10  O4  UNL     1      19.358  -5.060   5.691  1.00  0.00    -0.624 OA
BRANCH   8  11
HETATM   11  O5  UNL     1      17.943  -6.846   5.491  1.00  0.00    -0.180 OA
BRANCH  11  12
HETATM   12  P2  UNL     1      16.844  -7.878   5.406  1.00  0.00     0.428 P 
HETATM   13  O6  UNL     1      17.517  -8.561   4.087  1.00  0.00    -0.624 OA
HETATM   14  O7  UNL     1      17.317  -8.426   6.900  1.00  0.00    -0.624 OA
BRANCH  12  15
HETATM   15  O8  UNL     1      15.688  -8.878   5.420  1.00  0.00    -0.173 OA
BRANCH  15  16
HETATM   16  P3  UNL     1      14.227  -8.608   6.083  1.00  0.00     0.431 P 
HETATM   17  O9  UNL     1      12.849  -9.290   5.367  1.00  0.00    -0.616 OA
HETATM   18  O10 UNL     1      13.961  -7.484   7.244  1.00  0.00    -0.616 OA
HETATM   19  O11 UNL     1      14.306  -9.824   6.989  1.00  0.00    -0.616 OA
ENDBRANCH  15  16
ENDBRANCH  12  15
ENDBRANCH  11  12
ENDBRANCH   8  11
ENDBRANCH   7   8
ENDBRANCH   6   7
ENDBRANCH   3   6
BRANCH   4  20
HETATM   20  O12 UNL     1      20.250  -5.304   0.934  1.00  0.00    -0.390 OA
ATOM     21  H12 UNL     1      21.021  -5.449   0.398  1.00  0.00     0.210 HD
ENDBRANCH   4  20
BRANCH   1  22
HETATM   22  N4  UNL     1      19.761  -0.749   1.469  1.00  0.00    -0.312 N 
HETATM   23  C3  UNL     1      19.425   0.503   1.187  1.00  0.00     0.124 A 
HETATM   24  N3  UNL     1      18.672   0.995   0.218  1.00  0.00    -0.338 N 
HETATM   25  C4  UNL     1      19.995   1.352   2.143  1.00  0.00     0.051 A 
HETATM   26  C2  UNL     1      18.484   2.327   0.209  1.00  0.00     0.183 A 
ATOM     27  H3  UNL     1      18.253   0.392  -0.491  1.00  0.00     0.168 HD
HETATM   28  N2  UNL     1      18.989   3.155   1.087  1.00  0.00    -0.340 N 
HETATM   29  C1  UNL     1      19.776   2.691   2.089  1.00  0.00     0.131 A 
ATOM     30  H2  UNL     1      18.791   4.153   1.018  1.00  0.00     0.167 HD
HETATM   31  N1  UNL     1      20.328   3.571   3.015  1.00  0.00    -0.082 NA
HETATM   32  C5  UNL     1      20.703   0.518   3.000  1.00  0.00     0.036 A 
HETATM   33  C6  UNL     1      20.539  -0.736   2.557  1.00  0.00     0.096 A 
ENDBRANCH   1  22
BRANCH   5  34
HETATM   34  O13 UNL     1      20.256  -3.513  -0.724  1.00  0.00    -0.388 OA
ATOM     35  H13 UNL     1      21.083  -3.837  -1.060  1.00  0.00     0.210 HD
ENDBRANCH   5  34
TORSDOF 10
ENDMDL
