MODEL 3
REMARK VINA RESULT: -10.633405872      0.782      1.425
REMARK  10 active torsions:
REMARK  status: ('A' for Active; 'I' for Inactive)
REMARK    1  A    between atoms: N4_12  and  C7_13 
REMARK    2  A    between atoms: C8_15  and  C9_16 
REMARK    3  A    between atoms: C9_16  and  O2_17 
REMARK    4  A    between atoms: O2_17  and  P1_18 
REMARK    5  A    between atoms: P1_18  and  O5_21 
REMARK    6  A    between atoms: O5_21  and  P2_22 
REMARK    7  A    between atoms: P2_22  and  O8_25 
REMARK    8  A    between atoms: O8_25  and  P3_26 
REMARK    9  A    between atoms: C10_30  and  O12_31 
REMARK   10  A    between atoms: C11_33  and  O13_34 
ROOT
HETATM    1  C7  UNL     1      16.978  -6.253   6.439  1.00  0.00     0.261 C 
HETATM    2  O1  UNL     1      16.872  -5.214   5.581  1.00  0.00    -0.353 OA
HETATM    3  C8  UNL     1      18.081  -4.732   5.243  1.00  0.00     0.180 C 
HETATM    4  C10 UNL     1      19.131  -5.333   6.085  1.00  0.00     0.182 C 
HETATM    5  C11 UNL     1      18.372  -6.270   7.004  1.00  0.00     0.198 C 
ENDROOT
BRANCH   3   6
HETATM    6  C9  UNL     1      18.394  -4.995   3.751  1.00  0.00     0.216 C 
BRANCH   6   7
HETATM    7  O2  UNL     1      18.274  -3.713   3.179  1.00  0.00    -0.287 OA
BRANCH   7   8
HETATM    8  P1  UNL     1      19.507  -3.008   2.704  1.00  0.00     0.417 P 
HETATM    9  O3  UNL     1      19.870  -4.193   1.659  1.00  0.00    -0.624 OA
HETATM   10  O4  UNL     1      20.184  -2.920   4.163  1.00  0.00    -0.624 OA
BRANCH   8  11
HETATM   11  O5  UNL     1      20.570  -2.074   2.073  1.00  0.00    -0.180 OA
BRANCH  11  12
HETATM   12  P2  UNL     1      20.505  -0.586   1.828  1.00  0.00     0.428 P 
HETATM   13  O6  UNL     1      18.977  -0.508   2.390  1.00  0.00    -0.624 OA
HETATM   14  O7  UNL     1      21.749  -0.408   2.913  1.00  0.00    -0.624 OA
BRANCH  12  15
HETATM   15  O8  UNL     1      20.553   0.916   1.548  1.00  0.00    -0.173 OA
BRANCH  15  16
HETATM   16  P3  UNL     1      19.862   2.062   2.474  1.00  0.00     0.431 P 
HETATM   17  O9  UNL     1      20.241   2.140   4.124  1.00  0.00    -0.616 OA
HETATM   18  O10 UNL     1      18.599   2.979   1.975  1.00  0.00    -0.616 OA
HETATM   19  O11 UNL     1      20.964   3.073   2.215  1.00  0.00    -0.616 OA
ENDBRANCH  15  16
ENDBRANCH  12  15
ENDBRANCH  11  12
ENDBRANCH   8  11
ENDBRANCH   7   8
ENDBRANCH   6   7
ENDBRANCH   3   6
BRANCH   4  20
HETATM   20  O12 UNL     1      19.843  -4.378   6.827  1.00  0.00    -0.390 OA
ATOM     21  H12 UNL     1      20.532  -3.962   6.323  1.00  0.00     0.210 HD
ENDBRANCH   4  20
BRANCH   1  22
HETATM   22  N4  UNL     1      16.572  -7.446   5.750  1.00  0.00    -0.312 N 
HETATM   23  C3  UNL     1      15.483  -8.188   5.902  1.00  0.00     0.124 A 
HETATM   24  N3  UNL     1      14.478  -8.077   6.755  1.00  0.00    -0.338 N 
HETATM   25  C4  UNL     1      15.490  -9.206   4.942  1.00  0.00     0.051 A 
HETATM   26  C2  UNL     1      13.483  -8.976   6.643  1.00  0.00     0.183 A 
ATOM     27  H3  UNL     1      14.458  -7.344   7.464  1.00  0.00     0.168 HD
HETATM   28  N2  UNL     1      13.445  -9.937   5.756  1.00  0.00    -0.340 N 
HETATM   29  C1  UNL     1      14.461 -10.090   4.872  1.00  0.00     0.131 A 
ATOM     30  H2  UNL     1      12.648 -10.573   5.729  1.00  0.00     0.167 HD
HETATM   31  N1  UNL     1      14.432 -11.121   3.937  1.00  0.00    -0.082 NA
HETATM   32  C5  UNL     1      16.665  -9.026   4.223  1.00  0.00     0.036 A 
HETATM   33  C6  UNL     1      17.288  -7.960   4.743  1.00  0.00     0.096 A 
ENDBRANCH   1  22
BRANCH   5  34
HETATM   34  O13 UNL     1      18.347  -5.658   8.270  1.00  0.00    -0.388 OA
ATOM     35  H13 UNL     1      18.959  -6.113   8.836  1.00  0.00     0.210 HD
ENDBRANCH   5  34
TORSDOF 10
ENDMDL
