MODEL 7
REMARK VINA RESULT: -10.206870295      5.887      9.804
REMARK  10 active torsions:
REMARK  status: ('A' for Active; 'I' for Inactive)
REMARK    1  A    between atoms: N4_12  and  C7_13 
REMARK    2  A    between atoms: C8_15  and  C9_16 
REMARK    3  A    between atoms: C9_16  and  O2_17 
REMARK    4  A    between atoms: O2_17  and  P1_18 
REMARK    5  A    between atoms: P1_18  and  O5_21 
REMARK    6  A    between atoms: O5_21  and  P2_22 
REMARK    7  A    between atoms: P2_22  and  O8_25 
REMARK    8  A    between atoms: O8_25  and  P3_26 
REMARK    9  A    between atoms: C10_30  and  O12_31 
REMARK   10  A    between atoms: C11_33  and  O13_34 
ROOT
HETATM    1  C7  UNL     1      19.674  -2.468   0.542  1.00  0.00     0.261 C 
HETATM    2  O1  UNL     1      18.547  -2.858   1.179  1.00  0.00    -0.353 OA
HETATM    3  C8  UNL     1      18.770  -3.936   1.952  1.00  0.00     0.180 C 
HETATM    4  C10 UNL     1      20.109  -4.493   1.690  1.00  0.00     0.182 C 
HETATM    5  C11 UNL     1      20.683  -3.581   0.623  1.00  0.00     0.198 C 
ENDROOT
BRANCH   3   6
HETATM    6  C9  UNL     1      18.634  -3.588   3.454  1.00  0.00     0.216 C 
BRANCH   6   7
HETATM    7  O2  UNL     1      19.245  -4.689   4.084  1.00  0.00    -0.287 OA
BRANCH   7   8
HETATM    8  P1  UNL     1      18.417  -5.583   4.953  1.00  0.00     0.417 P 
HETATM    9  O3  UNL     1      18.522  -6.818   3.909  1.00  0.00    -0.624 OA
HETATM   10  O4  UNL     1      17.142  -4.601   4.986  1.00  0.00    -0.624 OA
BRANCH   8  11
HETATM   11  O5  UNL     1      17.823  -6.509   6.046  1.00  0.00    -0.180 OA
BRANCH  11  12
HETATM   12  P2  UNL     1      16.455  -7.145   6.114  1.00  0.00     0.428 P 
HETATM   13  O6  UNL     1      17.091  -8.592   6.514  1.00  0.00    -0.624 OA
HETATM   14  O7  UNL     1      16.085  -6.087   7.338  1.00  0.00    -0.624 OA
BRANCH  12  15
HETATM   15  O8  UNL     1      15.025  -7.682   6.163  1.00  0.00    -0.173 OA
BRANCH  15  16
HETATM   16  P3  UNL     1      14.588  -9.212   5.821  1.00  0.00     0.431 P 
HETATM   17  O9  UNL     1      14.020 -10.214   7.065  1.00  0.00    -0.616 OA
HETATM   18  O10 UNL     1      14.926  -9.945   4.395  1.00  0.00    -0.616 OA
HETATM   19  O11 UNL     1      13.148  -8.836   5.522  1.00  0.00    -0.616 OA
ENDBRANCH  15  16
ENDBRANCH  12  15
ENDBRANCH  11  12
ENDBRANCH   8  11
ENDBRANCH   7   8
ENDBRANCH   6   7
ENDBRANCH   3   6
BRANCH   4  20
HETATM   20  O12 UNL     1      20.064  -5.821   1.237  1.00  0.00    -0.390 OA
ATOM     21  H12 UNL     1      20.410  -6.436   1.873  1.00  0.00     0.210 HD
ENDBRANCH   4  20
BRANCH   1  22
HETATM   22  N4  UNL     1      20.090  -1.210   1.097  1.00  0.00    -0.312 N 
HETATM   23  C3  UNL     1      19.942   0.019   0.623  1.00  0.00     0.124 A 
HETATM   24  N3  UNL     1      19.413   0.447  -0.512  1.00  0.00    -0.338 N 
HETATM   25  C4  UNL     1      20.438   0.930   1.562  1.00  0.00     0.051 A 
HETATM   26  C2  UNL     1      19.375   1.779  -0.701  1.00  0.00     0.183 A 
ATOM     27  H3  UNL     1      19.052  -0.202  -1.210  1.00  0.00     0.168 HD
HETATM   28  N2  UNL     1      19.818   2.665   0.154  1.00  0.00    -0.340 N 
HETATM   29  C1  UNL     1      20.377   2.266   1.322  1.00  0.00     0.131 A 
ATOM     30  H2  UNL     1      19.743   3.659  -0.060  1.00  0.00     0.167 HD
HETATM   31  N1  UNL     1      20.863   3.205   2.226  1.00  0.00    -0.082 NA
HETATM   32  C5  UNL     1      20.903   0.154   2.618  1.00  0.00     0.036 A 
HETATM   33  C6  UNL     1      20.678  -1.126   2.295  1.00  0.00     0.096 A 
ENDBRANCH   1  22
BRANCH   5  34
HETATM   34  O13 UNL     1      20.647  -4.303  -0.583  1.00  0.00    -0.388 OA
ATOM     35  H13 UNL     1      20.502  -5.220  -0.382  1.00  0.00     0.210 HD
ENDBRANCH   5  34
TORSDOF 10
ENDMDL
