MODEL 6
REMARK VINA RESULT: -10.240843013      0.912      1.263
REMARK  10 active torsions:
REMARK  status: ('A' for Active; 'I' for Inactive)
REMARK    1  A    between atoms: N4_12  and  C7_13 
REMARK    2  A    between atoms: C8_15  and  C9_16 
REMARK    3  A    between atoms: C9_16  and  O2_17 
REMARK    4  A    between atoms: O2_17  and  P1_18 
REMARK    5  A    between atoms: P1_18  and  O5_21 
REMARK    6  A    between atoms: O5_21  and  P2_22 
REMARK    7  A    between atoms: P2_22  and  O8_25 
REMARK    8  A    between atoms: O8_25  and  P3_26 
REMARK    9  A    between atoms: C10_30  and  O12_31 
REMARK   10  A    between atoms: C11_33  and  O13_34 
ROOT
HETATM    1  C7  UNL     1      16.954  -6.224   6.285  1.00  0.00     0.261 C 
HETATM    2  O1  UNL     1      17.041  -5.277   5.324  1.00  0.00    -0.353 OA
HETATM    3  C8  UNL     1      18.320  -4.928   5.096  1.00  0.00     0.180 C 
HETATM    4  C10 UNL     1      19.207  -5.515   6.116  1.00  0.00     0.182 C 
HETATM    5  C11 UNL     1      18.266  -6.288   7.019  1.00  0.00     0.198 C 
ENDROOT
BRANCH   3   6
HETATM    6  C9  UNL     1      18.779  -5.372   3.686  1.00  0.00     0.216 C 
BRANCH   6   7
HETATM    7  O2  UNL     1      18.389  -4.287   2.878  1.00  0.00    -0.287 OA
BRANCH   7   8
HETATM    8  P1  UNL     1      19.415  -3.276   2.469  1.00  0.00     0.417 P 
HETATM    9  O3  UNL     1      18.287  -2.175   2.092  1.00  0.00    -0.624 OA
HETATM   10  O4  UNL     1      20.096  -4.215   1.352  1.00  0.00    -0.624 OA
BRANCH   8  11
HETATM   11  O5  UNL     1      20.539  -2.213   2.366  1.00  0.00    -0.180 OA
BRANCH  11  12
HETATM   12  P2  UNL     1      20.425  -0.725   2.142  1.00  0.00     0.428 P 
HETATM   13  O6  UNL     1      21.761  -0.436   3.030  1.00  0.00    -0.624 OA
HETATM   14  O7  UNL     1      20.610  -1.010   0.517  1.00  0.00    -0.624 OA
BRANCH  12  15
HETATM   15  O8  UNL     1      20.217   0.760   1.843  1.00  0.00    -0.173 OA
BRANCH  15  16
HETATM   16  P3  UNL     1      18.844   1.414   1.264  1.00  0.00     0.431 P 
HETATM   17  O9  UNL     1      18.006   2.554   2.198  1.00  0.00    -0.616 OA
HETATM   18  O10 UNL     1      18.060   0.836  -0.053  1.00  0.00    -0.616 OA
HETATM   19  O11 UNL     1      19.565   2.564   0.584  1.00  0.00    -0.616 OA
ENDBRANCH  15  16
ENDBRANCH  12  15
ENDBRANCH  11  12
ENDBRANCH   8  11
ENDBRANCH   7   8
ENDBRANCH   6   7
ENDBRANCH   3   6
BRANCH   4  20
HETATM   20  O12 UNL     1      19.911  -4.544   6.845  1.00  0.00    -0.390 OA
ATOM     21  H12 UNL     1      20.781  -4.832   7.095  1.00  0.00     0.210 HD
ENDBRANCH   4  20
BRANCH   1  22
HETATM   22  N4  UNL     1      16.526  -7.449   5.670  1.00  0.00    -0.312 N 
HETATM   23  C3  UNL     1      15.443  -8.180   5.893  1.00  0.00     0.124 A 
HETATM   24  N3  UNL     1      14.465  -8.026   6.771  1.00  0.00    -0.338 N 
HETATM   25  C4  UNL     1      15.419  -9.245   4.985  1.00  0.00     0.051 A 
HETATM   26  C2  UNL     1      13.467  -8.928   6.736  1.00  0.00     0.183 A 
ATOM     27  H3  UNL     1      14.468  -7.259   7.444  1.00  0.00     0.168 HD
HETATM   28  N2  UNL     1      13.401  -9.931   5.898  1.00  0.00    -0.340 N 
HETATM   29  C1  UNL     1      14.388 -10.130   4.991  1.00  0.00     0.131 A 
ATOM     30  H2  UNL     1      12.604 -10.567   5.928  1.00  0.00     0.167 HD
HETATM   31  N1  UNL     1      14.329 -11.205   4.110  1.00  0.00    -0.082 NA
HETATM   32  C5  UNL     1      16.570  -9.102   4.220  1.00  0.00     0.036 A 
HETATM   33  C6  UNL     1      17.209  -8.013   4.667  1.00  0.00     0.096 A 
ENDBRANCH   1  22
BRANCH   5  34
HETATM   34  O13 UNL     1      18.148  -5.544   8.207  1.00  0.00    -0.388 OA
ATOM     35  H13 UNL     1      18.971  -5.096   8.364  1.00  0.00     0.210 HD
ENDBRANCH   5  34
TORSDOF 10
ENDMDL
