MODEL 2
REMARK VINA RESULT: -10.714884018      0.779      1.224
REMARK  10 active torsions:
REMARK  status: ('A' for Active; 'I' for Inactive)
REMARK    1  A    between atoms: N4_12  and  C7_13 
REMARK    2  A    between atoms: C8_15  and  C9_16 
REMARK    3  A    between atoms: C9_16  and  O2_17 
REMARK    4  A    between atoms: O2_17  and  P1_18 
REMARK    5  A    between atoms: P1_18  and  O5_21 
REMARK    6  A    between atoms: O5_21  and  P2_22 
REMARK    7  A    between atoms: P2_22  and  O8_25 
REMARK    8  A    between atoms: O8_25  and  P3_26 
REMARK    9  A    between atoms: C10_30  and  O12_31 
REMARK   10  A    between atoms: C11_33  and  O13_34 
ROOT
HETATM    1  C7  UNL     1      16.892  -6.268   6.335  1.00  0.00     0.261 C 
HETATM    2  O1  UNL     1      16.845  -5.290   5.402  1.00  0.00    -0.353 OA
HETATM    3  C8  UNL     1      18.079  -4.882   5.059  1.00  0.00     0.180 C 
HETATM    4  C10 UNL     1      19.087  -5.460   5.965  1.00  0.00     0.182 C 
HETATM    5  C11 UNL     1      18.272  -6.298   6.932  1.00  0.00     0.198 C 
ENDROOT
BRANCH   3   6
HETATM    6  C9  UNL     1      18.411  -5.264   3.596  1.00  0.00     0.216 C 
BRANCH   6   7
HETATM    7  O2  UNL     1      19.537  -4.467   3.316  1.00  0.00    -0.287 OA
BRANCH   7   8
HETATM    8  P1  UNL     1      19.372  -3.243   2.468  1.00  0.00     0.417 P 
HETATM    9  O3  UNL     1      20.231  -3.881   1.251  1.00  0.00    -0.624 OA
HETATM   10  O4  UNL     1      20.030  -2.241   3.543  1.00  0.00    -0.624 OA
BRANCH   8  11
HETATM   11  O5  UNL     1      18.891  -2.078   1.567  1.00  0.00    -0.180 OA
BRANCH  11  12
HETATM   12  P2  UNL     1      19.208  -0.604   1.666  1.00  0.00     0.428 P 
HETATM   13  O6  UNL     1      20.350  -0.719   0.509  1.00  0.00    -0.624 OA
HETATM   14  O7  UNL     1      17.646  -0.293   1.197  1.00  0.00    -0.624 OA
BRANCH  12  15
HETATM   15  O8  UNL     1      19.439   0.896   1.845  1.00  0.00    -0.173 OA
BRANCH  15  16
HETATM   16  P3  UNL     1      20.209   1.580   3.105  1.00  0.00     0.431 P 
HETATM   17  O9  UNL     1      20.280   3.270   3.219  1.00  0.00    -0.616 OA
HETATM   18  O10 UNL     1      21.169   0.741   4.133  1.00  0.00    -0.616 OA
HETATM   19  O11 UNL     1      18.963   1.616   3.971  1.00  0.00    -0.616 OA
ENDBRANCH  15  16
ENDBRANCH  12  15
ENDBRANCH  11  12
ENDBRANCH   8  11
ENDBRANCH   7   8
ENDBRANCH   6   7
ENDBRANCH   3   6
BRANCH   4  20
HETATM   20  O12 UNL     1      19.822  -4.481   6.653  1.00  0.00    -0.390 OA
ATOM     21  H12 UNL     1      20.403  -3.993   6.083  1.00  0.00     0.210 HD
ENDBRANCH   4  20
BRANCH   1  22
HETATM   22  N4  UNL     1      16.452  -7.491   5.725  1.00  0.00    -0.312 N 
HETATM   23  C3  UNL     1      15.351  -8.200   5.936  1.00  0.00     0.124 A 
HETATM   24  N3  UNL     1      14.362  -8.019   6.796  1.00  0.00    -0.338 N 
HETATM   25  C4  UNL     1      15.323  -9.274   5.039  1.00  0.00     0.051 A 
HETATM   26  C2  UNL     1      13.349  -8.903   6.752  1.00  0.00     0.183 A 
ATOM     27  H3  UNL     1      14.368  -7.245   7.460  1.00  0.00     0.168 HD
HETATM   28  N2  UNL     1      13.278  -9.914   5.924  1.00  0.00    -0.340 N 
HETATM   29  C1  UNL     1      14.277 -10.140   5.037  1.00  0.00     0.131 A 
ATOM     30  H2  UNL     1      12.469 -10.534   5.947  1.00  0.00     0.167 HD
HETATM   31  N1  UNL     1      14.213 -11.223   4.166  1.00  0.00    -0.082 NA
HETATM   32  C5  UNL     1      16.491  -9.160   4.293  1.00  0.00     0.036 A 
HETATM   33  C6  UNL     1      17.141  -8.078   4.739  1.00  0.00     0.096 A 
ENDBRANCH   1  22
BRANCH   5  34
HETATM   34  O13 UNL     1      18.246  -5.595   8.149  1.00  0.00    -0.388 OA
ATOM     35  H13 UNL     1      17.564  -5.965   8.697  1.00  0.00     0.210 HD
ENDBRANCH   5  34
TORSDOF 10
ENDMDL
