MODEL 1
REMARK VINA RESULT: -11.009281303      0.000      0.000
REMARK  10 active torsions:
REMARK  status: ('A' for Active; 'I' for Inactive)
REMARK    1  A    between atoms: N4_12  and  C7_13 
REMARK    2  A    between atoms: C8_15  and  C9_16 
REMARK    3  A    between atoms: C9_16  and  O2_17 
REMARK    4  A    between atoms: O2_17  and  P1_18 
REMARK    5  A    between atoms: P1_18  and  O5_21 
REMARK    6  A    between atoms: O5_21  and  P2_22 
REMARK    7  A    between atoms: P2_22  and  O8_25 
REMARK    8  A    between atoms: O8_25  and  P3_26 
REMARK    9  A    between atoms: C10_30  and  O12_31 
REMARK   10  A    between atoms: C11_33  and  O13_34 
ROOT
HETATM    1  C7  UNL     1      16.909  -6.235   6.122  1.00  0.00     0.261 C 
HETATM    2  O1  UNL     1      17.122  -5.365   5.109  1.00  0.00    -0.353 OA
HETATM    3  C8  UNL     1      18.431  -5.090   4.967  1.00  0.00     0.180 C 
HETATM    4  C10 UNL     1      19.201  -5.639   6.097  1.00  0.00     0.182 C 
HETATM    5  C11 UNL     1      18.151  -6.302   6.968  1.00  0.00     0.198 C 
ENDROOT
BRANCH   3   6
HETATM    6  C9  UNL     1      18.982  -5.655   3.636  1.00  0.00     0.216 C 
BRANCH   6   7
HETATM    7  O2  UNL     1      18.557  -4.697   2.694  1.00  0.00    -0.287 OA
BRANCH   7   8
HETATM    8  P1  UNL     1      19.454  -3.542   2.373  1.00  0.00     0.417 P 
HETATM    9  O3  UNL     1      18.211  -2.507   2.283  1.00  0.00    -0.624 OA
HETATM   10  O4  UNL     1      20.093  -4.224   1.062  1.00  0.00    -0.624 OA
BRANCH   8  11
HETATM   11  O5  UNL     1      20.475  -2.376   2.353  1.00  0.00    -0.180 OA
BRANCH  11  12
HETATM   12  P2  UNL     1      20.220  -0.888   2.308  1.00  0.00     0.428 P 
HETATM   13  O6  UNL     1      21.611  -0.574   3.100  1.00  0.00    -0.624 OA
HETATM   14  O7  UNL     1      20.266  -0.985   0.652  1.00  0.00    -0.624 OA
BRANCH  12  15
HETATM   15  O8  UNL     1      19.866   0.595   2.198  1.00  0.00    -0.173 OA
BRANCH  15  16
HETATM   16  P3  UNL     1      19.765   1.627   3.452  1.00  0.00     0.431 P 
HETATM   17  O9  UNL     1      20.276   3.232   3.253  1.00  0.00    -0.616 OA
HETATM   18  O10 UNL     1      19.461   1.147   4.988  1.00  0.00    -0.616 OA
HETATM   19  O11 UNL     1      18.359   2.075   3.095  1.00  0.00    -0.616 OA
ENDBRANCH  15  16
ENDBRANCH  12  15
ENDBRANCH  11  12
ENDBRANCH   8  11
ENDBRANCH   7   8
ENDBRANCH   6   7
ENDBRANCH   3   6
BRANCH   4  20
HETATM   20  O12 UNL     1      19.889  -4.648   6.815  1.00  0.00    -0.390 OA
ATOM     21  H12 UNL     1      20.764  -4.920   7.067  1.00  0.00     0.210 HD
ENDBRANCH   4  20
BRANCH   1  22
HETATM   22  N4  UNL     1      16.473  -7.482   5.558  1.00  0.00    -0.312 N 
HETATM   23  C3  UNL     1      15.403  -8.213   5.836  1.00  0.00     0.124 A 
HETATM   24  N3  UNL     1      14.450  -8.038   6.737  1.00  0.00    -0.338 N 
HETATM   25  C4  UNL     1      15.361  -9.306   4.963  1.00  0.00     0.051 A 
HETATM   26  C2  UNL     1      13.459  -8.948   6.760  1.00  0.00     0.183 A 
ATOM     27  H3  UNL     1      14.467  -7.251   7.385  1.00  0.00     0.168 HD
HETATM   28  N2  UNL     1      13.376  -9.978   5.957  1.00  0.00    -0.340 N 
HETATM   29  C1  UNL     1      14.338 -10.198   5.028  1.00  0.00     0.131 A 
ATOM     30  H2  UNL     1      12.585 -10.618   6.030  1.00  0.00     0.167 HD
HETATM   31  N1  UNL     1      14.262 -11.301   4.183  1.00  0.00    -0.082 NA
HETATM   32  C5  UNL     1      16.489  -9.180   4.160  1.00  0.00     0.036 A 
HETATM   33  C6  UNL     1      17.131  -8.072   4.554  1.00  0.00     0.096 A 
ENDBRANCH   1  22
BRANCH   5  34
HETATM   34  O13 UNL     1      17.974  -5.469   8.087  1.00  0.00    -0.388 OA
ATOM     35  H13 UNL     1      18.802  -5.047   8.283  1.00  0.00     0.210 HD
ENDBRANCH   5  34
TORSDOF 10
ENDMDL
