MODEL 5
REMARK VINA RESULT: -7.584832921      1.424      2.912
REMARK  10 active torsions:
REMARK  status: ('A' for Active; 'I' for Inactive)
REMARK    1  A    between atoms: N4_10  and  C5_11 
REMARK    2  A    between atoms: C6_13  and  C7_14 
REMARK    3  A    between atoms: C7_14  and  O2_15 
REMARK    4  A    between atoms: O2_15  and  P1_16 
REMARK    5  A    between atoms: P1_16  and  O5_19 
REMARK    6  A    between atoms: O5_19  and  P2_20 
REMARK    7  A    between atoms: P2_20  and  O8_23 
REMARK    8  A    between atoms: O8_23  and  P3_24 
REMARK    9  A    between atoms: C8_28  and  O12_29 
REMARK   10  A    between atoms: C9_31  and  O13_32 
ROOT
HETATM    1  C5  UNL     1      -0.352  -0.430 -24.658  1.00  0.00     0.262 C 
HETATM    2  O1  UNL     1      -1.361  -0.719 -23.743  1.00  0.00    -0.353 OA
HETATM    3  C6  UNL     1      -2.019   0.527 -23.682  1.00  0.00     0.180 C 
HETATM    4  C8  UNL     1      -2.286   0.804 -25.138  1.00  0.00     0.182 C 
HETATM    5  C9  UNL     1      -1.116   0.090 -25.829  1.00  0.00     0.198 C 
ENDROOT
BRANCH   1   6
HETATM    6  N4  UNL     1       0.469  -1.570 -24.973  1.00  0.00    -0.297 N 
HETATM    7  C2  UNL     1       1.796  -1.564 -25.139  1.00  0.00     0.146 A 
HETATM    8  N2  UNL     1       2.684  -0.557 -25.063  1.00  0.00    -0.314 N 
HETATM    9  C3  UNL     1       2.260  -2.834 -25.435  1.00  0.00     0.146 A 
HETATM   10  C1  UNL     1       3.985  -0.806 -25.272  1.00  0.00     0.196 A 
ATOM     11  H2  UNL     1       2.370   0.388 -24.847  1.00  0.00     0.170 HD
HETATM   12  N1  UNL     1       4.888   0.314 -25.177  1.00  0.00    -0.063 NA
HETATM   13  N5  UNL     1       4.449  -2.051 -25.563  1.00  0.00    -0.295 N 
HETATM   14  C10 UNL     1       3.596  -3.077 -25.647  1.00  0.00     0.278 A 
ATOM     15  H5  UNL     1       5.446  -2.201 -25.716  1.00  0.00     0.171 HD
HETATM   16  O14 UNL     1       4.032  -4.218 -25.916  1.00  0.00    -0.265 OA
HETATM   17  N3  UNL     1       1.148  -3.617 -25.441  1.00  0.00    -0.345 N 
HETATM   18  C4  UNL     1       0.065  -2.839 -25.160  1.00  0.00     0.188 A 
ATOM     19  H3  UNL     1       1.128  -4.620 -25.625  1.00  0.00     0.167 HD
ENDBRANCH   1   6
BRANCH   5  20
HETATM   20  O13 UNL     1      -0.356   1.020 -26.503  1.00  0.00    -0.388 OA
ATOM     21  H13 UNL     1      -0.202   1.773 -25.944  1.00  0.00     0.210 HD
ENDBRANCH   5  20
BRANCH   3  22
HETATM   22  C7  UNL     1      -3.265   0.348 -22.880  1.00  0.00     0.216 C 
BRANCH  22  23
HETATM   23  O2  UNL     1      -4.367   0.586 -23.636  1.00  0.00    -0.287 OA
BRANCH  23  24
HETATM   24  P1  UNL     1      -5.570  -0.546 -23.582  1.00  0.00     0.417 P 
HETATM   25  O3  UNL     1      -6.634   0.461 -23.966  1.00  0.00    -0.624 OA
HETATM   26  O4  UNL     1      -5.867  -1.408 -25.031  1.00  0.00    -0.624 OA
BRANCH  24  27
HETATM   27  O5  UNL     1      -6.228  -1.025 -22.211  1.00  0.00    -0.180 OA
BRANCH  27  28
HETATM   28  P2  UNL     1      -7.585  -0.761 -21.600  1.00  0.00     0.428 P 
HETATM   29  O6  UNL     1      -6.766  -0.672 -20.148  1.00  0.00    -0.624 OA
HETATM   30  O7  UNL     1      -8.210  -2.230 -21.988  1.00  0.00    -0.624 OA
BRANCH  28  31
HETATM   31  O8  UNL     1      -8.831  -0.293 -20.783  1.00  0.00    -0.173 OA
BRANCH  31  32
HETATM   32  P3  UNL     1      -8.777   1.420 -20.598  1.00  0.00     0.431 P 
HETATM   33  O9  UNL     1      -9.956   1.495 -21.577  1.00  0.00    -0.616 OA
HETATM   34  O10 UNL     1      -9.681   2.100 -19.418  1.00  0.00    -0.616 OA
HETATM   35  O11 UNL     1      -7.740   2.246 -21.482  1.00  0.00    -0.616 OA
ENDBRANCH  31  32
ENDBRANCH  28  31
ENDBRANCH  27  28
ENDBRANCH  24  27
ENDBRANCH  23  24
ENDBRANCH  22  23
ENDBRANCH   3  22
BRANCH   4  36
HETATM   36  O12 UNL     1      -2.223   2.180 -25.341  1.00  0.00    -0.390 OA
ATOM     37  H12 UNL     1      -2.968   2.579 -24.907  1.00  0.00     0.210 HD
ENDBRANCH   4  36
TORSDOF 10
ENDMDL
