MODEL 9
REMARK VINA RESULT: -7.438028018      1.616      2.888
REMARK  10 active torsions:
REMARK  status: ('A' for Active; 'I' for Inactive)
REMARK    1  A    between atoms: N4_10  and  C5_11 
REMARK    2  A    between atoms: C6_13  and  C7_14 
REMARK    3  A    between atoms: C7_14  and  O2_15 
REMARK    4  A    between atoms: O2_15  and  P1_16 
REMARK    5  A    between atoms: P1_16  and  O5_19 
REMARK    6  A    between atoms: O5_19  and  P2_20 
REMARK    7  A    between atoms: P2_20  and  O8_23 
REMARK    8  A    between atoms: O8_23  and  P3_24 
REMARK    9  A    between atoms: C8_28  and  O12_29 
REMARK   10  A    between atoms: C9_31  and  O13_32 
ROOT
HETATM    1  C5  UNL     1      -0.456  -0.445 -25.214  1.00  0.00     0.262 C 
HETATM    2  O1  UNL     1      -1.702  -0.738 -24.668  1.00  0.00    -0.353 OA
HETATM    3  C6  UNL     1      -2.310   0.535 -24.711  1.00  0.00     0.180 C 
HETATM    4  C8  UNL     1      -2.115   0.917 -26.155  1.00  0.00     0.182 C 
HETATM    5  C9  UNL     1      -0.814   0.189 -26.517  1.00  0.00     0.198 C 
ENDROOT
BRANCH   1   6
HETATM    6  N4  UNL     1       0.387  -1.604 -25.356  1.00  0.00    -0.297 N 
HETATM    7  C2  UNL     1       1.724  -1.609 -25.377  1.00  0.00     0.146 A 
HETATM    8  N2  UNL     1       2.605  -0.598 -25.277  1.00  0.00    -0.314 N 
HETATM    9  C3  UNL     1       2.208  -2.896 -25.529  1.00  0.00     0.146 A 
HETATM   10  C1  UNL     1       3.920  -0.860 -25.325  1.00  0.00     0.196 A 
ATOM     11  H2  UNL     1       2.276   0.360 -25.165  1.00  0.00     0.170 HD
HETATM   12  N1  UNL     1       4.815   0.265 -25.212  1.00  0.00    -0.063 NA
HETATM   13  N5  UNL     1       4.404  -2.122 -25.474  1.00  0.00    -0.295 N 
HETATM   14  C10 UNL     1       3.558  -3.153 -25.577  1.00  0.00     0.278 A 
ATOM     15  H5  UNL     1       5.410  -2.282 -25.507  1.00  0.00     0.171 HD
HETATM   16  O14 UNL     1       4.012  -4.310 -25.714  1.00  0.00    -0.265 OA
HETATM   17  N3  UNL     1       1.098  -3.678 -25.600  1.00  0.00    -0.345 N 
HETATM   18  C4  UNL     1      -0.003  -2.883 -25.495  1.00  0.00     0.188 A 
ATOM     19  H3  UNL     1       1.091  -4.692 -25.713  1.00  0.00     0.167 HD
ENDBRANCH   1   6
BRANCH   5  20
HETATM   20  O13 UNL     1       0.142   1.119 -26.858  1.00  0.00    -0.388 OA
ATOM     21  H13 UNL     1       0.142   1.249 -27.800  1.00  0.00     0.210 HD
ENDBRANCH   5  20
BRANCH   3  22
HETATM   22  C7  UNL     1      -3.745   0.370 -24.334  1.00  0.00     0.216 C 
BRANCH  22  23
HETATM   23  O2  UNL     1      -4.553   1.026 -25.205  1.00  0.00    -0.287 OA
BRANCH  23  24
HETATM   24  P1  UNL     1      -5.640   0.113 -26.050  1.00  0.00     0.417 P 
HETATM   25  O3  UNL     1      -6.787   1.049 -25.728  1.00  0.00    -0.624 OA
HETATM   26  O4  UNL     1      -5.810   0.481 -27.714  1.00  0.00    -0.624 OA
BRANCH  24  27
HETATM   27  O5  UNL     1      -6.286  -1.216 -25.450  1.00  0.00    -0.180 OA
BRANCH  27  28
HETATM   28  P2  UNL     1      -7.334  -1.431 -24.382  1.00  0.00     0.428 P 
HETATM   29  O6  UNL     1      -6.326  -2.640 -23.825  1.00  0.00    -0.624 OA
HETATM   30  O7  UNL     1      -8.514  -1.898 -25.426  1.00  0.00    -0.624 OA
BRANCH  28  31
HETATM   31  O8  UNL     1      -8.173  -1.707 -23.095  1.00  0.00    -0.173 OA
BRANCH  31  32
HETATM   32  P3  UNL     1      -7.474  -0.855 -21.769  1.00  0.00     0.431 P 
HETATM   33  O9  UNL     1      -8.746   0.002 -21.737  1.00  0.00    -0.616 OA
HETATM   34  O10 UNL     1      -7.771  -1.399 -20.256  1.00  0.00    -0.616 OA
HETATM   35  O11 UNL     1      -6.453   0.328 -22.081  1.00  0.00    -0.616 OA
ENDBRANCH  31  32
ENDBRANCH  28  31
ENDBRANCH  27  28
ENDBRANCH  24  27
ENDBRANCH  23  24
ENDBRANCH  22  23
ENDBRANCH   3  22
BRANCH   4  36
HETATM   36  O12 UNL     1      -1.952   2.299 -26.223  1.00  0.00    -0.390 OA
ATOM     37  H12 UNL     1      -2.218   2.588 -27.088  1.00  0.00     0.210 HD
ENDBRANCH   4  36
TORSDOF 10
ENDMDL
