MODEL 4
REMARK VINA RESULT: -7.637233280      1.312      2.577
REMARK  10 active torsions:
REMARK  status: ('A' for Active; 'I' for Inactive)
REMARK    1  A    between atoms: N4_10  and  C5_11 
REMARK    2  A    between atoms: C6_13  and  C7_14 
REMARK    3  A    between atoms: C7_14  and  O2_15 
REMARK    4  A    between atoms: O2_15  and  P1_16 
REMARK    5  A    between atoms: P1_16  and  O5_19 
REMARK    6  A    between atoms: O5_19  and  P2_20 
REMARK    7  A    between atoms: P2_20  and  O8_23 
REMARK    8  A    between atoms: O8_23  and  P3_24 
REMARK    9  A    between atoms: C8_28  and  O12_29 
REMARK   10  A    between atoms: C9_31  and  O13_32 
ROOT
HETATM    1  C5  UNL     1      -0.347  -0.719 -24.659  1.00  0.00     0.262 C 
HETATM    2  O1  UNL     1      -1.482  -1.099 -23.949  1.00  0.00    -0.353 OA
HETATM    3  C6  UNL     1      -2.155   0.138 -23.854  1.00  0.00     0.180 C 
HETATM    4  C8  UNL     1      -2.195   0.574 -25.296  1.00  0.00     0.182 C 
HETATM    5  C9  UNL     1      -0.925  -0.068 -25.871  1.00  0.00     0.198 C 
ENDROOT
BRANCH   1   6
HETATM    6  N4  UNL     1       0.525  -1.823 -24.966  1.00  0.00    -0.297 N 
HETATM    7  C2  UNL     1       1.845  -1.753 -25.166  1.00  0.00     0.146 A 
HETATM    8  N2  UNL     1       2.681  -0.700 -25.140  1.00  0.00    -0.314 N 
HETATM    9  C3  UNL     1       2.367  -3.005 -25.441  1.00  0.00     0.146 A 
HETATM   10  C1  UNL     1       3.988  -0.886 -25.377  1.00  0.00     0.196 A 
ATOM     11  H2  UNL     1       2.323   0.234 -24.941  1.00  0.00     0.170 HD
HETATM   12  N1  UNL     1       4.833   0.281 -25.334  1.00  0.00    -0.063 NA
HETATM   13  N5  UNL     1       4.509  -2.113 -25.647  1.00  0.00    -0.295 N 
HETATM   14  C10 UNL     1       3.709  -3.184 -25.683  1.00  0.00     0.278 A 
ATOM     15  H5  UNL     1       5.508  -2.216 -25.822  1.00  0.00     0.171 HD
HETATM   16  O14 UNL     1       4.197  -4.308 -25.932  1.00  0.00    -0.265 OA
HETATM   17  N3  UNL     1       1.298  -3.844 -25.398  1.00  0.00    -0.345 N 
HETATM   18  C4  UNL     1       0.183  -3.116 -25.109  1.00  0.00     0.188 A 
ATOM     19  H3  UNL     1       1.326  -4.852 -25.556  1.00  0.00     0.167 HD
ENDBRANCH   1   6
BRANCH   5  20
HETATM   20  O13 UNL     1      -0.080   0.926 -26.312  1.00  0.00    -0.388 OA
ATOM     21  H13 UNL     1       0.492   1.198 -25.603  1.00  0.00     0.210 HD
ENDBRANCH   5  20
BRANCH   3  22
HETATM   22  C7  UNL     1      -3.508  -0.120 -23.280  1.00  0.00     0.216 C 
BRANCH  22  23
HETATM   23  O2  UNL     1      -4.450  -0.155 -24.256  1.00  0.00    -0.287 OA
BRANCH  23  24
HETATM   24  P1  UNL     1      -5.002  -1.646 -24.708  1.00  0.00     0.417 P 
HETATM   25  O3  UNL     1      -5.541  -1.127 -26.026  1.00  0.00    -0.624 OA
HETATM   26  O4  UNL     1      -3.895  -2.640 -25.556  1.00  0.00    -0.624 OA
BRANCH  24  27
HETATM   27  O5  UNL     1      -6.369  -2.253 -24.154  1.00  0.00    -0.180 OA
BRANCH  27  28
HETATM   28  P2  UNL     1      -7.383  -1.716 -23.171  1.00  0.00     0.428 P 
HETATM   29  O6  UNL     1      -8.039  -3.251 -23.213  1.00  0.00    -0.624 OA
HETATM   30  O7  UNL     1      -8.033  -0.623 -24.212  1.00  0.00    -0.624 OA
BRANCH  28  31
HETATM   31  O8  UNL     1      -8.410  -1.443 -22.027  1.00  0.00    -0.173 OA
BRANCH  31  32
HETATM   32  P3  UNL     1      -7.815  -0.174 -21.022  1.00  0.00     0.431 P 
HETATM   33  O9  UNL     1      -7.201  -1.260 -20.129  1.00  0.00    -0.616 OA
HETATM   34  O10 UNL     1      -6.332   0.436 -21.343  1.00  0.00    -0.616 OA
HETATM   35  O11 UNL     1      -8.791   0.447 -19.926  1.00  0.00    -0.616 OA
ENDBRANCH  31  32
ENDBRANCH  28  31
ENDBRANCH  27  28
ENDBRANCH  24  27
ENDBRANCH  23  24
ENDBRANCH  22  23
ENDBRANCH   3  22
BRANCH   4  36
HETATM   36  O12 UNL     1      -2.116   1.964 -25.334  1.00  0.00    -0.390 OA
ATOM     37  H12 UNL     1      -2.880   2.293 -25.792  1.00  0.00     0.210 HD
ENDBRANCH   4  36
TORSDOF 10
ENDMDL
