MODEL 2
REMARK VINA RESULT: -8.141150915      1.192      1.568
REMARK  9 active torsions:
REMARK  status: ('A' for Active; 'I' for Inactive)
REMARK    1  A    between atoms: N5_13  and  C6_14 
REMARK    2  A    between atoms: C8_16  and  O1_17 
REMARK    3  A    between atoms: C9_19  and  C10_20 
REMARK    4  A    between atoms: C10_20  and  O2_21 
REMARK    5  A    between atoms: O2_21  and  P1_22 
REMARK    6  A    between atoms: P1_22  and  O5_25 
REMARK    7  A    between atoms: O5_25  and  P2_26 
REMARK    8  A    between atoms: P2_26  and  O8_29 
REMARK    9  A    between atoms: O8_29  and  P3_30 
ROOT
HETATM    1  C6  UNL     1      15.512 -10.992   3.027  1.00  0.00     0.233 C 
HETATM    2  C7  UNL     1      14.908 -10.644   1.708  1.00  0.00     0.088 C 
HETATM    3  C8  UNL     1      16.121 -10.452   0.823  1.00  0.00     0.153 C 
HETATM    4  C9  UNL     1      17.143 -11.321   1.538  1.00  0.00     0.177 C 
HETATM    5  O12 UNL     1      16.889 -11.029   2.871  1.00  0.00    -0.356 OA
ENDROOT
BRANCH   4   6
HETATM    6  C10 UNL     1      18.560 -10.865   1.213  1.00  0.00     0.216 C 
BRANCH   6   7
HETATM    7  O2  UNL     1      19.088 -10.286   2.332  1.00  0.00    -0.287 OA
BRANCH   7   8
HETATM    8  P1  UNL     1      20.387 -11.045   2.898  1.00  0.00     0.417 P 
HETATM    9  O3  UNL     1      20.544 -12.033   1.726  1.00  0.00    -0.624 OA
HETATM   10  O4  UNL     1      20.491 -10.166   4.151  1.00  0.00    -0.624 OA
BRANCH   8  11
HETATM   11  O5  UNL     1      21.916 -10.481   2.494  1.00  0.00    -0.180 OA
BRANCH  11  12
HETATM   12  P2  UNL     1      22.976 -10.529   3.610  1.00  0.00     0.428 P 
HETATM   13  O6  UNL     1      23.761  -9.296   2.802  1.00  0.00    -0.624 OA
HETATM   14  O7  UNL     1      23.430 -12.064   3.296  1.00  0.00    -0.624 OA
BRANCH  12  15
HETATM   15  O8  UNL     1      24.109 -10.364   4.643  1.00  0.00    -0.173 OA
BRANCH  15  16
HETATM   16  P3  UNL     1      23.873 -10.291   6.257  1.00  0.00     0.431 P 
HETATM   17  O9  UNL     1      22.395 -10.157   6.938  1.00  0.00    -0.616 OA
HETATM   18  O10 UNL     1      25.193 -10.565   7.287  1.00  0.00    -0.616 OA
HETATM   19  O11 UNL     1      24.231  -8.802   6.304  1.00  0.00    -0.616 OA
ENDBRANCH  15  16
ENDBRANCH  12  15
ENDBRANCH  11  12
ENDBRANCH   8  11
ENDBRANCH   7   8
ENDBRANCH   6   7
ENDBRANCH   4   6
BRANCH   3  20
HETATM   20  O1  UNL     1      15.889 -10.902  -0.474  1.00  0.00    -0.393 OA
ATOM     21  H1  UNL     1      16.527 -10.555  -1.086  1.00  0.00     0.210 HD
ENDBRANCH   3  20
BRANCH   1  22
HETATM   22  N5  UNL     1      15.182  -9.947   3.980  1.00  0.00    -0.300 N 
HETATM   23  C3  UNL     1      15.745  -8.741   4.081  1.00  0.00     0.142 A 
HETATM   24  N3  UNL     1      16.722  -8.167   3.378  1.00  0.00    -0.336 N 
HETATM   25  C4  UNL     1      15.159  -8.025   5.115  1.00  0.00     0.119 A 
HETATM   26  C2  UNL     1      17.146  -6.907   3.658  1.00  0.00     0.183 A 
ATOM     27  H3  UNL     1      17.160  -8.683   2.616  1.00  0.00     0.168 HD
HETATM   28  N2  UNL     1      16.567  -6.228   4.664  1.00  0.00    -0.339 N 
HETATM   29  C1  UNL     1      15.578  -6.750   5.409  1.00  0.00     0.148 A 
ATOM     30  H2  UNL     1      16.890  -5.282   4.870  1.00  0.00     0.167 HD
HETATM   31  N1  UNL     1      15.027  -5.964   6.447  1.00  0.00    -0.080 NA
HETATM   32  N4  UNL     1      14.230  -8.828   5.635  1.00  0.00    -0.346 N 
HETATM   33  C5  UNL     1      14.237  -9.996   4.952  1.00  0.00     0.188 A 
ATOM     34  H4  UNL     1      13.617  -8.600   6.418  1.00  0.00     0.167 HD
ENDBRANCH   1  22
TORSDOF 9
ENDMDL
