MODEL 1
REMARK VINA RESULT: -8.279255591      0.000      0.000
REMARK  9 active torsions:
REMARK  status: ('A' for Active; 'I' for Inactive)
REMARK    1  A    between atoms: N5_13  and  C6_14 
REMARK    2  A    between atoms: C8_16  and  O1_17 
REMARK    3  A    between atoms: C9_19  and  C10_20 
REMARK    4  A    between atoms: C10_20  and  O2_21 
REMARK    5  A    between atoms: O2_21  and  P1_22 
REMARK    6  A    between atoms: P1_22  and  O5_25 
REMARK    7  A    between atoms: O5_25  and  P2_26 
REMARK    8  A    between atoms: P2_26  and  O8_29 
REMARK    9  A    between atoms: O8_29  and  P3_30 
ROOT
HETATM    1  C6  UNL     1      15.418 -11.073   2.991  1.00  0.00     0.233 C 
HETATM    2  C7  UNL     1      14.824 -10.676   1.682  1.00  0.00     0.088 C 
HETATM    3  C8  UNL     1      16.042 -10.456   0.812  1.00  0.00     0.153 C 
HETATM    4  C9  UNL     1      17.058 -11.353   1.501  1.00  0.00     0.177 C 
HETATM    5  O12 UNL     1      16.796 -11.108   2.843  1.00  0.00    -0.356 OA
ENDROOT
BRANCH   4   6
HETATM    6  C10 UNL     1      18.478 -10.890   1.201  1.00  0.00     0.216 C 
BRANCH   6   7
HETATM    7  O2  UNL     1      19.267 -11.997   1.064  1.00  0.00    -0.287 OA
BRANCH   7   8
HETATM    8  P1  UNL     1      20.640 -11.918   1.895  1.00  0.00     0.417 P 
HETATM    9  O3  UNL     1      21.559 -11.614   0.695  1.00  0.00    -0.624 OA
HETATM   10  O4  UNL     1      19.964 -12.162   3.249  1.00  0.00    -0.624 OA
BRANCH   8  11
HETATM   11  O5  UNL     1      21.142 -10.444   2.521  1.00  0.00    -0.180 OA
BRANCH  11  12
HETATM   12  P2  UNL     1      21.342 -10.386   4.047  1.00  0.00     0.428 P 
HETATM   13  O6  UNL     1      20.201  -9.166   4.067  1.00  0.00    -0.624 OA
HETATM   14  O7  UNL     1      22.916  -9.963   3.959  1.00  0.00    -0.624 OA
BRANCH  12  15
HETATM   15  O8  UNL     1      21.339 -10.201   5.579  1.00  0.00    -0.173 OA
BRANCH  15  16
HETATM   16  P3  UNL     1      21.690 -11.387   6.644  1.00  0.00     0.431 P 
HETATM   17  O9  UNL     1      20.709 -11.789   7.886  1.00  0.00    -0.616 OA
HETATM   18  O10 UNL     1      23.030 -12.384   6.343  1.00  0.00    -0.616 OA
HETATM   19  O11 UNL     1      22.630 -10.478   7.441  1.00  0.00    -0.616 OA
ENDBRANCH  15  16
ENDBRANCH  12  15
ENDBRANCH  11  12
ENDBRANCH   8  11
ENDBRANCH   7   8
ENDBRANCH   6   7
ENDBRANCH   4   6
BRANCH   3  20
HETATM   20  O1  UNL     1      15.817 -10.858  -0.501  1.00  0.00    -0.393 OA
ATOM     21  H1  UNL     1      16.631 -11.034  -0.959  1.00  0.00     0.210 HD
ENDBRANCH   3  20
BRANCH   1  22
HETATM   22  N5  UNL     1      15.086 -10.062   3.979  1.00  0.00    -0.300 N 
HETATM   23  C3  UNL     1      15.629  -8.850   4.107  1.00  0.00     0.142 A 
HETATM   24  N3  UNL     1      16.585  -8.239   3.407  1.00  0.00    -0.336 N 
HETATM   25  C4  UNL     1      15.047  -8.174   5.170  1.00  0.00     0.119 A 
HETATM   26  C2  UNL     1      16.991  -6.980   3.717  1.00  0.00     0.183 A 
ATOM     27  H3  UNL     1      17.020  -8.725   2.623  1.00  0.00     0.168 HD
HETATM   28  N2  UNL     1      16.416  -6.340   4.751  1.00  0.00    -0.339 N 
HETATM   29  C1  UNL     1      15.449  -6.901   5.495  1.00  0.00     0.148 A 
ATOM     30  H2  UNL     1      16.727  -5.396   4.979  1.00  0.00     0.167 HD
HETATM   31  N1  UNL     1      14.900  -6.156   6.563  1.00  0.00    -0.080 NA
HETATM   32  N4  UNL     1      14.140  -9.008   5.680  1.00  0.00    -0.346 N 
HETATM   33  C5  UNL     1      14.157 -10.155   4.964  1.00  0.00     0.188 A 
ATOM     34  H4  UNL     1      13.535  -8.814   6.478  1.00  0.00     0.167 HD
ENDBRANCH   1  22
TORSDOF 9
ENDMDL
