MODEL 3
REMARK VINA RESULT: -8.100208545      2.413      3.657
REMARK  9 active torsions:
REMARK  status: ('A' for Active; 'I' for Inactive)
REMARK    1  A    between atoms: N5_13  and  C6_14 
REMARK    2  A    between atoms: C8_16  and  O1_17 
REMARK    3  A    between atoms: C9_19  and  C10_20 
REMARK    4  A    between atoms: C10_20  and  O2_21 
REMARK    5  A    between atoms: O2_21  and  P1_22 
REMARK    6  A    between atoms: P1_22  and  O5_25 
REMARK    7  A    between atoms: O5_25  and  P2_26 
REMARK    8  A    between atoms: P2_26  and  O8_29 
REMARK    9  A    between atoms: O8_29  and  P3_30 
ROOT
HETATM    1  C6  UNL     1      15.364 -10.286   4.104  1.00  0.00     0.233 C 
HETATM    2  C7  UNL     1      14.298 -10.463   3.077  1.00  0.00     0.088 C 
HETATM    3  C8  UNL     1      15.082 -10.515   1.784  1.00  0.00     0.153 C 
HETATM    4  C9  UNL     1      16.431 -11.008   2.281  1.00  0.00     0.177 C 
HETATM    5  O12 UNL     1      16.589 -10.284   3.455  1.00  0.00    -0.356 OA
ENDROOT
BRANCH   4   6
HETATM    6  C10 UNL     1      17.541 -10.603   1.319  1.00  0.00     0.216 C 
BRANCH   6   7
HETATM    7  O2  UNL     1      17.586 -11.523   0.309  1.00  0.00    -0.287 OA
BRANCH   7   8
HETATM    8  P1  UNL     1      17.953 -10.891  -1.122  1.00  0.00     0.417 P 
HETATM    9  O3  UNL     1      18.653  -9.626  -0.587  1.00  0.00    -0.624 OA
HETATM   10  O4  UNL     1      17.358 -12.061  -1.915  1.00  0.00    -0.624 OA
BRANCH   8  11
HETATM   11  O5  UNL     1      19.419 -11.273  -1.844  1.00  0.00    -0.180 OA
BRANCH  11  12
HETATM   12  P2  UNL     1      20.435 -12.026  -0.964  1.00  0.00     0.428 P 
HETATM   13  O6  UNL     1      21.497 -10.772  -1.263  1.00  0.00    -0.624 OA
HETATM   14  O7  UNL     1      20.502 -13.337  -1.932  1.00  0.00    -0.624 OA
BRANCH  12  15
HETATM   15  O8  UNL     1      21.573 -12.573  -0.079  1.00  0.00    -0.173 OA
BRANCH  15  16
HETATM   16  P3  UNL     1      21.687 -12.316   1.530  1.00  0.00     0.431 P 
HETATM   17  O9  UNL     1      22.455 -13.338   2.545  1.00  0.00    -0.616 OA
HETATM   18  O10 UNL     1      21.164 -10.828   2.156  1.00  0.00    -0.616 OA
HETATM   19  O11 UNL     1      20.270 -12.842   1.777  1.00  0.00    -0.616 OA
ENDBRANCH  15  16
ENDBRANCH  12  15
ENDBRANCH  11  12
ENDBRANCH   8  11
ENDBRANCH   7   8
ENDBRANCH   6   7
ENDBRANCH   4   6
BRANCH   3  20
HETATM   20  O1  UNL     1      14.518 -11.405   0.875  1.00  0.00    -0.393 OA
ATOM     21  H1  UNL     1      15.030 -12.202   0.800  1.00  0.00     0.210 HD
ENDBRANCH   3  20
BRANCH   1  22
HETATM   22  N5  UNL     1      15.181  -8.997   4.748  1.00  0.00    -0.300 N 
HETATM   23  C3  UNL     1      15.835  -7.863   4.485  1.00  0.00     0.142 A 
HETATM   24  N3  UNL     1      16.796  -7.590   3.602  1.00  0.00    -0.336 N 
HETATM   25  C4  UNL     1      15.379  -6.845   5.309  1.00  0.00     0.119 A 
HETATM   26  C2  UNL     1      17.329  -6.345   3.502  1.00  0.00     0.183 A 
ATOM     27  H3  UNL     1      17.139  -8.331   2.990  1.00  0.00     0.168 HD
HETATM   28  N2  UNL     1      16.875  -5.369   4.310  1.00  0.00    -0.339 N 
HETATM   29  C1  UNL     1      15.909  -5.581   5.218  1.00  0.00     0.148 A 
ATOM     30  H2  UNL     1      17.280  -4.436   4.230  1.00  0.00     0.167 HD
HETATM   31  N1  UNL     1      15.492  -4.498   6.026  1.00  0.00    -0.080 NA
HETATM   32  N4  UNL     1      14.435  -7.391   6.077  1.00  0.00    -0.346 N 
HETATM   33  C5  UNL     1      14.309  -8.696   5.743  1.00  0.00     0.188 A 
ATOM     34  H4  UNL     1      13.899  -6.906   6.796  1.00  0.00     0.167 HD
ENDBRANCH   1  22
TORSDOF 9
ENDMDL
