MODEL 8
REMARK VINA RESULT: -8.934942967      2.848     10.982
REMARK  8 active torsions:
REMARK  status: ('A' for Active; 'I' for Inactive)
REMARK    1  A    between atoms: C2_2  and  N1_3 
REMARK       I    between atoms: N1_3  and  C3_5 
REMARK    2  A    between atoms: C3_5  and  C4_7 
REMARK    3  A    between atoms: C5_8  and  C6_9 
REMARK    4  A    between atoms: C14_20  and  N3_21 
REMARK    5  A    between atoms: C14_20  and  C24_33 
REMARK    6  A    between atoms: N3_21  and  C15_23 
REMARK    7  A    between atoms: C18_26  and  C19_27 
REMARK    8  A    between atoms: C19_27  and  N4_28 
ROOT
HETATM    1  C6  UNL     1      40.453  54.241  58.250  1.00  0.00     0.020 A 
HETATM    2  C7  UNL     1      39.423  55.179  58.280  1.00  0.00     0.022 A 
HETATM    3  C8  UNL     1      38.310  54.987  59.073  1.00  0.00     0.016 A 
HETATM    4  C9  UNL     1      38.202  53.858  59.849  1.00  0.00     0.009 A 
HETATM    5  C10 UNL     1      39.215  52.894  59.849  1.00  0.00     0.047 A 
HETATM    6  C11 UNL     1      40.317  53.121  59.040  1.00  0.00     0.051 A 
HETATM    7  N2  UNL     1      38.897  51.837  60.746  1.00  0.00    -0.322 N 
ATOM      8  H2  UNL     1      39.474  51.015  60.929  1.00  0.00     0.169 HD
HETATM    9  C12 UNL     1      37.646  52.117  61.342  1.00  0.00     0.259 A 
HETATM   10  O2  UNL     1      37.008  51.450  62.182  1.00  0.00    -0.267 OA
HETATM   11  C13 UNL     1      37.171  53.409  60.783  1.00  0.00     0.072 A 
HETATM   12  C14 UNL     1      35.997  53.951  61.020  1.00  0.00     0.059 C 
ENDROOT
BRANCH  12  13
HETATM   13  N3  UNL     1      35.157  53.322  62.013  1.00  0.00    -0.355 N 
ATOM     14  H3  UNL     1      35.242  52.316  62.154  1.00  0.00     0.166 HD
BRANCH  13  15
HETATM   15  C15 UNL     1      34.221  54.035  62.802  1.00  0.00     0.032 A 
HETATM   16  C16 UNL     1      32.857  53.970  62.633  1.00  0.00     0.030 A 
HETATM   17  C17 UNL     1      32.001  54.716  63.449  1.00  0.00     0.011 A 
HETATM   18  C18 UNL     1      32.483  55.539  64.443  1.00  0.00    -0.030 A 
HETATM   19  C22 UNL     1      33.845  55.610  64.617  1.00  0.00     0.011 A 
HETATM   20  C23 UNL     1      34.676  54.870  63.808  1.00  0.00     0.030 A 
BRANCH  18  21
HETATM   21  C19 UNL     1      31.518  56.286  65.246  1.00  0.00     0.309 C 
BRANCH  21  22
HETATM   22  N4  UNL     1      31.917  57.573  65.694  1.00  0.00     0.084 N 
HETATM   23  C20 UNL     1      32.462  58.428  64.697  1.00  0.00     0.309 C 
HETATM   24  C21 UNL     1      30.966  58.204  66.577  1.00  0.00     0.309 C 
ENDBRANCH  21  22
ENDBRANCH  18  21
ENDBRANCH  13  15
ENDBRANCH  12  13
BRANCH  12  25
HETATM   25  C24 UNL     1      35.457  55.062  60.231  1.00  0.00    -0.008 A 
HETATM   26  C25 UNL     1      34.750  54.749  59.071  1.00  0.00     0.014 A 
HETATM   27  C26 UNL     1      34.219  55.758  58.310  1.00  0.00     0.001 A 
HETATM   28  C27 UNL     1      34.372  57.085  58.674  1.00  0.00     0.000 A 
HETATM   29  C28 UNL     1      35.078  57.371  59.828  1.00  0.00     0.001 A 
HETATM   30  C29 UNL     1      35.608  56.366  60.587  1.00  0.00     0.014 A 
ENDBRANCH  12  25
BRANCH   1  31
HETATM   31  C5  UNL     1      41.608  54.439  57.424  1.00  0.00    -0.057 C 
HETATM   32  C4  UNL     1      42.587  54.607  56.750  1.00  0.00    -0.000 C 
BRANCH  32  33
HETATM   33  C3  UNL     1      43.771  54.823  55.962  1.00  0.00     0.296 C 
HETATM   34  N1  UNL     1      44.980  54.114  56.215  1.00  0.00    -0.351 N 
ATOM     35  H1  UNL     1      45.006  53.436  56.977  1.00  0.00     0.163 HD
HETATM   36  O1  UNL     1      43.784  55.652  55.008  1.00  0.00    -0.258 OA
BRANCH  34  37
HETATM   37  C2  UNL     1      46.179  54.331  55.418  1.00  0.00     0.119 C 
HETATM   38  C1  UNL     1      47.306  53.479  55.949  1.00  0.00     0.026 C 
ENDBRANCH  34  37
ENDBRANCH  32  33
ENDBRANCH   1  31
TORSDOF 8
ENDMDL
