MODEL 5
REMARK VINA RESULT: -9.196515249      2.409     11.154
REMARK  8 active torsions:
REMARK  status: ('A' for Active; 'I' for Inactive)
REMARK    1  A    between atoms: C2_2  and  N1_3 
REMARK       I    between atoms: N1_3  and  C3_5 
REMARK    2  A    between atoms: C3_5  and  C4_7 
REMARK    3  A    between atoms: C5_8  and  C6_9 
REMARK    4  A    between atoms: C14_20  and  N3_21 
REMARK    5  A    between atoms: C14_20  and  C24_33 
REMARK    6  A    between atoms: N3_21  and  C15_23 
REMARK    7  A    between atoms: C18_26  and  C19_27 
REMARK    8  A    between atoms: C19_27  and  N4_28 
ROOT
HETATM    1  C6  UNL     1      40.075  52.829  58.256  1.00  0.00     0.020 A 
HETATM    2  C7  UNL     1      39.254  53.954  58.296  1.00  0.00     0.022 A 
HETATM    3  C8  UNL     1      38.214  54.044  59.198  1.00  0.00     0.016 A 
HETATM    4  C9  UNL     1      37.970  53.016  60.075  1.00  0.00     0.009 A 
HETATM    5  C10 UNL     1      38.773  51.870  60.070  1.00  0.00     0.047 A 
HETATM    6  C11 UNL     1      39.807  51.815  59.150  1.00  0.00     0.051 A 
HETATM    7  N2  UNL     1      38.351  50.961  61.080  1.00  0.00    -0.322 N 
ATOM      8  H2  UNL     1      38.774  50.055  61.282  1.00  0.00     0.169 HD
HETATM    9  C12 UNL     1      37.246  51.527  61.758  1.00  0.00     0.259 A 
HETATM   10  O2  UNL     1      36.582  51.060  62.706  1.00  0.00    -0.267 OA
HETATM   11  C13 UNL     1      36.975  52.847  61.133  1.00  0.00     0.072 A 
HETATM   12  C14 UNL     1      35.960  53.629  61.425  1.00  0.00     0.059 C 
ENDROOT
BRANCH  12  13
HETATM   13  N3  UNL     1      35.122  53.251  62.540  1.00  0.00    -0.355 N 
ATOM     14  H3  UNL     1      35.241  52.322  62.943  1.00  0.00     0.166 HD
BRANCH  13  15
HETATM   15  C15 UNL     1      34.142  54.107  63.099  1.00  0.00     0.032 A 
HETATM   16  C16 UNL     1      34.419  55.132  63.975  1.00  0.00     0.030 A 
HETATM   17  C17 UNL     1      33.390  55.925  64.492  1.00  0.00     0.011 A 
HETATM   18  C18 UNL     1      32.073  55.717  64.149  1.00  0.00    -0.030 A 
HETATM   19  C22 UNL     1      31.788  54.695  63.274  1.00  0.00     0.011 A 
HETATM   20  C23 UNL     1      32.809  53.921  62.773  1.00  0.00     0.030 A 
BRANCH  18  21
HETATM   21  C19 UNL     1      31.061  56.591  64.738  1.00  0.00     0.309 C 
BRANCH  21  22
HETATM   22  N4  UNL     1      30.974  56.609  66.155  1.00  0.00     0.084 N 
HETATM   23  C20 UNL     1      30.863  57.897  66.747  1.00  0.00     0.309 C 
HETATM   24  C21 UNL     1      30.081  55.614  66.697  1.00  0.00     0.309 C 
ENDBRANCH  21  22
ENDBRANCH  18  21
ENDBRANCH  13  15
ENDBRANCH  12  13
BRANCH  12  25
HETATM   25  C24 UNL     1      35.566  54.770  60.593  1.00  0.00    -0.008 A 
HETATM   26  C25 UNL     1      34.679  54.531  59.543  1.00  0.00     0.014 A 
HETATM   27  C26 UNL     1      34.277  55.572  58.748  1.00  0.00     0.001 A 
HETATM   28  C27 UNL     1      34.736  56.860  58.970  1.00  0.00     0.000 A 
HETATM   29  C28 UNL     1      35.614  57.073  60.016  1.00  0.00     0.001 A 
HETATM   30  C29 UNL     1      36.016  56.035  60.809  1.00  0.00     0.014 A 
ENDBRANCH  12  25
BRANCH   1  31
HETATM   31  C5  UNL     1      41.153  52.734  57.318  1.00  0.00    -0.057 C 
HETATM   32  C4  UNL     1      42.047  52.640  56.521  1.00  0.00    -0.000 C 
BRANCH  32  33
HETATM   33  C3  UNL     1      43.110  52.501  55.562  1.00  0.00     0.296 C 
HETATM   34  N1  UNL     1      44.353  51.897  55.904  1.00  0.00    -0.351 N 
ATOM     35  H1  UNL     1      44.493  51.553  56.854  1.00  0.00     0.163 HD
HETATM   36  O1  UNL     1      42.982  52.911  54.374  1.00  0.00    -0.258 OA
BRANCH  34  37
HETATM   37  C2  UNL     1      45.431  51.755  54.934  1.00  0.00     0.119 C 
HETATM   38  C1  UNL     1      46.729  51.476  55.651  1.00  0.00     0.026 C 
ENDBRANCH  34  37
ENDBRANCH  32  33
ENDBRANCH   1  31
TORSDOF 8
ENDMDL
