MODEL 3
REMARK VINA RESULT: -9.706358299      1.038      1.274
REMARK  8 active torsions:
REMARK  status: ('A' for Active; 'I' for Inactive)
REMARK    1  A    between atoms: C2_2  and  N1_3 
REMARK       I    between atoms: N1_3  and  C3_5 
REMARK    2  A    between atoms: C3_5  and  C4_7 
REMARK    3  A    between atoms: C5_8  and  C6_9 
REMARK    4  A    between atoms: C14_20  and  N3_21 
REMARK    5  A    between atoms: C14_20  and  C24_33 
REMARK    6  A    between atoms: N3_21  and  C15_23 
REMARK    7  A    between atoms: C18_26  and  C19_27 
REMARK    8  A    between atoms: C19_27  and  N4_28 
ROOT
HETATM    1  C6  UNL     1      35.528  53.797  62.339  1.00  0.00     0.020 A 
HETATM    2  C7  UNL     1      36.412  54.397  61.444  1.00  0.00     0.022 A 
HETATM    3  C8  UNL     1      37.323  53.645  60.732  1.00  0.00     0.016 A 
HETATM    4  C9  UNL     1      37.373  52.281  60.899  1.00  0.00     0.009 A 
HETATM    5  C10 UNL     1      36.501  51.640  61.785  1.00  0.00     0.047 A 
HETATM    6  C11 UNL     1      35.601  52.429  62.482  1.00  0.00     0.051 A 
HETATM    7  N2  UNL     1      36.717  50.234  61.767  1.00  0.00    -0.322 N 
ATOM      8  H2  UNL     1      36.209  49.545  62.321  1.00  0.00     0.169 HD
HETATM    9  C12 UNL     1      37.756  49.953  60.849  1.00  0.00     0.259 A 
HETATM   10  O2  UNL     1      38.250  48.851  60.535  1.00  0.00    -0.267 OA
HETATM   11  C13 UNL     1      38.201  51.249  60.276  1.00  0.00     0.072 A 
HETATM   12  C14 UNL     1      39.218  51.407  59.461  1.00  0.00     0.059 C 
ENDROOT
BRANCH  12  13
HETATM   13  N3  UNL     1      39.868  50.217  58.962  1.00  0.00    -0.355 N 
ATOM     14  H3  UNL     1      39.606  49.317  59.363  1.00  0.00     0.166 HD
BRANCH  13  15
HETATM   15  C15 UNL     1      40.852  50.239  57.943  1.00  0.00     0.032 A 
HETATM   16  C16 UNL     1      40.718  50.914  56.751  1.00  0.00     0.030 A 
HETATM   17  C17 UNL     1      41.734  50.875  55.792  1.00  0.00     0.011 A 
HETATM   18  C18 UNL     1      42.898  50.169  55.997  1.00  0.00    -0.030 A 
HETATM   19  C22 UNL     1      43.039  49.491  57.186  1.00  0.00     0.011 A 
HETATM   20  C23 UNL     1      42.032  49.537  58.122  1.00  0.00     0.030 A 
BRANCH  18  21
HETATM   21  C19 UNL     1      43.906  50.180  54.940  1.00  0.00     0.309 C 
BRANCH  21  22
HETATM   22  N4  UNL     1      43.446  49.983  53.612  1.00  0.00     0.084 N 
HETATM   23  C20 UNL     1      44.126  50.727  52.609  1.00  0.00     0.309 C 
HETATM   24  C21 UNL     1      43.202  48.600  53.278  1.00  0.00     0.309 C 
ENDBRANCH  21  22
ENDBRANCH  18  21
ENDBRANCH  13  15
ENDBRANCH  12  13
BRANCH  12  25
HETATM   25  C24 UNL     1      39.800  52.717  59.154  1.00  0.00    -0.008 A 
HETATM   26  C25 UNL     1      39.231  53.452  58.115  1.00  0.00     0.014 A 
HETATM   27  C26 UNL     1      39.738  54.687  57.803  1.00  0.00     0.001 A 
HETATM   28  C27 UNL     1      40.807  55.218  58.504  1.00  0.00     0.000 A 
HETATM   29  C28 UNL     1      41.356  54.472  59.530  1.00  0.00     0.001 A 
HETATM   30  C29 UNL     1      40.852  53.241  59.842  1.00  0.00     0.014 A 
ENDBRANCH  12  25
BRANCH   1  31
HETATM   31  C5  UNL     1      34.584  54.579  63.080  1.00  0.00    -0.057 C 
HETATM   32  C4  UNL     1      33.798  55.251  63.691  1.00  0.00    -0.000 C 
BRANCH  32  33
HETATM   33  C3  UNL     1      32.874  56.078  64.420  1.00  0.00     0.296 C 
HETATM   34  N1  UNL     1      33.173  57.431  64.745  1.00  0.00    -0.351 N 
ATOM     35  H1  UNL     1      34.068  57.824  64.454  1.00  0.00     0.163 HD
HETATM   36  O1  UNL     1      31.753  55.634  64.800  1.00  0.00    -0.258 OA
BRANCH  34  37
HETATM   37  C2  UNL     1      32.238  58.270  65.482  1.00  0.00     0.119 C 
HETATM   38  C1  UNL     1      32.466  59.720  65.130  1.00  0.00     0.026 C 
ENDBRANCH  34  37
ENDBRANCH  32  33
ENDBRANCH   1  31
TORSDOF 8
ENDMDL
