MODEL 2
REMARK VINA RESULT: -10.252007137      0.548      1.091
REMARK  8 active torsions:
REMARK  status: ('A' for Active; 'I' for Inactive)
REMARK    1  A    between atoms: C2_2  and  N1_3 
REMARK       I    between atoms: N1_3  and  C3_5 
REMARK    2  A    between atoms: C3_5  and  C4_7 
REMARK    3  A    between atoms: C5_8  and  C6_9 
REMARK    4  A    between atoms: C14_20  and  N3_21 
REMARK    5  A    between atoms: C14_20  and  C24_33 
REMARK    6  A    between atoms: N3_21  and  C15_23 
REMARK    7  A    between atoms: C18_26  and  C19_27 
REMARK    8  A    between atoms: C19_27  and  N4_28 
ROOT
HETATM    1  C6  UNL     1      35.512  53.910  62.435  1.00  0.00     0.020 A 
HETATM    2  C7  UNL     1      36.398  54.486  61.527  1.00  0.00     0.022 A 
HETATM    3  C8  UNL     1      37.294  53.712  60.818  1.00  0.00     0.016 A 
HETATM    4  C9  UNL     1      37.326  52.351  61.002  1.00  0.00     0.009 A 
HETATM    5  C10 UNL     1      36.451  51.733  61.903  1.00  0.00     0.047 A 
HETATM    6  C11 UNL     1      35.567  52.542  62.596  1.00  0.00     0.051 A 
HETATM    7  N2  UNL     1      36.648  50.324  61.901  1.00  0.00    -0.322 N 
ATOM      8  H2  UNL     1      36.135  49.649  62.468  1.00  0.00     0.169 HD
HETATM    9  C12 UNL     1      37.676  50.017  60.980  1.00  0.00     0.259 A 
HETATM   10  O2  UNL     1      38.154  48.905  60.676  1.00  0.00    -0.267 OA
HETATM   11  C13 UNL     1      38.135  51.300  60.387  1.00  0.00     0.072 A 
HETATM   12  C14 UNL     1      39.149  51.433  59.563  1.00  0.00     0.059 C 
ENDROOT
BRANCH  12  13
HETATM   13  N3  UNL     1      39.779  50.227  59.075  1.00  0.00    -0.355 N 
ATOM     14  H3  UNL     1      39.511  49.337  59.493  1.00  0.00     0.166 HD
BRANCH  13  15
HETATM   15  C15 UNL     1      40.750  50.222  58.044  1.00  0.00     0.032 A 
HETATM   16  C16 UNL     1      41.928  49.512  58.093  1.00  0.00     0.030 A 
HETATM   17  C17 UNL     1      42.840  49.570  57.035  1.00  0.00     0.011 A 
HETATM   18  C18 UNL     1      42.601  50.332  55.913  1.00  0.00    -0.030 A 
HETATM   19  C22 UNL     1      41.426  51.046  55.857  1.00  0.00     0.011 A 
HETATM   20  C23 UNL     1      40.537  50.979  56.904  1.00  0.00     0.030 A 
BRANCH  18  21
HETATM   21  C19 UNL     1      43.610  50.339  54.856  1.00  0.00     0.309 C 
BRANCH  21  22
HETATM   22  N4  UNL     1      43.160  50.058  53.539  1.00  0.00     0.084 N 
HETATM   23  C20 UNL     1      43.899  50.677  52.493  1.00  0.00     0.309 C 
HETATM   24  C21 UNL     1      42.844  48.668  53.315  1.00  0.00     0.309 C 
ENDBRANCH  21  22
ENDBRANCH  18  21
ENDBRANCH  13  15
ENDBRANCH  12  13
BRANCH  12  25
HETATM   25  C24 UNL     1      39.746  52.731  59.236  1.00  0.00    -0.008 A 
HETATM   26  C25 UNL     1      39.162  53.473  58.210  1.00  0.00     0.014 A 
HETATM   27  C26 UNL     1      39.683  54.697  57.880  1.00  0.00     0.001 A 
HETATM   28  C27 UNL     1      40.781  55.211  58.548  1.00  0.00     0.000 A 
HETATM   29  C28 UNL     1      41.344  54.457  59.562  1.00  0.00     0.001 A 
HETATM   30  C29 UNL     1      40.826  53.237  59.892  1.00  0.00     0.014 A 
ENDBRANCH  12  25
BRANCH   1  31
HETATM   31  C5  UNL     1      34.583  54.714  63.173  1.00  0.00    -0.057 C 
HETATM   32  C4  UNL     1      33.821  55.400  63.797  1.00  0.00    -0.000 C 
BRANCH  32  33
HETATM   33  C3  UNL     1      32.927  56.230  64.560  1.00  0.00     0.296 C 
HETATM   34  N1  UNL     1      31.605  55.810  64.881  1.00  0.00    -0.351 N 
ATOM     35  H1  UNL     1      31.283  54.897  64.560  1.00  0.00     0.163 HD
HETATM   36  O1  UNL     1      33.283  57.367  64.980  1.00  0.00    -0.258 OA
BRANCH  34  37
HETATM   37  C2  UNL     1      30.700  56.648  65.655  1.00  0.00     0.119 C 
HETATM   38  C1  UNL     1      29.910  55.795  66.617  1.00  0.00     0.026 C 
ENDBRANCH  34  37
ENDBRANCH  32  33
ENDBRANCH   1  31
TORSDOF 8
ENDMDL
