MODEL 1
REMARK VINA RESULT: -10.365392640      0.000      0.000
REMARK  8 active torsions:
REMARK  status: ('A' for Active; 'I' for Inactive)
REMARK    1  A    between atoms: C2_2  and  N1_3 
REMARK       I    between atoms: N1_3  and  C3_5 
REMARK    2  A    between atoms: C3_5  and  C4_7 
REMARK    3  A    between atoms: C5_8  and  C6_9 
REMARK    4  A    between atoms: C14_20  and  N3_21 
REMARK    5  A    between atoms: C14_20  and  C24_33 
REMARK    6  A    between atoms: N3_21  and  C15_23 
REMARK    7  A    between atoms: C18_26  and  C19_27 
REMARK    8  A    between atoms: C19_27  and  N4_28 
ROOT
HETATM    1  C6  UNL     1      35.563  53.856  62.427  1.00  0.00     0.020 A 
HETATM    2  C7  UNL     1      36.443  54.442  61.519  1.00  0.00     0.022 A 
HETATM    3  C8  UNL     1      37.328  53.675  60.789  1.00  0.00     0.016 A 
HETATM    4  C9  UNL     1      37.354  52.311  60.951  1.00  0.00     0.009 A 
HETATM    5  C10 UNL     1      36.486  51.683  61.851  1.00  0.00     0.047 A 
HETATM    6  C11 UNL     1      35.612  52.486  62.565  1.00  0.00     0.051 A 
HETATM    7  N2  UNL     1      36.675  50.273  61.825  1.00  0.00    -0.322 N 
ATOM      8  H2  UNL     1      36.163  49.592  62.386  1.00  0.00     0.169 HD
HETATM    9  C12 UNL     1      37.693  49.976  60.889  1.00  0.00     0.259 A 
HETATM   10  O2  UNL     1      38.161  48.866  60.563  1.00  0.00    -0.267 OA
HETATM   11  C13 UNL     1      38.152  51.265  60.312  1.00  0.00     0.072 A 
HETATM   12  C14 UNL     1      39.159  51.407  59.480  1.00  0.00     0.059 C 
ENDROOT
BRANCH  12  13
HETATM   13  N3  UNL     1      39.778  50.206  58.967  1.00  0.00    -0.355 N 
ATOM     14  H3  UNL     1      39.468  49.306  59.333  1.00  0.00     0.166 HD
BRANCH  13  15
HETATM   15  C15 UNL     1      40.793  50.217  57.979  1.00  0.00     0.032 A 
HETATM   16  C16 UNL     1      40.697  50.879  56.777  1.00  0.00     0.030 A 
HETATM   17  C17 UNL     1      41.742  50.831  55.850  1.00  0.00     0.011 A 
HETATM   18  C18 UNL     1      42.899  50.127  56.100  1.00  0.00    -0.030 A 
HETATM   19  C22 UNL     1      43.004  49.463  57.300  1.00  0.00     0.011 A 
HETATM   20  C23 UNL     1      41.967  49.518  58.203  1.00  0.00     0.030 A 
BRANCH  18  21
HETATM   21  C19 UNL     1      43.941  50.127  55.076  1.00  0.00     0.309 C 
BRANCH  21  22
HETATM   22  N4  UNL     1      44.063  51.299  54.284  1.00  0.00     0.084 N 
HETATM   23  C20 UNL     1      45.055  52.226  54.707  1.00  0.00     0.309 C 
HETATM   24  C21 UNL     1      44.035  51.049  52.863  1.00  0.00     0.309 C 
ENDBRANCH  21  22
ENDBRANCH  18  21
ENDBRANCH  13  15
ENDBRANCH  12  13
BRANCH  12  25
HETATM   25  C24 UNL     1      39.760  52.706  59.167  1.00  0.00    -0.008 A 
HETATM   26  C25 UNL     1      39.208  53.440  58.118  1.00  0.00     0.014 A 
HETATM   27  C26 UNL     1      39.733  54.665  57.800  1.00  0.00     0.001 A 
HETATM   28  C27 UNL     1      40.804  55.189  58.505  1.00  0.00     0.000 A 
HETATM   29  C28 UNL     1      41.336  54.444  59.541  1.00  0.00     0.001 A 
HETATM   30  C29 UNL     1      40.813  53.222  59.859  1.00  0.00     0.014 A 
ENDBRANCH  12  25
BRANCH   1  31
HETATM   31  C5  UNL     1      34.646  54.653  63.186  1.00  0.00    -0.057 C 
HETATM   32  C4  UNL     1      33.877  55.335  63.807  1.00  0.00    -0.000 C 
BRANCH  32  33
HETATM   33  C3  UNL     1      32.964  56.173  64.537  1.00  0.00     0.296 C 
HETATM   34  N1  UNL     1      31.641  55.750  64.847  1.00  0.00    -0.351 N 
ATOM     35  H1  UNL     1      31.332  54.827  64.542  1.00  0.00     0.163 HD
HETATM   36  O1  UNL     1      33.304  57.324  64.936  1.00  0.00    -0.258 OA
BRANCH  34  37
HETATM   37  C2  UNL     1      30.716  56.597  65.587  1.00  0.00     0.119 C 
HETATM   38  C1  UNL     1      29.966  55.769  66.602  1.00  0.00     0.026 C 
ENDBRANCH  34  37
ENDBRANCH  32  33
ENDBRANCH   1  31
TORSDOF 8
ENDMDL
