MODEL 4
REMARK VINA RESULT: -9.631206259      2.382     11.082
REMARK  8 active torsions:
REMARK  status: ('A' for Active; 'I' for Inactive)
REMARK    1  A    between atoms: C2_2  and  N1_3 
REMARK       I    between atoms: N1_3  and  C3_5 
REMARK    2  A    between atoms: C3_5  and  C4_7 
REMARK    3  A    between atoms: C5_8  and  C6_9 
REMARK    4  A    between atoms: C14_20  and  N3_21 
REMARK    5  A    between atoms: C14_20  and  C24_33 
REMARK    6  A    between atoms: N3_21  and  C15_23 
REMARK    7  A    between atoms: C18_26  and  C19_27 
REMARK    8  A    between atoms: C19_27  and  N4_28 
ROOT
HETATM    1  C6  UNL     1      39.667  52.296  57.518  1.00  0.00     0.020 A 
HETATM    2  C7  UNL     1      38.971  53.494  57.670  1.00  0.00     0.022 A 
HETATM    3  C8  UNL     1      38.120  53.691  58.738  1.00  0.00     0.016 A 
HETATM    4  C9  UNL     1      37.945  52.699  59.673  1.00  0.00     0.009 A 
HETATM    5  C10 UNL     1      38.626  51.483  59.558  1.00  0.00     0.047 A 
HETATM    6  C11 UNL     1      39.471  51.322  58.472  1.00  0.00     0.051 A 
HETATM    7  N2  UNL     1      38.310  50.629  60.651  1.00  0.00    -0.322 N 
ATOM      8  H2  UNL     1      38.678  49.690  60.799  1.00  0.00     0.169 HD
HETATM    9  C12 UNL     1      37.399  51.303  61.496  1.00  0.00     0.259 A 
HETATM   10  O2  UNL     1      36.874  50.911  62.558  1.00  0.00    -0.267 OA
HETATM   11  C13 UNL     1      37.142  52.636  60.893  1.00  0.00     0.072 A 
HETATM   12  C14 UNL     1      36.269  53.513  61.337  1.00  0.00     0.059 C 
ENDROOT
BRANCH  12  13
HETATM   13  N3  UNL     1      35.612  53.227  62.592  1.00  0.00    -0.355 N 
ATOM     14  H3  UNL     1      35.978  52.471  63.170  1.00  0.00     0.166 HD
BRANCH  13  15
HETATM   15  C15 UNL     1      34.484  53.946  63.058  1.00  0.00     0.032 A 
HETATM   16  C16 UNL     1      33.181  53.636  62.739  1.00  0.00     0.030 A 
HETATM   17  C17 UNL     1      32.124  54.405  63.233  1.00  0.00     0.011 A 
HETATM   18  C18 UNL     1      32.339  55.491  64.051  1.00  0.00    -0.030 A 
HETATM   19  C22 UNL     1      33.638  55.808  64.375  1.00  0.00     0.011 A 
HETATM   20  C23 UNL     1      34.670  55.043  63.883  1.00  0.00     0.030 A 
BRANCH  18  21
HETATM   21  C19 UNL     1      31.176  56.242  64.520  1.00  0.00     0.309 C 
BRANCH  21  22
HETATM   22  N4  UNL     1      31.062  56.438  65.922  1.00  0.00     0.084 N 
HETATM   23  C20 UNL     1      31.004  57.793  66.349  1.00  0.00     0.309 C 
HETATM   24  C21 UNL     1      30.109  55.562  66.558  1.00  0.00     0.309 C 
ENDBRANCH  21  22
ENDBRANCH  18  21
ENDBRANCH  13  15
ENDBRANCH  12  13
BRANCH  12  25
HETATM   25  C24 UNL     1      35.839  54.676  60.557  1.00  0.00    -0.008 A 
HETATM   26  C25 UNL     1      34.806  54.495  59.638  1.00  0.00     0.014 A 
HETATM   27  C26 UNL     1      34.366  55.559  58.896  1.00  0.00     0.001 A 
HETATM   28  C27 UNL     1      34.929  56.816  59.044  1.00  0.00     0.000 A 
HETATM   29  C28 UNL     1      35.952  56.973  59.961  1.00  0.00     0.001 A 
HETATM   30  C29 UNL     1      36.392  55.912  60.701  1.00  0.00     0.014 A 
ENDBRANCH  12  25
BRANCH   1  31
HETATM   31  C5  UNL     1      40.548  52.091  56.407  1.00  0.00    -0.057 C 
HETATM   32  C4  UNL     1      41.277  51.932  55.465  1.00  0.00    -0.000 C 
BRANCH  32  33
HETATM   33  C3  UNL     1      42.129  51.750  54.321  1.00  0.00     0.296 C 
HETATM   34  N1  UNL     1      41.962  50.653  53.429  1.00  0.00    -0.351 N 
ATOM     35  H1  UNL     1      41.218  49.978  53.607  1.00  0.00     0.163 HD
HETATM   36  O1  UNL     1      43.063  52.561  54.060  1.00  0.00    -0.258 OA
BRANCH  34  37
HETATM   37  C2  UNL     1      42.824  50.468  52.270  1.00  0.00     0.119 C 
HETATM   38  C1  UNL     1      41.991  50.080  51.072  1.00  0.00     0.026 C 
ENDBRANCH  34  37
ENDBRANCH  32  33
ENDBRANCH   1  31
TORSDOF 8
ENDMDL
