MODEL 3
REMARK VINA RESULT: -10.567990060      1.111      1.996
REMARK  6 active torsions:
REMARK  status: ('A' for Active; 'I' for Inactive)
REMARK    1  A    between atoms: N1_2  and  C2_5 
REMARK    2  A    between atoms: C2_5  and  C3_6 
REMARK    3  A    between atoms: C6_9  and  N2_10 
REMARK    4  A    between atoms: C9_13  and  C10_14 
REMARK    5  A    between atoms: C10_14  and  C11_15 
REMARK    6  A    between atoms: C11_15  and  C12_16 
REMARK       I    between atoms: C12_16  and  N3_18 
ROOT
HETATM    1  N2  UNL     1       8.204  27.358   3.433  1.00  0.00    -0.381 N 
HETATM    2  C7  UNL     1       8.847  28.572   3.840  1.00  0.00     0.123 C 
HETATM    3  C8  UNL     1      10.262  28.315   4.336  1.00  0.00     0.024 C 
HETATM    4  C9  UNL     1      11.009  27.505   3.324  1.00  0.00    -0.011 C 
HETATM    5  C17 UNL     1      10.171  27.263   2.077  1.00  0.00     0.024 C 
HETATM    6  C18 UNL     1       8.917  26.542   2.459  1.00  0.00     0.123 C 
ENDROOT
BRANCH   1   7
HETATM    7  C6  UNL     1       6.934  26.953   3.940  1.00  0.00     0.030 A 
HETATM    8  C5  UNL     1       5.780  27.634   3.514  1.00  0.00     0.030 A 
HETATM    9  C4  UNL     1       4.551  27.269   3.984  1.00  0.00     0.011 A 
HETATM   10  C3  UNL     1       4.369  26.238   4.881  1.00  0.00    -0.033 A 
HETATM   11  C20 UNL     1       5.480  25.561   5.309  1.00  0.00     0.011 A 
HETATM   12  C19 UNL     1       6.740  25.930   4.833  1.00  0.00     0.030 A 
BRANCH  10  13
HETATM   13  C2  UNL     1       3.022  25.889   5.354  1.00  0.00     0.270 C 
BRANCH  13  14
HETATM   14  N1  UNL     1       2.236  27.036   5.745  1.00  0.00    -0.075 N 
HETATM   15  C1  UNL     1       0.937  27.057   5.135  1.00  0.00     0.267 C 
ATOM     16  H12 UNL     1       2.740  27.903   5.561  1.00  0.00     0.277 HD
ATOM     17  H11 UNL     1       2.164  27.099   6.761  1.00  0.00     0.277 HD
ENDBRANCH  13  14
ENDBRANCH  10  13
ENDBRANCH   1   7
BRANCH   4  18
HETATM   18  C10 UNL     1      12.333  28.110   2.974  1.00  0.00     0.014 C 
BRANCH  18  19
HETATM   19  C11 UNL     1      13.255  27.184   2.238  1.00  0.00     0.104 C 
BRANCH  19  20
HETATM   20  C12 UNL     1      13.785  27.944   1.062  1.00  0.00     0.227 C 
HETATM   21  O1  UNL     1      13.105  27.904   0.005  1.00  0.00    -0.273 OA
HETATM   22  N3  UNL     1      15.004  28.672   1.161  1.00  0.00    -0.304 N 
HETATM   23  C13 UNL     1      15.547  29.375   0.163  1.00  0.00     0.099 A 
HETATM   24  C16 UNL     1      15.768  28.751   2.252  1.00  0.00     0.099 A 
HETATM   25  C14 UNL     1      16.717  29.936   0.631  1.00  0.00     0.019 A 
HETATM   26  C15 UNL     1      16.860  29.543   1.952  1.00  0.00     0.019 A 
ENDBRANCH  19  20
ENDBRANCH  18  19
ENDBRANCH   4  18
TORSDOF 6
ENDMDL
