MODEL 7
REMARK VINA RESULT: -10.329326178      1.049      1.332
REMARK  6 active torsions:
REMARK  status: ('A' for Active; 'I' for Inactive)
REMARK    1  A    between atoms: N1_2  and  C2_5 
REMARK    2  A    between atoms: C2_5  and  C3_6 
REMARK    3  A    between atoms: C6_9  and  N2_10 
REMARK    4  A    between atoms: C9_13  and  C10_14 
REMARK    5  A    between atoms: C10_14  and  C11_15 
REMARK    6  A    between atoms: C11_15  and  C12_16 
REMARK       I    between atoms: C12_16  and  N3_18 
ROOT
HETATM    1  N2  UNL     1       7.772  26.947   4.064  1.00  0.00    -0.381 N 
HETATM    2  C7  UNL     1       8.402  25.792   3.496  1.00  0.00     0.123 C 
HETATM    3  C8  UNL     1       9.338  26.167   2.358  1.00  0.00     0.024 C 
HETATM    4  C9  UNL     1      10.271  27.246   2.812  1.00  0.00    -0.011 C 
HETATM    5  C17 UNL     1      10.069  27.574   4.283  1.00  0.00     0.024 C 
HETATM    6  C18 UNL     1       8.657  28.019   4.499  1.00  0.00     0.123 C 
ENDROOT
BRANCH   1   7
HETATM    7  C6  UNL     1       6.357  27.061   4.203  1.00  0.00     0.030 A 
HETATM    8  C5  UNL     1       5.637  25.984   4.749  1.00  0.00     0.030 A 
HETATM    9  C4  UNL     1       4.281  26.063   4.893  1.00  0.00     0.011 A 
HETATM   10  C3  UNL     1       3.554  27.175   4.524  1.00  0.00    -0.033 A 
HETATM   11  C20 UNL     1       4.236  28.236   3.991  1.00  0.00     0.011 A 
HETATM   12  C19 UNL     1       5.622  28.160   3.840  1.00  0.00     0.030 A 
BRANCH  10  13
HETATM   13  C2  UNL     1       2.095  27.205   4.702  1.00  0.00     0.270 C 
BRANCH  13  14
HETATM   14  N1  UNL     1       1.621  28.406   5.351  1.00  0.00    -0.075 N 
HETATM   15  C1  UNL     1       0.247  28.315   5.758  1.00  0.00     0.267 C 
ATOM     16  H12 UNL     1       1.774  29.224   4.762  1.00  0.00     0.277 HD
ATOM     17  H11 UNL     1       2.219  28.655   6.139  1.00  0.00     0.277 HD
ENDBRANCH  13  14
ENDBRANCH  10  13
ENDBRANCH   1   7
BRANCH   4  18
HETATM   18  C10 UNL     1      11.703  26.918   2.524  1.00  0.00     0.014 C 
BRANCH  18  19
HETATM   19  C11 UNL     1      12.372  27.870   1.577  1.00  0.00     0.104 C 
BRANCH  19  20
HETATM   20  C12 UNL     1      13.411  28.607   2.364  1.00  0.00     0.227 C 
HETATM   21  O1  UNL     1      13.141  28.860   3.566  1.00  0.00    -0.273 OA
HETATM   22  N3  UNL     1      14.639  28.993   1.758  1.00  0.00    -0.304 N 
HETATM   23  C13 UNL     1      15.617  29.650   2.386  1.00  0.00     0.099 A 
HETATM   24  C16 UNL     1      14.981  28.754   0.490  1.00  0.00     0.099 A 
HETATM   25  C14 UNL     1      16.641  29.847   1.482  1.00  0.00     0.019 A 
HETATM   26  C15 UNL     1      16.242  29.281   0.281  1.00  0.00     0.019 A 
ENDBRANCH  19  20
ENDBRANCH  18  19
ENDBRANCH   4  18
TORSDOF 6
ENDMDL
