MODEL 6
REMARK VINA RESULT: -10.359636685      2.314     10.316
REMARK  6 active torsions:
REMARK  status: ('A' for Active; 'I' for Inactive)
REMARK    1  A    between atoms: N1_2  and  C2_5 
REMARK    2  A    between atoms: C2_5  and  C3_6 
REMARK    3  A    between atoms: C6_9  and  N2_10 
REMARK    4  A    between atoms: C9_13  and  C10_14 
REMARK    5  A    between atoms: C10_14  and  C11_15 
REMARK    6  A    between atoms: C11_15  and  C12_16 
REMARK       I    between atoms: C12_16  and  N3_18 
ROOT
HETATM    1  N2  UNL     1      11.182  27.578   3.070  1.00  0.00    -0.381 N 
HETATM    2  C7  UNL     1      10.844  27.565   4.462  1.00  0.00     0.123 C 
HETATM    3  C8  UNL     1       9.540  28.301   4.729  1.00  0.00     0.024 C 
HETATM    4  C9  UNL     1       8.477  27.788   3.809  1.00  0.00    -0.011 C 
HETATM    5  C17 UNL     1       8.987  26.634   2.959  1.00  0.00     0.024 C 
HETATM    6  C18 UNL     1      10.158  27.098   2.151  1.00  0.00     0.123 C 
ENDROOT
BRANCH   1   7
HETATM    7  C6  UNL     1      12.444  28.033   2.588  1.00  0.00     0.030 A 
HETATM    8  C5  UNL     1      13.260  28.804   3.435  1.00  0.00     0.030 A 
HETATM    9  C4  UNL     1      14.474  29.255   3.002  1.00  0.00     0.011 A 
HETATM   10  C3  UNL     1      14.963  28.988   1.740  1.00  0.00    -0.033 A 
HETATM   11  C20 UNL     1      14.185  28.239   0.899  1.00  0.00     0.011 A 
HETATM   12  C19 UNL     1      12.942  27.776   1.337  1.00  0.00     0.030 A 
BRANCH  10  13
HETATM   13  C2  UNL     1      16.278  29.500   1.326  1.00  0.00     0.270 C 
BRANCH  13  14
HETATM   14  N1  UNL     1      16.422  29.618  -0.106  1.00  0.00    -0.075 N 
HETATM   15  C1  UNL     1      16.056  30.916  -0.599  1.00  0.00     0.267 C 
ATOM     16  H12 UNL     1      15.901  28.885  -0.587  1.00  0.00     0.277 HD
ATOM     17  H11 UNL     1      17.367  29.370  -0.399  1.00  0.00     0.277 HD
ENDBRANCH  13  14
ENDBRANCH  10  13
ENDBRANCH   1   7
BRANCH   4  18
HETATM   18  C10 UNL     1       7.228  27.407   4.540  1.00  0.00     0.014 C 
BRANCH  18  19
HETATM   19  C11 UNL     1       5.963  27.801   3.837  1.00  0.00     0.104 C 
BRANCH  19  20
HETATM   20  C12 UNL     1       4.888  26.882   4.329  1.00  0.00     0.227 C 
HETATM   21  O1  UNL     1       5.205  25.679   4.506  1.00  0.00    -0.273 OA
HETATM   22  N3  UNL     1       3.575  27.373   4.578  1.00  0.00    -0.304 N 
HETATM   23  C13 UNL     1       2.560  26.624   5.018  1.00  0.00     0.099 A 
HETATM   24  C16 UNL     1       3.179  28.636   4.409  1.00  0.00     0.099 A 
HETATM   25  C14 UNL     1       1.455  27.440   5.138  1.00  0.00     0.019 A 
HETATM   26  C15 UNL     1       1.843  28.714   4.753  1.00  0.00     0.019 A 
ENDBRANCH  19  20
ENDBRANCH  18  19
ENDBRANCH   4  18
TORSDOF 6
ENDMDL
