MODEL 1
REMARK VINA RESULT: -10.919297295      0.000      0.000
REMARK  6 active torsions:
REMARK  status: ('A' for Active; 'I' for Inactive)
REMARK    1  A    between atoms: N1_2  and  C2_5 
REMARK    2  A    between atoms: C2_5  and  C3_6 
REMARK    3  A    between atoms: C6_9  and  N2_10 
REMARK    4  A    between atoms: C9_13  and  C10_14 
REMARK    5  A    between atoms: C10_14  and  C11_15 
REMARK    6  A    between atoms: C11_15  and  C12_16 
REMARK       I    between atoms: C12_16  and  N3_18 
ROOT
HETATM    1  N2  UNL     1       7.142  26.980   3.883  1.00  0.00    -0.381 N 
HETATM    2  C7  UNL     1       7.807  25.736   3.628  1.00  0.00     0.123 C 
HETATM    3  C8  UNL     1       8.568  25.769   2.312  1.00  0.00     0.024 C 
HETATM    4  C9  UNL     1       9.443  26.982   2.269  1.00  0.00    -0.011 C 
HETATM    5  C17 UNL     1       9.382  27.759   3.575  1.00  0.00     0.024 C 
HETATM    6  C18 UNL     1       7.969  28.178   3.832  1.00  0.00     0.123 C 
ENDROOT
BRANCH   1   7
HETATM    7  C6  UNL     1       5.748  27.061   4.173  1.00  0.00     0.030 A 
HETATM    8  C5  UNL     1       5.099  25.941   4.721  1.00  0.00     0.030 A 
HETATM    9  C4  UNL     1       3.764  25.989   5.008  1.00  0.00     0.011 A 
HETATM   10  C3  UNL     1       2.992  27.109   4.785  1.00  0.00    -0.033 A 
HETATM   11  C20 UNL     1       3.604  28.211   4.253  1.00  0.00     0.011 A 
HETATM   12  C19 UNL     1       4.968  28.168   3.956  1.00  0.00     0.030 A 
BRANCH  10  13
HETATM   13  C2  UNL     1       1.559  27.104   5.113  1.00  0.00     0.270 C 
BRANCH  13  14
HETATM   14  N1  UNL     1       1.120  28.305   5.786  1.00  0.00    -0.075 N 
HETATM   15  C1  UNL     1      -0.247  28.235   6.218  1.00  0.00     0.267 C 
ATOM     16  H12 UNL     1       1.277  29.128   5.203  1.00  0.00     0.277 HD
ATOM     17  H11 UNL     1       1.738  28.533   6.565  1.00  0.00     0.277 HD
ENDBRANCH  13  14
ENDBRANCH  10  13
ENDBRANCH   1   7
BRANCH   4  18
HETATM   18  C10 UNL     1      10.857  26.651   1.905  1.00  0.00     0.014 C 
BRANCH  18  19
HETATM   19  C11 UNL     1      11.869  27.627   2.430  1.00  0.00     0.104 C 
BRANCH  19  20
HETATM   20  C12 UNL     1      12.832  27.895   1.315  1.00  0.00     0.227 C 
HETATM   21  O1  UNL     1      12.497  27.504   0.168  1.00  0.00    -0.273 OA
HETATM   22  N3  UNL     1      14.063  28.564   1.567  1.00  0.00    -0.304 N 
HETATM   23  C13 UNL     1      14.976  28.842   0.633  1.00  0.00     0.099 A 
HETATM   24  C16 UNL     1      14.472  29.000   2.760  1.00  0.00     0.099 A 
HETATM   25  C14 UNL     1      16.026  29.490   1.249  1.00  0.00     0.019 A 
HETATM   26  C15 UNL     1      15.711  29.591   2.595  1.00  0.00     0.019 A 
ENDBRANCH  19  20
ENDBRANCH  18  19
ENDBRANCH   4  18
TORSDOF 6
ENDMDL
