MODEL 2
REMARK VINA RESULT: -10.572479891      2.466      9.961
REMARK  6 active torsions:
REMARK  status: ('A' for Active; 'I' for Inactive)
REMARK    1  A    between atoms: N1_2  and  C2_5 
REMARK    2  A    between atoms: C2_5  and  C3_6 
REMARK    3  A    between atoms: C6_9  and  N2_10 
REMARK    4  A    between atoms: C9_13  and  C10_14 
REMARK    5  A    between atoms: C10_14  and  C11_15 
REMARK    6  A    between atoms: C11_15  and  C12_16 
REMARK       I    between atoms: C12_16  and  N3_18 
ROOT
HETATM    1  N2  UNL     1      10.183  27.755   3.478  1.00  0.00    -0.381 N 
HETATM    2  C7  UNL     1       9.166  27.116   2.697  1.00  0.00     0.123 C 
HETATM    3  C8  UNL     1       8.546  25.942   3.439  1.00  0.00     0.024 C 
HETATM    4  C9  UNL     1       8.121  26.380   4.805  1.00  0.00    -0.011 C 
HETATM    5  C17 UNL     1       8.348  27.871   5.007  1.00  0.00     0.024 C 
HETATM    6  C18 UNL     1       9.800  28.178   4.819  1.00  0.00     0.123 C 
ENDROOT
BRANCH   1   7
HETATM    7  C6  UNL     1      11.504  27.975   2.989  1.00  0.00     0.030 A 
HETATM    8  C5  UNL     1      12.405  28.722   3.768  1.00  0.00     0.030 A 
HETATM    9  C4  UNL     1      13.676  28.950   3.324  1.00  0.00     0.011 A 
HETATM   10  C3  UNL     1      14.143  28.475   2.117  1.00  0.00    -0.033 A 
HETATM   11  C20 UNL     1      13.283  27.745   1.343  1.00  0.00     0.011 A 
HETATM   12  C19 UNL     1      11.981  27.509   1.790  1.00  0.00     0.030 A 
BRANCH  10  13
HETATM   13  C2  UNL     1      15.522  28.752   1.690  1.00  0.00     0.270 C 
BRANCH  13  14
HETATM   14  N1  UNL     1      15.647  28.985   0.270  1.00  0.00    -0.075 N 
HETATM   15  C1  UNL     1      16.378  30.181  -0.037  1.00  0.00     0.267 C 
ATOM     16  H12 UNL     1      14.731  28.991  -0.180  1.00  0.00     0.277 HD
ATOM     17  H11 UNL     1      16.056  28.176  -0.198  1.00  0.00     0.277 HD
ENDBRANCH  13  14
ENDBRANCH  10  13
ENDBRANCH   1   7
BRANCH   4  18
HETATM   18  C10 UNL     1       6.704  26.004   5.109  1.00  0.00     0.014 C 
BRANCH  18  19
HETATM   19  C11 UNL     1       5.765  26.171   3.951  1.00  0.00     0.104 C 
BRANCH  19  20
HETATM   20  C12 UNL     1       4.382  25.939   4.477  1.00  0.00     0.227 C 
HETATM   21  O1  UNL     1       4.074  24.755   4.765  1.00  0.00    -0.273 OA
HETATM   22  N3  UNL     1       3.477  27.026   4.636  1.00  0.00    -0.304 N 
HETATM   23  C13 UNL     1       2.229  26.908   5.097  1.00  0.00     0.099 A 
HETATM   24  C16 UNL     1       3.746  28.301   4.347  1.00  0.00     0.099 A 
HETATM   25  C14 UNL     1       1.663  28.165   5.108  1.00  0.00     0.019 A 
HETATM   26  C15 UNL     1       2.620  29.049   4.634  1.00  0.00     0.019 A 
ENDBRANCH  19  20
ENDBRANCH  18  19
ENDBRANCH   4  18
TORSDOF 6
ENDMDL
