MODEL 4
REMARK VINA RESULT: -10.434407845      2.385     10.265
REMARK  6 active torsions:
REMARK  status: ('A' for Active; 'I' for Inactive)
REMARK    1  A    between atoms: N1_2  and  C2_5 
REMARK    2  A    between atoms: C2_5  and  C3_6 
REMARK    3  A    between atoms: C6_9  and  N2_10 
REMARK    4  A    between atoms: C9_13  and  C10_14 
REMARK    5  A    between atoms: C10_14  and  C11_15 
REMARK    6  A    between atoms: C11_15  and  C12_16 
REMARK       I    between atoms: C12_16  and  N3_18 
ROOT
HETATM    1  N2  UNL     1      11.353  27.746   3.102  1.00  0.00    -0.381 N 
HETATM    2  C7  UNL     1      10.982  27.696   4.485  1.00  0.00     0.123 C 
HETATM    3  C8  UNL     1       9.697  28.466   4.747  1.00  0.00     0.024 C 
HETATM    4  C9  UNL     1       8.640  28.019   3.786  1.00  0.00    -0.011 C 
HETATM    5  C17 UNL     1       9.133  26.879   2.907  1.00  0.00     0.024 C 
HETATM    6  C18 UNL     1      10.337  27.332   2.144  1.00  0.00     0.123 C 
ENDROOT
BRANCH   1   7
HETATM    7  C6  UNL     1      12.641  28.175   2.666  1.00  0.00     0.030 A 
HETATM    8  C5  UNL     1      13.075  27.829   1.375  1.00  0.00     0.030 A 
HETATM    9  C4  UNL     1      14.305  28.224   0.930  1.00  0.00     0.011 A 
HETATM   10  C3  UNL     1      15.174  28.968   1.700  1.00  0.00    -0.033 A 
HETATM   11  C20 UNL     1      14.771  29.317   2.961  1.00  0.00     0.011 A 
HETATM   12  C19 UNL     1      13.515  28.915   3.421  1.00  0.00     0.030 A 
BRANCH  10  13
HETATM   13  C2  UNL     1      16.486  29.366   1.170  1.00  0.00     0.270 C 
BRANCH  13  14
HETATM   14  N1  UNL     1      16.478  29.616  -0.252  1.00  0.00    -0.075 N 
HETATM   15  C1  UNL     1      16.039  30.942  -0.583  1.00  0.00     0.267 C 
ATOM     16  H12 UNL     1      15.923  28.915  -0.743  1.00  0.00     0.277 HD
ATOM     17  H11 UNL     1      17.392  29.421  -0.662  1.00  0.00     0.277 HD
ENDBRANCH  13  14
ENDBRANCH  10  13
ENDBRANCH   1   7
BRANCH   4  18
HETATM   18  C10 UNL     1       7.361  27.656   4.474  1.00  0.00     0.014 C 
BRANCH  18  19
HETATM   19  C11 UNL     1       6.459  26.773   3.663  1.00  0.00     0.104 C 
BRANCH  19  20
HETATM   20  C12 UNL     1       5.385  26.286   4.586  1.00  0.00     0.227 C 
HETATM   21  O1  UNL     1       5.732  25.485   5.490  1.00  0.00    -0.273 OA
HETATM   22  N3  UNL     1       4.040  26.725   4.426  1.00  0.00    -0.304 N 
HETATM   23  C13 UNL     1       3.024  26.341   5.203  1.00  0.00     0.099 A 
HETATM   24  C16 UNL     1       3.613  27.571   3.488  1.00  0.00     0.099 A 
HETATM   25  C14 UNL     1       1.884  26.968   4.746  1.00  0.00     0.019 A 
HETATM   26  C15 UNL     1       2.252  27.748   3.660  1.00  0.00     0.019 A 
ENDBRANCH  19  20
ENDBRANCH  18  19
ENDBRANCH   4  18
TORSDOF 6
ENDMDL
