MODEL 5
REMARK VINA RESULT: -10.416647122      0.664      1.174
REMARK  6 active torsions:
REMARK  status: ('A' for Active; 'I' for Inactive)
REMARK    1  A    between atoms: N1_2  and  C2_5 
REMARK    2  A    between atoms: C2_5  and  C3_6 
REMARK    3  A    between atoms: C6_9  and  N2_10 
REMARK    4  A    between atoms: C9_13  and  C10_14 
REMARK    5  A    between atoms: C10_14  and  C11_15 
REMARK    6  A    between atoms: C11_15  and  C12_16 
REMARK       I    between atoms: C12_16  and  N3_18 
ROOT
HETATM    1  N2  UNL     1       6.933  27.057   3.569  1.00  0.00    -0.381 N 
HETATM    2  C7  UNL     1       7.869  28.088   3.905  1.00  0.00     0.123 C 
HETATM    3  C8  UNL     1       9.113  27.519   4.569  1.00  0.00     0.024 C 
HETATM    4  C9  UNL     1       9.662  26.405   3.735  1.00  0.00    -0.011 C 
HETATM    5  C17 UNL     1       8.877  26.239   2.442  1.00  0.00     0.024 C 
HETATM    6  C18 UNL     1       7.446  25.952   2.769  1.00  0.00     0.123 C 
ENDROOT
BRANCH   1   7
HETATM    7  C6  UNL     1       5.569  27.091   3.984  1.00  0.00     0.030 A 
HETATM    8  C5  UNL     1       5.022  25.965   4.623  1.00  0.00     0.030 A 
HETATM    9  C4  UNL     1       3.718  25.968   5.030  1.00  0.00     0.011 A 
HETATM   10  C3  UNL     1       2.880  27.047   4.846  1.00  0.00    -0.033 A 
HETATM   11  C20 UNL     1       3.393  28.155   4.226  1.00  0.00     0.011 A 
HETATM   12  C19 UNL     1       4.725  28.157   3.806  1.00  0.00     0.030 A 
BRANCH  10  13
HETATM   13  C2  UNL     1       1.484  26.995   5.305  1.00  0.00     0.270 C 
BRANCH  13  14
HETATM   14  N1  UNL     1       0.955  28.286   5.677  1.00  0.00    -0.075 N 
HETATM   15  C1  UNL     1      -0.380  28.212   6.200  1.00  0.00     0.267 C 
ATOM     16  H12 UNL     1       1.004  28.940   4.896  1.00  0.00     0.277 HD
ATOM     17  H11 UNL     1       1.577  28.761   6.331  1.00  0.00     0.277 HD
ENDBRANCH  13  14
ENDBRANCH  10  13
ENDBRANCH   1   7
BRANCH   4  18
HETATM   18  C10 UNL     1      11.125  26.567   3.460  1.00  0.00     0.014 C 
BRANCH  18  19
HETATM   19  C11 UNL     1      11.535  27.973   3.134  1.00  0.00     0.104 C 
BRANCH  19  20
HETATM   20  C12 UNL     1      12.453  27.895   1.954  1.00  0.00     0.227 C 
HETATM   21  O1  UNL     1      12.029  27.280   0.942  1.00  0.00    -0.273 OA
HETATM   22  N3  UNL     1      13.742  28.497   1.998  1.00  0.00    -0.304 N 
HETATM   23  C13 UNL     1      14.621  28.475   0.993  1.00  0.00     0.099 A 
HETATM   24  C16 UNL     1      14.246  29.161   3.041  1.00  0.00     0.099 A 
HETATM   25  C14 UNL     1      15.748  29.156   1.404  1.00  0.00     0.019 A 
HETATM   26  C15 UNL     1      15.515  29.591   2.699  1.00  0.00     0.019 A 
ENDBRANCH  19  20
ENDBRANCH  18  19
ENDBRANCH   4  18
TORSDOF 6
ENDMDL
