MODEL 4
REMARK VINA RESULT: -11.100121754      2.124      9.288
REMARK  4 active torsions:
REMARK  status: ('A' for Active; 'I' for Inactive)
REMARK    1  A    between atoms: C5_5  and  N1_6 
REMARK    2  A    between atoms: C8_9  and  C9_10 
REMARK    3  A    between atoms: C9_10  and  C10_11 
REMARK    4  A    between atoms: C10_11  and  C11_12 
REMARK       I    between atoms: C11_12  and  N2_14 
ROOT
HETATM    1  N1  UNL     1      28.128  12.278  -2.706  1.00  0.00    -0.381 N 
HETATM    2  C6  UNL     1      27.253  11.573  -1.819  1.00  0.00     0.123 C 
HETATM    3  C7  UNL     1      26.990  10.144  -2.192  1.00  0.00     0.024 C 
HETATM    4  C8  UNL     1      26.809  10.074  -3.676  1.00  0.00    -0.011 C 
HETATM    5  C16 UNL     1      28.077  10.459  -4.367  1.00  0.00     0.024 C 
HETATM    6  C17 UNL     1      28.552  11.839  -4.009  1.00  0.00     0.123 C 
ENDROOT
BRANCH   4   7
HETATM    7  C9  UNL     1      26.363   8.730  -4.180  1.00  0.00     0.014 C 
BRANCH   7   8
HETATM    8  C10 UNL     1      27.185   7.589  -3.647  1.00  0.00     0.103 C 
BRANCH   8   9
HETATM    9  C11 UNL     1      26.296   6.571  -3.046  1.00  0.00     0.219 C 
HETATM   10  O1  UNL     1      25.626   6.883  -2.036  1.00  0.00    -0.273 OA
HETATM   11  N2  UNL     1      26.198   5.261  -3.598  1.00  0.00    -0.352 N 
HETATM   12  C12 UNL     1      25.359   4.192  -3.089  1.00  0.00     0.126 C 
HETATM   13  C15 UNL     1      26.876   4.706  -4.742  1.00  0.00     0.126 C 
HETATM   14  C13 UNL     1      24.740   3.647  -4.343  1.00  0.00     0.021 C 
HETATM   15  C14 UNL     1      25.821   3.823  -5.372  1.00  0.00     0.021 C 
ENDBRANCH   8   9
ENDBRANCH   7   8
ENDBRANCH   4   7
BRANCH   1  16
HETATM   16  C5  UNL     1      28.633  13.541  -2.260  1.00  0.00     0.030 A 
HETATM   17  C4  UNL     1      28.449  13.995  -0.959  1.00  0.00     0.030 A 
HETATM   18  C3  UNL     1      28.935  15.212  -0.525  1.00  0.00     0.009 A 
HETATM   19  C2  UNL     1      29.628  16.028  -1.382  1.00  0.00    -0.062 A 
HETATM   20  C1  UNL     1      30.167  17.354  -0.944  1.00  0.00     0.048 C 
HETATM   21  C19 UNL     1      29.832  15.617  -2.680  1.00  0.00     0.009 A 
HETATM   22  C18 UNL     1      29.338  14.398  -3.087  1.00  0.00     0.030 A 
ENDBRANCH   1  16
TORSDOF 4
ENDMDL
