MODEL 2
REMARK VINA RESULT: -11.146584444      0.023      1.005
REMARK  4 active torsions:
REMARK  status: ('A' for Active; 'I' for Inactive)
REMARK    1  A    between atoms: C5_5  and  N1_6 
REMARK    2  A    between atoms: C8_9  and  C9_10 
REMARK    3  A    between atoms: C9_10  and  C10_11 
REMARK    4  A    between atoms: C10_11  and  C11_12 
REMARK       I    between atoms: C11_12  and  N2_14 
ROOT
HETATM    1  N1  UNL     1      27.084   8.457  -3.570  1.00  0.00    -0.381 N 
HETATM    2  C6  UNL     1      27.961   9.006  -4.560  1.00  0.00     0.123 C 
HETATM    3  C7  UNL     1      28.719  10.225  -4.128  1.00  0.00     0.024 C 
HETATM    4  C8  UNL     1      27.792  11.101  -3.346  1.00  0.00    -0.011 C 
HETATM    5  C16 UNL     1      27.367  10.408  -2.091  1.00  0.00     0.024 C 
HETATM    6  C17 UNL     1      26.684   9.093  -2.343  1.00  0.00     0.123 C 
ENDROOT
BRANCH   4   7
HETATM    7  C9  UNL     1      28.362  12.446  -2.995  1.00  0.00     0.014 C 
BRANCH   7   8
HETATM    8  C10 UNL     1      27.402  13.323  -2.239  1.00  0.00     0.103 C 
BRANCH   8   9
HETATM    9  C11 UNL     1      28.103  13.973  -1.110  1.00  0.00     0.219 C 
HETATM   10  O1  UNL     1      28.124  13.390  -0.002  1.00  0.00    -0.273 OA
HETATM   11  N2  UNL     1      28.744  15.235  -1.270  1.00  0.00    -0.352 N 
HETATM   12  C12 UNL     1      29.458  15.957  -0.232  1.00  0.00     0.126 C 
HETATM   13  C15 UNL     1      28.836  16.063  -2.446  1.00  0.00     0.126 C 
HETATM   14  C13 UNL     1      30.703  16.395  -0.948  1.00  0.00     0.021 C 
HETATM   15  C14 UNL     1      30.231  16.640  -2.353  1.00  0.00     0.021 C 
ENDBRANCH   8   9
ENDBRANCH   7   8
ENDBRANCH   4   7
BRANCH   1  16
HETATM   16  C5  UNL     1      26.551   7.153  -3.819  1.00  0.00     0.030 A 
HETATM   17  C4  UNL     1      26.212   6.282  -2.790  1.00  0.00     0.030 A 
HETATM   18  C3  UNL     1      25.698   5.022  -3.024  1.00  0.00     0.009 A 
HETATM   19  C2  UNL     1      25.501   4.583  -4.308  1.00  0.00    -0.062 A 
HETATM   20  C1  UNL     1      24.945   3.223  -4.598  1.00  0.00     0.048 C 
HETATM   21  C19 UNL     1      25.823   5.413  -5.358  1.00  0.00     0.009 A 
HETATM   22  C18 UNL     1      26.334   6.665  -5.096  1.00  0.00     0.030 A 
ENDBRANCH   1  16
TORSDOF 4
ENDMDL
