MODEL 1
REMARK VINA RESULT: -11.152107936      0.000      0.000
REMARK  4 active torsions:
REMARK  status: ('A' for Active; 'I' for Inactive)
REMARK    1  A    between atoms: C5_5  and  N1_6 
REMARK    2  A    between atoms: C8_9  and  C9_10 
REMARK    3  A    between atoms: C9_10  and  C10_11 
REMARK    4  A    between atoms: C10_11  and  C11_12 
REMARK       I    between atoms: C11_12  and  N2_14 
ROOT
HETATM    1  N1  UNL     1      27.087   8.474  -3.583  1.00  0.00    -0.381 N 
HETATM    2  C6  UNL     1      27.950   9.032  -4.580  1.00  0.00     0.123 C 
HETATM    3  C7  UNL     1      28.711  10.250  -4.149  1.00  0.00     0.024 C 
HETATM    4  C8  UNL     1      27.791  11.117  -3.348  1.00  0.00    -0.011 C 
HETATM    5  C16 UNL     1      27.384  10.415  -2.093  1.00  0.00     0.024 C 
HETATM    6  C17 UNL     1      26.702   9.099  -2.346  1.00  0.00     0.123 C 
ENDROOT
BRANCH   4   7
HETATM    7  C9  UNL     1      28.363  12.462  -2.994  1.00  0.00     0.014 C 
BRANCH   7   8
HETATM    8  C10 UNL     1      27.404  13.338  -2.237  1.00  0.00     0.103 C 
BRANCH   8   9
HETATM    9  C11 UNL     1      28.106  13.988  -1.109  1.00  0.00     0.219 C 
HETATM   10  O1  UNL     1      28.128  13.404  -0.001  1.00  0.00    -0.273 OA
HETATM   11  N2  UNL     1      28.747  15.250  -1.269  1.00  0.00    -0.352 N 
HETATM   12  C12 UNL     1      29.461  15.971  -0.231  1.00  0.00     0.126 C 
HETATM   13  C15 UNL     1      28.836  16.078  -2.444  1.00  0.00     0.126 C 
HETATM   14  C13 UNL     1      30.705  16.411  -0.947  1.00  0.00     0.021 C 
HETATM   15  C14 UNL     1      30.232  16.655  -2.352  1.00  0.00     0.021 C 
ENDBRANCH   8   9
ENDBRANCH   7   8
ENDBRANCH   4   7
BRANCH   1  16
HETATM   16  C5  UNL     1      26.554   7.170  -3.835  1.00  0.00     0.030 A 
HETATM   17  C4  UNL     1      26.340   6.692  -5.122  1.00  0.00     0.030 A 
HETATM   18  C3  UNL     1      25.825   5.435  -5.370  1.00  0.00     0.009 A 
HETATM   19  C2  UNL     1      25.504   4.601  -4.330  1.00  0.00    -0.062 A 
HETATM   20  C1  UNL     1      24.943   3.233  -4.563  1.00  0.00     0.048 C 
HETATM   21  C19 UNL     1      25.699   5.035  -3.038  1.00  0.00     0.009 A 
HETATM   22  C18 UNL     1      26.214   6.292  -2.819  1.00  0.00     0.030 A 
ENDBRANCH   1  16
TORSDOF 4
ENDMDL
