MODEL 3
REMARK VINA RESULT: -11.114935221      2.129      9.235
REMARK  4 active torsions:
REMARK  status: ('A' for Active; 'I' for Inactive)
REMARK    1  A    between atoms: C5_5  and  N1_6 
REMARK    2  A    between atoms: C8_9  and  C9_10 
REMARK    3  A    between atoms: C9_10  and  C10_11 
REMARK    4  A    between atoms: C10_11  and  C11_12 
REMARK       I    between atoms: C11_12  and  N2_14 
ROOT
HETATM    1  N1  UNL     1      28.129  12.270  -2.728  1.00  0.00    -0.381 N 
HETATM    2  C6  UNL     1      27.234  11.579  -1.850  1.00  0.00     0.123 C 
HETATM    3  C7  UNL     1      26.971  10.148  -2.214  1.00  0.00     0.024 C 
HETATM    4  C8  UNL     1      26.817  10.063  -3.699  1.00  0.00    -0.011 C 
HETATM    5  C16 UNL     1      28.100  10.434  -4.371  1.00  0.00     0.024 C 
HETATM    6  C17 UNL     1      28.575  11.815  -4.018  1.00  0.00     0.123 C 
ENDROOT
BRANCH   4   7
HETATM    7  C9  UNL     1      26.373   8.716  -4.198  1.00  0.00     0.014 C 
BRANCH   7   8
HETATM    8  C10 UNL     1      27.191   7.578  -3.652  1.00  0.00     0.103 C 
BRANCH   8   9
HETATM    9  C11 UNL     1      26.296   6.564  -3.052  1.00  0.00     0.219 C 
HETATM   10  O1  UNL     1      25.626   6.879  -2.042  1.00  0.00    -0.273 OA
HETATM   11  N2  UNL     1      26.193   5.255  -3.604  1.00  0.00    -0.352 N 
HETATM   12  C12 UNL     1      25.349   4.189  -3.095  1.00  0.00     0.126 C 
HETATM   13  C15 UNL     1      26.870   4.697  -4.747  1.00  0.00     0.126 C 
HETATM   14  C13 UNL     1      24.729   3.647  -4.351  1.00  0.00     0.021 C 
HETATM   15  C14 UNL     1      25.812   3.818  -5.378  1.00  0.00     0.021 C 
ENDBRANCH   8   9
ENDBRANCH   7   8
ENDBRANCH   4   7
BRANCH   1  16
HETATM   16  C5  UNL     1      28.633  13.535  -2.286  1.00  0.00     0.030 A 
HETATM   17  C4  UNL     1      29.334  14.390  -3.129  1.00  0.00     0.030 A 
HETATM   18  C3  UNL     1      29.821  15.610  -2.708  1.00  0.00     0.009 A 
HETATM   19  C2  UNL     1      29.624  16.026  -1.416  1.00  0.00    -0.062 A 
HETATM   20  C1  UNL     1      30.140  17.343  -0.925  1.00  0.00     0.048 C 
HETATM   21  C19 UNL     1      28.935  15.211  -0.547  1.00  0.00     0.009 A 
HETATM   22  C18 UNL     1      28.459  13.998  -0.993  1.00  0.00     0.030 A 
ENDBRANCH   1  16
TORSDOF 4
ENDMDL
