MODEL 5
REMARK VINA RESULT: -11.073702044      2.705      9.178
REMARK  4 active torsions:
REMARK  status: ('A' for Active; 'I' for Inactive)
REMARK    1  A    between atoms: C5_5  and  N1_6 
REMARK    2  A    between atoms: C8_9  and  C9_10 
REMARK    3  A    between atoms: C9_10  and  C10_11 
REMARK    4  A    between atoms: C10_11  and  C11_12 
REMARK       I    between atoms: C11_12  and  N2_14 
ROOT
HETATM    1  N1  UNL     1      27.941  11.481  -3.000  1.00  0.00    -0.381 N 
HETATM    2  C6  UNL     1      27.131  10.698  -2.117  1.00  0.00     0.123 C 
HETATM    3  C7  UNL     1      26.978   9.258  -2.508  1.00  0.00     0.024 C 
HETATM    4  C8  UNL     1      26.791   9.193  -3.991  1.00  0.00    -0.011 C 
HETATM    5  C16 UNL     1      28.020   9.684  -4.686  1.00  0.00     0.024 C 
HETATM    6  C17 UNL     1      28.388  11.093  -4.312  1.00  0.00     0.123 C 
ENDROOT
BRANCH   4   7
HETATM    7  C9  UNL     1      26.447   7.825  -4.509  1.00  0.00     0.014 C 
BRANCH   7   8
HETATM    8  C10 UNL     1      27.582   6.843  -4.404  1.00  0.00     0.103 C 
BRANCH   8   9
HETATM    9  C11 UNL     1      27.164   5.683  -3.587  1.00  0.00     0.219 C 
HETATM   10  O1  UNL     1      26.093   5.760  -2.942  1.00  0.00    -0.273 OA
HETATM   11  N2  UNL     1      27.955   4.500  -3.529  1.00  0.00    -0.352 N 
HETATM   12  C12 UNL     1      27.638   3.310  -2.762  1.00  0.00     0.126 C 
HETATM   13  C15 UNL     1      29.205   4.212  -4.186  1.00  0.00     0.126 C 
HETATM   14  C13 UNL     1      27.921   2.212  -3.746  1.00  0.00     0.021 C 
HETATM   15  C14 UNL     1      29.074   2.748  -4.546  1.00  0.00     0.021 C 
ENDBRANCH   8   9
ENDBRANCH   7   8
ENDBRANCH   4   7
BRANCH   1  16
HETATM   16  C5  UNL     1      28.350  12.773  -2.541  1.00  0.00     0.030 A 
HETATM   17  C4  UNL     1      28.054  13.234  -1.264  1.00  0.00     0.030 A 
HETATM   18  C3  UNL     1      28.445  14.480  -0.816  1.00  0.00     0.009 A 
HETATM   19  C2  UNL     1      29.155  15.319  -1.637  1.00  0.00    -0.062 A 
HETATM   20  C1  UNL     1      29.595  16.677  -1.184  1.00  0.00     0.048 C 
HETATM   21  C19 UNL     1      29.470  14.903  -2.911  1.00  0.00     0.009 A 
HETATM   22  C18 UNL     1      29.067  13.655  -3.331  1.00  0.00     0.030 A 
ENDBRANCH   1  16
TORSDOF 4
ENDMDL
