MODEL 12
REMARK VINA RESULT: -10.718124734      1.050      1.102
REMARK  4 active torsions:
REMARK  status: ('A' for Active; 'I' for Inactive)
REMARK    1  A    between atoms: C5_5  and  N1_6 
REMARK    2  A    between atoms: C8_9  and  C9_10 
REMARK    3  A    between atoms: C9_10  and  C10_11 
REMARK    4  A    between atoms: C10_11  and  C11_12 
REMARK       I    between atoms: C11_12  and  N2_14 
ROOT
HETATM    1  N1  UNL     1      27.122   8.249  -3.662  1.00  0.00    -0.381 N 
HETATM    2  C6  UNL     1      27.956   9.132  -4.420  1.00  0.00     0.123 C 
HETATM    3  C7  UNL     1      28.217  10.462  -3.779  1.00  0.00     0.024 C 
HETATM    4  C8  UNL     1      26.943  10.942  -3.161  1.00  0.00    -0.011 C 
HETATM    5  C16 UNL     1      26.527  10.023  -2.058  1.00  0.00     0.024 C 
HETATM    6  C17 UNL     1      26.333   8.603  -2.512  1.00  0.00     0.123 C 
ENDROOT
BRANCH   4   7
HETATM    7  C9  UNL     1      27.005  12.348  -2.632  1.00  0.00     0.014 C 
BRANCH   7   8
HETATM    8  C10 UNL     1      28.409  12.859  -2.457  1.00  0.00     0.103 C 
BRANCH   8   9
HETATM    9  C11 UNL     1      28.463  13.784  -1.304  1.00  0.00     0.219 C 
HETATM   10  O1  UNL     1      27.995  13.401  -0.207  1.00  0.00    -0.273 OA
HETATM   11  N2  UNL     1      29.032  15.083  -1.429  1.00  0.00    -0.352 N 
HETATM   12  C12 UNL     1      29.135  16.065  -0.365  1.00  0.00     0.126 C 
HETATM   13  C15 UNL     1      29.617  15.710  -2.587  1.00  0.00     0.126 C 
HETATM   14  C13 UNL     1      30.544  16.561  -0.524  1.00  0.00     0.021 C 
HETATM   15  C14 UNL     1      30.772  16.496  -2.007  1.00  0.00     0.021 C 
ENDBRANCH   8   9
ENDBRANCH   7   8
ENDBRANCH   4   7
BRANCH   1  16
HETATM   16  C5  UNL     1      27.063   6.882  -4.081  1.00  0.00     0.030 A 
HETATM   17  C4  UNL     1      26.034   6.395  -4.879  1.00  0.00     0.030 A 
HETATM   18  C3  UNL     1      25.974   5.077  -5.286  1.00  0.00     0.009 A 
HETATM   19  C2  UNL     1      26.948   4.189  -4.908  1.00  0.00    -0.062 A 
HETATM   20  C1  UNL     1      26.913   2.754  -5.331  1.00  0.00     0.048 C 
HETATM   21  C19 UNL     1      27.986   4.630  -4.118  1.00  0.00     0.009 A 
HETATM   22  C18 UNL     1      28.023   5.949  -3.726  1.00  0.00     0.030 A 
ENDBRANCH   1  16
TORSDOF 4
ENDMDL
