MODEL 16
REMARK VINA RESULT: -10.355322038      1.271      1.742
REMARK  4 active torsions:
REMARK  status: ('A' for Active; 'I' for Inactive)
REMARK    1  A    between atoms: C5_5  and  N1_6 
REMARK    2  A    between atoms: C8_9  and  C9_10 
REMARK    3  A    between atoms: C9_10  and  C10_11 
REMARK    4  A    between atoms: C10_11  and  C11_12 
REMARK       I    between atoms: C11_12  and  N2_14 
ROOT
HETATM    1  N1  UNL     1      26.944   7.787  -3.544  1.00  0.00    -0.381 N 
HETATM    2  C6  UNL     1      26.165   8.015  -2.365  1.00  0.00     0.123 C 
HETATM    3  C7  UNL     1      25.826   9.451  -2.097  1.00  0.00     0.024 C 
HETATM    4  C8  UNL     1      27.033  10.281  -2.400  1.00  0.00    -0.011 C 
HETATM    5  C16 UNL     1      27.366  10.195  -3.854  1.00  0.00     0.024 C 
HETATM    6  C17 UNL     1      27.624   8.790  -4.321  1.00  0.00     0.123 C 
ENDROOT
BRANCH   4   7
HETATM    7  C9  UNL     1      26.901  11.727  -2.010  1.00  0.00     0.014 C 
BRANCH   7   8
HETATM    8  C10 UNL     1      28.147  12.530  -2.263  1.00  0.00     0.103 C 
BRANCH   8   9
HETATM    9  C11 UNL     1      28.301  13.557  -1.210  1.00  0.00     0.219 C 
HETATM   10  O1  UNL     1      27.970  13.266  -0.038  1.00  0.00    -0.273 OA
HETATM   11  N2  UNL     1      28.814  14.851  -1.512  1.00  0.00    -0.352 N 
HETATM   12  C12 UNL     1      29.005  15.927  -0.557  1.00  0.00     0.126 C 
HETATM   13  C15 UNL     1      29.246  15.381  -2.780  1.00  0.00     0.126 C 
HETATM   14  C13 UNL     1      30.371  16.434  -0.918  1.00  0.00     0.021 C 
HETATM   15  C14 UNL     1      30.434  16.240  -2.406  1.00  0.00     0.021 C 
ENDBRANCH   8   9
ENDBRANCH   7   8
ENDBRANCH   4   7
BRANCH   1  16
HETATM   16  C5  UNL     1      27.063   6.436  -3.999  1.00  0.00     0.030 A 
HETATM   17  C4  UNL     1      26.146   5.865  -4.874  1.00  0.00     0.030 A 
HETATM   18  C3  UNL     1      26.256   4.561  -5.316  1.00  0.00     0.009 A 
HETATM   19  C2  UNL     1      27.296   3.773  -4.897  1.00  0.00    -0.062 A 
HETATM   20  C1  UNL     1      27.446   2.356  -5.356  1.00  0.00     0.048 C 
HETATM   21  C19 UNL     1      28.228   4.299  -4.030  1.00  0.00     0.009 A 
HETATM   22  C18 UNL     1      28.095   5.601  -3.605  1.00  0.00     0.030 A 
ENDBRANCH   1  16
TORSDOF 4
ENDMDL
