MODEL 7
REMARK VINA RESULT: -10.909168229      0.299      1.495
REMARK  4 active torsions:
REMARK  status: ('A' for Active; 'I' for Inactive)
REMARK    1  A    between atoms: C5_5  and  N1_6 
REMARK    2  A    between atoms: C8_9  and  C9_10 
REMARK    3  A    between atoms: C9_10  and  C10_11 
REMARK    4  A    between atoms: C10_11  and  C11_12 
REMARK       I    between atoms: C11_12  and  N2_14 
ROOT
HETATM    1  N1  UNL     1      26.896   8.578  -3.636  1.00  0.00    -0.381 N 
HETATM    2  C6  UNL     1      26.558   9.186  -2.384  1.00  0.00     0.123 C 
HETATM    3  C7  UNL     1      26.771  10.669  -2.323  1.00  0.00     0.024 C 
HETATM    4  C8  UNL     1      28.058  10.987  -3.015  1.00  0.00    -0.011 C 
HETATM    5  C16 UNL     1      27.962  10.640  -4.466  1.00  0.00     0.024 C 
HETATM    6  C17 UNL     1      27.634   9.193  -4.708  1.00  0.00     0.123 C 
ENDROOT
BRANCH   4   7
HETATM    7  C9  UNL     1      28.494  12.419  -2.881  1.00  0.00     0.014 C 
BRANCH   7   8
HETATM    8  C10 UNL     1      27.489  13.285  -2.172  1.00  0.00     0.103 C 
BRANCH   8   9
HETATM    9  C11 UNL     1      28.142  13.987  -1.046  1.00  0.00     0.219 C 
HETATM   10  O1  UNL     1      28.096  13.466   0.092  1.00  0.00    -0.273 OA
HETATM   11  N2  UNL     1      28.812  15.229  -1.240  1.00  0.00    -0.352 N 
HETATM   12  C12 UNL     1      29.483  15.997  -0.208  1.00  0.00     0.126 C 
HETATM   13  C15 UNL     1      28.978  15.989  -2.453  1.00  0.00     0.126 C 
HETATM   14  C13 UNL     1      30.770  16.378  -0.879  1.00  0.00     0.021 C 
HETATM   15  C14 UNL     1      30.376  16.550  -2.319  1.00  0.00     0.021 C 
ENDBRANCH   8   9
ENDBRANCH   7   8
ENDBRANCH   4   7
BRANCH   1  16
HETATM   16  C5  UNL     1      26.460   7.232  -3.849  1.00  0.00     0.030 A 
HETATM   17  C4  UNL     1      26.160   6.375  -2.796  1.00  0.00     0.030 A 
HETATM   18  C3  UNL     1      25.739   5.075  -2.996  1.00  0.00     0.009 A 
HETATM   19  C2  UNL     1      25.602   4.579  -4.267  1.00  0.00    -0.062 A 
HETATM   20  C1  UNL     1      25.149   3.175  -4.520  1.00  0.00     0.048 C 
HETATM   21  C19 UNL     1      25.889   5.394  -5.339  1.00  0.00     0.009 A 
HETATM   22  C18 UNL     1      26.306   6.686  -5.112  1.00  0.00     0.030 A 
ENDBRANCH   1  16
TORSDOF 4
ENDMDL
