MODEL 1
REMARK VINA RESULT: -8.440739691      0.000      0.000
REMARK  5 active torsions:
REMARK  status: ('A' for Active; 'I' for Inactive)
REMARK    1  A    between atoms: O1_2  and  C2_3 
REMARK    2  A    between atoms: C4_5  and  C5_6 
REMARK    3  A    between atoms: C14_19  and  O3_20 
REMARK    4  A    between atoms: C17_23  and  C18_24 
REMARK    5  A    between atoms: C18_24  and  N3_25 
ROOT
HETATM    1  C2  UNL     1       5.623  -4.423   3.904  1.00  0.00     0.077 A 
HETATM    2  C3  UNL     1       6.994  -4.558   3.857  1.00  0.00     0.052 A 
HETATM    3  C4  UNL     1       7.820  -4.230   4.910  1.00  0.00     0.012 A 
HETATM    4  C14 UNL     1       7.207  -3.746   6.048  1.00  0.00     0.080 A 
HETATM    5  C16 UNL     1       5.820  -3.606   6.106  1.00  0.00     0.049 A 
HETATM    6  C17 UNL     1       4.995  -3.931   5.063  1.00  0.00     0.006 A 
ENDROOT
BRANCH   3   7
HETATM    7  C5  UNL     1       9.291  -4.350   4.847  1.00  0.00     0.004 A 
HETATM    8  C6  UNL     1      10.084  -3.225   4.874  1.00  0.00     0.107 A 
HETATM    9  N1  UNL     1      11.412  -3.216   4.771  1.00  0.00    -0.327 N 
HETATM   10  C7  UNL     1      12.187  -1.966   4.816  1.00  0.00     0.159 C 
HETATM   11  C8  UNL     1      12.023  -4.399   4.631  1.00  0.00     0.259 A 
HETATM   12  O2  UNL     1      13.279  -4.415   4.531  1.00  0.00    -0.267 OA
HETATM   13  C9  UNL     1      11.322  -5.592   4.591  1.00  0.00     0.059 A 
HETATM   14  C10 UNL     1      11.964  -6.808   4.455  1.00  0.00     0.105 A 
HETATM   15  C13 UNL     1       9.930  -5.573   4.701  1.00  0.00    -0.005 A 
HETATM   16  N2  UNL     1      11.238  -7.934   4.436  1.00  0.00    -0.374 N 
HETATM   17  C11 UNL     1       9.904  -7.946   4.543  1.00  0.00     0.088 A 
ATOM     18  H2  UNL     1      11.725  -8.824   4.335  1.00  0.00     0.164 HD
HETATM   19  C12 UNL     1       9.221  -6.741   4.680  1.00  0.00     0.030 A 
ENDBRANCH   3   7
BRANCH   4  20
HETATM   20  O3  UNL     1       8.002  -3.404   7.130  1.00  0.00    -0.355 OA
HETATM   21  C15 UNL     1       7.737  -2.314   7.987  1.00  0.00     0.210 C 
ENDBRANCH   4  20
BRANCH   1  22
HETATM   22  O1  UNL     1       4.780  -4.748   2.861  1.00  0.00    -0.355 OA
HETATM   23  C1  UNL     1       4.777  -6.044   2.326  1.00  0.00     0.210 C 
ENDBRANCH   1  22
BRANCH   6  24
HETATM   24  C18 UNL     1       3.522  -3.803   5.051  1.00  0.00     0.312 C 
BRANCH  24  25
HETATM   25  N3  UNL     1       3.009  -2.485   5.223  1.00  0.00     0.084 N 
HETATM   26  C19 UNL     1       1.533  -2.654   5.197  1.00  0.00     0.309 C 
HETATM   27  C20 UNL     1       3.294  -1.578   4.149  1.00  0.00     0.309 C 
ENDBRANCH  24  25
ENDBRANCH   6  24
TORSDOF 5
ENDMDL
