MODEL 4
REMARK VINA RESULT: -6.287326081      1.887      8.171
REMARK  5 active torsions:
REMARK  status: ('A' for Active; 'I' for Inactive)
REMARK    1  A    between atoms: O1_2  and  C2_3 
REMARK    2  A    between atoms: C4_5  and  C5_6 
REMARK    3  A    between atoms: C14_19  and  O3_20 
REMARK    4  A    between atoms: C17_23  and  C18_24 
REMARK    5  A    between atoms: C18_24  and  N3_25 
ROOT
HETATM    1  C2  UNL     1       7.369  -3.401   6.094  1.00  0.00     0.077 A 
HETATM    2  C3  UNL     1       6.019  -3.551   6.324  1.00  0.00     0.052 A 
HETATM    3  C4  UNL     1       5.154  -4.097   5.400  1.00  0.00     0.012 A 
HETATM    4  C14 UNL     1       5.705  -4.498   4.200  1.00  0.00     0.080 A 
HETATM    5  C16 UNL     1       7.071  -4.349   3.958  1.00  0.00     0.049 A 
HETATM    6  C17 UNL     1       7.934  -3.809   4.872  1.00  0.00     0.006 A 
ENDROOT
BRANCH   3   7
HETATM    7  C5  UNL     1       3.701  -4.232   5.637  1.00  0.00     0.004 A 
HETATM    8  C6  UNL     1       3.182  -5.409   6.130  1.00  0.00     0.107 A 
HETATM    9  N1  UNL     1       1.889  -5.654   6.331  1.00  0.00    -0.327 N 
HETATM   10  C7  UNL     1       1.416  -6.940   6.868  1.00  0.00     0.159 C 
HETATM   11  C8  UNL     1       1.026  -4.676   6.028  1.00  0.00     0.259 A 
HETATM   12  O2  UNL     1      -0.203  -4.886   6.210  1.00  0.00    -0.267 OA
HETATM   13  C9  UNL     1       1.440  -3.455   5.527  1.00  0.00     0.059 A 
HETATM   14  C10 UNL     1       0.541  -2.449   5.228  1.00  0.00     0.105 A 
HETATM   15  C13 UNL     1       2.803  -3.222   5.326  1.00  0.00    -0.005 A 
HETATM   16  N2  UNL     1       0.998  -1.280   4.757  1.00  0.00    -0.374 N 
HETATM   17  C11 UNL     1       2.297  -1.029   4.558  1.00  0.00     0.088 A 
ATOM     18  H2  UNL     1       0.323  -0.547   4.541  1.00  0.00     0.164 HD
HETATM   19  C12 UNL     1       3.233  -2.017   4.846  1.00  0.00     0.030 A 
ENDBRANCH   3   7
BRANCH   4  20
HETATM   20  O3  UNL     1       4.870  -5.051   3.242  1.00  0.00    -0.355 OA
HETATM   21  C15 UNL     1       4.944  -6.395   2.815  1.00  0.00     0.210 C 
ENDBRANCH   4  20
BRANCH   1  22
HETATM   22  O1  UNL     1       8.250  -2.859   7.008  1.00  0.00    -0.355 OA
HETATM   23  C1  UNL     1       7.777  -2.115   8.098  1.00  0.00     0.210 C 
ENDBRANCH   1  22
BRANCH   6  24
HETATM   24  C18 UNL     1       9.388  -3.616   4.683  1.00  0.00     0.312 C 
BRANCH  24  25
HETATM   25  N3  UNL     1      10.230  -4.602   5.273  1.00  0.00     0.084 N 
HETATM   26  C19 UNL     1      11.598  -4.245   4.816  1.00  0.00     0.309 C 
HETATM   27  C20 UNL     1      10.022  -5.940   4.800  1.00  0.00     0.309 C 
ENDBRANCH  24  25
ENDBRANCH   6  24
TORSDOF 5
ENDMDL
