MODEL 6
REMARK VINA RESULT: -6.066950742      1.998      7.860
REMARK  5 active torsions:
REMARK  status: ('A' for Active; 'I' for Inactive)
REMARK    1  A    between atoms: O1_2  and  C2_3 
REMARK    2  A    between atoms: C4_5  and  C5_6 
REMARK    3  A    between atoms: C14_19  and  O3_20 
REMARK    4  A    between atoms: C17_23  and  C18_24 
REMARK    5  A    between atoms: C18_24  and  N3_25 
ROOT
HETATM    1  C2  UNL     1       7.292  -3.351   5.941  1.00  0.00     0.077 A 
HETATM    2  C3  UNL     1       5.933  -3.161   6.067  1.00  0.00     0.052 A 
HETATM    3  C4  UNL     1       5.024  -3.562   5.111  1.00  0.00     0.012 A 
HETATM    4  C14 UNL     1       5.540  -4.177   3.988  1.00  0.00     0.080 A 
HETATM    5  C16 UNL     1       6.914  -4.373   3.851  1.00  0.00     0.049 A 
HETATM    6  C17 UNL     1       7.820  -3.978   4.797  1.00  0.00     0.006 A 
ENDROOT
BRANCH   3   7
HETATM    7  C5  UNL     1       3.569  -3.333   5.236  1.00  0.00     0.004 A 
HETATM    8  C6  UNL     1       3.021  -2.122   4.879  1.00  0.00     0.107 A 
HETATM    9  N1  UNL     1       1.736  -1.793   4.999  1.00  0.00    -0.327 N 
HETATM   10  C7  UNL     1       1.229  -0.475   4.586  1.00  0.00     0.159 C 
HETATM   11  C8  UNL     1       0.913  -2.717   5.510  1.00  0.00     0.259 A 
HETATM   12  O2  UNL     1      -0.307  -2.428   5.634  1.00  0.00    -0.267 OA
HETATM   13  C9  UNL     1       1.359  -3.967   5.903  1.00  0.00     0.059 A 
HETATM   14  C10 UNL     1       0.499  -4.917   6.419  1.00  0.00     0.105 A 
HETATM   15  C13 UNL     1       2.712  -4.287   5.765  1.00  0.00    -0.005 A 
HETATM   16  N2  UNL     1       0.982  -6.116   6.771  1.00  0.00    -0.374 N 
HETATM   17  C11 UNL     1       2.272  -6.451   6.648  1.00  0.00     0.088 A 
ATOM     18  H2  UNL     1       0.335  -6.807   7.151  1.00  0.00     0.164 HD
HETATM   19  C12 UNL     1       3.170  -5.521   6.132  1.00  0.00     0.030 A 
ENDBRANCH   3   7
BRANCH   4  20
HETATM   20  O3  UNL     1       4.660  -4.594   3.003  1.00  0.00    -0.355 OA
HETATM   21  C15 UNL     1       4.743  -5.844   2.351  1.00  0.00     0.210 C 
ENDBRANCH   4  20
BRANCH   1  22
HETATM   22  O1  UNL     1       8.216  -2.960   6.887  1.00  0.00    -0.355 OA
HETATM   23  C1  UNL     1       7.801  -2.323   8.066  1.00  0.00     0.210 C 
ENDBRANCH   1  22
BRANCH   6  24
HETATM   24  C18 UNL     1       9.287  -4.148   4.717  1.00  0.00     0.312 C 
BRANCH  24  25
HETATM   25  N3  UNL     1       9.815  -5.312   5.345  1.00  0.00     0.084 N 
HETATM   26  C19 UNL     1      11.287  -5.108   5.329  1.00  0.00     0.309 C 
HETATM   27  C20 UNL     1       9.607  -6.537   4.628  1.00  0.00     0.309 C 
ENDBRANCH  24  25
ENDBRANCH   6  24
TORSDOF 5
ENDMDL
