MODEL 5
REMARK VINA RESULT: -6.102731715      4.368      7.451
REMARK  5 active torsions:
REMARK  status: ('A' for Active; 'I' for Inactive)
REMARK    1  A    between atoms: O1_2  and  C2_3 
REMARK    2  A    between atoms: C4_5  and  C5_6 
REMARK    3  A    between atoms: C14_19  and  O3_20 
REMARK    4  A    between atoms: C17_23  and  C18_24 
REMARK    5  A    between atoms: C18_24  and  N3_25 
ROOT
HETATM    1  C2  UNL     1      11.439  -6.897   4.543  1.00  0.00     0.077 A 
HETATM    2  C3  UNL     1      11.960  -8.092   4.097  1.00  0.00     0.052 A 
HETATM    3  C4  UNL     1      11.181  -9.191   3.804  1.00  0.00     0.012 A 
HETATM    4  C14 UNL     1       9.820  -9.047   3.981  1.00  0.00     0.080 A 
HETATM    5  C16 UNL     1       9.283  -7.841   4.432  1.00  0.00     0.049 A 
HETATM    6  C17 UNL     1      10.052  -6.747   4.724  1.00  0.00     0.006 A 
ENDROOT
BRANCH   3   7
HETATM    7  C5  UNL     1      11.744 -10.481   3.352  1.00  0.00     0.004 A 
HETATM    8  C6  UNL     1      11.925 -11.513   4.245  1.00  0.00     0.107 A 
HETATM    9  N1  UNL     1      12.470 -12.694   3.955  1.00  0.00    -0.327 N 
HETATM   10  C7  UNL     1      12.623 -13.749   4.969  1.00  0.00     0.159 C 
HETATM   11  C8  UNL     1      12.873 -12.889   2.693  1.00  0.00     0.259 A 
HETATM   12  O2  UNL     1      13.392 -13.998   2.397  1.00  0.00    -0.267 OA
HETATM   13  C9  UNL     1      12.739 -11.918   1.717  1.00  0.00     0.059 A 
HETATM   14  C10 UNL     1      13.149 -12.134   0.415  1.00  0.00     0.105 A 
HETATM   15  C13 UNL     1      12.163 -10.689   2.046  1.00  0.00    -0.005 A 
HETATM   16  N2  UNL     1      12.983 -11.165  -0.494  1.00  0.00    -0.374 N 
HETATM   17  C11 UNL     1      12.432  -9.979  -0.208  1.00  0.00     0.088 A 
ATOM     18  H2  UNL     1      13.291 -11.339  -1.451  1.00  0.00     0.164 HD
HETATM   19  C12 UNL     1      12.008  -9.722   1.092  1.00  0.00     0.030 A 
ENDBRANCH   3   7
BRANCH   4  20
HETATM   20  O3  UNL     1       9.001 -10.129   3.699  1.00  0.00    -0.355 OA
HETATM   21  C15 UNL     1       8.125 -10.185   2.593  1.00  0.00     0.210 C 
ENDBRANCH   4  20
BRANCH   1  22
HETATM   22  O1  UNL     1      12.203  -5.786   4.839  1.00  0.00    -0.355 OA
HETATM   23  C1  UNL     1      13.111  -5.811   5.908  1.00  0.00     0.210 C 
ENDBRANCH   1  22
BRANCH   6  24
HETATM   24  C18 UNL     1       9.555  -5.443   5.210  1.00  0.00     0.312 C 
BRANCH  24  25
HETATM   25  N3  UNL     1       9.051  -4.557   4.215  1.00  0.00     0.084 N 
HETATM   26  C19 UNL     1       9.694  -3.252   4.518  1.00  0.00     0.309 C 
HETATM   27  C20 UNL     1       7.642  -4.298   4.289  1.00  0.00     0.309 C 
ENDBRANCH  24  25
ENDBRANCH   6  24
TORSDOF 5
ENDMDL
