MODEL 3
REMARK VINA RESULT: -10.606103598      1.382      2.404
REMARK  4 active torsions:
REMARK  status: ('A' for Active; 'I' for Inactive)
REMARK    1  A    between atoms: C1_2  and  C2_4 
REMARK    2  A    between atoms: C5_8  and  C6_9 
REMARK    3  A    between atoms: C9_12  and  C10_13 
REMARK    4  A    between atoms: C10_13  and  C11_14 
ROOT
HETATM    1  C2  UNL     1       2.113  -0.293  14.049  1.00  0.00     0.204 C 
HETATM    2  C3  UNL     1       2.210  -1.165  12.883  1.00  0.00     0.117 C 
HETATM    3  S1  UNL     1       3.957  -1.635  12.829  1.00  0.00    -0.109 SA
HETATM    4  C4  UNL     1       4.437  -0.513  14.145  1.00  0.00     0.083 A 
HETATM    5  C5  UNL     1       5.760  -0.280  14.599  1.00  0.00    -0.013 A 
HETATM    6  C9  UNL     1       5.933   0.606  15.628  1.00  0.00    -0.039 A 
HETATM    7  C21 UNL     1       4.782   1.207  16.140  1.00  0.00     0.082 A 
HETATM    8  C22 UNL     1       3.540   0.915  15.629  1.00  0.00     0.249 A 
HETATM    9  O3  UNL     1       2.566   1.533  16.186  1.00  0.00    -0.268 OA
HETATM   10  N1  UNL     1       3.369   0.042  14.617  1.00  0.00    -0.292 N 
ENDROOT
BRANCH   6  11
HETATM   11  C10 UNL     1       7.270   0.951  16.234  1.00  0.00     0.078 C 
BRANCH  11  12
HETATM   12  C11 UNL     1       7.145   2.141  17.070  1.00  0.00    -0.043 A 
HETATM   13  C12 UNL     1       7.222   3.387  16.436  1.00  0.00     0.008 A 
HETATM   14  C13 UNL     1       7.078   4.574  17.148  1.00  0.00     0.001 A 
HETATM   15  C14 UNL     1       6.855   4.516  18.510  1.00  0.00     0.012 A 
HETATM   16  C15 UNL     1       6.778   3.313  19.145  1.00  0.00    -0.025 A 
HETATM   17  C16 UNL     1       6.560   3.241  20.519  1.00  0.00     0.012 A 
HETATM   18  C20 UNL     1       6.923   2.138  18.425  1.00  0.00    -0.019 A 
HETATM   19  C17 UNL     1       6.497   2.008  21.115  1.00  0.00     0.001 A 
HETATM   20  C18 UNL     1       6.639   0.823  20.419  1.00  0.00     0.001 A 
HETATM   21  C19 UNL     1       6.854   0.937  19.054  1.00  0.00     0.013 A 
ENDBRANCH  11  12
ENDBRANCH   6  11
BRANCH   5  22
HETATM   22  C6  UNL     1       6.853  -0.952  13.910  1.00  0.00     0.022 A 
HETATM   23  C7  UNL     1       6.896  -1.776  12.734  1.00  0.00     0.010 A 
HETATM   24  C8  UNL     1       7.284  -0.335  12.591  1.00  0.00     0.010 A 
ENDBRANCH   5  22
BRANCH   1  25
HETATM   25  C1  UNL     1       1.145  -0.908  15.018  1.00  0.00     0.198 C 
HETATM   26  O1  UNL     1       0.132  -0.352  15.458  1.00  0.00    -0.646 OA
HETATM   27  O2  UNL     1       1.448  -2.203  15.429  1.00  0.00    -0.646 OA
ENDBRANCH   1  25
TORSDOF 4
ENDMDL
