MODEL 1
REMARK VINA RESULT: -10.723856701      0.000      0.000
REMARK  4 active torsions:
REMARK  status: ('A' for Active; 'I' for Inactive)
REMARK    1  A    between atoms: C1_2  and  C2_4 
REMARK    2  A    between atoms: C5_8  and  C6_9 
REMARK    3  A    between atoms: C9_12  and  C10_13 
REMARK    4  A    between atoms: C10_13  and  C11_14 
ROOT
HETATM    1  C2  UNL     1       2.323  -1.558  14.207  1.00  0.00     0.204 C 
HETATM    2  C3  UNL     1       2.577  -2.581  13.198  1.00  0.00     0.117 C 
HETATM    3  S1  UNL     1       4.297  -2.301  12.712  1.00  0.00    -0.109 SA
HETATM    4  C4  UNL     1       4.459  -0.787  13.662  1.00  0.00     0.083 A 
HETATM    5  C5  UNL     1       5.590   0.069  13.678  1.00  0.00    -0.013 A 
HETATM    6  C9  UNL     1       5.536   1.179  14.478  1.00  0.00    -0.039 A 
HETATM    7  C21 UNL     1       4.364   1.371  15.209  1.00  0.00     0.082 A 
HETATM    8  C22 UNL     1       3.318   0.482  15.123  1.00  0.00     0.249 A 
HETATM    9  O3  UNL     1       2.300   0.772  15.844  1.00  0.00    -0.268 OA
HETATM   10  N1  UNL     1       3.371  -0.612  14.337  1.00  0.00    -0.292 N 
ENDROOT
BRANCH   6  11
HETATM   11  C10 UNL     1       6.658   2.176  14.619  1.00  0.00     0.078 C 
BRANCH  11  12
HETATM   12  C11 UNL     1       7.051   2.289  16.020  1.00  0.00    -0.043 A 
HETATM   13  C12 UNL     1       7.553   1.140  16.644  1.00  0.00     0.008 A 
HETATM   14  C13 UNL     1       7.985   1.163  17.967  1.00  0.00     0.001 A 
HETATM   15  C14 UNL     1       7.914   2.346  18.675  1.00  0.00     0.012 A 
HETATM   16  C15 UNL     1       7.427   3.473  18.086  1.00  0.00    -0.025 A 
HETATM   17  C16 UNL     1       7.344   4.671  18.792  1.00  0.00     0.012 A 
HETATM   18  C20 UNL     1       7.000   3.438  16.769  1.00  0.00    -0.019 A 
HETATM   19  C17 UNL     1       6.841   5.778  18.159  1.00  0.00     0.001 A 
HETATM   20  C18 UNL     1       6.407   5.769  16.847  1.00  0.00     0.001 A 
HETATM   21  C19 UNL     1       6.507   4.558  16.179  1.00  0.00     0.013 A 
ENDBRANCH  11  12
ENDBRANCH   6  11
BRANCH   5  22
HETATM   22  C6  UNL     1       6.710  -0.255  12.806  1.00  0.00     0.022 A 
HETATM   23  C7  UNL     1       6.790  -0.920  11.537  1.00  0.00     0.010 A 
HETATM   24  C8  UNL     1       6.829   0.578  11.542  1.00  0.00     0.010 A 
ENDBRANCH   5  22
BRANCH   1  25
HETATM   25  C1  UNL     1       1.952  -2.244  15.491  1.00  0.00     0.198 C 
HETATM   26  O1  UNL     1       2.753  -2.600  16.362  1.00  0.00    -0.646 OA
HETATM   27  O2  UNL     1       0.592  -2.478  15.675  1.00  0.00    -0.646 OA
ENDBRANCH   1  25
TORSDOF 4
ENDMDL
