MODEL 9
REMARK VINA RESULT: -10.171287112      3.559      7.359
REMARK  4 active torsions:
REMARK  status: ('A' for Active; 'I' for Inactive)
REMARK    1  A    between atoms: C1_2  and  C2_4 
REMARK    2  A    between atoms: C5_8  and  C6_9 
REMARK    3  A    between atoms: C9_12  and  C10_13 
REMARK    4  A    between atoms: C10_13  and  C11_14 
ROOT
HETATM    1  C2  UNL     1       6.643   5.740  16.541  1.00  0.00     0.204 C 
HETATM    2  C3  UNL     1       7.130   6.238  17.823  1.00  0.00     0.117 C 
HETATM    3  S1  UNL     1       7.091   4.785  18.901  1.00  0.00    -0.109 SA
HETATM    4  C4  UNL     1       6.259   3.747  17.697  1.00  0.00     0.083 A 
HETATM    5  C5  UNL     1       5.808   2.420  17.912  1.00  0.00    -0.013 A 
HETATM    6  C9  UNL     1       5.203   1.777  16.866  1.00  0.00    -0.039 A 
HETATM    7  C21 UNL     1       5.080   2.492  15.675  1.00  0.00     0.082 A 
HETATM    8  C22 UNL     1       5.548   3.780  15.566  1.00  0.00     0.249 A 
HETATM    9  O3  UNL     1       5.374   4.325  14.421  1.00  0.00    -0.268 OA
HETATM   10  N1  UNL     1       6.146   4.413  16.595  1.00  0.00    -0.292 N 
ENDROOT
BRANCH   6  11
HETATM   11  C10 UNL     1       4.684   0.362  16.928  1.00  0.00     0.078 C 
BRANCH  11  12
HETATM   12  C11 UNL     1       4.093  -0.007  15.645  1.00  0.00    -0.043 A 
HETATM   13  C12 UNL     1       2.707   0.137  15.508  1.00  0.00     0.008 A 
HETATM   14  C13 UNL     1       2.062  -0.157  14.310  1.00  0.00     0.001 A 
HETATM   15  C14 UNL     1       2.810  -0.600  13.237  1.00  0.00     0.012 A 
HETATM   16  C15 UNL     1       4.159  -0.747  13.351  1.00  0.00    -0.025 A 
HETATM   17  C16 UNL     1       4.924  -1.200  12.279  1.00  0.00     0.012 A 
HETATM   18  C20 UNL     1       4.790  -0.452  14.549  1.00  0.00    -0.019 A 
HETATM   19  C17 UNL     1       6.278  -1.339  12.444  1.00  0.00     0.001 A 
HETATM   20  C18 UNL     1       6.930  -1.052  13.628  1.00  0.00     0.001 A 
HETATM   21  C19 UNL     1       6.134  -0.604  14.670  1.00  0.00     0.013 A 
ENDBRANCH  11  12
ENDBRANCH   6  11
BRANCH   5  22
HETATM   22  C6  UNL     1       5.968   1.845  19.240  1.00  0.00     0.022 A 
HETATM   23  C7  UNL     1       6.157   0.497  19.696  1.00  0.00     0.010 A 
HETATM   24  C8  UNL     1       7.368   1.375  19.595  1.00  0.00     0.010 A 
ENDBRANCH   5  22
BRANCH   1  25
HETATM   25  C1  UNL     1       7.719   5.951  15.514  1.00  0.00     0.198 C 
HETATM   26  O1  UNL     1       7.648   6.738  14.564  1.00  0.00    -0.646 OA
HETATM   27  O2  UNL     1       8.867   5.181  15.681  1.00  0.00    -0.646 OA
ENDBRANCH   1  25
TORSDOF 4
ENDMDL
