MODEL 7
REMARK VINA RESULT: -10.251710946      3.770      7.642
REMARK  4 active torsions:
REMARK  status: ('A' for Active; 'I' for Inactive)
REMARK    1  A    between atoms: C1_2  and  C2_4 
REMARK    2  A    between atoms: C5_8  and  C6_9 
REMARK    3  A    between atoms: C9_12  and  C10_13 
REMARK    4  A    between atoms: C10_13  and  C11_14 
ROOT
HETATM    1  C2  UNL     1       7.169   5.760  16.611  1.00  0.00     0.204 C 
HETATM    2  C3  UNL     1       7.109   6.075  18.035  1.00  0.00     0.117 C 
HETATM    3  S1  UNL     1       7.029   4.457  18.840  1.00  0.00    -0.109 SA
HETATM    4  C4  UNL     1       6.856   3.550  17.301  1.00  0.00     0.083 A 
HETATM    5  C5  UNL     1       6.645   2.153  17.176  1.00  0.00    -0.013 A 
HETATM    6  C9  UNL     1       6.550   1.635  15.913  1.00  0.00    -0.039 A 
HETATM    7  C21 UNL     1       6.668   2.535  14.853  1.00  0.00     0.082 A 
HETATM    8  C22 UNL     1       6.871   3.876  15.078  1.00  0.00     0.249 A 
HETATM    9  O3  UNL     1       6.962   4.594  14.022  1.00  0.00    -0.268 OA
HETATM   10  N1  UNL     1       6.966   4.387  16.321  1.00  0.00    -0.292 N 
ENDROOT
BRANCH   6  11
HETATM   11  C10 UNL     1       6.342   0.172  15.611  1.00  0.00     0.078 C 
BRANCH  11  12
HETATM   12  C11 UNL     1       4.987  -0.045  15.114  1.00  0.00    -0.043 A 
HETATM   13  C12 UNL     1       3.935   0.542  15.829  1.00  0.00     0.008 A 
HETATM   14  C13 UNL     1       2.614   0.417  15.409  1.00  0.00     0.001 A 
HETATM   15  C14 UNL     1       2.340  -0.301  14.263  1.00  0.00     0.012 A 
HETATM   16  C15 UNL     1       3.349  -0.880  13.554  1.00  0.00    -0.025 A 
HETATM   17  C16 UNL     1       3.084  -1.614  12.400  1.00  0.00     0.012 A 
HETATM   18  C20 UNL     1       4.660  -0.750  13.982  1.00  0.00    -0.019 A 
HETATM   19  C17 UNL     1       4.132  -2.184  11.724  1.00  0.00     0.001 A 
HETATM   20  C18 UNL     1       5.448  -2.069  12.131  1.00  0.00     0.001 A 
HETATM   21  C19 UNL     1       5.669  -1.331  13.284  1.00  0.00     0.013 A 
ENDBRANCH  11  12
ENDBRANCH   6  11
BRANCH   5  22
HETATM   22  C6  UNL     1       6.488   1.370  18.393  1.00  0.00     0.022 A 
HETATM   23  C7  UNL     1       6.211   1.737  19.753  1.00  0.00     0.010 A 
HETATM   24  C8  UNL     1       5.069   1.239  18.919  1.00  0.00     0.010 A 
ENDBRANCH   5  22
BRANCH   1  25
HETATM   25  C1  UNL     1       8.449   6.321  16.059  1.00  0.00     0.198 C 
HETATM   26  O1  UNL     1       8.525   7.129  15.126  1.00  0.00    -0.646 OA
HETATM   27  O2  UNL     1       9.615   5.871  16.672  1.00  0.00    -0.646 OA
ENDBRANCH   1  25
TORSDOF 4
ENDMDL
