MODEL 5
REMARK VINA RESULT: -10.460725581      0.870      1.930
REMARK  4 active torsions:
REMARK  status: ('A' for Active; 'I' for Inactive)
REMARK    1  A    between atoms: C1_2  and  C2_4 
REMARK    2  A    between atoms: C5_8  and  C6_9 
REMARK    3  A    between atoms: C9_12  and  C10_13 
REMARK    4  A    between atoms: C10_13  and  C11_14 
ROOT
HETATM    1  C2  UNL     1       1.993  -0.890  13.834  1.00  0.00     0.204 C 
HETATM    2  C3  UNL     1       2.106  -1.680  12.612  1.00  0.00     0.117 C 
HETATM    3  S1  UNL     1       3.887  -1.751  12.299  1.00  0.00    -0.109 SA
HETATM    4  C4  UNL     1       4.300  -0.598  13.610  1.00  0.00     0.083 A 
HETATM    5  C5  UNL     1       5.594  -0.095  13.900  1.00  0.00    -0.013 A 
HETATM    6  C9  UNL     1       5.719   0.771  14.953  1.00  0.00    -0.039 A 
HETATM    7  C21 UNL     1       4.551   1.086  15.649  1.00  0.00     0.082 A 
HETATM    8  C22 UNL     1       3.340   0.546  15.288  1.00  0.00     0.249 A 
HETATM    9  O3  UNL     1       2.346   0.915  16.007  1.00  0.00    -0.268 OA
HETATM   10  N1  UNL     1       3.217  -0.308  14.253  1.00  0.00    -0.292 N 
ENDROOT
BRANCH   6  11
HETATM   11  C10 UNL     1       7.024   1.380  15.398  1.00  0.00     0.078 C 
BRANCH  11  12
HETATM   12  C11 UNL     1       6.895   2.833  15.474  1.00  0.00    -0.043 A 
HETATM   13  C12 UNL     1       6.689   3.525  14.273  1.00  0.00     0.008 A 
HETATM   14  C13 UNL     1       6.520   4.906  14.253  1.00  0.00     0.001 A 
HETATM   15  C14 UNL     1       6.556   5.604  15.444  1.00  0.00     0.012 A 
HETATM   16  C15 UNL     1       6.757   4.949  16.621  1.00  0.00    -0.025 A 
HETATM   17  C16 UNL     1       6.804   5.642  17.828  1.00  0.00     0.012 A 
HETATM   18  C20 UNL     1       6.924   3.573  16.629  1.00  0.00    -0.019 A 
HETATM   19  C17 UNL     1       7.014   4.939  18.987  1.00  0.00     0.001 A 
HETATM   20  C18 UNL     1       7.185   3.569  19.021  1.00  0.00     0.001 A 
HETATM   21  C19 UNL     1       7.132   2.916  17.798  1.00  0.00     0.013 A 
ENDBRANCH  11  12
ENDBRANCH   6  11
BRANCH   5  22
HETATM   22  C6  UNL     1       6.695  -0.486  13.031  1.00  0.00     0.022 A 
HETATM   23  C7  UNL     1       6.735  -1.046  11.710  1.00  0.00     0.010 A 
HETATM   24  C8  UNL     1       6.965   0.429  11.850  1.00  0.00     0.010 A 
ENDBRANCH   5  22
BRANCH   1  25
HETATM   25  C1  UNL     1       1.326  -1.736  14.881  1.00  0.00     0.198 C 
HETATM   26  O1  UNL     1       1.718  -2.849  15.250  1.00  0.00    -0.646 OA
HETATM   27  O2  UNL     1       0.182  -1.188  15.455  1.00  0.00    -0.646 OA
ENDBRANCH   1  25
TORSDOF 4
ENDMDL
