MODEL 3
REMARK VINA RESULT: -3.996571074      5.774      8.364
REMARK  17 active torsions:
REMARK  status: ('A' for Active; 'I' for Inactive)
REMARK    1  A    between atoms: N1_1  and  C1_5 
REMARK    2  A    between atoms: C1_5  and  C2_6 
REMARK    3  A    between atoms: C2_6  and  C3_7 
REMARK    4  A    between atoms: C3_7  and  C4_8 
REMARK    5  A    between atoms: C4_8  and  C5_9 
REMARK    6  A    between atoms: C5_9  and  N2_10 
REMARK    7  A    between atoms: C5_9  and  C6_14 
REMARK    8  A    between atoms: C5_9  and  C14_32 
REMARK    9  A    between atoms: C6_14  and  C7_15 
REMARK   10  A    between atoms: C7_15  and  C8_16 
REMARK   11  A    between atoms: C8_16  and  N3_17 
REMARK   12  A    between atoms: C8_16  and  C9_21 
REMARK   13  A    between atoms: C8_16  and  C13_29 
REMARK   14  A    between atoms: C9_21  and  C10_22 
REMARK   15  A    between atoms: C10_22  and  C11_23 
REMARK   16  A    between atoms: C11_23  and  C12_24 
REMARK   17  A    between atoms: C12_24  and  N4_25 
ROOT
HETATM    1  C6  UNL     1      31.254  -6.429 -12.157  1.00  0.00     0.053 C 
ENDROOT
BRANCH   1   2
HETATM    2  C5  UNL     1      29.864  -5.895 -12.495  1.00  0.00     0.210 C 
BRANCH   2   3
HETATM    3  C4  UNL     1      28.898  -6.989 -12.255  1.00  0.00     0.050 C 
BRANCH   3   4
HETATM    4  C3  UNL     1      27.601  -6.707 -11.625  1.00  0.00     0.005 C 
BRANCH   4   5
HETATM    5  C2  UNL     1      26.385  -7.183 -12.365  1.00  0.00     0.027 C 
BRANCH   5   6
HETATM    6  C1  UNL     1      26.293  -6.434 -13.702  1.00  0.00     0.229 C 
BRANCH   6   7
HETATM    7  N1  UNL     1      26.149  -5.018 -13.426  1.00  0.00    -0.079 N 
ATOM      8  H13 UNL     1      25.764  -4.837 -12.500  1.00  0.00     0.274 HD
ATOM      9  H12 UNL     1      27.047  -4.550 -13.298  1.00  0.00     0.274 HD
ATOM     10  H11 UNL     1      25.592  -4.600 -14.171  1.00  0.00     0.274 HD
ENDBRANCH   6   7
ENDBRANCH   5   6
ENDBRANCH   4   5
ENDBRANCH   3   4
ENDBRANCH   2   3
BRANCH   2  11
HETATM   11  N2  UNL     1      29.633  -4.683 -11.755  1.00  0.00    -0.060 N 
ATOM     12  H23 UNL     1      29.292  -3.953 -12.380  1.00  0.00     0.275 HD
ATOM     13  H22 UNL     1      28.823  -4.796 -11.146  1.00  0.00     0.275 HD
ATOM     14  H21 UNL     1      30.426  -4.334 -11.216  1.00  0.00     0.275 HD
ENDBRANCH   2  11
BRANCH   2  15
HETATM   15  C14 UNL     1      29.854  -5.469 -13.947  1.00  0.00     0.210 C 
HETATM   16  O3  UNL     1      30.605  -6.077 -14.739  1.00  0.00    -0.646 OA
HETATM   17  O4  UNL     1      29.062  -4.452 -14.433  1.00  0.00    -0.646 OA
ENDBRANCH   2  15
ENDBRANCH   1   2
BRANCH   1  18
HETATM   18  C7  UNL     1      32.154  -5.439 -11.518  1.00  0.00     0.053 C 
BRANCH  18  19
HETATM   19  C8  UNL     1      33.346  -5.203 -12.449  1.00  0.00     0.210 C 
BRANCH  19  20
HETATM   20  N3  UNL     1      33.352  -6.225 -13.440  1.00  0.00    -0.060 N 
ATOM     21  H33 UNL     1      32.422  -6.412 -13.816  1.00  0.00     0.275 HD
ATOM     22  H32 UNL     1      33.796  -5.927 -14.309  1.00  0.00     0.275 HD
ATOM     23  H31 UNL     1      33.789  -7.056 -13.043  1.00  0.00     0.275 HD
ENDBRANCH  19  20
BRANCH  19  24
HETATM   24  C9  UNL     1      34.606  -4.982 -11.695  1.00  0.00     0.050 C 
BRANCH  24  25
HETATM   25  C10 UNL     1      34.783  -5.697 -10.412  1.00  0.00     0.005 C 
BRANCH  25  26
HETATM   26  C11 UNL     1      35.778  -6.802 -10.386  1.00  0.00     0.027 C 
BRANCH  26  27
HETATM   27  C12 UNL     1      35.109  -8.089 -10.847  1.00  0.00     0.229 C 
BRANCH  27  28
HETATM   28  N4  UNL     1      33.807  -8.257 -10.267  1.00  0.00    -0.079 N 
ATOM     29  H43 UNL     1      33.710  -9.176  -9.835  1.00  0.00     0.274 HD
ATOM     30  H42 UNL     1      33.693  -7.676  -9.437  1.00  0.00     0.274 HD
ATOM     31  H41 UNL     1      33.061  -8.087 -10.942  1.00  0.00     0.274 HD
ENDBRANCH  27  28
ENDBRANCH  26  27
ENDBRANCH  25  26
ENDBRANCH  24  25
ENDBRANCH  19  24
BRANCH  19  32
HETATM   32  C13 UNL     1      33.023  -3.856 -13.089  1.00  0.00     0.210 C 
HETATM   33  O1  UNL     1      33.502  -3.513 -14.175  1.00  0.00    -0.646 OA
HETATM   34  O2  UNL     1      32.160  -3.035 -12.382  1.00  0.00    -0.646 OA
ENDBRANCH  19  32
ENDBRANCH  18  19
ENDBRANCH   1  18
TORSDOF 17
ENDMDL
