MODEL 1
REMARK VINA RESULT: -4.236599002      0.000      0.000
REMARK  17 active torsions:
REMARK  status: ('A' for Active; 'I' for Inactive)
REMARK    1  A    between atoms: N1_1  and  C1_5 
REMARK    2  A    between atoms: C1_5  and  C2_6 
REMARK    3  A    between atoms: C2_6  and  C3_7 
REMARK    4  A    between atoms: C3_7  and  C4_8 
REMARK    5  A    between atoms: C4_8  and  C5_9 
REMARK    6  A    between atoms: C5_9  and  N2_10 
REMARK    7  A    between atoms: C5_9  and  C6_14 
REMARK    8  A    between atoms: C5_9  and  C14_32 
REMARK    9  A    between atoms: C6_14  and  C7_15 
REMARK   10  A    between atoms: C7_15  and  C8_16 
REMARK   11  A    between atoms: C8_16  and  N3_17 
REMARK   12  A    between atoms: C8_16  and  C9_21 
REMARK   13  A    between atoms: C8_16  and  C13_29 
REMARK   14  A    between atoms: C9_21  and  C10_22 
REMARK   15  A    between atoms: C10_22  and  C11_23 
REMARK   16  A    between atoms: C11_23  and  C12_24 
REMARK   17  A    between atoms: C12_24  and  N4_25 
ROOT
HETATM    1  C6  UNL     1      36.006 -10.002 -10.784  1.00  0.00     0.053 C 
ENDROOT
BRANCH   1   2
HETATM    2  C5  UNL     1      36.952  -9.608 -11.915  1.00  0.00     0.210 C 
BRANCH   2   3
HETATM    3  C4  UNL     1      37.548  -8.302 -11.562  1.00  0.00     0.050 C 
BRANCH   3   4
HETATM    4  C3  UNL     1      36.840  -7.385 -10.657  1.00  0.00     0.005 C 
BRANCH   4   5
HETATM    5  C2  UNL     1      36.294  -6.131 -11.275  1.00  0.00     0.027 C 
BRANCH   5   6
HETATM    6  C1  UNL     1      35.279  -5.504 -10.309  1.00  0.00     0.229 C 
BRANCH   6   7
HETATM    7  N1  UNL     1      35.687  -5.810  -8.952  1.00  0.00    -0.079 N 
ATOM      8  H13 UNL     1      35.475  -5.056  -8.299  1.00  0.00     0.274 HD
ATOM      9  H12 UNL     1      35.108  -6.532  -8.523  1.00  0.00     0.274 HD
ATOM     10  H11 UNL     1      36.677  -6.055  -8.960  1.00  0.00     0.274 HD
ENDBRANCH   6   7
ENDBRANCH   5   6
ENDBRANCH   4   5
ENDBRANCH   3   4
ENDBRANCH   2   3
BRANCH   2  11
HETATM   11  N2  UNL     1      37.884 -10.680 -12.144  1.00  0.00    -0.060 N 
ATOM     12  H23 UNL     1      38.829 -10.306 -12.236  1.00  0.00     0.275 HD
ATOM     13  H22 UNL     1      37.990 -11.236 -11.295  1.00  0.00     0.275 HD
ATOM     14  H21 UNL     1      37.674 -11.290 -12.934  1.00  0.00     0.275 HD
ENDBRANCH   2  11
BRANCH   2  15
HETATM   15  C14 UNL     1      36.152  -9.512 -13.197  1.00  0.00     0.210 C 
HETATM   16  O3  UNL     1      36.746  -9.737 -14.273  1.00  0.00    -0.646 OA
HETATM   17  O4  UNL     1      34.813  -9.192 -13.233  1.00  0.00    -0.646 OA
ENDBRANCH   2  15
ENDBRANCH   1   2
BRANCH   1  18
HETATM   18  C7  UNL     1      35.971 -11.455 -10.490  1.00  0.00     0.053 C 
BRANCH  18  19
HETATM   19  C8  UNL     1      34.545 -11.958 -10.728  1.00  0.00     0.210 C 
BRANCH  19  20
HETATM   20  N3  UNL     1      33.687 -10.830 -10.862  1.00  0.00    -0.060 N 
ATOM     21  H33 UNL     1      32.846 -10.907 -10.290  1.00  0.00     0.275 HD
ATOM     22  H32 UNL     1      34.073  -9.990 -10.430  1.00  0.00     0.275 HD
ATOM     23  H31 UNL     1      33.477 -10.700 -11.852  1.00  0.00     0.275 HD
ENDBRANCH  19  20
BRANCH  19  24
HETATM   24  C9  UNL     1      34.150 -12.998  -9.745  1.00  0.00     0.050 C 
BRANCH  24  25
HETATM   25  C10 UNL     1      32.879 -12.813  -9.010  1.00  0.00     0.005 C 
BRANCH  25  26
HETATM   26  C11 UNL     1      31.788 -13.784  -9.292  1.00  0.00     0.027 C 
BRANCH  26  27
HETATM   27  C12 UNL     1      31.098 -13.397 -10.591  1.00  0.00     0.229 C 
BRANCH  27  28
HETATM   28  N4  UNL     1      31.099 -14.471 -11.544  1.00  0.00    -0.079 N 
ATOM     29  H43 UNL     1      32.010 -14.928 -11.585  1.00  0.00     0.274 HD
ATOM     30  H42 UNL     1      30.538 -15.257 -11.214  1.00  0.00     0.274 HD
ATOM     31  H41 UNL     1      30.797 -14.164 -12.469  1.00  0.00     0.274 HD
ENDBRANCH  27  28
ENDBRANCH  26  27
ENDBRANCH  25  26
ENDBRANCH  24  25
ENDBRANCH  19  24
BRANCH  19  32
HETATM   32  C13 UNL     1      34.656 -12.692 -12.061  1.00  0.00     0.210 C 
HETATM   33  O1  UNL     1      33.662 -12.990 -12.732  1.00  0.00    -0.646 OA
HETATM   34  O2  UNL     1      35.938 -13.006 -12.480  1.00  0.00    -0.646 OA
ENDBRANCH  19  32
ENDBRANCH  18  19
ENDBRANCH   1  18
TORSDOF 17
ENDMDL
