MODEL 2
REMARK VINA RESULT: -4.073498049      3.551      4.911
REMARK  17 active torsions:
REMARK  status: ('A' for Active; 'I' for Inactive)
REMARK    1  A    between atoms: N1_1  and  C1_5 
REMARK    2  A    between atoms: C1_5  and  C2_6 
REMARK    3  A    between atoms: C2_6  and  C3_7 
REMARK    4  A    between atoms: C3_7  and  C4_8 
REMARK    5  A    between atoms: C4_8  and  C5_9 
REMARK    6  A    between atoms: C5_9  and  N2_10 
REMARK    7  A    between atoms: C5_9  and  C6_14 
REMARK    8  A    between atoms: C5_9  and  C14_32 
REMARK    9  A    between atoms: C6_14  and  C7_15 
REMARK   10  A    between atoms: C7_15  and  C8_16 
REMARK   11  A    between atoms: C8_16  and  N3_17 
REMARK   12  A    between atoms: C8_16  and  C9_21 
REMARK   13  A    between atoms: C8_16  and  C13_29 
REMARK   14  A    between atoms: C9_21  and  C10_22 
REMARK   15  A    between atoms: C10_22  and  C11_23 
REMARK   16  A    between atoms: C11_23  and  C12_24 
REMARK   17  A    between atoms: C12_24  and  N4_25 
ROOT
HETATM    1  C6  UNL     1      32.249 -11.038 -12.932  1.00  0.00     0.053 C 
ENDROOT
BRANCH   1   2
HETATM    2  C5  UNL     1      31.309 -11.268 -14.113  1.00  0.00     0.210 C 
BRANCH   2   3
HETATM    3  C4  UNL     1      30.242 -10.248 -14.035  1.00  0.00     0.050 C 
BRANCH   3   4
HETATM    4  C3  UNL     1      30.574  -8.850 -13.725  1.00  0.00     0.005 C 
BRANCH   4   5
HETATM    5  C2  UNL     1      29.525  -8.064 -12.995  1.00  0.00     0.027 C 
BRANCH   5   6
HETATM    6  C1  UNL     1      30.198  -6.883 -12.282  1.00  0.00     0.229 C 
BRANCH   6   7
HETATM    7  N1  UNL     1      29.163  -6.036 -11.720  1.00  0.00    -0.079 N 
ATOM      8  H13 UNL     1      29.515  -5.421 -10.987  1.00  0.00     0.274 HD
ATOM      9  H12 UNL     1      28.853  -5.313 -12.370  1.00  0.00     0.274 HD
ATOM     10  H11 UNL     1      28.398  -6.630 -11.401  1.00  0.00     0.274 HD
ENDBRANCH   6   7
ENDBRANCH   5   6
ENDBRANCH   4   5
ENDBRANCH   3   4
ENDBRANCH   2   3
BRANCH   2  11
HETATM   11  N2  UNL     1      32.077 -11.281 -15.330  1.00  0.00    -0.060 N 
ATOM     12  H23 UNL     1      31.466 -11.110 -16.128  1.00  0.00     0.275 HD
ATOM     13  H22 UNL     1      32.671 -10.453 -15.375  1.00  0.00     0.275 HD
ATOM     14  H21 UNL     1      32.636 -12.118 -15.494  1.00  0.00     0.275 HD
ENDBRANCH   2  11
BRANCH   2  15
HETATM   15  C14 UNL     1      30.736 -12.665 -14.004  1.00  0.00     0.210 C 
HETATM   16  O3  UNL     1      29.542 -12.780 -13.653  1.00  0.00    -0.646 OA
HETATM   17  O4  UNL     1      31.460 -13.805 -14.272  1.00  0.00    -0.646 OA
ENDBRANCH   2  15
ENDBRANCH   1   2
BRANCH   1  18
HETATM   18  C7  UNL     1      33.664 -11.398 -13.194  1.00  0.00     0.053 C 
BRANCH  18  19
HETATM   19  C8  UNL     1      34.120 -12.374 -12.105  1.00  0.00     0.210 C 
BRANCH  19  20
HETATM   20  N3  UNL     1      34.060 -13.694 -12.632  1.00  0.00    -0.060 N 
ATOM     21  H33 UNL     1      34.355 -14.400 -11.956  1.00  0.00     0.275 HD
ATOM     22  H32 UNL     1      33.103 -14.021 -12.765  1.00  0.00     0.275 HD
ATOM     23  H31 UNL     1      34.607 -13.724 -13.492  1.00  0.00     0.275 HD
ENDBRANCH  19  20
BRANCH  19  24
HETATM   24  C9  UNL     1      33.433 -12.126 -10.813  1.00  0.00     0.050 C 
BRANCH  24  25
HETATM   25  C10 UNL     1      33.421 -13.215  -9.812  1.00  0.00     0.005 C 
BRANCH  25  26
HETATM   26  C11 UNL     1      32.091 -13.724  -9.382  1.00  0.00     0.027 C 
BRANCH  26  27
HETATM   27  C12 UNL     1      31.066 -13.420 -10.464  1.00  0.00     0.229 C 
BRANCH  27  28
HETATM   28  N4  UNL     1      30.767 -14.574 -11.264  1.00  0.00    -0.079 N 
ATOM     29  H43 UNL     1      30.408 -14.305 -12.181  1.00  0.00     0.274 HD
ATOM     30  H42 UNL     1      31.619 -15.050 -11.558  1.00  0.00     0.274 HD
ATOM     31  H41 UNL     1      30.130 -15.215 -10.791  1.00  0.00     0.274 HD
ENDBRANCH  27  28
ENDBRANCH  26  27
ENDBRANCH  25  26
ENDBRANCH  24  25
ENDBRANCH  19  24
BRANCH  19  32
HETATM   32  C13 UNL     1      35.572 -11.971 -11.868  1.00  0.00     0.210 C 
HETATM   33  O1  UNL     1      35.888 -11.106 -11.043  1.00  0.00    -0.646 OA
HETATM   34  O2  UNL     1      36.522 -12.630 -12.631  1.00  0.00    -0.646 OA
ENDBRANCH  19  32
ENDBRANCH  18  19
ENDBRANCH   1  18
TORSDOF 17
ENDMDL
