MODEL 8
REMARK VINA RESULT: -7.519402252      2.228      7.183
REMARK  2 active torsions:
REMARK  status: ('A' for Active; 'I' for Inactive)
REMARK    1  A    between atoms: C4_4  and  C5_5 
REMARK    2  A    between atoms: C8_8  and  C9_9 
ROOT
HETATM    1  C1  UNL     1      13.842  -5.934   5.658  1.00  0.00     0.054 C 
HETATM    2  C2  UNL     1      12.783  -4.989   5.160  1.00  0.00     0.007 A 
HETATM    3  C3  UNL     1      11.460  -5.373   5.104  1.00  0.00     0.026 A 
HETATM    4  C4  UNL     1      10.557  -4.445   4.633  1.00  0.00    -0.010 A 
HETATM    5  C12 UNL     1      10.975  -3.189   4.239  1.00  0.00     0.106 A 
HETATM    6  N2  UNL     1      12.266  -2.839   4.302  1.00  0.00    -0.328 N 
HETATM    7  C13 UNL     1      12.623  -1.493   3.865  1.00  0.00     0.159 C 
HETATM    8  C14 UNL     1      13.152  -3.722   4.753  1.00  0.00     0.253 A 
HETATM    9  O2  UNL     1      14.369  -3.379   4.808  1.00  0.00    -0.267 OA
ENDROOT
BRANCH   4  10
HETATM   10  C5  UNL     1       9.149  -4.847   4.571  1.00  0.00    -0.025 A 
HETATM   11  C6  UNL     1       8.124  -3.929   4.494  1.00  0.00     0.013 A 
HETATM   12  C7  UNL     1       6.807  -4.317   4.437  1.00  0.00     0.017 A 
HETATM   13  C8  UNL     1       6.454  -5.650   4.455  1.00  0.00     0.029 A 
HETATM   14  C10 UNL     1       7.465  -6.582   4.532  1.00  0.00     0.017 A 
HETATM   15  C11 UNL     1       8.796  -6.176   4.589  1.00  0.00     0.013 A 
BRANCH  13  16
HETATM   16  C9  UNL     1       5.052  -6.067   4.394  1.00  0.00     0.264 C 
HETATM   17  N1  UNL     1       4.742  -7.448   4.471  1.00  0.00    -0.057 NA
HETATM   18  O1  UNL     1       4.155  -5.216   4.278  1.00  0.00    -0.271 OA
ENDBRANCH  13  16
ENDBRANCH   4  10
TORSDOF 2
ENDMDL
