MODEL 2
REMARK VINA RESULT: -7.693626742      1.415      1.747
REMARK  2 active torsions:
REMARK  status: ('A' for Active; 'I' for Inactive)
REMARK    1  A    between atoms: C4_4  and  C5_5 
REMARK    2  A    between atoms: C8_8  and  C9_9 
ROOT
HETATM    1  C1  UNL     1       8.011  -7.862   4.018  1.00  0.00     0.054 C 
HETATM    2  C2  UNL     1       9.512  -7.952   4.056  1.00  0.00     0.007 A 
HETATM    3  C3  UNL     1      10.278  -6.871   4.438  1.00  0.00     0.026 A 
HETATM    4  C4  UNL     1      11.645  -7.041   4.443  1.00  0.00    -0.010 A 
HETATM    5  C12 UNL     1      12.208  -8.249   4.079  1.00  0.00     0.106 A 
HETATM    6  N2  UNL     1      11.443  -9.285   3.710  1.00  0.00    -0.328 N 
HETATM    7  C13 UNL     1      12.120 -10.524   3.339  1.00  0.00     0.159 C 
HETATM    8  C14 UNL     1      10.122  -9.139   3.699  1.00  0.00     0.253 A 
HETATM    9  O2  UNL     1       9.410 -10.126   3.348  1.00  0.00    -0.267 OA
ENDROOT
BRANCH   4  10
HETATM   10  C5  UNL     1      12.464  -5.897   4.849  1.00  0.00    -0.025 A 
HETATM   11  C6  UNL     1      13.612  -6.041   5.598  1.00  0.00     0.013 A 
HETATM   12  C7  UNL     1      14.373  -4.961   5.974  1.00  0.00     0.017 A 
HETATM   13  C8  UNL     1      14.017  -3.677   5.615  1.00  0.00     0.029 A 
HETATM   14  C10 UNL     1      12.872  -3.513   4.867  1.00  0.00     0.017 A 
HETATM   15  C11 UNL     1      12.110  -4.616   4.492  1.00  0.00     0.013 A 
BRANCH  13  16
HETATM   16  C9  UNL     1      14.825  -2.524   6.014  1.00  0.00     0.264 C 
HETATM   17  N1  UNL     1      14.319  -1.219   5.786  1.00  0.00    -0.057 NA
HETATM   18  O1  UNL     1      15.935  -2.695   6.543  1.00  0.00    -0.271 OA
ENDBRANCH  13  16
ENDBRANCH   4  10
TORSDOF 2
ENDMDL
