MODEL 1
REMARK VINA RESULT: -7.865617678      0.000      0.000
REMARK  2 active torsions:
REMARK  status: ('A' for Active; 'I' for Inactive)
REMARK    1  A    between atoms: C4_4  and  C5_5 
REMARK    2  A    between atoms: C8_8  and  C9_9 
ROOT
HETATM    1  C1  UNL     1       6.456  -6.169   4.579  1.00  0.00     0.054 C 
HETATM    2  C2  UNL     1       7.841  -6.722   4.388  1.00  0.00     0.007 A 
HETATM    3  C3  UNL     1       8.955  -5.963   4.683  1.00  0.00     0.026 A 
HETATM    4  C4  UNL     1      10.185  -6.548   4.477  1.00  0.00    -0.010 A 
HETATM    5  C12 UNL     1      10.282  -7.839   3.996  1.00  0.00     0.106 A 
HETATM    6  N2  UNL     1       9.185  -8.556   3.716  1.00  0.00    -0.328 N 
HETATM    7  C13 UNL     1       9.378  -9.913   3.210  1.00  0.00     0.159 C 
HETATM    8  C14 UNL     1       7.990  -8.008   3.908  1.00  0.00     0.253 A 
HETATM    9  O2  UNL     1       6.962  -8.697   3.640  1.00  0.00    -0.267 OA
ENDROOT
BRANCH   4  10
HETATM   10  C5  UNL     1      11.371  -5.748   4.788  1.00  0.00    -0.025 A 
HETATM   11  C6  UNL     1      12.560  -6.318   5.190  1.00  0.00     0.013 A 
HETATM   12  C7  UNL     1      13.667  -5.558   5.480  1.00  0.00     0.017 A 
HETATM   13  C8  UNL     1      13.634  -4.182   5.382  1.00  0.00     0.029 A 
HETATM   14  C10 UNL     1      12.454  -3.594   4.983  1.00  0.00     0.017 A 
HETATM   15  C11 UNL     1      11.340  -4.375   4.691  1.00  0.00     0.013 A 
BRANCH  13  16
HETATM   16  C9  UNL     1      14.811  -3.369   5.691  1.00  0.00     0.264 C 
HETATM   17  N1  UNL     1      14.662  -1.965   5.820  1.00  0.00    -0.057 NA
HETATM   18  O1  UNL     1      15.920  -3.909   5.836  1.00  0.00    -0.271 OA
ENDBRANCH  13  16
ENDBRANCH   4  10
TORSDOF 2
ENDMDL
