MODEL 9
REMARK VINA RESULT: -7.516090922      2.670      7.111
REMARK  2 active torsions:
REMARK  status: ('A' for Active; 'I' for Inactive)
REMARK    1  A    between atoms: C4_4  and  C5_5 
REMARK    2  A    between atoms: C8_8  and  C9_9 
ROOT
HETATM    1  C1  UNL     1      13.263  -6.385   5.153  1.00  0.00     0.054 C 
HETATM    2  C2  UNL     1      12.403  -5.187   4.857  1.00  0.00     0.007 A 
HETATM    3  C3  UNL     1      11.032  -5.302   4.767  1.00  0.00     0.026 A 
HETATM    4  C4  UNL     1      10.323  -4.154   4.491  1.00  0.00    -0.010 A 
HETATM    5  C12 UNL     1      10.971  -2.947   4.316  1.00  0.00     0.106 A 
HETATM    6  N2  UNL     1      12.305  -2.860   4.408  1.00  0.00    -0.328 N 
HETATM    7  C13 UNL     1      12.911  -1.546   4.208  1.00  0.00     0.159 C 
HETATM    8  C14 UNL     1      13.006  -3.958   4.673  1.00  0.00     0.253 A 
HETATM    9  O2  UNL     1      14.266  -3.861   4.757  1.00  0.00    -0.267 OA
ENDROOT
BRANCH   4  10
HETATM   10  C5  UNL     1       8.866  -4.270   4.395  1.00  0.00    -0.025 A 
HETATM   11  C6  UNL     1       8.221  -5.487   4.417  1.00  0.00     0.013 A 
HETATM   12  C7  UNL     1       6.853  -5.586   4.326  1.00  0.00     0.017 A 
HETATM   13  C8  UNL     1       6.064  -4.461   4.206  1.00  0.00     0.029 A 
HETATM   14  C10 UNL     1       6.690  -3.235   4.181  1.00  0.00     0.017 A 
HETATM   15  C11 UNL     1       8.077  -3.149   4.275  1.00  0.00     0.013 A 
BRANCH  13  16
HETATM   16  C9  UNL     1       4.607  -4.561   4.108  1.00  0.00     0.264 C 
HETATM   17  N1  UNL     1       3.823  -3.395   4.297  1.00  0.00    -0.057 NA
HETATM   18  O1  UNL     1       4.074  -5.656   3.862  1.00  0.00    -0.271 OA
ENDBRANCH  13  16
ENDBRANCH   4  10
TORSDOF 2
ENDMDL
