MODEL 3
REMARK VINA RESULT: -7.671351742      1.418      2.055
REMARK  2 active torsions:
REMARK  status: ('A' for Active; 'I' for Inactive)
REMARK    1  A    between atoms: C4_4  and  C5_5 
REMARK    2  A    between atoms: C8_8  and  C9_9 
ROOT
HETATM    1  C1  UNL     1       8.005  -7.924   4.020  1.00  0.00     0.054 C 
HETATM    2  C2  UNL     1       9.507  -7.992   4.046  1.00  0.00     0.007 A 
HETATM    3  C3  UNL     1      10.261  -6.901   4.426  1.00  0.00     0.026 A 
HETATM    4  C4  UNL     1      11.630  -7.052   4.419  1.00  0.00    -0.010 A 
HETATM    5  C12 UNL     1      12.208  -8.250   4.046  1.00  0.00     0.106 A 
HETATM    6  N2  UNL     1      11.455  -9.295   3.680  1.00  0.00    -0.328 N 
HETATM    7  C13 UNL     1      12.146 -10.524   3.299  1.00  0.00     0.159 C 
HETATM    8  C14 UNL     1      10.131  -9.168   3.680  1.00  0.00     0.253 A 
HETATM    9  O2  UNL     1       9.432 -10.164   3.332  1.00  0.00    -0.267 OA
ENDROOT
BRANCH   4  10
HETATM   10  C5  UNL     1      12.436  -5.897   4.823  1.00  0.00    -0.025 A 
HETATM   11  C6  UNL     1      12.101  -4.607   4.472  1.00  0.00     0.013 A 
HETATM   12  C7  UNL     1      12.864  -3.530   4.855  1.00  0.00     0.017 A 
HETATM   13  C8  UNL     1      14.005  -3.697   5.612  1.00  0.00     0.029 A 
HETATM   14  C10 UNL     1      14.356  -4.979   5.971  1.00  0.00     0.017 A 
HETATM   15  C11 UNL     1      13.574  -6.062   5.577  1.00  0.00     0.013 A 
BRANCH  13  16
HETATM   16  C9  UNL     1      14.820  -2.553   6.022  1.00  0.00     0.264 C 
HETATM   17  N1  UNL     1      14.297  -1.245   5.864  1.00  0.00    -0.057 NA
HETATM   18  O1  UNL     1      15.952  -2.734   6.500  1.00  0.00    -0.271 OA
ENDBRANCH  13  16
ENDBRANCH   4  10
TORSDOF 2
ENDMDL
