MODEL 7
REMARK VINA RESULT: -7.532996504      2.180      7.043
REMARK  2 active torsions:
REMARK  status: ('A' for Active; 'I' for Inactive)
REMARK    1  A    between atoms: C4_4  and  C5_5 
REMARK    2  A    between atoms: C8_8  and  C9_9 
ROOT
HETATM    1  C1  UNL     1      14.022  -5.811   5.677  1.00  0.00     0.054 C 
HETATM    2  C2  UNL     1      12.915  -4.928   5.169  1.00  0.00     0.007 A 
HETATM    3  C3  UNL     1      11.612  -5.378   5.126  1.00  0.00     0.026 A 
HETATM    4  C4  UNL     1      10.663  -4.503   4.645  1.00  0.00    -0.010 A 
HETATM    5  C12 UNL     1      11.016  -3.234   4.230  1.00  0.00     0.106 A 
HETATM    6  N2  UNL     1      12.289  -2.820   4.281  1.00  0.00    -0.328 N 
HETATM    7  C13 UNL     1      12.576  -1.464   3.822  1.00  0.00     0.159 C 
HETATM    8  C14 UNL     1      13.219  -3.650   4.742  1.00  0.00     0.253 A 
HETATM    9  O2  UNL     1      14.418  -3.246   4.785  1.00  0.00    -0.267 OA
ENDROOT
BRANCH   4  10
HETATM   10  C5  UNL     1       9.277  -4.975   4.597  1.00  0.00    -0.025 A 
HETATM   11  C6  UNL     1       8.955  -6.315   4.593  1.00  0.00     0.013 A 
HETATM   12  C7  UNL     1       7.651  -6.747   4.548  1.00  0.00     0.017 A 
HETATM   13  C8  UNL     1       6.604  -5.851   4.502  1.00  0.00     0.029 A 
HETATM   14  C10 UNL     1       6.906  -4.508   4.503  1.00  0.00     0.017 A 
HETATM   15  C11 UNL     1       8.231  -4.082   4.551  1.00  0.00     0.013 A 
BRANCH  13  16
HETATM   16  C9  UNL     1       5.214  -6.308   4.452  1.00  0.00     0.264 C 
HETATM   17  N1  UNL     1       4.173  -5.344   4.444  1.00  0.00    -0.057 NA
HETATM   18  O1  UNL     1       4.959  -7.523   4.419  1.00  0.00    -0.271 OA
ENDBRANCH  13  16
ENDBRANCH   4  10
TORSDOF 2
ENDMDL
