MODEL 9
REMARK VINA RESULT: -5.854824840      2.316      5.662
REMARK  1 active torsions:
REMARK  status: ('A' for Active; 'I' for Inactive)
REMARK    1  A    between atoms: N1_2  and  C3_4 
ROOT
HETATM    1  C3  UNL     1     -23.120  -2.873  -9.718  1.00  0.00     0.679 A 
HETATM    2  N2  UNL     1     -24.431  -2.667  -9.936  1.00  0.00    -0.201 N 
ATOM      3  H2  UNL     1     -24.788  -1.717  -9.833  1.00  0.00     0.183 HD
HETATM    4  C4  UNL     1     -25.299  -3.626 -10.277  1.00  0.00     0.125 A 
HETATM    5  C5  UNL     1     -24.787  -4.923 -10.409  1.00  0.00     0.075 A 
HETATM    6  C6  UNL     1     -25.600  -5.978 -10.749  1.00  0.00     0.261 A 
HETATM    7  O1  UNL     1     -26.831  -5.747 -10.949  1.00  0.00    -0.267 OA
HETATM    8  N3  UNL     1     -25.181  -7.239 -10.885  1.00  0.00    -0.328 N 
HETATM    9  C7  UNL     1     -26.071  -8.333 -11.243  1.00  0.00     0.159 C 
HETATM   10  C8  UNL     1     -23.879  -7.485 -10.674  1.00  0.00     0.096 A 
HETATM   11  C9  UNL     1     -23.010  -6.464 -10.330  1.00  0.00     0.048 A 
HETATM   12  C10 UNL     1     -23.445  -5.172 -10.192  1.00  0.00     0.067 A 
HETATM   13  N4  UNL     1     -22.656  -4.135  -9.853  1.00  0.00    -0.191 N 
ATOM     14  H4  UNL     1     -21.663  -4.309  -9.690  1.00  0.00     0.184 HD
ENDROOT
BRANCH   1  15
HETATM   15  N1  UNL     1     -22.336  -1.763  -9.352  1.00  0.00    -0.226 N 
HETATM   16  C1  UNL     1     -20.905  -1.895  -9.237  1.00  0.00     0.168 C 
HETATM   17  C2  UNL     1     -22.940  -0.481  -9.083  1.00  0.00     0.168 C 
ENDBRANCH   1  15
TORSDOF 1
ENDMDL
