MODEL 7
REMARK VINA RESULT: -5.906280564      2.359      5.873
REMARK  1 active torsions:
REMARK  status: ('A' for Active; 'I' for Inactive)
REMARK    1  A    between atoms: N1_2  and  C3_4 
ROOT
HETATM    1  C3  UNL     1     -23.051  -4.407 -10.191  1.00  0.00     0.679 A 
HETATM    2  N2  UNL     1     -24.369  -4.145 -10.246  1.00  0.00    -0.201 N 
ATOM      3  H2  UNL     1     -24.672  -3.186 -10.074  1.00  0.00     0.183 HD
HETATM    4  C4  UNL     1     -25.309  -5.058 -10.510  1.00  0.00     0.125 A 
HETATM    5  C5  UNL     1     -24.870  -6.368 -10.740  1.00  0.00     0.075 A 
HETATM    6  C6  UNL     1     -25.761  -7.380 -11.011  1.00  0.00     0.261 A 
HETATM    7  O1  UNL     1     -26.996  -7.097 -11.057  1.00  0.00    -0.267 OA
HETATM    8  N3  UNL     1     -25.413  -8.650 -11.233  1.00  0.00    -0.328 N 
HETATM    9  C7  UNL     1     -26.383  -9.698 -11.514  1.00  0.00     0.159 C 
HETATM   10  C8  UNL     1     -24.106  -8.952 -11.184  1.00  0.00     0.096 A 
HETATM   11  C9  UNL     1     -23.161  -7.976 -10.916  1.00  0.00     0.048 A 
HETATM   12  C10 UNL     1     -23.523  -6.675 -10.690  1.00  0.00     0.067 A 
HETATM   13  N4  UNL     1     -22.658  -5.680 -10.417  1.00  0.00    -0.191 N 
ATOM     14  H4  UNL     1     -21.662  -5.896 -10.378  1.00  0.00     0.184 HD
ENDROOT
BRANCH   1  15
HETATM   15  N1  UNL     1     -22.184  -3.339  -9.889  1.00  0.00    -0.226 N 
HETATM   16  C1  UNL     1     -20.962  -3.584  -9.165  1.00  0.00     0.168 C 
HETATM   17  C2  UNL     1     -22.498  -1.989 -10.288  1.00  0.00     0.168 C 
ENDBRANCH   1  15
TORSDOF 1
ENDMDL
