MODEL 13
REMARK VINA RESULT: -5.614302990      1.374      2.056
REMARK  1 active torsions:
REMARK  status: ('A' for Active; 'I' for Inactive)
REMARK    1  A    between atoms: N1_2  and  C3_4 
ROOT
HETATM    1  C3  UNL     1     -25.849  -6.497 -10.807  1.00  0.00     0.679 A 
HETATM    2  N2  UNL     1     -24.718  -7.187 -10.574  1.00  0.00    -0.201 N 
ATOM      3  H2  UNL     1     -24.758  -8.204 -10.640  1.00  0.00     0.183 HD
HETATM    4  C4  UNL     1     -23.545  -6.628 -10.260  1.00  0.00     0.125 A 
HETATM    5  C5  UNL     1     -23.515  -5.230 -10.172  1.00  0.00     0.075 A 
HETATM    6  C6  UNL     1     -22.358  -4.562  -9.847  1.00  0.00     0.261 A 
HETATM    7  O1  UNL     1     -21.310  -5.244  -9.635  1.00  0.00    -0.267 OA
HETATM    8  N3  UNL     1     -22.259  -3.235  -9.739  1.00  0.00    -0.328 N 
HETATM    9  C7  UNL     1     -21.018  -2.560  -9.390  1.00  0.00     0.159 C 
HETATM   10  C8  UNL     1     -23.367  -2.511  -9.963  1.00  0.00     0.096 A 
HETATM   11  C9  UNL     1     -24.562  -3.127 -10.294  1.00  0.00     0.048 A 
HETATM   12  C10 UNL     1     -24.658  -4.488 -10.404  1.00  0.00     0.067 A 
HETATM   13  N4  UNL     1     -25.789  -5.150 -10.715  1.00  0.00    -0.191 N 
ATOM     14  H4  UNL     1     -26.638  -4.611 -10.888  1.00  0.00     0.184 HD
ENDROOT
BRANCH   1  15
HETATM   15  N1  UNL     1     -27.011  -7.230 -11.115  1.00  0.00    -0.226 N 
HETATM   16  C1  UNL     1     -28.274  -6.553 -11.265  1.00  0.00     0.168 C 
HETATM   17  C2  UNL     1     -26.965  -8.662 -11.282  1.00  0.00     0.168 C 
ENDBRANCH   1  15
TORSDOF 1
ENDMDL
