MODEL 1
REMARK VINA RESULT: -6.489816116      0.000      0.000
REMARK  1 active torsions:
REMARK  status: ('A' for Active; 'I' for Inactive)
REMARK    1  A    between atoms: N1_2  and  C3_4 
ROOT
HETATM    1  C3  UNL     1     -23.898  -6.316 -10.500  1.00  0.00     0.679 A 
HETATM    2  N2  UNL     1     -22.692  -6.618  -9.986  1.00  0.00    -0.201 N 
ATOM      3  H2  UNL     1     -22.444  -7.604  -9.900  1.00  0.00     0.183 HD
HETATM    4  C4  UNL     1     -21.796  -5.713  -9.579  1.00  0.00     0.125 A 
HETATM    5  C5  UNL     1     -22.160  -4.366  -9.704  1.00  0.00     0.075 A 
HETATM    6  C6  UNL     1     -21.311  -3.360  -9.306  1.00  0.00     0.261 A 
HETATM    7  O1  UNL     1     -20.181  -3.681  -8.828  1.00  0.00    -0.267 OA
HETATM    8  N3  UNL     1     -21.595  -2.057  -9.389  1.00  0.00    -0.328 N 
HETATM    9  C7  UNL     1     -20.674  -1.018  -8.955  1.00  0.00     0.159 C 
HETATM   10  C8  UNL     1     -22.790  -1.715  -9.895  1.00  0.00     0.096 A 
HETATM   11  C9  UNL     1     -23.687  -2.683 -10.313  1.00  0.00     0.048 A 
HETATM   12  C10 UNL     1     -23.391  -4.017 -10.226  1.00  0.00     0.067 A 
HETATM   13  N4  UNL     1     -24.220  -5.008 -10.607  1.00  0.00    -0.191 N 
ATOM     14  H4  UNL     1     -25.131  -4.760 -10.994  1.00  0.00     0.184 HD
ENDROOT
BRANCH   1  15
HETATM   15  N1  UNL     1     -24.736  -7.383 -10.872  1.00  0.00    -0.226 N 
HETATM   16  C1  UNL     1     -24.167  -8.658 -11.230  1.00  0.00     0.168 C 
HETATM   17  C2  UNL     1     -26.170  -7.227 -10.906  1.00  0.00     0.168 C 
ENDBRANCH   1  15
TORSDOF 1
ENDMDL
