MODEL 4
REMARK VINA RESULT: -5.995919148      2.285      5.822
REMARK  1 active torsions:
REMARK  status: ('A' for Active; 'I' for Inactive)
REMARK    1  A    between atoms: N1_2  and  C3_4 
ROOT
HETATM    1  C3  UNL     1     -22.956  -3.980 -10.010  1.00  0.00     0.679 A 
HETATM    2  N2  UNL     1     -24.251  -3.633 -10.117  1.00  0.00    -0.201 N 
ATOM      3  H2  UNL     1     -24.497  -2.655  -9.959  1.00  0.00     0.183 HD
HETATM    4  C4  UNL     1     -25.239  -4.484 -10.415  1.00  0.00     0.125 A 
HETATM    5  C5  UNL     1     -24.878  -5.820 -10.624  1.00  0.00     0.075 A 
HETATM    6  C6  UNL     1     -25.821  -6.773 -10.928  1.00  0.00     0.261 A 
HETATM    7  O1  UNL     1     -27.032  -6.410 -11.023  1.00  0.00    -0.267 OA
HETATM    8  N3  UNL     1     -25.549  -8.065 -11.133  1.00  0.00    -0.328 N 
HETATM    9  C7  UNL     1     -26.574  -9.048 -11.449  1.00  0.00     0.159 C 
HETATM   10  C8  UNL     1     -24.268  -8.451 -11.033  1.00  0.00     0.096 A 
HETATM   11  C9  UNL     1     -23.272  -7.538 -10.730  1.00  0.00     0.048 A 
HETATM   12  C10 UNL     1     -23.557  -6.215 -10.522  1.00  0.00     0.067 A 
HETATM   13  N4  UNL     1     -22.639  -5.277 -10.217  1.00  0.00    -0.191 N 
ATOM     14  H4  UNL     1     -21.661  -5.558 -10.139  1.00  0.00     0.184 HD
ENDROOT
BRANCH   1  15
HETATM   15  N1  UNL     1     -22.034  -2.970  -9.677  1.00  0.00    -0.226 N 
HETATM   16  C1  UNL     1     -22.387  -1.583  -9.850  1.00  0.00     0.168 C 
HETATM   17  C2  UNL     1     -20.727  -3.296  -9.162  1.00  0.00     0.168 C 
ENDBRANCH   1  15
TORSDOF 1
ENDMDL
