MODEL 2
REMARK VINA RESULT: -6.311002859      1.482      2.043
REMARK  1 active torsions:
REMARK  status: ('A' for Active; 'I' for Inactive)
REMARK    1  A    between atoms: N1_2  and  C3_4 
ROOT
HETATM    1  C3  UNL     1     -24.615  -7.634 -10.796  1.00  0.00     0.679 A 
HETATM    2  N2  UNL     1     -23.275  -7.553 -10.715  1.00  0.00    -0.201 N 
ATOM      3  H2  UNL     1     -22.739  -8.417 -10.801  1.00  0.00     0.183 HD
HETATM    4  C4  UNL     1     -22.598  -6.415 -10.529  1.00  0.00     0.125 A 
HETATM    5  C5  UNL     1     -23.355  -5.243 -10.411  1.00  0.00     0.075 A 
HETATM    6  C6  UNL     1     -22.753  -4.023 -10.210  1.00  0.00     0.261 A 
HETATM    7  O1  UNL     1     -21.487  -3.983 -10.140  1.00  0.00    -0.267 OA
HETATM    8  N3  UNL     1     -23.412  -2.869 -10.081  1.00  0.00    -0.328 N 
HETATM    9  C7  UNL     1     -22.742  -1.595  -9.865  1.00  0.00     0.159 C 
HETATM   10  C8  UNL     1     -24.751  -2.909 -10.154  1.00  0.00     0.096 A 
HETATM   11  C9  UNL     1     -25.416  -4.107 -10.356  1.00  0.00     0.048 A 
HETATM   12  C10 UNL     1     -24.735  -5.288 -10.488  1.00  0.00     0.067 A 
HETATM   13  N4  UNL     1     -25.318  -6.487 -10.678  1.00  0.00    -0.191 N 
ATOM     14  H4  UNL     1     -26.336  -6.530 -10.736  1.00  0.00     0.184 HD
ENDROOT
BRANCH   1  15
HETATM   15  N1  UNL     1     -25.183  -8.909 -10.982  1.00  0.00    -0.226 N 
HETATM   16  C1  UNL     1     -26.549  -9.034 -11.425  1.00  0.00     0.168 C 
HETATM   17  C2  UNL     1     -24.420 -10.107 -10.733  1.00  0.00     0.168 C 
ENDBRANCH   1  15
TORSDOF 1
ENDMDL
