MODEL 3
REMARK VINA RESULT: -6.023646947      1.619      2.285
REMARK  1 active torsions:
REMARK  status: ('A' for Active; 'I' for Inactive)
REMARK    1  A    between atoms: N1_2  and  C3_4 
ROOT
HETATM    1  C3  UNL     1     -25.460  -7.766 -11.011  1.00  0.00     0.679 A 
HETATM    2  N2  UNL     1     -24.127  -7.926 -10.919  1.00  0.00    -0.201 N 
ATOM      3  H2  UNL     1     -23.752  -8.867 -11.029  1.00  0.00     0.183 HD
HETATM    4  C4  UNL     1     -23.262  -6.932 -10.692  1.00  0.00     0.125 A 
HETATM    5  C5  UNL     1     -23.801  -5.648 -10.541  1.00  0.00     0.075 A 
HETATM    6  C6  UNL     1     -22.994  -4.561 -10.297  1.00  0.00     0.261 A 
HETATM    7  O1  UNL     1     -21.743  -4.748 -10.219  1.00  0.00    -0.267 OA
HETATM    8  N3  UNL     1     -23.440  -3.313 -10.136  1.00  0.00    -0.328 N 
HETATM    9  C7  UNL     1     -22.558  -2.186  -9.875  1.00  0.00     0.159 C 
HETATM   10  C8  UNL     1     -24.765  -3.113 -10.219  1.00  0.00     0.096 A 
HETATM   11  C9  UNL     1     -25.628  -4.167 -10.463  1.00  0.00     0.048 A 
HETATM   12  C10 UNL     1     -25.166  -5.445 -10.628  1.00  0.00     0.067 A 
HETATM   13  N4  UNL     1     -25.950  -6.515 -10.861  1.00  0.00    -0.191 N 
ATOM     14  H4  UNL     1     -26.959  -6.376 -10.927  1.00  0.00     0.184 HD
ENDROOT
BRANCH   1  15
HETATM   15  N1  UNL     1     -26.241  -8.913 -11.241  1.00  0.00    -0.226 N 
HETATM   16  C1  UNL     1     -25.608 -10.198 -11.404  1.00  0.00     0.168 C 
HETATM   17  C2  UNL     1     -27.679  -8.831 -11.322  1.00  0.00     0.168 C 
ENDBRANCH   1  15
TORSDOF 1
ENDMDL
