MODEL 3
REMARK VINA RESULT: -9.629453752      1.888      2.774
REMARK  10 active torsions:
REMARK  status: ('A' for Active; 'I' for Inactive)
REMARK    1  A    between atoms: N5_13  and  C6_14 
REMARK    2  A    between atoms: C7_16  and  C8_17 
REMARK    3  A    between atoms: C8_17  and  O2_18 
REMARK    4  A    between atoms: O2_18  and  P1_19 
REMARK    5  A    between atoms: P1_19  and  O5_22 
REMARK    6  A    between atoms: O5_22  and  P2_23 
REMARK    7  A    between atoms: P2_23  and  C9_26 
REMARK    8  A    between atoms: C9_26  and  P3_27 
REMARK    9  A    between atoms: C10_31  and  O11_32 
REMARK   10  A    between atoms: C11_34  and  O12_35 
ROOT
HETATM    1  C6  UNL     1      16.732  -5.800   6.086  1.00  0.00     0.262 C 
HETATM    2  O1  UNL     1      17.125  -5.263   4.859  1.00  0.00    -0.353 OA
HETATM    3  C7  UNL     1      18.170  -4.405   5.200  1.00  0.00     0.180 C 
HETATM    4  C10 UNL     1      19.038  -5.323   6.052  1.00  0.00     0.182 C 
HETATM    5  C11 UNL     1      18.006  -6.093   6.836  1.00  0.00     0.198 C 
ENDROOT
BRANCH   3   6
HETATM    6  C8  UNL     1      18.912  -4.006   3.944  1.00  0.00     0.216 C 
BRANCH   6   7
HETATM    7  O2  UNL     1      19.025  -2.658   3.785  1.00  0.00    -0.287 OA
BRANCH   7   8
HETATM    8  P1  UNL     1      18.773  -1.994   2.335  1.00  0.00     0.416 P 
HETATM    9  O3  UNL     1      18.152  -2.897   1.071  1.00  0.00    -0.624 OA
HETATM   10  O4  UNL     1      20.193  -2.206   1.813  1.00  0.00    -0.624 OA
BRANCH   8  11
HETATM   11  O5  UNL     1      18.938  -0.345   2.081  1.00  0.00    -0.203 OA
BRANCH  11  12
HETATM   12  P2  UNL     1      20.323   0.298   2.481  1.00  0.00     0.272 P 
HETATM   13  O6  UNL     1      21.696   0.358   3.238  1.00  0.00    -0.646 OA
HETATM   14  O7  UNL     1      19.650   0.284   4.003  1.00  0.00    -0.646 OA
BRANCH  12  15
HETATM   15  C9  UNL     1      20.317   1.852   1.627  1.00  0.00     0.281 C 
BRANCH  15  16
HETATM   16  P3  UNL     1      19.490   3.058   2.407  1.00  0.00     0.271 P 
HETATM   17  O8  UNL     1      17.977   2.507   1.989  1.00  0.00    -0.639 OA
HETATM   18  O9  UNL     1      20.106   2.777   3.882  1.00  0.00    -0.639 OA
HETATM   19  O10 UNL     1      20.220   4.188   1.416  1.00  0.00    -0.639 OA
ENDBRANCH  15  16
ENDBRANCH  12  15
ENDBRANCH  11  12
ENDBRANCH   8  11
ENDBRANCH   7   8
ENDBRANCH   6   7
ENDBRANCH   3   6
BRANCH   4  20
HETATM   20  O11 UNL     1      19.839  -4.597   6.928  1.00  0.00    -0.390 OA
ATOM     21  H11 UNL     1      20.563  -4.182   6.475  1.00  0.00     0.210 HD
ENDBRANCH   4  20
BRANCH   1  22
HETATM   22  N5  UNL     1      15.882  -6.938   5.944  1.00  0.00    -0.297 N 
HETATM   23  C3  UNL     1      16.092  -7.945   5.069  1.00  0.00     0.142 A 
HETATM   24  N3  UNL     1      17.053  -8.181   4.153  1.00  0.00    -0.336 N 
HETATM   25  C4  UNL     1      15.087  -8.874   5.195  1.00  0.00     0.119 A 
HETATM   26  C2  UNL     1      17.087  -9.256   3.365  1.00  0.00     0.183 A 
ATOM     27  H3  UNL     1      17.799  -7.494   4.056  1.00  0.00     0.168 HD
HETATM   28  N2  UNL     1      16.108 -10.165   3.487  1.00  0.00    -0.339 N 
HETATM   29  C1  UNL     1      15.119  -9.986   4.384  1.00  0.00     0.148 A 
ATOM     30  H2  UNL     1      16.111 -10.996   2.896  1.00  0.00     0.167 HD
HETATM   31  N1  UNL     1      14.120 -10.975   4.464  1.00  0.00    -0.080 NA
HETATM   32  N4  UNL     1      14.261  -8.431   6.153  1.00  0.00    -0.346 N 
HETATM   33  C5  UNL     1      14.752  -7.275   6.588  1.00  0.00     0.188 A 
ATOM     34  H4  UNL     1      13.415  -8.894   6.486  1.00  0.00     0.167 HD
ENDBRANCH   1  22
BRANCH   5  35
HETATM   35  O12 UNL     1      17.960  -5.571   8.151  1.00  0.00    -0.388 OA
ATOM     36  H12 UNL     1      18.599  -5.994   8.713  1.00  0.00     0.210 HD
ENDBRANCH   5  35
TORSDOF 10
ENDMDL
