MODEL 6
REMARK VINA RESULT: -9.434564798      1.899      3.083
REMARK  10 active torsions:
REMARK  status: ('A' for Active; 'I' for Inactive)
REMARK    1  A    between atoms: N5_13  and  C6_14 
REMARK    2  A    between atoms: C7_16  and  C8_17 
REMARK    3  A    between atoms: C8_17  and  O2_18 
REMARK    4  A    between atoms: O2_18  and  P1_19 
REMARK    5  A    between atoms: P1_19  and  O5_22 
REMARK    6  A    between atoms: O5_22  and  P2_23 
REMARK    7  A    between atoms: P2_23  and  C9_26 
REMARK    8  A    between atoms: C9_26  and  P3_27 
REMARK    9  A    between atoms: C10_31  and  O11_32 
REMARK   10  A    between atoms: C11_34  and  O12_35 
ROOT
HETATM    1  C6  UNL     1      17.235  -6.238   5.299  1.00  0.00     0.262 C 
HETATM    2  O1  UNL     1      17.532  -5.300   4.308  1.00  0.00    -0.353 OA
HETATM    3  C7  UNL     1      18.198  -4.292   5.005  1.00  0.00     0.180 C 
HETATM    4  C10 UNL     1      19.243  -5.099   5.763  1.00  0.00     0.182 C 
HETATM    5  C11 UNL     1      18.463  -6.324   6.168  1.00  0.00     0.198 C 
ENDROOT
BRANCH   3   6
HETATM    6  C8  UNL     1      18.871  -3.368   4.015  1.00  0.00     0.216 C 
BRANCH   6   7
HETATM    7  O2  UNL     1      18.220  -3.284   2.821  1.00  0.00    -0.287 OA
BRANCH   7   8
HETATM    8  P1  UNL     1      18.610  -2.120   1.772  1.00  0.00     0.416 P 
HETATM    9  O3  UNL     1      18.647  -2.422   0.126  1.00  0.00    -0.624 OA
HETATM   10  O4  UNL     1      20.121  -2.322   1.861  1.00  0.00    -0.624 OA
BRANCH   8  11
HETATM   11  O5  UNL     1      18.806  -0.527   2.256  1.00  0.00    -0.203 OA
BRANCH  11  12
HETATM   12  P2  UNL     1      20.290  -0.013   2.415  1.00  0.00     0.272 P 
HETATM   13  O6  UNL     1      21.773  -0.089   2.919  1.00  0.00    -0.646 OA
HETATM   14  O7  UNL     1      19.894  -0.015   4.030  1.00  0.00    -0.646 OA
BRANCH  12  15
HETATM   15  C9  UNL     1      20.270   1.561   1.597  1.00  0.00     0.281 C 
BRANCH  15  16
HETATM   16  P3  UNL     1      19.621   2.792   2.498  1.00  0.00     0.271 P 
HETATM   17  O8  UNL     1      18.039   2.310   2.305  1.00  0.00    -0.639 OA
HETATM   18  O9  UNL     1      20.434   2.466   3.864  1.00  0.00    -0.639 OA
HETATM   19  O10 UNL     1      20.245   3.901   1.417  1.00  0.00    -0.639 OA
ENDBRANCH  15  16
ENDBRANCH  12  15
ENDBRANCH  11  12
ENDBRANCH   8  11
ENDBRANCH   7   8
ENDBRANCH   6   7
ENDBRANCH   3   6
BRANCH   4  20
HETATM   20  O11 UNL     1      19.677  -4.427   6.903  1.00  0.00    -0.390 OA
ATOM     21  H11 UNL     1      20.427  -3.876   6.717  1.00  0.00     0.210 HD
ENDBRANCH   4  20
BRANCH   1  22
HETATM   22  N5  UNL     1      16.829  -7.497   4.763  1.00  0.00    -0.297 N 
HETATM   23  C3  UNL     1      15.720  -8.168   5.143  1.00  0.00     0.142 A 
HETATM   24  N3  UNL     1      14.750  -7.906   6.042  1.00  0.00    -0.336 N 
HETATM   25  C4  UNL     1      15.631  -9.339   4.429  1.00  0.00     0.119 A 
HETATM   26  C2  UNL     1      13.714  -8.710   6.279  1.00  0.00     0.183 A 
ATOM     27  H3  UNL     1      14.813  -7.038   6.573  1.00  0.00     0.168 HD
HETATM   28  N2  UNL     1      13.624  -9.853   5.584  1.00  0.00    -0.339 N 
HETATM   29  C1  UNL     1      14.562 -10.172   4.671  1.00  0.00     0.148 A 
ATOM     30  H2  UNL     1      12.841 -10.486   5.747  1.00  0.00     0.167 HD
HETATM   31  N1  UNL     1      14.411 -11.386   3.974  1.00  0.00    -0.080 NA
HETATM   32  N4  UNL     1      16.690  -9.381   3.610  1.00  0.00    -0.346 N 
HETATM   33  C5  UNL     1      17.394  -8.274   3.822  1.00  0.00     0.188 A 
ATOM     34  H4  UNL     1      16.915 -10.124   2.947  1.00  0.00     0.167 HD
ENDBRANCH   1  22
BRANCH   5  35
HETATM   35  O12 UNL     1      18.130  -6.211   7.539  1.00  0.00    -0.388 OA
ATOM     36  H12 UNL     1      18.908  -6.219   8.085  1.00  0.00     0.210 HD
ENDBRANCH   5  35
TORSDOF 10
ENDMDL
