MODEL 11
REMARK VINA RESULT: -9.037068876      1.897      3.187
REMARK  10 active torsions:
REMARK  status: ('A' for Active; 'I' for Inactive)
REMARK    1  A    between atoms: N5_13  and  C6_14 
REMARK    2  A    between atoms: C7_16  and  C8_17 
REMARK    3  A    between atoms: C8_17  and  O2_18 
REMARK    4  A    between atoms: O2_18  and  P1_19 
REMARK    5  A    between atoms: P1_19  and  O5_22 
REMARK    6  A    between atoms: O5_22  and  P2_23 
REMARK    7  A    between atoms: P2_23  and  C9_26 
REMARK    8  A    between atoms: C9_26  and  P3_27 
REMARK    9  A    between atoms: C10_31  and  O11_32 
REMARK   10  A    between atoms: C11_34  and  O12_35 
ROOT
HETATM    1  C6  UNL     1      17.353  -6.201   5.379  1.00  0.00     0.262 C 
HETATM    2  O1  UNL     1      17.840  -5.329   4.405  1.00  0.00    -0.353 OA
HETATM    3  C7  UNL     1      18.490  -4.344   5.148  1.00  0.00     0.180 C 
HETATM    4  C10 UNL     1      19.370  -5.192   6.057  1.00  0.00     0.182 C 
HETATM    5  C11 UNL     1      18.454  -6.340   6.398  1.00  0.00     0.198 C 
ENDROOT
BRANCH   3   6
HETATM    6  C8  UNL     1      19.349  -3.512   4.222  1.00  0.00     0.216 C 
BRANCH   6   7
HETATM    7  O2  UNL     1      18.661  -2.527   3.581  1.00  0.00    -0.287 OA
BRANCH   7   8
HETATM    8  P1  UNL     1      19.363  -1.700   2.385  1.00  0.00     0.416 P 
HETATM    9  O3  UNL     1      20.195  -2.489   1.166  1.00  0.00    -0.624 OA
HETATM   10  O4  UNL     1      20.671  -1.426   3.124  1.00  0.00    -0.624 OA
BRANCH   8  11
HETATM   11  O5  UNL     1      19.133  -0.049   2.202  1.00  0.00    -0.203 OA
BRANCH  11  12
HETATM   12  P2  UNL     1      19.585   0.866   3.406  1.00  0.00     0.272 P 
HETATM   13  O6  UNL     1      19.643   1.309   4.910  1.00  0.00    -0.646 OA
HETATM   14  O7  UNL     1      17.948   1.131   3.543  1.00  0.00    -0.646 OA
BRANCH  12  15
HETATM   15  C9  UNL     1      20.531   2.144   2.619  1.00  0.00     0.281 C 
BRANCH  15  16
HETATM   16  P3  UNL     1      19.620   3.275   1.821  1.00  0.00     0.271 P 
HETATM   17  O8  UNL     1      20.526   3.249   0.425  1.00  0.00    -0.639 OA
HETATM   18  O9  UNL     1      18.210   2.477   1.918  1.00  0.00    -0.639 OA
HETATM   19  O10 UNL     1      20.007   4.401   2.992  1.00  0.00    -0.639 OA
ENDBRANCH  15  16
ENDBRANCH  12  15
ENDBRANCH  11  12
ENDBRANCH   8  11
ENDBRANCH   7   8
ENDBRANCH   6   7
ENDBRANCH   3   6
BRANCH   4  20
HETATM   20  O11 UNL     1      19.709  -4.508   7.220  1.00  0.00    -0.390 OA
ATOM     21  H11 UNL     1      19.830  -5.103   7.950  1.00  0.00     0.210 HD
ENDBRANCH   4  20
BRANCH   1  22
HETATM   22  N5  UNL     1      16.921  -7.449   4.836  1.00  0.00    -0.297 N 
HETATM   23  C3  UNL     1      15.794  -8.094   5.207  1.00  0.00     0.142 A 
HETATM   24  N3  UNL     1      14.824  -7.813   6.100  1.00  0.00    -0.336 N 
HETATM   25  C4  UNL     1      15.681  -9.261   4.488  1.00  0.00     0.119 A 
HETATM   26  C2  UNL     1      13.767  -8.592   6.328  1.00  0.00     0.183 A 
ATOM     27  H3  UNL     1      14.904  -6.948   6.635  1.00  0.00     0.168 HD
HETATM   28  N2  UNL     1      13.655  -9.731   5.628  1.00  0.00    -0.339 N 
HETATM   29  C1  UNL     1      14.592 -10.069   4.720  1.00  0.00     0.148 A 
ATOM     30  H2  UNL     1      12.856 -10.345   5.783  1.00  0.00     0.167 HD
HETATM   31  N1  UNL     1      14.417 -11.277   4.018  1.00  0.00    -0.080 NA
HETATM   32  N4  UNL     1      16.745  -9.326   3.676  1.00  0.00    -0.346 N 
HETATM   33  C5  UNL     1      17.473  -8.236   3.897  1.00  0.00     0.188 A 
ATOM     34  H4  UNL     1      16.957 -10.071   3.012  1.00  0.00     0.167 HD
ENDBRANCH   1  22
BRANCH   5  35
HETATM   35  O12 UNL     1      17.964  -6.148   7.713  1.00  0.00    -0.388 OA
ATOM     36  H12 UNL     1      17.722  -6.973   8.115  1.00  0.00     0.210 HD
ENDBRANCH   5  35
TORSDOF 10
ENDMDL
