MODEL 14
REMARK VINA RESULT: -8.852096545      1.812      2.969
REMARK  10 active torsions:
REMARK  status: ('A' for Active; 'I' for Inactive)
REMARK    1  A    between atoms: N5_13  and  C6_14 
REMARK    2  A    between atoms: C7_16  and  C8_17 
REMARK    3  A    between atoms: C8_17  and  O2_18 
REMARK    4  A    between atoms: O2_18  and  P1_19 
REMARK    5  A    between atoms: P1_19  and  O5_22 
REMARK    6  A    between atoms: O5_22  and  P2_23 
REMARK    7  A    between atoms: P2_23  and  C9_26 
REMARK    8  A    between atoms: C9_26  and  P3_27 
REMARK    9  A    between atoms: C10_31  and  O11_32 
REMARK   10  A    between atoms: C11_34  and  O12_35 
ROOT
HETATM    1  C6  UNL     1      16.636  -9.479   2.908  1.00  0.00     0.262 C 
HETATM    2  O1  UNL     1      17.821  -8.742   2.883  1.00  0.00    -0.353 OA
HETATM    3  C7  UNL     1      17.501  -7.590   3.600  1.00  0.00     0.180 C 
HETATM    4  C10 UNL     1      16.889  -8.187   4.860  1.00  0.00     0.182 C 
HETATM    5  C11 UNL     1      16.092  -9.341   4.306  1.00  0.00     0.198 C 
ENDROOT
BRANCH   3   6
HETATM    6  C8  UNL     1      18.775  -6.850   3.942  1.00  0.00     0.216 C 
BRANCH   6   7
HETATM    7  O2  UNL     1      18.859  -5.618   3.367  1.00  0.00    -0.287 OA
BRANCH   7   8
HETATM    8  P1  UNL     1      18.728  -4.293   4.280  1.00  0.00     0.416 P 
HETATM    9  O3  UNL     1      19.130  -4.322   5.904  1.00  0.00    -0.624 OA
HETATM   10  O4  UNL     1      17.251  -4.480   4.624  1.00  0.00    -0.624 OA
BRANCH   8  11
HETATM   11  O5  UNL     1      18.370  -2.796   3.613  1.00  0.00    -0.203 OA
BRANCH  11  12
HETATM   12  P2  UNL     1      19.495  -2.127   2.731  1.00  0.00     0.272 P 
HETATM   13  O6  UNL     1      20.966  -1.702   2.386  1.00  0.00    -0.646 OA
HETATM   14  O7  UNL     1      19.690  -1.173   4.079  1.00  0.00    -0.646 OA
BRANCH  12  15
HETATM   15  C9  UNL     1      18.591  -1.416   1.381  1.00  0.00     0.281 C 
BRANCH  15  16
HETATM   16  P3  UNL     1      19.224  -1.745  -0.115  1.00  0.00     0.271 P 
HETATM   17  O8  UNL     1      19.838  -3.236   0.298  1.00  0.00    -0.639 OA
HETATM   18  O9  UNL     1      17.830  -1.612  -0.936  1.00  0.00    -0.639 OA
HETATM   19  O10 UNL     1      20.223  -0.414   0.024  1.00  0.00    -0.639 OA
ENDBRANCH  15  16
ENDBRANCH  12  15
ENDBRANCH  11  12
ENDBRANCH   8  11
ENDBRANCH   7   8
ENDBRANCH   6   7
ENDBRANCH   3   6
BRANCH   4  20
HETATM   20  O11 UNL     1      16.030  -7.288   5.485  1.00  0.00    -0.390 OA
ATOM     21  H11 UNL     1      15.281  -7.731   5.867  1.00  0.00     0.210 HD
ENDBRANCH   4  20
BRANCH   1  22
HETATM   22  N5  UNL     1      16.820 -10.835   2.501  1.00  0.00    -0.297 N 
HETATM   23  C3  UNL     1      17.833 -11.267   1.719  1.00  0.00     0.142 A 
HETATM   24  N3  UNL     1      18.875 -10.642   1.135  1.00  0.00    -0.336 N 
HETATM   25  C4  UNL     1      17.710 -12.622   1.523  1.00  0.00     0.119 A 
HETATM   26  C2  UNL     1      19.789 -11.255   0.383  1.00  0.00     0.183 A 
ATOM     27  H3  UNL     1      18.970  -9.637   1.278  1.00  0.00     0.168 HD
HETATM   28  N2  UNL     1      19.671 -12.578   0.191  1.00  0.00    -0.339 N 
HETATM   29  C1  UNL     1      18.651 -13.259   0.748  1.00  0.00     0.148 A 
ATOM     30  H2  UNL     1      20.357 -13.070  -0.380  1.00  0.00     0.167 HD
HETATM   31  N1  UNL     1      18.582 -14.646   0.509  1.00  0.00    -0.080 NA
HETATM   32  N4  UNL     1      16.616 -13.017   2.190  1.00  0.00    -0.346 N 
HETATM   33  C5  UNL     1      16.099 -11.937   2.767  1.00  0.00     0.188 A 
ATOM     34  H4  UNL     1      16.249 -13.968   2.244  1.00  0.00     0.167 HD
ENDBRANCH   1  22
BRANCH   5  35
HETATM   35  O12 UNL     1      14.724  -8.976   4.291  1.00  0.00    -0.388 OA
ATOM     36  H12 UNL     1      14.435  -8.687   5.149  1.00  0.00     0.210 HD
ENDBRANCH   5  35
TORSDOF 10
ENDMDL
