MODEL 5
REMARK VINA RESULT: -9.526403047      1.892      2.612
REMARK  10 active torsions:
REMARK  status: ('A' for Active; 'I' for Inactive)
REMARK    1  A    between atoms: N5_13  and  C6_14 
REMARK    2  A    between atoms: C7_16  and  C8_17 
REMARK    3  A    between atoms: C8_17  and  O2_18 
REMARK    4  A    between atoms: O2_18  and  P1_19 
REMARK    5  A    between atoms: P1_19  and  O5_22 
REMARK    6  A    between atoms: O5_22  and  P2_23 
REMARK    7  A    between atoms: P2_23  and  C9_26 
REMARK    8  A    between atoms: C9_26  and  P3_27 
REMARK    9  A    between atoms: C10_31  and  O11_32 
REMARK   10  A    between atoms: C11_34  and  O12_35 
ROOT
HETATM    1  C6  UNL     1      16.706  -5.889   6.178  1.00  0.00     0.262 C 
HETATM    2  O1  UNL     1      17.033  -5.238   4.988  1.00  0.00    -0.353 OA
HETATM    3  C7  UNL     1      18.081  -4.394   5.358  1.00  0.00     0.180 C 
HETATM    4  C10 UNL     1      19.000  -5.368   6.084  1.00  0.00     0.182 C 
HETATM    5  C11 UNL     1      18.016  -6.224   6.841  1.00  0.00     0.198 C 
ENDROOT
BRANCH   3   6
HETATM    6  C8  UNL     1      18.759  -3.871   4.111  1.00  0.00     0.216 C 
BRANCH   6   7
HETATM    7  O2  UNL     1      18.065  -2.875   3.494  1.00  0.00    -0.287 OA
BRANCH   7   8
HETATM    8  P1  UNL     1      18.846  -1.792   2.586  1.00  0.00     0.416 P 
HETATM    9  O3  UNL     1      18.688  -1.791   0.920  1.00  0.00    -0.624 OA
HETATM   10  O4  UNL     1      20.150  -2.581   2.479  1.00  0.00    -0.624 OA
BRANCH   8  11
HETATM   11  O5  UNL     1      19.689  -0.514   3.270  1.00  0.00    -0.203 OA
BRANCH  11  12
HETATM   12  P2  UNL     1      20.270   0.564   2.274  1.00  0.00     0.272 P 
HETATM   13  O6  UNL     1      20.994   1.050   0.970  1.00  0.00    -0.646 OA
HETATM   14  O7  UNL     1      21.705  -0.208   2.609  1.00  0.00    -0.646 OA
BRANCH  12  15
HETATM   15  C9  UNL     1      19.981   2.099   3.115  1.00  0.00     0.281 C 
BRANCH  15  16
HETATM   16  P3  UNL     1      19.393   3.309   2.147  1.00  0.00     0.271 P 
HETATM   17  O8  UNL     1      19.664   4.532   3.244  1.00  0.00    -0.639 OA
HETATM   18  O9  UNL     1      20.409   3.059   0.906  1.00  0.00    -0.639 OA
HETATM   19  O10 UNL     1      17.896   2.569   2.144  1.00  0.00    -0.639 OA
ENDBRANCH  15  16
ENDBRANCH  12  15
ENDBRANCH  11  12
ENDBRANCH   8  11
ENDBRANCH   7   8
ENDBRANCH   6   7
ENDBRANCH   3   6
BRANCH   4  20
HETATM   20  O11 UNL     1      19.830  -4.709   6.986  1.00  0.00    -0.390 OA
ATOM     21  H11 UNL     1      20.523  -4.237   6.539  1.00  0.00     0.210 HD
ENDBRANCH   4  20
BRANCH   1  22
HETATM   22  N5  UNL     1      15.866  -7.026   5.972  1.00  0.00    -0.297 N 
HETATM   23  C3  UNL     1      16.102  -7.995   5.062  1.00  0.00     0.142 A 
HETATM   24  N3  UNL     1      17.084  -8.189   4.159  1.00  0.00    -0.336 N 
HETATM   25  C4  UNL     1      15.101  -8.934   5.129  1.00  0.00     0.119 A 
HETATM   26  C2  UNL     1      17.143  -9.232   3.330  1.00  0.00     0.183 A 
ATOM     27  H3  UNL     1      17.828  -7.495   4.106  1.00  0.00     0.168 HD
HETATM   28  N2  UNL     1      16.167 -10.150   3.394  1.00  0.00    -0.339 N 
HETATM   29  C1  UNL     1      15.158 -10.013   4.275  1.00  0.00     0.148 A 
ATOM     30  H2  UNL     1      16.189 -10.957   2.771  1.00  0.00     0.167 HD
HETATM   31  N1  UNL     1      14.164 -11.010   4.293  1.00  0.00    -0.080 NA
HETATM   32  N4  UNL     1      14.251  -8.535   6.085  1.00  0.00    -0.346 N 
HETATM   33  C5  UNL     1      14.724  -7.394   6.577  1.00  0.00     0.188 A 
ATOM     34  H4  UNL     1      13.400  -9.015   6.380  1.00  0.00     0.167 HD
ENDBRANCH   1  22
BRANCH   5  35
HETATM   35  O12 UNL     1      18.023  -5.823   8.198  1.00  0.00    -0.388 OA
ATOM     36  H12 UNL     1      17.383  -5.139   8.359  1.00  0.00     0.210 HD
ENDBRANCH   5  35
TORSDOF 10
ENDMDL
