MODEL 13
REMARK VINA RESULT: -8.973890954      5.682      9.259
REMARK  10 active torsions:
REMARK  status: ('A' for Active; 'I' for Inactive)
REMARK    1  A    between atoms: N5_13  and  C6_14 
REMARK    2  A    between atoms: C7_16  and  C8_17 
REMARK    3  A    between atoms: C8_17  and  O2_18 
REMARK    4  A    between atoms: O2_18  and  P1_19 
REMARK    5  A    between atoms: P1_19  and  O5_22 
REMARK    6  A    between atoms: O5_22  and  P2_23 
REMARK    7  A    between atoms: P2_23  and  C9_26 
REMARK    8  A    between atoms: C9_26  and  P3_27 
REMARK    9  A    between atoms: C10_31  and  O11_32 
REMARK   10  A    between atoms: C11_34  and  O12_35 
ROOT
HETATM    1  C6  UNL     1      18.984  -6.147   3.694  1.00  0.00     0.262 C 
HETATM    2  O1  UNL     1      18.226  -6.943   2.835  1.00  0.00    -0.353 OA
HETATM    3  C7  UNL     1      18.108  -8.148   3.528  1.00  0.00     0.180 C 
HETATM    4  C10 UNL     1      17.630  -7.659   4.889  1.00  0.00     0.182 C 
HETATM    5  C11 UNL     1      18.450  -6.407   5.079  1.00  0.00     0.198 C 
ENDROOT
BRANCH   3   6
HETATM    6  C8  UNL     1      17.037  -8.993   2.874  1.00  0.00     0.216 C 
BRANCH   6   7
HETATM    7  O2  UNL     1      17.223 -10.331   3.043  1.00  0.00    -0.287 OA
BRANCH   7   8
HETATM    8  P1  UNL     1      17.751 -11.233   1.812  1.00  0.00     0.416 P 
HETATM    9  O3  UNL     1      17.569 -10.722   0.230  1.00  0.00    -0.624 OA
HETATM   10  O4  UNL     1      16.496 -12.097   1.696  1.00  0.00    -0.624 OA
BRANCH   8  11
HETATM   11  O5  UNL     1      18.666 -12.616   2.063  1.00  0.00    -0.203 OA
BRANCH  11  12
HETATM   12  P2  UNL     1      19.263 -13.312   0.779  1.00  0.00     0.272 P 
HETATM   13  O6  UNL     1      19.185 -14.026  -0.617  1.00  0.00    -0.646 OA
HETATM   14  O7  UNL     1      18.375 -14.608   1.327  1.00  0.00    -0.646 OA
BRANCH  12  15
HETATM   15  C9  UNL     1      21.006 -13.352   1.104  1.00  0.00     0.281 C 
BRANCH  15  16
HETATM   16  P3  UNL     1      21.893 -12.271   0.214  1.00  0.00     0.271 P 
HETATM   17  O8  UNL     1      22.492 -13.400  -0.852  1.00  0.00    -0.639 OA
HETATM   18  O9  UNL     1      20.650 -11.309  -0.195  1.00  0.00    -0.639 OA
HETATM   19  O10 UNL     1      22.797 -11.908   1.571  1.00  0.00    -0.639 OA
ENDBRANCH  15  16
ENDBRANCH  12  15
ENDBRANCH  11  12
ENDBRANCH   8  11
ENDBRANCH   7   8
ENDBRANCH   6   7
ENDBRANCH   3   6
BRANCH   4  20
HETATM   20  O11 UNL     1      17.938  -8.571   5.895  1.00  0.00    -0.390 OA
ATOM     21  H11 UNL     1      18.746  -9.034   5.709  1.00  0.00     0.210 HD
ENDBRANCH   4  20
BRANCH   1  22
HETATM   22  N5  UNL     1      18.966  -4.767   3.328  1.00  0.00    -0.297 N 
HETATM   23  C3  UNL     1      19.493  -4.273   2.188  1.00  0.00     0.142 A 
HETATM   24  N3  UNL     1      20.132  -4.843   1.146  1.00  0.00    -0.336 N 
HETATM   25  C4  UNL     1      19.303  -2.912   2.152  1.00  0.00     0.119 A 
HETATM   26  C2  UNL     1      20.588  -4.171   0.089  1.00  0.00     0.183 A 
ATOM     27  H3  UNL     1      20.275  -5.852   1.169  1.00  0.00     0.168 HD
HETATM   28  N2  UNL     1      20.404  -2.843   0.052  1.00  0.00    -0.339 N 
HETATM   29  C1  UNL     1      19.772  -2.214   1.062  1.00  0.00     0.148 A 
ATOM     30  H2  UNL     1      20.743  -2.306  -0.745  1.00  0.00     0.167 HD
HETATM   31  N1  UNL     1      19.609  -0.819   0.965  1.00  0.00    -0.080 NA
HETATM   32  N4  UNL     1      18.656  -2.577   3.277  1.00  0.00    -0.346 N 
HETATM   33  C5  UNL     1      18.463  -3.697   3.966  1.00  0.00     0.188 A 
ATOM     34  H4  UNL     1      18.365  -1.638   3.553  1.00  0.00     0.167 HD
ENDBRANCH   1  22
BRANCH   5  35
HETATM   35  O12 UNL     1      19.497  -6.690   5.989  1.00  0.00    -0.388 OA
ATOM     36  H12 UNL     1      20.147  -7.263   5.600  1.00  0.00     0.210 HD
ENDBRANCH   5  35
TORSDOF 10
ENDMDL
