MODEL 12
REMARK VINA RESULT: -8.985586525      2.261      4.038
REMARK  10 active torsions:
REMARK  status: ('A' for Active; 'I' for Inactive)
REMARK    1  A    between atoms: N5_13  and  C6_14 
REMARK    2  A    between atoms: C7_16  and  C8_17 
REMARK    3  A    between atoms: C8_17  and  O2_18 
REMARK    4  A    between atoms: O2_18  and  P1_19 
REMARK    5  A    between atoms: P1_19  and  O5_22 
REMARK    6  A    between atoms: O5_22  and  P2_23 
REMARK    7  A    between atoms: P2_23  and  C9_26 
REMARK    8  A    between atoms: C9_26  and  P3_27 
REMARK    9  A    between atoms: C10_31  and  O11_32 
REMARK   10  A    between atoms: C11_34  and  O12_35 
ROOT
HETATM    1  C6  UNL     1      15.241  -9.809   4.037  1.00  0.00     0.262 C 
HETATM    2  O1  UNL     1      16.397  -9.317   4.645  1.00  0.00    -0.353 OA
HETATM    3  C7  UNL     1      15.914  -8.343   5.519  1.00  0.00     0.180 C 
HETATM    4  C10 UNL     1      14.824  -9.116   6.249  1.00  0.00     0.182 C 
HETATM    5  C11 UNL     1      14.216  -9.930   5.134  1.00  0.00     0.198 C 
ENDROOT
BRANCH   3   6
HETATM    6  C8  UNL     1      17.012  -7.956   6.485  1.00  0.00     0.216 C 
BRANCH   6   7
HETATM    7  O2  UNL     1      17.044  -6.624   6.765  1.00  0.00    -0.287 OA
BRANCH   7   8
HETATM    8  P1  UNL     1      18.459  -5.849   6.837  1.00  0.00     0.416 P 
HETATM    9  O3  UNL     1      19.392  -5.885   8.226  1.00  0.00    -0.624 OA
HETATM   10  O4  UNL     1      17.880  -4.494   7.240  1.00  0.00    -0.624 OA
BRANCH   8  11
HETATM   11  O5  UNL     1      19.144  -5.140   5.481  1.00  0.00    -0.203 OA
BRANCH  11  12
HETATM   12  P2  UNL     1      18.720  -5.733   4.081  1.00  0.00     0.272 P 
HETATM   13  O6  UNL     1      18.054  -6.785   3.126  1.00  0.00    -0.646 OA
HETATM   14  O7  UNL     1      19.689  -6.997   4.560  1.00  0.00    -0.646 OA
BRANCH  12  15
HETATM   15  C9  UNL     1      19.423  -4.592   2.920  1.00  0.00     0.281 C 
BRANCH  15  16
HETATM   16  P3  UNL     1      18.756  -3.075   2.961  1.00  0.00     0.271 P 
HETATM   17  O8  UNL     1      18.443  -2.996   1.328  1.00  0.00    -0.639 OA
HETATM   18  O9  UNL     1      17.578  -3.423   4.023  1.00  0.00    -0.639 OA
HETATM   19  O10 UNL     1      20.206  -2.461   3.518  1.00  0.00    -0.639 OA
ENDBRANCH  15  16
ENDBRANCH  12  15
ENDBRANCH  11  12
ENDBRANCH   8  11
ENDBRANCH   7   8
ENDBRANCH   6   7
ENDBRANCH   3   6
BRANCH   4  20
HETATM   20  O11 UNL     1      13.861  -8.263   6.778  1.00  0.00    -0.390 OA
ATOM     21  H11 UNL     1      12.989  -8.495   6.481  1.00  0.00     0.210 HD
ENDBRANCH   4  20
BRANCH   1  22
HETATM   22  N5  UNL     1      15.466 -11.030   3.332  1.00  0.00    -0.297 N 
HETATM   23  C3  UNL     1      16.542 -11.276   2.554  1.00  0.00     0.142 A 
HETATM   24  N3  UNL     1      17.626 -10.545   2.225  1.00  0.00    -0.336 N 
HETATM   25  C4  UNL     1      16.443 -12.542   2.028  1.00  0.00     0.119 A 
HETATM   26  C2  UNL     1      18.603 -10.972   1.425  1.00  0.00     0.183 A 
ATOM     27  H3  UNL     1      17.704  -9.605   2.613  1.00  0.00     0.168 HD
HETATM   28  N2  UNL     1      18.508 -12.208   0.911  1.00  0.00    -0.339 N 
HETATM   29  C1  UNL     1      17.449 -12.988   1.201  1.00  0.00     0.148 A 
ATOM     30  H2  UNL     1      19.241 -12.559   0.296  1.00  0.00     0.167 HD
HETATM   31  N1  UNL     1      17.407 -14.275   0.630  1.00  0.00    -0.080 NA
HETATM   32  N4  UNL     1      15.300 -13.069   2.488  1.00  0.00    -0.346 N 
HETATM   33  C5  UNL     1      14.731 -12.153   3.265  1.00  0.00     0.188 A 
ATOM     34  H4  UNL     1      14.934 -13.999   2.282  1.00  0.00     0.167 HD
ENDBRANCH   1  22
BRANCH   5  35
HETATM   35  O12 UNL     1      12.989  -9.331   4.759  1.00  0.00    -0.388 OA
ATOM     36  H12 UNL     1      12.279  -9.619   5.321  1.00  0.00     0.210 HD
ENDBRANCH   5  35
TORSDOF 10
ENDMDL
