MODEL 5
REMARK VINA RESULT: -8.519162928      2.258      7.104
REMARK  8 active torsions:
REMARK  status: ('A' for Active; 'I' for Inactive)
REMARK    1  A    between atoms: C4_6  and  N2_7 
REMARK    2  A    between atoms: N2_7  and  C5_9 
REMARK    3  A    between atoms: C8_12  and  N3_13 
REMARK    4  A    between atoms: C16_24  and  N6_25 
REMARK    5  A    between atoms: N6_25  and  C17_27 
REMARK    6  A    between atoms: C21_31  and  N7_32 
REMARK    7  A    between atoms: N7_32  and  S1_34 
REMARK    8  A    between atoms: S1_34  and  C22_37 
ROOT
HETATM    1  C1  UNL     1      63.075  74.432  75.613  1.00  0.00     0.054 C 
HETATM    2  C2  UNL     1      63.757  75.390  76.496  1.00  0.00    -0.001 A 
HETATM    3  C3  UNL     1      65.075  75.307  76.829  1.00  0.00     0.116 A 
HETATM    4  N1  UNL     1      65.616  76.221  77.640  1.00  0.00    -0.201 N 
ATOM      5  H1  UNL     1      66.606  76.133  77.872  1.00  0.00     0.183 HD
HETATM    6  C4  UNL     1      64.914  77.271  78.177  1.00  0.00     0.684 A 
HETATM    7  N5  UNL     1      63.625  77.318  77.828  1.00  0.00    -0.176 N 
ATOM      8  H5  UNL     1      63.066  78.084  78.207  1.00  0.00     0.186 HD
HETATM    9  C16 UNL     1      63.004  76.445  77.023  1.00  0.00     0.128 A 
ENDROOT
BRANCH   9  10
HETATM   10  N6  UNL     1      61.641  76.569  76.674  1.00  0.00    -0.342 N 
ATOM     11  H6  UNL     1      61.313  76.007  75.888  1.00  0.00     0.167 HD
BRANCH  10  12
HETATM   12  C17 UNL     1      60.684  77.394  77.310  1.00  0.00     0.035 A 
HETATM   13  C18 UNL     1      60.632  77.641  78.654  1.00  0.00     0.029 A 
HETATM   14  C19 UNL     1      59.679  78.483  79.217  1.00  0.00     0.004 A 
HETATM   15  C20 UNL     1      58.761  79.084  78.389  1.00  0.00     0.030 A 
HETATM   16  C21 UNL     1      58.773  78.867  77.035  1.00  0.00     0.044 A 
HETATM   17  C26 UNL     1      59.727  78.030  76.514  1.00  0.00     0.059 A 
BRANCH  16  18
HETATM   18  N7  UNL     1      57.838  79.471  76.134  1.00  0.00    -0.284 N 
ATOM     19  H7  UNL     1      56.921  79.725  76.503  1.00  0.00     0.178 HD
BRANCH  18  20
HETATM   20  S1  UNL     1      58.149  79.796  74.489  1.00  0.00     0.238 S 
HETATM   21  O1  UNL     1      59.636  79.906  74.303  1.00  0.00    -0.205 OA
HETATM   22  O2  UNL     1      57.563  81.106  74.046  1.00  0.00    -0.205 OA
BRANCH  20  23
HETATM   23  C22 UNL     1      57.571  78.441  73.512  1.00  0.00     0.072 C 
HETATM   24  C23 UNL     1      57.069  79.021  72.191  1.00  0.00     0.033 C 
HETATM   25  C24 UNL     1      56.448  77.753  74.263  1.00  0.00     0.033 C 
HETATM   26  C25 UNL     1      58.684  77.468  73.188  1.00  0.00     0.033 C 
ENDBRANCH  20  23
ENDBRANCH  18  20
ENDBRANCH  16  18
ENDBRANCH  10  12
ENDBRANCH   9  10
BRANCH   6  27
HETATM   27  N2  UNL     1      65.556  78.176  79.043  1.00  0.00    -0.192 N 
ATOM     28  H2  UNL     1      66.575  78.169  79.079  1.00  0.00     0.184 HD
BRANCH  27  29
HETATM   29  C5  UNL     1      64.866  79.090  79.862  1.00  0.00     0.049 A 
HETATM   30  C6  UNL     1      65.552  79.792  80.869  1.00  0.00     0.032 A 
HETATM   31  C7  UNL     1      64.935  80.716  81.673  1.00  0.00     0.031 A 
HETATM   32  C8  UNL     1      63.594  81.028  81.555  1.00  0.00     0.030 A 
HETATM   33  C14 UNL     1      62.915  80.337  80.561  1.00  0.00     0.031 A 
HETATM   34  C15 UNL     1      63.533  79.406  79.749  1.00  0.00     0.032 A 
BRANCH  32  35
HETATM   35  N3  UNL     1      62.932  81.960  82.376  1.00  0.00    -0.378 N 
HETATM   36  C9  UNL     1      63.483  83.271  82.599  1.00  0.00     0.153 C 
HETATM   37  C10 UNL     1      62.572  84.360  82.077  1.00  0.00     0.291 C 
HETATM   38  N4  UNL     1      61.328  83.711  81.708  1.00  0.00     0.087 N 
HETATM   39  C11 UNL     1      60.400  84.734  81.290  1.00  0.00     0.310 C 
HETATM   40  C12 UNL     1      60.787  82.876  82.763  1.00  0.00     0.291 C 
HETATM   41  C13 UNL     1      61.670  81.658  83.009  1.00  0.00     0.153 C 
ENDBRANCH  32  35
ENDBRANCH  27  29
ENDBRANCH   6  27
TORSDOF 8
ENDMDL
