MODEL 6
REMARK VINA RESULT: -8.506504733      2.268      7.125
REMARK  8 active torsions:
REMARK  status: ('A' for Active; 'I' for Inactive)
REMARK    1  A    between atoms: C4_6  and  N2_7 
REMARK    2  A    between atoms: N2_7  and  C5_9 
REMARK    3  A    between atoms: C8_12  and  N3_13 
REMARK    4  A    between atoms: C16_24  and  N6_25 
REMARK    5  A    between atoms: N6_25  and  C17_27 
REMARK    6  A    between atoms: C21_31  and  N7_32 
REMARK    7  A    between atoms: N7_32  and  S1_34 
REMARK    8  A    between atoms: S1_34  and  C22_37 
ROOT
HETATM    1  C1  UNL     1      62.940  74.313  75.363  1.00  0.00     0.054 C 
HETATM    2  C2  UNL     1      63.675  75.238  76.238  1.00  0.00    -0.001 A 
HETATM    3  C3  UNL     1      65.009  75.138  76.494  1.00  0.00     0.116 A 
HETATM    4  N1  UNL     1      65.600  76.023  77.303  1.00  0.00    -0.201 N 
ATOM      5  H1  UNL     1      66.600  75.923  77.478  1.00  0.00     0.183 HD
HETATM    6  C4  UNL     1      64.936  77.058  77.912  1.00  0.00     0.684 A 
HETATM    7  N5  UNL     1      63.630  77.123  77.636  1.00  0.00    -0.176 N 
ATOM      8  H5  UNL     1      63.097  77.879  78.069  1.00  0.00     0.186 HD
HETATM    9  C16 UNL     1      62.959  76.280  76.839  1.00  0.00     0.128 A 
ENDROOT
BRANCH   9  10
HETATM   10  N6  UNL     1      61.580  76.421  76.570  1.00  0.00    -0.342 N 
ATOM     11  H6  UNL     1      61.193  75.840  75.826  1.00  0.00     0.167 HD
BRANCH  10  12
HETATM   12  C17 UNL     1      60.681  77.289  77.232  1.00  0.00     0.035 A 
HETATM   13  C18 UNL     1      60.701  77.563  78.572  1.00  0.00     0.029 A 
HETATM   14  C19 UNL     1      59.803  78.445  79.162  1.00  0.00     0.004 A 
HETATM   15  C20 UNL     1      58.865  79.060  78.366  1.00  0.00     0.030 A 
HETATM   16  C21 UNL     1      58.806  78.818  77.018  1.00  0.00     0.044 A 
HETATM   17  C26 UNL     1      59.708  77.941  76.470  1.00  0.00     0.059 A 
BRANCH  16  18
HETATM   18  N7  UNL     1      57.849  79.435  76.149  1.00  0.00    -0.284 N 
ATOM     19  H7  UNL     1      56.937  79.672  76.542  1.00  0.00     0.178 HD
BRANCH  18  20
HETATM   20  S1  UNL     1      58.125  79.801  74.507  1.00  0.00     0.238 S 
HETATM   21  O1  UNL     1      59.609  79.810  74.269  1.00  0.00    -0.205 OA
HETATM   22  O2  UNL     1      57.623  81.167  74.135  1.00  0.00    -0.205 OA
BRANCH  20  23
HETATM   23  C22 UNL     1      57.415  78.532  73.502  1.00  0.00     0.072 C 
HETATM   24  C23 UNL     1      56.962  79.189  72.201  1.00  0.00     0.033 C 
HETATM   25  C24 UNL     1      56.237  77.934  74.247  1.00  0.00     0.033 C 
HETATM   26  C25 UNL     1      58.428  77.466  73.145  1.00  0.00     0.033 C 
ENDBRANCH  20  23
ENDBRANCH  18  20
ENDBRANCH  16  18
ENDBRANCH  10  12
ENDBRANCH   9  10
BRANCH   6  27
HETATM   27  N2  UNL     1      65.630  77.932  78.769  1.00  0.00    -0.192 N 
ATOM     28  H2  UNL     1      66.615  78.114  78.578  1.00  0.00     0.184 HD
BRANCH  27  29
HETATM   29  C5  UNL     1      65.037  78.567  79.877  1.00  0.00     0.049 A 
HETATM   30  C6  UNL     1      63.988  77.939  80.573  1.00  0.00     0.032 A 
HETATM   31  C7  UNL     1      63.397  78.500  81.676  1.00  0.00     0.031 A 
HETATM   32  C8  UNL     1      63.788  79.722  82.189  1.00  0.00     0.030 A 
HETATM   33  C14 UNL     1      64.823  80.343  81.505  1.00  0.00     0.031 A 
HETATM   34  C15 UNL     1      65.421  79.782  80.393  1.00  0.00     0.032 A 
BRANCH  32  35
HETATM   35  N3  UNL     1      63.189  80.327  83.311  1.00  0.00    -0.378 N 
HETATM   36  C9  UNL     1      63.815  81.441  83.972  1.00  0.00     0.153 C 
HETATM   37  C10 UNL     1      62.960  82.688  83.904  1.00  0.00     0.291 C 
HETATM   38  N4  UNL     1      61.678  82.276  83.366  1.00  0.00     0.087 N 
HETATM   39  C11 UNL     1      60.804  83.423  83.372  1.00  0.00     0.310 C 
HETATM   40  C12 UNL     1      61.104  81.144  84.068  1.00  0.00     0.291 C 
HETATM   41  C13 UNL     1      61.920  79.878  83.832  1.00  0.00     0.153 C 
ENDBRANCH  32  35
ENDBRANCH  27  29
ENDBRANCH   6  27
TORSDOF 8
ENDMDL
