MODEL 1
REMARK VINA RESULT: -8.921396270      0.000      0.000
REMARK  8 active torsions:
REMARK  status: ('A' for Active; 'I' for Inactive)
REMARK    1  A    between atoms: C4_6  and  N2_7 
REMARK    2  A    between atoms: N2_7  and  C5_9 
REMARK    3  A    between atoms: C8_12  and  N3_13 
REMARK    4  A    between atoms: C16_24  and  N6_25 
REMARK    5  A    between atoms: N6_25  and  C17_27 
REMARK    6  A    between atoms: C21_31  and  N7_32 
REMARK    7  A    between atoms: N7_32  and  S1_34 
REMARK    8  A    between atoms: S1_34  and  C22_37 
ROOT
HETATM    1  C1  UNL     1      61.427  80.908  81.029  1.00  0.00     0.054 C 
HETATM    2  C2  UNL     1      62.380  79.896  80.550  1.00  0.00    -0.001 A 
HETATM    3  C3  UNL     1      63.729  80.083  80.514  1.00  0.00     0.116 A 
HETATM    4  N1  UNL     1      64.524  79.109  80.063  1.00  0.00    -0.201 N 
ATOM      5  H1  UNL     1      65.530  79.278  80.047  1.00  0.00     0.183 HD
HETATM    6  C4  UNL     1      64.063  77.895  79.619  1.00  0.00     0.684 A 
HETATM    7  N5  UNL     1      62.736  77.749  79.668  1.00  0.00    -0.176 N 
ATOM      8  H5  UNL     1      62.350  76.861  79.346  1.00  0.00     0.186 HD
HETATM    9  C16 UNL     1      61.867  78.672  80.106  1.00  0.00     0.128 A 
ENDROOT
BRANCH   9  10
HETATM   10  N6  UNL     1      60.474  78.443  80.154  1.00  0.00    -0.342 N 
ATOM     11  H6  UNL     1      60.112  77.980  80.989  1.00  0.00     0.167 HD
BRANCH  10  12
HETATM   12  C17 UNL     1      59.532  78.792  79.160  1.00  0.00     0.035 A 
HETATM   13  C18 UNL     1      58.557  79.741  79.302  1.00  0.00     0.029 A 
HETATM   14  C19 UNL     1      57.673  80.056  78.276  1.00  0.00     0.004 A 
HETATM   15  C20 UNL     1      57.787  79.387  77.081  1.00  0.00     0.030 A 
HETATM   16  C21 UNL     1      58.748  78.427  76.890  1.00  0.00     0.044 A 
HETATM   17  C26 UNL     1      59.603  78.142  77.924  1.00  0.00     0.059 A 
BRANCH  16  18
HETATM   18  N7  UNL     1      58.905  77.705  75.663  1.00  0.00    -0.284 N 
ATOM     19  H7  UNL     1      58.999  76.691  75.719  1.00  0.00     0.178 HD
BRANCH  18  20
HETATM   20  S1  UNL     1      58.946  78.422  74.116  1.00  0.00     0.238 S 
HETATM   21  O1  UNL     1      59.930  77.663  73.271  1.00  0.00    -0.205 OA
HETATM   22  O2  UNL     1      59.425  79.845  74.159  1.00  0.00    -0.205 OA
BRANCH  20  23
HETATM   23  C22 UNL     1      57.352  78.275  73.367  1.00  0.00     0.072 C 
HETATM   24  C23 UNL     1      57.123  76.793  73.080  1.00  0.00     0.033 C 
HETATM   25  C24 UNL     1      57.349  79.083  72.083  1.00  0.00     0.033 C 
HETATM   26  C25 UNL     1      56.250  78.734  74.298  1.00  0.00     0.033 C 
ENDBRANCH  20  23
ENDBRANCH  18  20
ENDBRANCH  16  18
ENDBRANCH  10  12
ENDBRANCH   9  10
BRANCH   6  27
HETATM   27  N2  UNL     1      64.969  76.933  79.136  1.00  0.00    -0.192 N 
ATOM     28  H2  UNL     1      65.821  76.761  79.669  1.00  0.00     0.184 HD
BRANCH  27  29
HETATM   29  C5  UNL     1      64.761  76.194  77.955  1.00  0.00     0.049 A 
HETATM   30  C6  UNL     1      65.834  75.511  77.353  1.00  0.00     0.032 A 
HETATM   31  C7  UNL     1      65.680  74.752  76.221  1.00  0.00     0.031 A 
HETATM   32  C8  UNL     1      64.461  74.599  75.587  1.00  0.00     0.030 A 
HETATM   33  C14 UNL     1      63.402  75.272  76.180  1.00  0.00     0.031 A 
HETATM   34  C15 UNL     1      63.552  76.037  77.320  1.00  0.00     0.032 A 
BRANCH  32  35
HETATM   35  N3  UNL     1      64.278  73.839  74.417  1.00  0.00    -0.378 N 
HETATM   36  C9  UNL     1      62.988  73.754  73.784  1.00  0.00     0.153 C 
HETATM   37  C10 UNL     1      63.008  74.335  72.387  1.00  0.00     0.291 C 
HETATM   38  N4  UNL     1      64.400  74.597  72.073  1.00  0.00     0.087 N 
HETATM   39  C11 UNL     1      64.467  75.068  70.711  1.00  0.00     0.310 C 
HETATM   40  C12 UNL     1      65.260  73.452  72.301  1.00  0.00     0.291 C 
HETATM   41  C13 UNL     1      65.370  73.133  73.788  1.00  0.00     0.153 C 
ENDBRANCH  32  35
ENDBRANCH  27  29
ENDBRANCH   6  27
TORSDOF 8
ENDMDL
