MODEL 7
REMARK VINA RESULT: -8.449579609      3.611      8.829
REMARK  8 active torsions:
REMARK  status: ('A' for Active; 'I' for Inactive)
REMARK    1  A    between atoms: C4_6  and  N2_7 
REMARK    2  A    between atoms: N2_7  and  C5_9 
REMARK    3  A    between atoms: C8_12  and  N3_13 
REMARK    4  A    between atoms: C16_24  and  N6_25 
REMARK    5  A    between atoms: N6_25  and  C17_27 
REMARK    6  A    between atoms: C21_31  and  N7_32 
REMARK    7  A    between atoms: N7_32  and  S1_34 
REMARK    8  A    between atoms: S1_34  and  C22_37 
ROOT
HETATM    1  C1  UNL     1      65.460  75.399  77.636  1.00  0.00     0.054 C 
HETATM    2  C2  UNL     1      64.148  75.893  77.190  1.00  0.00    -0.001 A 
HETATM    3  C3  UNL     1      63.221  75.119  76.561  1.00  0.00     0.116 A 
HETATM    4  N1  UNL     1      62.053  75.649  76.188  1.00  0.00    -0.201 N 
ATOM      5  H1  UNL     1      61.378  75.045  75.718  1.00  0.00     0.183 HD
HETATM    6  C4  UNL     1      61.710  76.961  76.403  1.00  0.00     0.684 A 
HETATM    7  N5  UNL     1      62.644  77.688  77.023  1.00  0.00    -0.176 N 
ATOM      8  H5  UNL     1      62.430  78.670  77.201  1.00  0.00     0.186 HD
HETATM    9  C16 UNL     1      63.839  77.237  77.429  1.00  0.00     0.128 A 
ENDROOT
BRANCH   9  10
HETATM   10  N6  UNL     1      64.773  78.057  78.102  1.00  0.00    -0.342 N 
ATOM     11  H6  UNL     1      65.582  78.370  77.565  1.00  0.00     0.167 HD
BRANCH  10  12
HETATM   12  C17 UNL     1      64.696  78.485  79.447  1.00  0.00     0.035 A 
HETATM   13  C18 UNL     1      65.491  79.444  80.011  1.00  0.00     0.029 A 
HETATM   14  C19 UNL     1      65.350  79.839  81.337  1.00  0.00     0.004 A 
HETATM   15  C20 UNL     1      64.377  79.242  82.102  1.00  0.00     0.030 A 
HETATM   16  C21 UNL     1      63.555  78.275  81.581  1.00  0.00     0.044 A 
HETATM   17  C26 UNL     1      63.722  77.910  80.269  1.00  0.00     0.059 A 
BRANCH  16  18
HETATM   18  N7  UNL     1      62.528  77.626  82.339  1.00  0.00    -0.284 N 
ATOM     19  H7  UNL     1      62.708  76.677  82.666  1.00  0.00     0.178 HD
BRANCH  18  20
HETATM   20  S1  UNL     1      61.024  78.328  82.733  1.00  0.00     0.238 S 
HETATM   21  O1  UNL     1      60.701  79.366  81.695  1.00  0.00    -0.205 OA
HETATM   22  O2  UNL     1      61.056  79.040  84.056  1.00  0.00    -0.205 OA
BRANCH  20  23
HETATM   23  C22 UNL     1      59.770  77.084  82.674  1.00  0.00     0.072 C 
HETATM   24  C23 UNL     1      58.459  77.745  83.092  1.00  0.00     0.033 C 
HETATM   25  C24 UNL     1      60.149  75.976  83.638  1.00  0.00     0.033 C 
HETATM   26  C25 UNL     1      59.581  76.543  81.274  1.00  0.00     0.033 C 
ENDBRANCH  20  23
ENDBRANCH  18  20
ENDBRANCH  16  18
ENDBRANCH  10  12
ENDBRANCH   9  10
BRANCH   6  27
HETATM   27  N2  UNL     1      60.467  77.445  75.957  1.00  0.00    -0.192 N 
ATOM     28  H2  UNL     1      60.162  77.198  75.015  1.00  0.00     0.184 HD
BRANCH  27  29
HETATM   29  C5  UNL     1      59.621  78.253  76.739  1.00  0.00     0.049 A 
HETATM   30  C6  UNL     1      58.580  78.980  76.133  1.00  0.00     0.032 A 
HETATM   31  C7  UNL     1      57.708  79.757  76.853  1.00  0.00     0.031 A 
HETATM   32  C8  UNL     1      57.786  79.884  78.227  1.00  0.00     0.030 A 
HETATM   33  C14 UNL     1      58.812  79.168  78.827  1.00  0.00     0.031 A 
HETATM   34  C15 UNL     1      59.691  78.384  78.106  1.00  0.00     0.032 A 
BRANCH  32  35
HETATM   35  N3  UNL     1      56.914  80.686  78.989  1.00  0.00    -0.378 N 
HETATM   36  C9  UNL     1      57.301  81.171  80.287  1.00  0.00     0.153 C 
HETATM   37  C10 UNL     1      57.361  82.682  80.328  1.00  0.00     0.291 C 
HETATM   38  N4  UNL     1      56.795  83.148  79.076  1.00  0.00     0.087 N 
HETATM   39  C11 UNL     1      56.752  84.590  79.117  1.00  0.00     0.310 C 
HETATM   40  C12 UNL     1      55.497  82.568  78.788  1.00  0.00     0.291 C 
HETATM   41  C13 UNL     1      55.613  81.076  78.498  1.00  0.00     0.153 C 
ENDBRANCH  32  35
ENDBRANCH  27  29
ENDBRANCH   6  27
TORSDOF 8
ENDMDL
