MODEL 4
REMARK VINA RESULT: -8.595657010      1.785      2.507
REMARK  8 active torsions:
REMARK  status: ('A' for Active; 'I' for Inactive)
REMARK    1  A    between atoms: C4_6  and  N2_7 
REMARK    2  A    between atoms: N2_7  and  C5_9 
REMARK    3  A    between atoms: C8_12  and  N3_13 
REMARK    4  A    between atoms: C16_24  and  N6_25 
REMARK    5  A    between atoms: N6_25  and  C17_27 
REMARK    6  A    between atoms: C21_31  and  N7_32 
REMARK    7  A    between atoms: N7_32  and  S1_34 
REMARK    8  A    between atoms: S1_34  and  C22_37 
ROOT
HETATM    1  C1  UNL     1      59.328  79.083  81.208  1.00  0.00     0.054 C 
HETATM    2  C2  UNL     1      60.601  78.565  80.684  1.00  0.00    -0.001 A 
HETATM    3  C3  UNL     1      61.715  78.383  81.445  1.00  0.00     0.116 A 
HETATM    4  N1  UNL     1      62.832  77.908  80.888  1.00  0.00    -0.201 N 
ATOM      5  H1  UNL     1      63.652  77.783  81.482  1.00  0.00     0.183 HD
HETATM    6  C4  UNL     1      62.939  77.578  79.559  1.00  0.00     0.684 A 
HETATM    7  N5  UNL     1      61.825  77.770  78.845  1.00  0.00    -0.176 N 
ATOM      8  H5  UNL     1      61.861  77.539  77.852  1.00  0.00     0.186 HD
HETATM    9  C16 UNL     1      60.665  78.242  79.323  1.00  0.00     0.128 A 
ENDROOT
BRANCH   9  10
HETATM   10  N6  UNL     1      59.517  78.398  78.516  1.00  0.00    -0.342 N 
ATOM     11  H6  UNL     1      58.617  78.423  78.996  1.00  0.00     0.167 HD
BRANCH  10  12
HETATM   12  C17 UNL     1      59.493  78.523  77.108  1.00  0.00     0.035 A 
HETATM   13  C18 UNL     1      60.390  77.943  76.254  1.00  0.00     0.029 A 
HETATM   14  C19 UNL     1      60.299  78.084  74.874  1.00  0.00     0.004 A 
HETATM   15  C20 UNL     1      59.270  78.834  74.356  1.00  0.00     0.030 A 
HETATM   16  C21 UNL     1      58.346  79.435  75.171  1.00  0.00     0.044 A 
HETATM   17  C26 UNL     1      58.466  79.275  76.529  1.00  0.00     0.059 A 
BRANCH  16  18
HETATM   18  N7  UNL     1      57.257  80.224  74.677  1.00  0.00    -0.284 N 
ATOM     19  H7  UNL     1      57.212  81.202  74.965  1.00  0.00     0.178 HD
BRANCH  18  20
HETATM   20  S1  UNL     1      56.032  79.645  73.642  1.00  0.00     0.238 S 
HETATM   21  O1  UNL     1      56.611  78.546  72.795  1.00  0.00    -0.205 OA
HETATM   22  O2  UNL     1      55.539  80.702  72.695  1.00  0.00    -0.205 OA
BRANCH  20  23
HETATM   23  C22 UNL     1      54.727  78.958  74.616  1.00  0.00     0.072 C 
HETATM   24  C23 UNL     1      53.411  79.376  73.964  1.00  0.00     0.033 C 
HETATM   25  C24 UNL     1      54.836  79.514  76.023  1.00  0.00     0.033 C 
HETATM   26  C25 UNL     1      54.770  77.445  74.626  1.00  0.00     0.033 C 
ENDBRANCH  20  23
ENDBRANCH  18  20
ENDBRANCH  16  18
ENDBRANCH  10  12
ENDBRANCH   9  10
BRANCH   6  27
HETATM   27  N2  UNL     1      64.161  77.106  79.048  1.00  0.00    -0.192 N 
ATOM     28  H2  UNL     1      65.021  77.374  79.527  1.00  0.00     0.184 HD
BRANCH  27  29
HETATM   29  C5  UNL     1      64.261  76.284  77.909  1.00  0.00     0.049 A 
HETATM   30  C6  UNL     1      63.098  75.796  77.287  1.00  0.00     0.032 A 
HETATM   31  C7  UNL     1      63.138  75.018  76.157  1.00  0.00     0.031 A 
HETATM   32  C8  UNL     1      64.323  74.656  75.546  1.00  0.00     0.030 A 
HETATM   33  C14 UNL     1      65.472  75.137  76.158  1.00  0.00     0.031 A 
HETATM   34  C15 UNL     1      65.436  75.920  77.294  1.00  0.00     0.032 A 
BRANCH  32  35
HETATM   35  N3  UNL     1      64.394  73.847  74.395  1.00  0.00    -0.378 N 
HETATM   36  C9  UNL     1      63.245  73.664  73.548  1.00  0.00     0.153 C 
HETATM   37  C10 UNL     1      63.484  74.197  72.153  1.00  0.00     0.291 C 
HETATM   38  N4  UNL     1      64.895  74.532  72.079  1.00  0.00     0.087 N 
HETATM   39  C11 UNL     1      65.180  74.960  70.731  1.00  0.00     0.310 C 
HETATM   40  C12 UNL     1      65.759  73.449  72.506  1.00  0.00     0.291 C 
HETATM   41  C13 UNL     1      65.617  73.187  74.002  1.00  0.00     0.153 C 
ENDBRANCH  32  35
ENDBRANCH  27  29
ENDBRANCH   6  27
TORSDOF 8
ENDMDL
