MODEL 3
REMARK VINA RESULT: -8.837823428      0.180      1.070
REMARK  8 active torsions:
REMARK  status: ('A' for Active; 'I' for Inactive)
REMARK    1  A    between atoms: C4_6  and  N2_7 
REMARK    2  A    between atoms: N2_7  and  C5_9 
REMARK    3  A    between atoms: C8_12  and  N3_13 
REMARK    4  A    between atoms: C16_24  and  N6_25 
REMARK    5  A    between atoms: N6_25  and  C17_27 
REMARK    6  A    between atoms: C21_32  and  N7_33 
REMARK    7  A    between atoms: N7_33  and  S1_35 
REMARK    8  A    between atoms: S1_35  and  C22_38 
ROOT
HETATM    1  C1  UNL     1      13.098  41.043  80.431  1.00  0.00     0.054 C 
HETATM    2  C2  UNL     1      13.611  39.919  79.610  1.00  0.00    -0.001 A 
HETATM    3  C3  UNL     1      14.929  39.924  79.250  1.00  0.00     0.116 A 
HETATM    4  N1  UNL     1      15.414  38.930  78.515  1.00  0.00    -0.201 N 
ATOM      5  H1  UNL     1      16.399  38.938  78.249  1.00  0.00     0.183 HD
HETATM    6  C4  UNL     1      14.623  37.901  78.111  1.00  0.00     0.684 A 
HETATM    7  N5  UNL     1      13.339  37.926  78.480  1.00  0.00    -0.176 N 
ATOM      8  H5  UNL     1      12.752  37.151  78.174  1.00  0.00     0.186 HD
HETATM    9  C16 UNL     1      12.760  38.873  79.211  1.00  0.00     0.128 A 
ENDROOT
BRANCH   9  10
HETATM   10  N6  UNL     1      11.415  38.957  79.608  1.00  0.00    -0.342 N 
ATOM     11  H6  UNL     1      11.189  39.708  80.259  1.00  0.00     0.167 HD
BRANCH  10  12
HETATM   12  C17 UNL     1      10.337  38.132  79.217  1.00  0.00     0.035 A 
HETATM   13  C18 UNL     1      10.052  37.789  77.917  1.00  0.00     0.031 A 
HETATM   14  C19 UNL     1       8.976  36.983  77.624  1.00  0.00     0.028 A 
HETATM   15  C20 UNL     1       8.139  36.483  78.599  1.00  0.00     0.061 A 
HETATM   16 CL1  UNL     1       6.778  35.466  78.211  1.00  0.00    -0.082 Cl
HETATM   17  C21 UNL     1       8.421  36.826  79.913  1.00  0.00     0.066 A 
HETATM   18  C26 UNL     1       9.482  37.623  80.210  1.00  0.00     0.061 A 
BRANCH  17  19
HETATM   19  N7  UNL     1       7.540  36.363  80.912  1.00  0.00    -0.282 N 
ATOM     20  H7  UNL     1       6.652  36.860  80.985  1.00  0.00     0.178 HD
BRANCH  19  21
HETATM   21  S1  UNL     1       7.765  35.085  82.013  1.00  0.00     0.238 S 
HETATM   22  O1  UNL     1       9.181  34.534  81.838  1.00  0.00    -0.205 OA
HETATM   23  O2  UNL     1       7.640  35.617  83.445  1.00  0.00    -0.205 OA
BRANCH  21  24
HETATM   24  C22 UNL     1       6.609  33.789  81.737  1.00  0.00     0.072 C 
HETATM   25  C23 UNL     1       6.355  33.002  83.029  1.00  0.00     0.033 C 
HETATM   26  C24 UNL     1       7.115  32.867  80.688  1.00  0.00     0.033 C 
HETATM   27  C25 UNL     1       5.286  34.398  81.312  1.00  0.00     0.033 C 
ENDBRANCH  21  24
ENDBRANCH  19  21
ENDBRANCH  17  19
ENDBRANCH  10  12
ENDBRANCH   9  10
BRANCH   6  28
HETATM   28  N2  UNL     1      15.225  36.928  77.301  1.00  0.00    -0.192 N 
ATOM     29  H2  UNL     1      15.839  36.269  77.777  1.00  0.00     0.184 HD
BRANCH  28  30
HETATM   30  C5  UNL     1      15.086  36.749  75.912  1.00  0.00     0.049 A 
HETATM   31  C6  UNL     1      15.781  35.723  75.256  1.00  0.00     0.032 A 
HETATM   32  C7  UNL     1      15.597  35.538  73.915  1.00  0.00     0.031 A 
HETATM   33  C8  UNL     1      14.757  36.295  73.115  1.00  0.00     0.030 A 
HETATM   34  C14 UNL     1      14.077  37.309  73.799  1.00  0.00     0.031 A 
HETATM   35  C15 UNL     1      14.249  37.515  75.163  1.00  0.00     0.032 A 
BRANCH  33  36
HETATM   36  N3  UNL     1      14.582  36.092  71.731  1.00  0.00    -0.378 N 
HETATM   37  C9  UNL     1      15.658  35.779  70.844  1.00  0.00     0.153 C 
HETATM   38  C10 UNL     1      15.732  36.917  69.840  1.00  0.00     0.291 C 
HETATM   39  N4  UNL     1      14.454  37.149  69.211  1.00  0.00     0.087 N 
HETATM   40  C11 UNL     1      14.012  38.478  69.600  1.00  0.00     0.310 C 
HETATM   41  C12 UNL     1      13.438  36.222  69.646  1.00  0.00     0.291 C 
HETATM   42  C13 UNL     1      13.271  36.185  71.153  1.00  0.00     0.153 C 
ENDBRANCH  33  36
ENDBRANCH  28  30
ENDBRANCH   6  28
TORSDOF 8
ENDMDL
