MODEL 18
REMARK VINA RESULT: -8.372992714      3.585      5.377
REMARK  8 active torsions:
REMARK  status: ('A' for Active; 'I' for Inactive)
REMARK    1  A    between atoms: C4_6  and  N2_7 
REMARK    2  A    between atoms: N2_7  and  C5_9 
REMARK    3  A    between atoms: C8_12  and  N3_13 
REMARK    4  A    between atoms: C16_24  and  N6_25 
REMARK    5  A    between atoms: N6_25  and  C17_27 
REMARK    6  A    between atoms: C21_32  and  N7_33 
REMARK    7  A    between atoms: N7_33  and  S1_35 
REMARK    8  A    between atoms: S1_35  and  C22_38 
ROOT
HETATM    1  C1  UNL     1      12.865  41.053  80.515  1.00  0.00     0.054 C 
HETATM    2  C2  UNL     1      13.462  40.052  79.597  1.00  0.00    -0.001 A 
HETATM    3  C3  UNL     1      14.765  40.213  79.217  1.00  0.00     0.116 A 
HETATM    4  N1  UNL     1      15.324  39.332  78.395  1.00  0.00    -0.201 N 
ATOM      5  H1  UNL     1      16.297  39.456  78.114  1.00  0.00     0.183 HD
HETATM    6  C4  UNL     1      14.624  38.268  77.920  1.00  0.00     0.684 A 
HETATM    7  N5  UNL     1      13.353  38.140  78.311  1.00  0.00    -0.176 N 
ATOM      8  H5  UNL     1      12.835  37.338  77.952  1.00  0.00     0.186 HD
HETATM    9  C16 UNL     1      12.704  38.965  79.127  1.00  0.00     0.128 A 
ENDROOT
BRANCH   9  10
HETATM   10  N6  UNL     1      11.368  38.887  79.550  1.00  0.00    -0.342 N 
ATOM     11  H6  UNL     1      11.109  39.498  80.324  1.00  0.00     0.167 HD
BRANCH  10  12
HETATM   12  C17 UNL     1      10.336  38.068  79.039  1.00  0.00     0.035 A 
HETATM   13  C18 UNL     1       9.419  37.400  79.814  1.00  0.00     0.031 A 
HETATM   14  C19 UNL     1       8.447  36.616  79.234  1.00  0.00     0.028 A 
HETATM   15  C20 UNL     1       8.343  36.460  77.868  1.00  0.00     0.061 A 
HETATM   16 CL1  UNL     1       7.110  35.462  77.147  1.00  0.00    -0.082 Cl
HETATM   17  C21 UNL     1       9.266  37.131  77.080  1.00  0.00     0.066 A 
HETATM   18  C26 UNL     1      10.229  37.906  77.647  1.00  0.00     0.061 A 
BRANCH  17  19
HETATM   19  N7  UNL     1       9.200  36.935  75.685  1.00  0.00    -0.282 N 
ATOM     20  H7  UNL     1       9.178  35.964  75.375  1.00  0.00     0.178 HD
BRANCH  19  21
HETATM   21  S1  UNL     1       9.154  38.108  74.452  1.00  0.00     0.238 S 
HETATM   22  O1  UNL     1       8.012  37.765  73.496  1.00  0.00    -0.205 OA
HETATM   23  O2  UNL     1       8.860  39.481  75.066  1.00  0.00    -0.205 OA
BRANCH  21  24
HETATM   24  C22 UNL     1      10.663  38.150  73.549  1.00  0.00     0.072 C 
HETATM   25  C23 UNL     1      11.865  38.210  74.501  1.00  0.00     0.033 C 
HETATM   26  C24 UNL     1      10.687  39.329  72.647  1.00  0.00     0.033 C 
HETATM   27  C25 UNL     1      10.787  36.868  72.748  1.00  0.00     0.033 C 
ENDBRANCH  21  24
ENDBRANCH  19  21
ENDBRANCH  17  19
ENDBRANCH  10  12
ENDBRANCH   9  10
BRANCH   6  28
HETATM   28  N2  UNL     1      15.296  37.425  77.024  1.00  0.00    -0.192 N 
ATOM     29  H2  UNL     1      16.306  37.552  76.962  1.00  0.00     0.184 HD
BRANCH  28  30
HETATM   30  C5  UNL     1      14.750  36.425  76.198  1.00  0.00     0.049 A 
HETATM   31  C6  UNL     1      15.448  35.980  75.066  1.00  0.00     0.032 A 
HETATM   32  C7  UNL     1      14.919  34.977  74.303  1.00  0.00     0.031 A 
HETATM   33  C8  UNL     1      13.717  34.335  74.554  1.00  0.00     0.030 A 
HETATM   34  C14 UNL     1      13.046  34.802  75.690  1.00  0.00     0.031 A 
HETATM   35  C15 UNL     1      13.565  35.820  76.480  1.00  0.00     0.032 A 
BRANCH  33  36
HETATM   36  N3  UNL     1      13.186  33.304  73.753  1.00  0.00    -0.378 N 
HETATM   37  C9  UNL     1      12.329  33.544  72.635  1.00  0.00     0.153 C 
HETATM   38  C10 UNL     1      11.007  32.866  72.954  1.00  0.00     0.291 C 
HETATM   39  N4  UNL     1      11.196  31.481  73.307  1.00  0.00     0.087 N 
HETATM   40  C11 UNL     1      10.787  31.324  74.692  1.00  0.00     0.310 C 
HETATM   41  C12 UNL     1      12.575  31.064  73.224  1.00  0.00     0.291 C 
HETATM   42  C13 UNL     1      13.511  31.935  74.039  1.00  0.00     0.153 C 
ENDBRANCH  33  36
ENDBRANCH  28  30
ENDBRANCH   6  28
TORSDOF 8
ENDMDL
