MODEL 2
REMARK VINA RESULT: -8.864895800      3.801      9.723
REMARK  8 active torsions:
REMARK  status: ('A' for Active; 'I' for Inactive)
REMARK    1  A    between atoms: C4_6  and  N2_7 
REMARK    2  A    between atoms: N2_7  and  C5_9 
REMARK    3  A    between atoms: C8_12  and  N3_13 
REMARK    4  A    between atoms: C16_24  and  N6_25 
REMARK    5  A    between atoms: N6_25  and  C17_27 
REMARK    6  A    between atoms: C21_32  and  N7_33 
REMARK    7  A    between atoms: N7_33  and  S1_35 
REMARK    8  A    between atoms: S1_35  and  C22_38 
ROOT
HETATM    1  C1  UNL     1      15.530  39.818  79.231  1.00  0.00     0.054 C 
HETATM    2  C2  UNL     1      14.104  39.412  79.180  1.00  0.00    -0.001 A 
HETATM    3  C3  UNL     1      13.196  40.134  79.902  1.00  0.00     0.116 A 
HETATM    4  N1  UNL     1      11.913  39.792  79.874  1.00  0.00    -0.201 N 
ATOM      5  H1  UNL     1      11.238  40.334  80.415  1.00  0.00     0.183 HD
HETATM    6  C4  UNL     1      11.481  38.733  79.139  1.00  0.00     0.684 A 
HETATM    7  N5  UNL     1      12.395  38.049  78.445  1.00  0.00    -0.176 N 
ATOM      8  H5  UNL     1      12.063  37.257  77.895  1.00  0.00     0.186 HD
HETATM    9  C16 UNL     1      13.697  38.310  78.408  1.00  0.00     0.128 A 
ENDROOT
BRANCH   9  10
HETATM   10  N6  UNL     1      14.698  37.612  77.713  1.00  0.00    -0.342 N 
ATOM     11  H6  UNL     1      15.545  37.403  78.242  1.00  0.00     0.167 HD
BRANCH  10  12
HETATM   12  C17 UNL     1      14.681  37.162  76.374  1.00  0.00     0.035 A 
HETATM   13  C18 UNL     1      15.541  36.222  75.859  1.00  0.00     0.031 A 
HETATM   14  C19 UNL     1      15.458  35.844  74.538  1.00  0.00     0.028 A 
HETATM   15  C20 UNL     1      14.525  36.377  73.674  1.00  0.00     0.061 A 
HETATM   16 CL1  UNL     1      14.434  35.890  72.003  1.00  0.00    -0.082 Cl
HETATM   17  C21 UNL     1      13.653  37.325  74.188  1.00  0.00     0.066 A 
HETATM   18  C26 UNL     1      13.730  37.704  75.492  1.00  0.00     0.061 A 
BRANCH  17  19
HETATM   19  N7  UNL     1      12.730  37.914  73.300  1.00  0.00    -0.282 N 
ATOM     20  H7  UNL     1      13.065  38.731  72.790  1.00  0.00     0.178 HD
BRANCH  19  21
HETATM   21  S1  UNL     1      11.129  37.440  72.969  1.00  0.00     0.238 S 
HETATM   22  O1  UNL     1      10.901  37.512  71.459  1.00  0.00    -0.205 OA
HETATM   23  O2  UNL     1      10.927  35.985  73.407  1.00  0.00    -0.205 OA
BRANCH  21  24
HETATM   24  C22 UNL     1       9.969  38.490  73.773  1.00  0.00     0.072 C 
HETATM   25  C23 UNL     1      10.153  38.437  75.296  1.00  0.00     0.033 C 
HETATM   26  C24 UNL     1       8.584  38.080  73.428  1.00  0.00     0.033 C 
HETATM   27  C25 UNL     1      10.223  39.920  73.337  1.00  0.00     0.033 C 
ENDBRANCH  21  24
ENDBRANCH  19  21
ENDBRANCH  17  19
ENDBRANCH  10  12
ENDBRANCH   9  10
BRANCH   6  28
HETATM   28  N2  UNL     1      10.114  38.431  79.217  1.00  0.00    -0.192 N 
ATOM     29  H2  UNL     1       9.500  38.980  78.615  1.00  0.00     0.184 HD
BRANCH  28  30
HETATM   30  C5  UNL     1       9.484  37.465  80.023  1.00  0.00     0.049 A 
HETATM   31  C6  UNL     1       9.823  37.340  81.378  1.00  0.00     0.032 A 
HETATM   32  C7  UNL     1       9.167  36.426  82.153  1.00  0.00     0.031 A 
HETATM   33  C8  UNL     1       8.161  35.582  81.709  1.00  0.00     0.030 A 
HETATM   34  C14 UNL     1       7.846  35.732  80.354  1.00  0.00     0.031 A 
HETATM   35  C15 UNL     1       8.501  36.655  79.548  1.00  0.00     0.032 A 
BRANCH  33  36
HETATM   36  N3  UNL     1       7.498  34.641  82.523  1.00  0.00    -0.378 N 
HETATM   37  C9  UNL     1       6.948  33.422  82.021  1.00  0.00     0.153 C 
HETATM   38  C10 UNL     1       5.453  33.486  82.282  1.00  0.00     0.291 C 
HETATM   39  N4  UNL     1       5.171  33.771  83.668  1.00  0.00     0.087 N 
HETATM   40  C11 UNL     1       4.507  35.062  83.721  1.00  0.00     0.310 C 
HETATM   41  C12 UNL     1       6.364  33.876  84.472  1.00  0.00     0.291 C 
HETATM   42  C13 UNL     1       7.361  34.883  83.931  1.00  0.00     0.153 C 
ENDBRANCH  33  36
ENDBRANCH  28  30
ENDBRANCH   6  28
TORSDOF 8
ENDMDL
