MODEL 1
REMARK VINA RESULT: -8.898078556      0.000      0.000
REMARK  8 active torsions:
REMARK  status: ('A' for Active; 'I' for Inactive)
REMARK    1  A    between atoms: C4_6  and  N2_7 
REMARK    2  A    between atoms: N2_7  and  C5_9 
REMARK    3  A    between atoms: C8_12  and  N3_13 
REMARK    4  A    between atoms: C16_24  and  N6_25 
REMARK    5  A    between atoms: N6_25  and  C17_27 
REMARK    6  A    between atoms: C21_32  and  N7_33 
REMARK    7  A    between atoms: N7_33  and  S1_35 
REMARK    8  A    between atoms: S1_35  and  C22_38 
ROOT
HETATM    1  C1  UNL     1      13.006  41.013  80.433  1.00  0.00     0.054 C 
HETATM    2  C2  UNL     1      13.559  39.910  79.610  1.00  0.00    -0.001 A 
HETATM    3  C3  UNL     1      14.887  39.937  79.292  1.00  0.00     0.116 A 
HETATM    4  N1  UNL     1      15.407  38.961  78.556  1.00  0.00    -0.201 N 
ATOM      5  H1  UNL     1      16.400  38.985  78.322  1.00  0.00     0.183 HD
HETATM    6  C4  UNL     1      14.642  37.931  78.109  1.00  0.00     0.684 A 
HETATM    7  N5  UNL     1      13.347  37.934  78.437  1.00  0.00    -0.176 N 
ATOM      8  H5  UNL     1      12.779  37.158  78.099  1.00  0.00     0.186 HD
HETATM    9  C16 UNL     1      12.733  38.862  79.165  1.00  0.00     0.128 A 
ENDROOT
BRANCH   9  10
HETATM   10  N6  UNL     1      11.376  38.923  79.519  1.00  0.00    -0.342 N 
ATOM     11  H6  UNL     1      11.118  39.665  80.169  1.00  0.00     0.167 HD
BRANCH  10  12
HETATM   12  C17 UNL     1      10.323  38.085  79.089  1.00  0.00     0.035 A 
HETATM   13  C18 UNL     1      10.117  37.703  77.786  1.00  0.00     0.031 A 
HETATM   14  C19 UNL     1       9.060  36.887  77.452  1.00  0.00     0.028 A 
HETATM   15  C20 UNL     1       8.165  36.416  78.390  1.00  0.00     0.061 A 
HETATM   16 CL1  UNL     1       6.830  35.386  77.951  1.00  0.00    -0.082 Cl
HETATM   17  C21 UNL     1       8.368  36.798  79.707  1.00  0.00     0.066 A 
HETATM   18  C26 UNL     1       9.409  37.605  80.044  1.00  0.00     0.061 A 
BRANCH  17  19
HETATM   19  N7  UNL     1       7.428  36.365  80.665  1.00  0.00    -0.282 N 
ATOM     20  H7  UNL     1       6.495  36.771  80.585  1.00  0.00     0.178 HD
BRANCH  19  21
HETATM   21  S1  UNL     1       7.646  35.255  81.936  1.00  0.00     0.238 S 
HETATM   22  O1  UNL     1       9.126  34.877  82.005  1.00  0.00    -0.205 OA
HETATM   23  O2  UNL     1       7.266  35.919  83.264  1.00  0.00    -0.205 OA
BRANCH  21  24
HETATM   24  C22 UNL     1       6.695  33.796  81.685  1.00  0.00     0.072 C 
HETATM   25  C23 UNL     1       5.354  34.130  81.020  1.00  0.00     0.033 C 
HETATM   26  C24 UNL     1       6.448  33.117  82.982  1.00  0.00     0.033 C 
HETATM   27  C25 UNL     1       7.450  32.879  80.742  1.00  0.00     0.033 C 
ENDBRANCH  21  24
ENDBRANCH  19  21
ENDBRANCH  17  19
ENDBRANCH  10  12
ENDBRANCH   9  10
BRANCH   6  28
HETATM   28  N2  UNL     1      15.281  36.979  77.302  1.00  0.00    -0.192 N 
ATOM     29  H2  UNL     1      15.973  36.391  77.767  1.00  0.00     0.184 HD
BRANCH  28  30
HETATM   30  C5  UNL     1      15.087  36.734  75.930  1.00  0.00     0.049 A 
HETATM   31  C6  UNL     1      14.232  37.552  75.177  1.00  0.00     0.032 A 
HETATM   32  C7  UNL     1      14.093  37.324  73.837  1.00  0.00     0.031 A 
HETATM   33  C8  UNL     1      14.741  36.326  73.128  1.00  0.00     0.030 A 
HETATM   34  C14 UNL     1      15.587  35.529  73.907  1.00  0.00     0.031 A 
HETATM   35  C15 UNL     1      15.744  35.742  75.271  1.00  0.00     0.032 A 
BRANCH  33  36
HETATM   36  N3  UNL     1      14.582  36.104  71.745  1.00  0.00    -0.378 N 
HETATM   37  C9  UNL     1      15.667  35.774  70.875  1.00  0.00     0.153 C 
HETATM   38  C10 UNL     1      15.758  36.897  69.856  1.00  0.00     0.291 C 
HETATM   39  N4  UNL     1      14.489  37.125  69.209  1.00  0.00     0.087 N 
HETATM   40  C11 UNL     1      14.048  38.461  69.573  1.00  0.00     0.310 C 
HETATM   41  C12 UNL     1      13.464  36.209  69.645  1.00  0.00     0.291 C 
HETATM   42  C13 UNL     1      13.279  36.194  71.150  1.00  0.00     0.153 C 
ENDBRANCH  33  36
ENDBRANCH  28  30
ENDBRANCH   6  28
TORSDOF 8
ENDMDL
