MODEL 2
REMARK VINA RESULT: -8.954043353      2.028      2.629
REMARK  8 active torsions:
REMARK  status: ('A' for Active; 'I' for Inactive)
REMARK    1  A    between atoms: C4_6  and  N2_7 
REMARK    2  A    between atoms: N2_7  and  C5_9 
REMARK    3  A    between atoms: C8_12  and  N3_13 
REMARK    4  A    between atoms: C16_25  and  N6_26 
REMARK    5  A    between atoms: N6_26  and  C17_28 
REMARK    6  A    between atoms: C21_32  and  N7_33 
REMARK    7  A    between atoms: N7_33  and  S1_35 
REMARK    8  A    between atoms: S1_35  and  C22_38 
ROOT
HETATM    1  C1  UNL     1      -2.151  -8.530  -3.260  1.00  0.00     0.054 C 
HETATM    2  C2  UNL     1      -2.765  -9.443  -4.244  1.00  0.00    -0.001 A 
HETATM    3  C3  UNL     1      -4.123  -9.620  -4.212  1.00  0.00     0.116 A 
HETATM    4  N1  UNL     1      -4.661 -10.450  -5.109  1.00  0.00    -0.201 N 
ATOM      5  H1  UNL     1      -5.673 -10.572  -5.076  1.00  0.00     0.183 HD
HETATM    6  C4  UNL     1      -3.999 -11.133  -6.045  1.00  0.00     0.684 A 
HETATM    7  N5  UNL     1      -2.645 -10.920  -6.033  1.00  0.00    -0.176 N 
ATOM      8  H5  UNL     1      -2.087 -11.416  -6.728  1.00  0.00     0.186 HD
HETATM    9  C16 UNL     1      -2.004 -10.126  -5.198  1.00  0.00     0.128 A 
ENDROOT
BRANCH   9  10
HETATM   10  N6  UNL     1      -0.626  -9.891  -5.181  1.00  0.00    -0.342 N 
ATOM     11  H6  UNL     1      -0.279  -9.268  -4.452  1.00  0.00     0.167 HD
BRANCH  10  12
HETATM   12  C17 UNL     1       0.336 -10.423  -6.063  1.00  0.00     0.035 A 
HETATM   13  C18 UNL     1       0.511 -11.767  -6.237  1.00  0.00     0.029 A 
HETATM   14  C19 UNL     1       1.468 -12.274  -7.134  1.00  0.00     0.004 A 
HETATM   15  C20 UNL     1       2.225 -11.396  -7.832  1.00  0.00     0.030 A 
HETATM   16  C21 UNL     1       2.099 -10.001  -7.701  1.00  0.00     0.044 A 
HETATM   17  C26 UNL     1       1.152  -9.585  -6.816  1.00  0.00     0.059 A 
BRANCH  16  18
HETATM   18  N7  UNL     1       2.972  -9.174  -8.451  1.00  0.00    -0.284 N 
ATOM     19  H7  UNL     1       3.766  -9.647  -8.882  1.00  0.00     0.178 HD
BRANCH  18  20
HETATM   20  S1  UNL     1       2.876  -7.504  -8.730  1.00  0.00     0.238 S 
HETATM   21  O1  UNL     1       1.421  -7.119  -8.992  1.00  0.00    -0.205 OA
HETATM   22  O2  UNL     1       3.662  -7.227 -10.009  1.00  0.00    -0.205 OA
BRANCH  20  23
HETATM   23  C22 UNL     1       3.533  -6.528  -7.411  1.00  0.00     0.072 C 
HETATM   24  C23 UNL     1       4.477  -7.353  -6.581  1.00  0.00     0.033 C 
HETATM   25  C24 UNL     1       2.338  -6.145  -6.464  1.00  0.00     0.033 C 
HETATM   26  C25 UNL     1       4.100  -5.254  -7.953  1.00  0.00     0.033 C 
ENDBRANCH  20  23
ENDBRANCH  18  20
ENDBRANCH  16  18
ENDBRANCH  10  12
ENDBRANCH   9  10
BRANCH   6  27
HETATM   27  N2  UNL     1      -4.555 -12.009  -6.993  1.00  0.00    -0.192 N 
ATOM     28  H2  UNL     1      -5.571 -12.097  -6.999  1.00  0.00     0.184 HD
BRANCH  27  29
HETATM   29  C5  UNL     1      -3.851 -12.769  -7.929  1.00  0.00     0.052 A 
HETATM   30  C6  UNL     1      -4.525 -13.794  -8.636  1.00  0.00     0.032 A 
HETATM   31  C7  UNL     1      -3.871 -14.557  -9.562  1.00  0.00     0.035 A 
HETATM   32  C8  UNL     1      -2.540 -14.389  -9.869  1.00  0.00     0.069 A 
HETATM   33  C14 UNL     1      -1.879 -13.400  -9.189  1.00  0.00     0.145 A 
HETATM   34  F1  UNL     1      -0.573 -13.198  -9.457  1.00  0.00    -0.204 F 
HETATM   35  C15 UNL     1      -2.526 -12.602  -8.234  1.00  0.00     0.074 A 
BRANCH  32  36
HETATM   36  N3  UNL     1      -1.860 -15.175 -10.823  1.00  0.00    -0.375 N 
HETATM   37  C9  UNL     1      -1.288 -16.472 -10.564  1.00  0.00     0.153 C 
HETATM   38  C10 UNL     1      -1.165 -17.165 -11.928  1.00  0.00     0.291 C 
HETATM   39  N4  UNL     1      -2.351 -16.933 -12.710  1.00  0.00     0.087 N 
HETATM   40  C11 UNL     1      -2.224 -17.699 -13.939  1.00  0.00     0.310 C 
HETATM   41  C12 UNL     1      -2.563 -15.563 -13.064  1.00  0.00     0.291 C 
HETATM   42  C13 UNL     1      -1.721 -14.645 -12.171  1.00  0.00     0.153 C 
ENDBRANCH  32  36
ENDBRANCH  27  29
ENDBRANCH   6  27
TORSDOF 8
ENDMDL
