MODEL 6
REMARK VINA RESULT: -8.702111140      2.362      3.929
REMARK  8 active torsions:
REMARK  status: ('A' for Active; 'I' for Inactive)
REMARK    1  A    between atoms: C4_6  and  N2_7 
REMARK    2  A    between atoms: N2_7  and  C5_9 
REMARK    3  A    between atoms: C8_12  and  N3_13 
REMARK    4  A    between atoms: C16_25  and  N6_26 
REMARK    5  A    between atoms: N6_26  and  C17_28 
REMARK    6  A    between atoms: C21_32  and  N7_33 
REMARK    7  A    between atoms: N7_33  and  S1_35 
REMARK    8  A    between atoms: S1_35  and  C22_38 
ROOT
HETATM    1  C1  UNL     1      -2.260  -8.802  -3.341  1.00  0.00     0.054 C 
HETATM    2  C2  UNL     1      -2.701  -9.643  -4.472  1.00  0.00    -0.001 A 
HETATM    3  C3  UNL     1      -4.017 -10.016  -4.533  1.00  0.00     0.116 A 
HETATM    4  N1  UNL     1      -4.398 -10.776  -5.563  1.00  0.00    -0.201 N 
ATOM      5  H1  UNL     1      -5.381 -11.047  -5.599  1.00  0.00     0.183 HD
HETATM    6  C4  UNL     1      -3.613 -11.216  -6.549  1.00  0.00     0.684 A 
HETATM    7  N5  UNL     1      -2.307 -10.814  -6.438  1.00  0.00    -0.176 N 
ATOM      8  H5  UNL     1      -1.661 -11.119  -7.166  1.00  0.00     0.186 HD
HETATM    9  C16 UNL     1      -1.818 -10.065  -5.470  1.00  0.00     0.128 A 
ENDROOT
BRANCH   9  10
HETATM   10  N6  UNL     1      -0.492  -9.639  -5.350  1.00  0.00    -0.342 N 
ATOM     11  H6  UNL     1      -0.234  -9.193  -4.470  1.00  0.00     0.167 HD
BRANCH  10  12
HETATM   12  C17 UNL     1       0.529  -9.759  -6.315  1.00  0.00     0.035 A 
HETATM   13  C18 UNL     1       1.157  -8.675  -6.860  1.00  0.00     0.029 A 
HETATM   14  C19 UNL     1       2.183  -8.820  -7.811  1.00  0.00     0.004 A 
HETATM   15  C20 UNL     1       2.542 -10.071  -8.184  1.00  0.00     0.030 A 
HETATM   16  C21 UNL     1       1.937 -11.230  -7.665  1.00  0.00     0.044 A 
HETATM   17  C26 UNL     1       0.955 -11.010  -6.749  1.00  0.00     0.059 A 
BRANCH  16  18
HETATM   18  N7  UNL     1       2.365 -12.489  -8.156  1.00  0.00    -0.284 N 
ATOM     19  H7  UNL     1       3.369 -12.586  -8.304  1.00  0.00     0.178 HD
BRANCH  18  20
HETATM   20  S1  UNL     1       1.434 -13.855  -8.531  1.00  0.00     0.238 S 
HETATM   21  O1  UNL     1       1.927 -14.457  -9.845  1.00  0.00    -0.205 OA
HETATM   22  O2  UNL     1       0.006 -13.364  -8.758  1.00  0.00    -0.205 OA
BRANCH  20  23
HETATM   23  C22 UNL     1       1.438 -15.085  -7.262  1.00  0.00     0.072 C 
HETATM   24  C23 UNL     1       0.784 -14.545  -6.021  1.00  0.00     0.033 C 
HETATM   25  C24 UNL     1       2.937 -15.366  -6.880  1.00  0.00     0.033 C 
HETATM   26  C25 UNL     1       0.864 -16.362  -7.788  1.00  0.00     0.033 C 
ENDBRANCH  20  23
ENDBRANCH  18  20
ENDBRANCH  16  18
ENDBRANCH  10  12
ENDBRANCH   9  10
BRANCH   6  27
HETATM   27  N2  UNL     1      -4.003 -12.016  -7.636  1.00  0.00    -0.192 N 
ATOM     28  H2  UNL     1      -4.526 -11.557  -8.382  1.00  0.00     0.184 HD
BRANCH  27  29
HETATM   29  C5  UNL     1      -3.743 -13.378  -7.795  1.00  0.00     0.052 A 
HETATM   30  C6  UNL     1      -4.275 -14.059  -8.917  1.00  0.00     0.032 A 
HETATM   31  C7  UNL     1      -4.040 -15.391  -9.108  1.00  0.00     0.035 A 
HETATM   32  C8  UNL     1      -3.287 -16.152  -8.244  1.00  0.00     0.069 A 
HETATM   33  C14 UNL     1      -2.769 -15.503  -7.154  1.00  0.00     0.145 A 
HETATM   34  F1  UNL     1      -2.024 -16.209  -6.279  1.00  0.00    -0.204 F 
HETATM   35  C15 UNL     1      -2.994 -14.137  -6.934  1.00  0.00     0.074 A 
BRANCH  32  36
HETATM   36  N3  UNL     1      -3.042 -17.529  -8.437  1.00  0.00    -0.375 N 
HETATM   37  C9  UNL     1      -1.976 -18.070  -9.242  1.00  0.00     0.153 C 
HETATM   38  C10 UNL     1      -1.746 -19.502  -8.740  1.00  0.00     0.291 C 
HETATM   39  N4  UNL     1      -1.785 -19.534  -7.301  1.00  0.00     0.087 N 
HETATM   40  C11 UNL     1      -1.454 -20.887  -6.882  1.00  0.00     0.310 C 
HETATM   41  C12 UNL     1      -3.058 -19.198  -6.740  1.00  0.00     0.291 C 
HETATM   42  C13 UNL     1      -3.926 -18.479  -7.779  1.00  0.00     0.153 C 
ENDBRANCH  32  36
ENDBRANCH  27  29
ENDBRANCH   6  27
TORSDOF 8
ENDMDL
