MODEL 8
REMARK VINA RESULT: -8.325243214      3.071      4.986
REMARK  8 active torsions:
REMARK  status: ('A' for Active; 'I' for Inactive)
REMARK    1  A    between atoms: C4_6  and  N2_7 
REMARK    2  A    between atoms: N2_7  and  C5_9 
REMARK    3  A    between atoms: C8_12  and  N3_13 
REMARK    4  A    between atoms: C16_25  and  N6_26 
REMARK    5  A    between atoms: N6_26  and  C17_28 
REMARK    6  A    between atoms: C21_32  and  N7_33 
REMARK    7  A    between atoms: N7_33  and  S1_35 
REMARK    8  A    between atoms: S1_35  and  C22_38 
ROOT
HETATM    1  C1  UNL     1       1.738 -14.254  -5.010  1.00  0.00     0.054 C 
HETATM    2  C2  UNL     1       0.777 -14.989  -5.856  1.00  0.00    -0.001 A 
HETATM    3  C3  UNL     1       0.314 -16.201  -5.416  1.00  0.00     0.116 A 
HETATM    4  N1  UNL     1      -0.554 -16.852  -6.195  1.00  0.00    -0.201 N 
ATOM      5  H1  UNL     1      -0.893 -17.752  -5.857  1.00  0.00     0.183 HD
HETATM    6  C4  UNL     1      -1.021 -16.434  -7.374  1.00  0.00     0.684 A 
HETATM    7  N5  UNL     1      -0.525 -15.217  -7.765  1.00  0.00    -0.176 N 
ATOM      8  H5  UNL     1      -0.848 -14.847  -8.660  1.00  0.00     0.186 HD
HETATM    9  C16 UNL     1       0.333 -14.486  -7.082  1.00  0.00     0.128 A 
ENDROOT
BRANCH   9  10
HETATM   10  N6  UNL     1       0.838 -13.239  -7.465  1.00  0.00    -0.342 N 
ATOM     11  H6  UNL     1       1.643 -13.247  -8.090  1.00  0.00     0.167 HD
BRANCH  10  12
HETATM   12  C17 UNL     1       0.354 -11.973  -7.079  1.00  0.00     0.035 A 
HETATM   13  C18 UNL     1      -0.971 -11.732  -6.847  1.00  0.00     0.029 A 
HETATM   14  C19 UNL     1      -1.429 -10.463  -6.449  1.00  0.00     0.004 A 
HETATM   15  C20 UNL     1      -0.521  -9.470  -6.296  1.00  0.00     0.030 A 
HETATM   16  C21 UNL     1       0.856  -9.649  -6.518  1.00  0.00     0.044 A 
HETATM   17  C26 UNL     1       1.224 -10.903  -6.899  1.00  0.00     0.059 A 
BRANCH  16  18
HETATM   18  N7  UNL     1       1.712  -8.529  -6.367  1.00  0.00    -0.284 N 
ATOM     19  H7  UNL     1       2.123  -8.409  -5.442  1.00  0.00     0.178 HD
BRANCH  18  20
HETATM   20  S1  UNL     1       2.146  -7.361  -7.517  1.00  0.00     0.238 S 
HETATM   21  O1  UNL     1       2.210  -5.991  -6.845  1.00  0.00    -0.205 OA
HETATM   22  O2  UNL     1       1.018  -7.317  -8.545  1.00  0.00    -0.205 OA
BRANCH  20  23
HETATM   23  C22 UNL     1       3.675  -7.707  -8.334  1.00  0.00     0.072 C 
HETATM   24  C23 UNL     1       4.774  -7.869  -7.322  1.00  0.00     0.033 C 
HETATM   25  C24 UNL     1       4.051  -6.444  -9.191  1.00  0.00     0.033 C 
HETATM   26  C25 UNL     1       3.499  -8.853  -9.280  1.00  0.00     0.033 C 
ENDBRANCH  20  23
ENDBRANCH  18  20
ENDBRANCH  16  18
ENDBRANCH  10  12
ENDBRANCH   9  10
BRANCH   6  27
HETATM   27  N2  UNL     1      -1.934 -17.110  -8.201  1.00  0.00    -0.192 N 
ATOM     28  H2  UNL     1      -1.600 -17.959  -8.657  1.00  0.00     0.184 HD
BRANCH  27  29
HETATM   29  C5  UNL     1      -3.253 -16.733  -8.457  1.00  0.00     0.052 A 
HETATM   30  C6  UNL     1      -4.275 -17.713  -8.410  1.00  0.00     0.032 A 
HETATM   31  C7  UNL     1      -5.578 -17.382  -8.653  1.00  0.00     0.035 A 
HETATM   32  C8  UNL     1      -5.984 -16.101  -8.953  1.00  0.00     0.069 A 
HETATM   33  C14 UNL     1      -5.003 -15.147  -9.001  1.00  0.00     0.145 A 
HETATM   34  F1  UNL     1      -5.354 -13.877  -9.291  1.00  0.00    -0.204 F 
HETATM   35  C15 UNL     1      -3.657 -15.458  -8.757  1.00  0.00     0.074 A 
BRANCH  32  36
HETATM   36  N3  UNL     1      -7.329 -15.755  -9.204  1.00  0.00    -0.375 N 
HETATM   37  C9  UNL     1      -7.880 -15.490 -10.510  1.00  0.00     0.153 C 
HETATM   38  C10 UNL     1      -9.394 -15.705 -10.386  1.00  0.00     0.291 C 
HETATM   39  N4  UNL     1      -9.664 -16.884  -9.605  1.00  0.00     0.087 N 
HETATM   40  C11 UNL     1     -11.102 -17.098  -9.615  1.00  0.00     0.310 C 
HETATM   41  C12 UNL     1      -9.240 -16.796  -8.242  1.00  0.00     0.291 C 
HETATM   42  C13 UNL     1      -8.233 -15.654  -8.069  1.00  0.00     0.153 C 
ENDBRANCH  32  36
ENDBRANCH  27  29
ENDBRANCH   6  27
TORSDOF 8
ENDMDL
