MODEL 7
REMARK VINA RESULT: -8.388912561      2.900      4.969
REMARK  8 active torsions:
REMARK  status: ('A' for Active; 'I' for Inactive)
REMARK    1  A    between atoms: C4_6  and  N2_7 
REMARK    2  A    between atoms: N2_7  and  C5_9 
REMARK    3  A    between atoms: C8_12  and  N3_13 
REMARK    4  A    between atoms: C16_25  and  N6_26 
REMARK    5  A    between atoms: N6_26  and  C17_28 
REMARK    6  A    between atoms: C21_32  and  N7_33 
REMARK    7  A    between atoms: N7_33  and  S1_35 
REMARK    8  A    between atoms: S1_35  and  C22_38 
ROOT
HETATM    1  C1  UNL     1       1.629 -14.184  -4.969  1.00  0.00     0.054 C 
HETATM    2  C2  UNL     1       0.758 -14.883  -5.934  1.00  0.00    -0.001 A 
HETATM    3  C3  UNL     1       0.206 -16.081  -5.565  1.00  0.00     0.116 A 
HETATM    4  N1  UNL     1      -0.580 -16.700  -6.451  1.00  0.00    -0.201 N 
ATOM      5  H1  UNL     1      -0.986 -17.590  -6.165  1.00  0.00     0.183 HD
HETATM    6  C4  UNL     1      -0.882 -16.262  -7.675  1.00  0.00     0.684 A 
HETATM    7  N5  UNL     1      -0.304 -15.060  -7.992  1.00  0.00    -0.176 N 
ATOM      8  H5  UNL     1      -0.501 -14.675  -8.916  1.00  0.00     0.186 HD
HETATM    9  C16 UNL     1       0.486 -14.360  -7.201  1.00  0.00     0.128 A 
ENDROOT
BRANCH   9  10
HETATM   10  N6  UNL     1       1.074 -13.129  -7.507  1.00  0.00    -0.342 N 
ATOM     11  H6  UNL     1       1.934 -13.159  -8.054  1.00  0.00     0.167 HD
BRANCH  10  12
HETATM   12  C17 UNL     1       0.606 -11.851  -7.142  1.00  0.00     0.035 A 
HETATM   13  C18 UNL     1      -0.714 -11.593  -6.900  1.00  0.00     0.029 A 
HETATM   14  C19 UNL     1      -1.157 -10.312  -6.523  1.00  0.00     0.004 A 
HETATM   15  C20 UNL     1      -0.239  -9.324  -6.402  1.00  0.00     0.030 A 
HETATM   16  C21 UNL     1       1.134  -9.520  -6.637  1.00  0.00     0.044 A 
HETATM   17  C26 UNL     1       1.486 -10.784  -6.997  1.00  0.00     0.059 A 
BRANCH  16  18
HETATM   18  N7  UNL     1       2.001  -8.404  -6.521  1.00  0.00    -0.284 N 
ATOM     19  H7  UNL     1       2.195  -8.095  -5.569  1.00  0.00     0.178 HD
BRANCH  18  20
HETATM   20  S1  UNL     1       2.759  -7.515  -7.749  1.00  0.00     0.238 S 
HETATM   21  O1  UNL     1       1.695  -6.861  -8.629  1.00  0.00    -0.205 OA
HETATM   22  O2  UNL     1       3.517  -8.519  -8.614  1.00  0.00    -0.205 OA
BRANCH  20  23
HETATM   23  C22 UNL     1       3.882  -6.291  -7.146  1.00  0.00     0.072 C 
HETATM   24  C23 UNL     1       3.940  -5.131  -8.101  1.00  0.00     0.033 C 
HETATM   25  C24 UNL     1       5.320  -6.927  -7.143  1.00  0.00     0.033 C 
HETATM   26  C25 UNL     1       3.544  -5.942  -5.731  1.00  0.00     0.033 C 
ENDBRANCH  20  23
ENDBRANCH  18  20
ENDBRANCH  16  18
ENDBRANCH  10  12
ENDBRANCH   9  10
BRANCH   6  27
HETATM   27  N2  UNL     1      -1.706 -16.904  -8.614  1.00  0.00    -0.192 N 
ATOM     28  H2  UNL     1      -1.257 -17.572  -9.241  1.00  0.00     0.184 HD
BRANCH  27  29
HETATM   29  C5  UNL     1      -3.080 -16.717  -8.773  1.00  0.00     0.052 A 
HETATM   30  C6  UNL     1      -3.966 -17.771  -8.441  1.00  0.00     0.032 A 
HETATM   31  C7  UNL     1      -5.317 -17.625  -8.580  1.00  0.00     0.035 A 
HETATM   32  C8  UNL     1      -5.904 -16.469  -9.042  1.00  0.00     0.069 A 
HETATM   33  C14 UNL     1      -5.055 -15.444  -9.367  1.00  0.00     0.145 A 
HETATM   34  F1  UNL     1      -5.585 -14.291  -9.824  1.00  0.00    -0.204 F 
HETATM   35  C15 UNL     1      -3.665 -15.566  -9.234  1.00  0.00     0.074 A 
BRANCH  32  36
HETATM   36  N3  UNL     1      -7.299 -16.313  -9.188  1.00  0.00    -0.375 N 
HETATM   37  C9  UNL     1      -8.138 -15.548  -8.301  1.00  0.00     0.153 C 
HETATM   38  C10 UNL     1      -9.399 -15.197  -9.103  1.00  0.00     0.291 C 
HETATM   39  N4  UNL     1      -9.041 -14.801 -10.440  1.00  0.00     0.087 N 
HETATM   40  C11 UNL     1     -10.259 -14.378 -11.113  1.00  0.00     0.310 C 
HETATM   41  C12 UNL     1      -8.443 -15.840 -11.221  1.00  0.00     0.291 C 
HETATM   42  C13 UNL     1      -7.946 -16.970 -10.313  1.00  0.00     0.153 C 
ENDBRANCH  32  36
ENDBRANCH  27  29
ENDBRANCH   6  27
TORSDOF 8
ENDMDL
