MODEL 3
REMARK VINA RESULT: -8.940675362      1.984      2.564
REMARK  8 active torsions:
REMARK  status: ('A' for Active; 'I' for Inactive)
REMARK    1  A    between atoms: C4_6  and  N2_7 
REMARK    2  A    between atoms: N2_7  and  C5_9 
REMARK    3  A    between atoms: C8_12  and  N3_13 
REMARK    4  A    between atoms: C16_25  and  N6_26 
REMARK    5  A    between atoms: N6_26  and  C17_28 
REMARK    6  A    between atoms: C21_32  and  N7_33 
REMARK    7  A    between atoms: N7_33  and  S1_35 
REMARK    8  A    between atoms: S1_35  and  C22_38 
ROOT
HETATM    1  C1  UNL     1      -2.172  -8.412  -3.275  1.00  0.00     0.054 C 
HETATM    2  C2  UNL     1      -2.774  -9.344  -4.249  1.00  0.00    -0.001 A 
HETATM    3  C3  UNL     1      -4.132  -9.521  -4.229  1.00  0.00     0.116 A 
HETATM    4  N1  UNL     1      -4.659 -10.368  -5.117  1.00  0.00    -0.201 N 
ATOM      5  H1  UNL     1      -5.671 -10.491  -5.093  1.00  0.00     0.183 HD
HETATM    6  C4  UNL     1      -3.986 -11.067  -6.033  1.00  0.00     0.684 A 
HETATM    7  N5  UNL     1      -2.633 -10.852  -6.010  1.00  0.00    -0.176 N 
ATOM      8  H5  UNL     1      -2.066 -11.360  -6.690  1.00  0.00     0.186 HD
HETATM    9  C16 UNL     1      -2.002 -10.042  -5.182  1.00  0.00     0.128 A 
ENDROOT
BRANCH   9  10
HETATM   10  N6  UNL     1      -0.624  -9.805  -5.154  1.00  0.00    -0.342 N 
ATOM     11  H6  UNL     1      -0.286  -9.173  -4.429  1.00  0.00     0.167 HD
BRANCH  10  12
HETATM   12  C17 UNL     1       0.347 -10.346  -6.020  1.00  0.00     0.035 A 
HETATM   13  C18 UNL     1       0.537 -11.692  -6.163  1.00  0.00     0.029 A 
HETATM   14  C19 UNL     1       1.504 -12.209  -7.044  1.00  0.00     0.004 A 
HETATM   15  C20 UNL     1       2.254 -11.338  -7.759  1.00  0.00     0.030 A 
HETATM   16  C21 UNL     1       2.113  -9.942  -7.660  1.00  0.00     0.044 A 
HETATM   17  C26 UNL     1       1.157  -9.517  -6.789  1.00  0.00     0.059 A 
BRANCH  16  18
HETATM   18  N7  UNL     1       2.980  -9.123  -8.425  1.00  0.00    -0.284 N 
ATOM     19  H7  UNL     1       3.771  -9.600  -8.856  1.00  0.00     0.178 HD
BRANCH  18  20
HETATM   20  S1  UNL     1       2.881  -7.457  -8.721  1.00  0.00     0.238 S 
HETATM   21  O1  UNL     1       1.420  -7.068  -8.937  1.00  0.00    -0.205 OA
HETATM   22  O2  UNL     1       3.624  -7.198 -10.030  1.00  0.00    -0.205 OA
BRANCH  20  23
HETATM   23  C22 UNL     1       3.587  -6.467  -7.438  1.00  0.00     0.072 C 
HETATM   24  C23 UNL     1       4.652  -7.245  -6.716  1.00  0.00     0.033 C 
HETATM   25  C24 UNL     1       2.458  -6.186  -6.380  1.00  0.00     0.033 C 
HETATM   26  C25 UNL     1       4.020  -5.147  -7.992  1.00  0.00     0.033 C 
ENDBRANCH  20  23
ENDBRANCH  18  20
ENDBRANCH  16  18
ENDBRANCH  10  12
ENDBRANCH   9  10
BRANCH   6  27
HETATM   27  N2  UNL     1      -4.531 -11.960  -6.971  1.00  0.00    -0.192 N 
ATOM     28  H2  UNL     1      -5.547 -12.053  -6.983  1.00  0.00     0.184 HD
BRANCH  27  29
HETATM   29  C5  UNL     1      -3.816 -12.732  -7.889  1.00  0.00     0.052 A 
HETATM   30  C6  UNL     1      -4.476 -13.782  -8.573  1.00  0.00     0.032 A 
HETATM   31  C7  UNL     1      -3.812 -14.557  -9.481  1.00  0.00     0.035 A 
HETATM   32  C8  UNL     1      -2.483 -14.379  -9.790  1.00  0.00     0.069 A 
HETATM   33  C14 UNL     1      -1.835 -13.365  -9.134  1.00  0.00     0.145 A 
HETATM   34  F1  UNL     1      -0.531 -13.152  -9.405  1.00  0.00    -0.204 F 
HETATM   35  C15 UNL     1      -2.493 -12.554  -8.197  1.00  0.00     0.074 A 
BRANCH  32  36
HETATM   36  N3  UNL     1      -1.791 -15.177 -10.727  1.00  0.00    -0.375 N 
HETATM   37  C9  UNL     1      -1.589 -14.832 -12.111  1.00  0.00     0.153 C 
HETATM   38  C10 UNL     1      -0.378 -15.649 -12.583  1.00  0.00     0.291 C 
HETATM   39  N4  UNL     1       0.650 -15.637 -11.576  1.00  0.00     0.087 N 
HETATM   40  C11 UNL     1       1.806 -16.331 -12.120  1.00  0.00     0.310 C 
HETATM   41  C12 UNL     1       0.282 -16.284 -10.353  1.00  0.00     0.291 C 
HETATM   42  C13 UNL     1      -1.240 -16.444 -10.270  1.00  0.00     0.153 C 
ENDBRANCH  32  36
ENDBRANCH  27  29
ENDBRANCH   6  27
TORSDOF 8
ENDMDL
