MODEL 10
REMARK VINA RESULT: -8.291917532      2.895      3.672
REMARK  8 active torsions:
REMARK  status: ('A' for Active; 'I' for Inactive)
REMARK    1  A    between atoms: C4_6  and  N2_7 
REMARK    2  A    between atoms: N2_7  and  C5_9 
REMARK    3  A    between atoms: C8_12  and  N3_13 
REMARK    4  A    between atoms: C16_25  and  N6_26 
REMARK    5  A    between atoms: N6_26  and  C17_28 
REMARK    6  A    between atoms: C21_32  and  N7_33 
REMARK    7  A    between atoms: N7_33  and  S1_35 
REMARK    8  A    between atoms: S1_35  and  C22_38 
ROOT
HETATM    1  C1  UNL     1      -1.704  -9.359  -4.989  1.00  0.00     0.054 C 
HETATM    2  C2  UNL     1      -2.160 -10.607  -5.634  1.00  0.00    -0.001 A 
HETATM    3  C3  UNL     1      -3.506 -10.816  -5.773  1.00  0.00     0.116 A 
HETATM    4  N1  UNL     1      -3.900 -11.950  -6.359  1.00  0.00    -0.201 N 
ATOM      5  H1  UNL     1      -4.904 -12.094  -6.457  1.00  0.00     0.183 HD
HETATM    6  C4  UNL     1      -3.102 -12.912  -6.827  1.00  0.00     0.684 A 
HETATM    7  N5  UNL     1      -1.766 -12.651  -6.662  1.00  0.00    -0.176 N 
ATOM      8  H5  UNL     1      -1.107 -13.352  -7.003  1.00  0.00     0.186 HD
HETATM    9  C16 UNL     1      -1.261 -11.570  -6.101  1.00  0.00     0.128 A 
ENDROOT
BRANCH   9  10
HETATM   10  N6  UNL     1       0.098 -11.287  -5.936  1.00  0.00    -0.342 N 
ATOM     11  H6  UNL     1       0.385 -10.948  -5.019  1.00  0.00     0.167 HD
BRANCH  10  12
HETATM   12  C17 UNL     1       1.116 -11.421  -6.903  1.00  0.00     0.035 A 
HETATM   13  C18 UNL     1       1.501 -12.633  -7.401  1.00  0.00     0.029 A 
HETATM   14  C19 UNL     1       2.510 -12.741  -8.376  1.00  0.00     0.004 A 
HETATM   15  C20 UNL     1       3.101 -11.607  -8.818  1.00  0.00     0.030 A 
HETATM   16  C21 UNL     1       2.754 -10.327  -8.348  1.00  0.00     0.044 A 
HETATM   17  C26 UNL     1       1.770 -10.303  -7.408  1.00  0.00     0.059 A 
BRANCH  16  18
HETATM   18  N7  UNL     1       3.466  -9.210  -8.851  1.00  0.00    -0.284 N 
ATOM     19  H7  UNL     1       4.374  -9.417  -9.267  1.00  0.00     0.178 HD
BRANCH  18  20
HETATM   20  S1  UNL     1       3.015  -7.576  -8.855  1.00  0.00     0.238 S 
HETATM   21  O1  UNL     1       1.607  -7.442  -9.430  1.00  0.00    -0.205 OA
HETATM   22  O2  UNL     1       3.971  -6.859  -9.805  1.00  0.00    -0.205 OA
BRANCH  20  23
HETATM   23  C22 UNL     1       3.092  -6.817  -7.260  1.00  0.00     0.072 C 
HETATM   24  C23 UNL     1       1.706  -6.652  -6.702  1.00  0.00     0.033 C 
HETATM   25  C24 UNL     1       3.662  -5.365  -7.452  1.00  0.00     0.033 C 
HETATM   26  C25 UNL     1       4.051  -7.562  -6.387  1.00  0.00     0.033 C 
ENDBRANCH  20  23
ENDBRANCH  18  20
ENDBRANCH  16  18
ENDBRANCH  10  12
ENDBRANCH   9  10
BRANCH   6  27
HETATM   27  N2  UNL     1      -3.505 -14.108  -7.444  1.00  0.00    -0.192 N 
ATOM     28  H2  UNL     1      -4.060 -14.752  -6.881  1.00  0.00     0.184 HD
BRANCH  27  29
HETATM   29  C5  UNL     1      -3.219 -14.499  -8.753  1.00  0.00     0.052 A 
HETATM   30  C6  UNL     1      -3.841 -15.657  -9.281  1.00  0.00     0.032 A 
HETATM   31  C7  UNL     1      -3.589 -16.071 -10.558  1.00  0.00     0.035 A 
HETATM   32  C8  UNL     1      -2.732 -15.407 -11.407  1.00  0.00     0.069 A 
HETATM   33  C14 UNL     1      -2.125 -14.286 -10.906  1.00  0.00     0.145 A 
HETATM   34  F1  UNL     1      -1.278 -13.603 -11.701  1.00  0.00    -0.204 F 
HETATM   35  C15 UNL     1      -2.366 -13.839  -9.598  1.00  0.00     0.074 A 
BRANCH  32  36
HETATM   36  N3  UNL     1      -2.469 -15.831 -12.727  1.00  0.00    -0.375 N 
HETATM   37  C9  UNL     1      -3.119 -15.310 -13.903  1.00  0.00     0.153 C 
HETATM   38  C10 UNL     1      -2.183 -15.616 -15.081  1.00  0.00     0.291 C 
HETATM   39  N4  UNL     1      -0.818 -15.348 -14.710  1.00  0.00     0.087 N 
HETATM   40  C11 UNL     1       0.006 -15.551 -15.891  1.00  0.00     0.310 C 
HETATM   41  C12 UNL     1      -0.314 -16.192 -13.671  1.00  0.00     0.291 C 
HETATM   42  C13 UNL     1      -1.469 -16.869 -12.926  1.00  0.00     0.153 C 
ENDBRANCH  32  36
ENDBRANCH  27  29
ENDBRANCH   6  27
TORSDOF 8
ENDMDL
