MODEL 2
REMARK VINA RESULT: -8.544016436      3.944      9.552
REMARK  8 active torsions:
REMARK  status: ('A' for Active; 'I' for Inactive)
REMARK    1  A    between atoms: C4_6  and  N2_7 
REMARK    2  A    between atoms: N2_7  and  C5_9 
REMARK    3  A    between atoms: C8_12  and  N3_13 
REMARK    4  A    between atoms: C16_25  and  N6_26 
REMARK    5  A    between atoms: N6_26  and  C17_28 
REMARK    6  A    between atoms: C21_33  and  N7_34 
REMARK    7  A    between atoms: N7_34  and  S1_36 
REMARK    8  A    between atoms: S1_36  and  C22_39 
ROOT
HETATM    1  C1  UNL     1      12.896  -3.242   1.704  1.00  0.00     0.054 C 
HETATM    2  C2  UNL     1      13.397  -4.354   0.864  1.00  0.00    -0.001 A 
HETATM    3  C3  UNL     1      14.707  -4.452   0.462  1.00  0.00     0.116 A 
HETATM    4  N1  UNL     1      15.151  -5.465  -0.298  1.00  0.00    -0.201 N 
ATOM      5  H1  UNL     1      16.134  -5.491  -0.569  1.00  0.00     0.183 HD
HETATM    6  C4  UNL     1      14.330  -6.444  -0.708  1.00  0.00     0.684 A 
HETATM    7  N5  UNL     1      13.038  -6.317  -0.292  1.00  0.00    -0.176 N 
ATOM      8  H5  UNL     1      12.402  -7.054  -0.596  1.00  0.00     0.186 HD
HETATM    9  C16 UNL     1      12.503  -5.373   0.448  1.00  0.00     0.128 A 
ENDROOT
BRANCH   9  10
HETATM   10  N6  UNL     1      11.156  -5.284   0.859  1.00  0.00    -0.342 N 
ATOM     11  H6  UNL     1      10.912  -4.571   1.546  1.00  0.00     0.167 HD
BRANCH  10  12
HETATM   12  C17 UNL     1      10.130  -6.118   0.380  1.00  0.00     0.035 A 
HETATM   13  C18 UNL     1       9.918  -6.476  -0.928  1.00  0.00     0.031 A 
HETATM   14  C19 UNL     1       8.887  -7.313  -1.346  1.00  0.00     0.028 A 
HETATM   15  C20 UNL     1       8.031  -7.814  -0.414  1.00  0.00     0.061 A 
HETATM   16 CL1  UNL     1       6.698  -8.882  -0.860  1.00  0.00    -0.082 Cl
HETATM   17  C21 UNL     1       8.187  -7.491   0.939  1.00  0.00     0.066 A 
HETATM   18  C26 UNL     1       9.212  -6.668   1.294  1.00  0.00     0.061 A 
BRANCH  17  19
HETATM   19  N7  UNL     1       7.290  -8.038   1.891  1.00  0.00    -0.282 N 
ATOM     20  H7  UNL     1       6.292  -8.062   1.681  1.00  0.00     0.178 HD
BRANCH  19  21
HETATM   21  S1  UNL     1       7.847  -8.658   3.379  1.00  0.00     0.238 S 
HETATM   22  O1  UNL     1       8.959  -9.648   3.141  1.00  0.00    -0.205 OA
HETATM   23  O2  UNL     1       8.308  -7.536   4.261  1.00  0.00    -0.205 OA
BRANCH  21  24
HETATM   24  C22 UNL     1       6.487  -9.527   4.170  1.00  0.00     0.072 C 
HETATM   25  C23 UNL     1       6.792  -9.599   5.649  1.00  0.00     0.033 C 
HETATM   26  C24 UNL     1       5.234  -8.700   3.896  1.00  0.00     0.033 C 
HETATM   27  C25 UNL     1       6.378 -10.874   3.535  1.00  0.00     0.033 C 
ENDBRANCH  21  24
ENDBRANCH  19  21
ENDBRANCH  17  19
ENDBRANCH  10  12
ENDBRANCH   9  10
BRANCH   6  28
HETATM   28  N2  UNL     1      14.692  -7.545  -1.506  1.00  0.00    -0.192 N 
ATOM     29  H2  UNL     1      15.081  -8.365  -1.043  1.00  0.00     0.184 HD
BRANCH  28  30
HETATM   30  C5  UNL     1      14.549  -7.581  -2.909  1.00  0.00     0.052 A 
HETATM   31  C6  UNL     1      15.260  -8.567  -3.631  1.00  0.00     0.032 A 
HETATM   32  C7  UNL     1      15.179  -8.650  -4.991  1.00  0.00     0.035 A 
HETATM   33  C8  UNL     1      14.409  -7.793  -5.748  1.00  0.00     0.069 A 
HETATM   34  C14 UNL     1      13.718  -6.834  -5.044  1.00  0.00     0.145 A 
HETATM   35  F1  UNL     1      12.941  -5.957  -5.737  1.00  0.00    -0.204 F 
HETATM   36  C15 UNL     1      13.781  -6.723  -3.656  1.00  0.00     0.074 A 
BRANCH  33  37
HETATM   37  N3  UNL     1      14.343  -7.903  -7.163  1.00  0.00    -0.375 N 
HETATM   38  C9  UNL     1      15.324  -7.263  -7.978  1.00  0.00     0.153 C 
HETATM   39  C10 UNL     1      14.897  -6.937  -9.370  1.00  0.00     0.291 C 
HETATM   40  N4  UNL     1      14.018  -7.892  -9.972  1.00  0.00     0.087 N 
HETATM   41  C11 UNL     1      14.685  -9.157 -10.208  1.00  0.00     0.310 C 
HETATM   42  C12 UNL     1      12.872  -8.043  -9.096  1.00  0.00     0.291 C 
HETATM   43  C13 UNL     1      13.283  -8.663  -7.795  1.00  0.00     0.153 C 
ENDBRANCH  33  37
ENDBRANCH  28  30
ENDBRANCH   6  28
TORSDOF 8
ENDMDL
