MODEL 3
REMARK VINA RESULT: -8.371474542      3.955      9.344
REMARK  8 active torsions:
REMARK  status: ('A' for Active; 'I' for Inactive)
REMARK    1  A    between atoms: C4_6  and  N2_7 
REMARK    2  A    between atoms: N2_7  and  C5_9 
REMARK    3  A    between atoms: C8_12  and  N3_13 
REMARK    4  A    between atoms: C16_25  and  N6_26 
REMARK    5  A    between atoms: N6_26  and  C17_28 
REMARK    6  A    between atoms: C21_33  and  N7_34 
REMARK    7  A    between atoms: N7_34  and  S1_36 
REMARK    8  A    between atoms: S1_36  and  C22_39 
ROOT
HETATM    1  C1  UNL     1      12.772  -3.197   1.757  1.00  0.00     0.054 C 
HETATM    2  C2  UNL     1      13.341  -4.282   0.923  1.00  0.00    -0.001 A 
HETATM    3  C3  UNL     1      14.664  -4.326   0.559  1.00  0.00     0.116 A 
HETATM    4  N1  UNL     1      15.168  -5.314  -0.196  1.00  0.00    -0.201 N 
ATOM      5  H1  UNL     1      16.159  -5.300  -0.438  1.00  0.00     0.183 HD
HETATM    6  C4  UNL     1      14.398  -6.319  -0.639  1.00  0.00     0.684 A 
HETATM    7  N5  UNL     1      13.090  -6.246  -0.260  1.00  0.00    -0.176 N 
ATOM      8  H5  UNL     1      12.492  -7.003  -0.589  1.00  0.00     0.186 HD
HETATM    9  C16 UNL     1      12.498  -5.330   0.472  1.00  0.00     0.128 A 
ENDROOT
BRANCH   9  10
HETATM   10  N6  UNL     1      11.138  -5.296   0.844  1.00  0.00    -0.342 N 
ATOM     11  H6  UNL     1      10.862  -4.659   1.591  1.00  0.00     0.167 HD
BRANCH  10  12
HETATM   12  C17 UNL     1      10.139  -6.086   0.248  1.00  0.00     0.035 A 
HETATM   13  C18 UNL     1       9.837  -6.142  -1.090  1.00  0.00     0.031 A 
HETATM   14  C19 UNL     1       8.839  -6.950  -1.627  1.00  0.00     0.028 A 
HETATM   15  C20 UNL     1       8.111  -7.737  -0.790  1.00  0.00     0.061 A 
HETATM   16 CL1  UNL     1       6.828  -8.791  -1.389  1.00  0.00    -0.082 Cl
HETATM   17  C21 UNL     1       8.364  -7.731   0.588  1.00  0.00     0.066 A 
HETATM   18  C26 UNL     1       9.352  -6.923   1.061  1.00  0.00     0.061 A 
BRANCH  17  19
HETATM   19  N7  UNL     1       7.600  -8.572   1.437  1.00  0.00    -0.282 N 
ATOM     20  H7  UNL     1       7.827  -9.565   1.492  1.00  0.00     0.178 HD
BRANCH  19  21
HETATM   21  S1  UNL     1       6.311  -7.956   2.367  1.00  0.00     0.238 S 
HETATM   22  O1  UNL     1       6.647  -8.041   3.834  1.00  0.00    -0.205 OA
HETATM   23  O2  UNL     1       6.020  -6.540   1.966  1.00  0.00    -0.205 OA
BRANCH  21  24
HETATM   24  C22 UNL     1       4.863  -8.977   2.067  1.00  0.00     0.072 C 
HETATM   25  C23 UNL     1       4.094  -9.070   3.365  1.00  0.00     0.033 C 
HETATM   26  C24 UNL     1       4.054  -8.265   0.985  1.00  0.00     0.033 C 
HETATM   27  C25 UNL     1       5.338 -10.307   1.579  1.00  0.00     0.033 C 
ENDBRANCH  21  24
ENDBRANCH  19  21
ENDBRANCH  17  19
ENDBRANCH  10  12
ENDBRANCH   9  10
BRANCH   6  28
HETATM   28  N2  UNL     1      14.825  -7.398  -1.435  1.00  0.00    -0.192 N 
ATOM     29  H2  UNL     1      15.294  -8.178  -0.974  1.00  0.00     0.184 HD
BRANCH  28  30
HETATM   30  C5  UNL     1      14.644  -7.465  -2.832  1.00  0.00     0.052 A 
HETATM   31  C6  UNL     1      15.395  -8.416  -3.561  1.00  0.00     0.032 A 
HETATM   32  C7  UNL     1      15.280  -8.524  -4.917  1.00  0.00     0.035 A 
HETATM   33  C8  UNL     1      14.435  -7.730  -5.662  1.00  0.00     0.069 A 
HETATM   34  C14 UNL     1      13.705  -6.807  -4.952  1.00  0.00     0.145 A 
HETATM   35  F1  UNL     1      12.853  -5.992  -5.632  1.00  0.00    -0.204 F 
HETATM   36  C15 UNL     1      13.801  -6.670  -3.568  1.00  0.00     0.074 A 
BRANCH  33  37
HETATM   37  N3  UNL     1      14.335  -7.867  -7.073  1.00  0.00    -0.375 N 
HETATM   38  C9  UNL     1      13.554  -8.921  -7.637  1.00  0.00     0.153 C 
HETATM   39  C10 UNL     1      13.940  -9.346  -9.014  1.00  0.00     0.291 C 
HETATM   40  N4  UNL     1      14.394  -8.292  -9.868  1.00  0.00     0.087 N 
HETATM   41  C11 UNL     1      13.325  -7.366 -10.186  1.00  0.00     0.310 C 
HETATM   42  C12 UNL     1      15.498  -7.631  -9.197  1.00  0.00     0.291 C 
HETATM   43  C13 UNL     1      15.021  -6.943  -7.955  1.00  0.00     0.153 C 
ENDBRANCH  33  37
ENDBRANCH  28  30
ENDBRANCH   6  28
TORSDOF 8
ENDMDL
