MODEL 1
REMARK VINA RESULT: -8.609125529      0.000      0.000
REMARK  8 active torsions:
REMARK  status: ('A' for Active; 'I' for Inactive)
REMARK    1  A    between atoms: C4_6  and  N2_7 
REMARK    2  A    between atoms: N2_7  and  C5_9 
REMARK    3  A    between atoms: C8_12  and  N3_13 
REMARK    4  A    between atoms: C16_25  and  N6_26 
REMARK    5  A    between atoms: N6_26  and  C17_28 
REMARK    6  A    between atoms: C21_33  and  N7_34 
REMARK    7  A    between atoms: N7_34  and  S1_36 
REMARK    8  A    between atoms: S1_36  and  C22_39 
ROOT
HETATM    1  C1  UNL     1      15.327  -4.325   0.781  1.00  0.00     0.054 C 
HETATM    2  C2  UNL     1      13.895  -4.661   0.611  1.00  0.00    -0.001 A 
HETATM    3  C3  UNL     1      12.889  -3.984   1.257  1.00  0.00     0.116 A 
HETATM    4  N1  UNL     1      11.594  -4.297   1.095  1.00  0.00    -0.201 N 
ATOM      5  H1  UNL     1      10.886  -3.762   1.598  1.00  0.00     0.183 HD
HETATM    6  C4  UNL     1      11.212  -5.297   0.287  1.00  0.00     0.684 A 
HETATM    7  N5  UNL     1      12.233  -5.949  -0.338  1.00  0.00    -0.176 N 
ATOM      8  H5  UNL     1      11.957  -6.712  -0.956  1.00  0.00     0.186 HD
HETATM    9  C16 UNL     1      13.524  -5.725  -0.251  1.00  0.00     0.128 A 
ENDROOT
BRANCH   9  10
HETATM   10  N6  UNL     1      14.549  -6.425  -0.922  1.00  0.00    -0.342 N 
ATOM     11  H6  UNL     1      15.438  -6.551  -0.438  1.00  0.00     0.167 HD
BRANCH  10  12
HETATM   12  C17 UNL     1      14.421  -6.959  -2.216  1.00  0.00     0.035 A 
HETATM   13  C18 UNL     1      15.157  -7.990  -2.746  1.00  0.00     0.031 A 
HETATM   14  C19 UNL     1      14.983  -8.485  -4.035  1.00  0.00     0.028 A 
HETATM   15  C20 UNL     1      14.031  -7.925  -4.830  1.00  0.00     0.061 A 
HETATM   16 CL1  UNL     1      13.746  -8.492  -6.477  1.00  0.00    -0.082 Cl
HETATM   17  C21 UNL     1      13.243  -6.868  -4.355  1.00  0.00     0.066 A 
HETATM   18  C26 UNL     1      13.454  -6.423  -3.086  1.00  0.00     0.061 A 
BRANCH  17  19
HETATM   19  N7  UNL     1      12.248  -6.313  -5.198  1.00  0.00    -0.282 N 
ATOM     20  H7  UNL     1      12.477  -5.504  -5.777  1.00  0.00     0.178 HD
BRANCH  19  21
HETATM   21  S1  UNL     1      10.676  -6.969  -5.265  1.00  0.00     0.238 S 
HETATM   22  O1  UNL     1      10.376  -7.448  -6.663  1.00  0.00    -0.205 OA
HETATM   23  O2  UNL     1      10.546  -8.090  -4.276  1.00  0.00    -0.205 OA
BRANCH  21  24
HETATM   24  C22 UNL     1       9.505  -5.668  -4.858  1.00  0.00     0.072 C 
HETATM   25  C23 UNL     1       9.942  -4.418  -5.586  1.00  0.00     0.033 C 
HETATM   26  C24 UNL     1       8.141  -6.153  -5.343  1.00  0.00     0.033 C 
HETATM   27  C25 UNL     1       9.508  -5.504  -3.373  1.00  0.00     0.033 C 
ENDBRANCH  21  24
ENDBRANCH  19  21
ENDBRANCH  17  19
ENDBRANCH  10  12
ENDBRANCH   9  10
BRANCH   6  28
HETATM   28  N2  UNL     1       9.886  -5.706   0.050  1.00  0.00    -0.192 N 
ATOM     29  H2  UNL     1       9.392  -5.298  -0.742  1.00  0.00     0.184 HD
BRANCH  28  30
HETATM   30  C5  UNL     1       9.200  -6.648   0.845  1.00  0.00     0.052 A 
HETATM   31  C6  UNL     1       8.142  -7.379   0.255  1.00  0.00     0.032 A 
HETATM   32  C7  UNL     1       7.427  -8.296   0.970  1.00  0.00     0.035 A 
HETATM   33  C8  UNL     1       7.679  -8.573   2.296  1.00  0.00     0.069 A 
HETATM   34  C14 UNL     1       8.708  -7.862   2.868  1.00  0.00     0.145 A 
HETATM   35  F1  UNL     1       9.005  -8.091   4.177  1.00  0.00    -0.204 F 
HETATM   36  C15 UNL     1       9.456  -6.918   2.166  1.00  0.00     0.074 A 
BRANCH  33  37
HETATM   37  N3  UNL     1       6.918  -9.534   3.016  1.00  0.00    -0.375 N 
HETATM   38  C9  UNL     1       7.255 -10.919   2.937  1.00  0.00     0.153 C 
HETATM   39  C10 UNL     1       6.141 -11.872   3.213  1.00  0.00     0.291 C 
HETATM   40  N4  UNL     1       5.212 -11.445   4.214  1.00  0.00     0.087 N 
HETATM   41  C11 UNL     1       5.827 -11.397   5.526  1.00  0.00     0.310 C 
HETATM   42  C12 UNL     1       4.702 -10.148   3.810  1.00  0.00     0.291 C 
HETATM   43  C13 UNL     1       5.794  -9.123   3.834  1.00  0.00     0.153 C 
ENDBRANCH  33  37
ENDBRANCH  28  30
ENDBRANCH   6  28
TORSDOF 8
ENDMDL
