MODEL 1
REMARK VINA RESULT: -8.956119794      0.000      0.000
REMARK  9 active torsions:
REMARK  status: ('A' for Active; 'I' for Inactive)
REMARK    1  A    between atoms: C4_6  and  N2_7 
REMARK    2  A    between atoms: N2_7  and  C5_9 
REMARK    3  A    between atoms: C8_12  and  C9_13 
REMARK       I    between atoms: C9_13  and  N3_15 
REMARK    4  A    between atoms: N3_15  and  C10_17 
REMARK    5  A    between atoms: C18_29  and  N6_30 
REMARK    6  A    between atoms: N6_30  and  C19_32 
REMARK    7  A    between atoms: C23_37  and  N7_38 
REMARK    8  A    between atoms: N7_38  and  S1_40 
REMARK    9  A    between atoms: S1_40  and  C24_43 
ROOT
HETATM    1  C1  UNL     1      12.605  -3.218   1.922  1.00  0.00     0.054 C 
HETATM    2  C2  UNL     1      13.323  -4.207   1.108  1.00  0.00    -0.001 A 
HETATM    3  C3  UNL     1      14.664  -4.168   0.878  1.00  0.00     0.116 A 
HETATM    4  N1  UNL     1      15.247  -5.104   0.126  1.00  0.00    -0.201 N 
ATOM      5  H1  UNL     1      16.254  -5.041  -0.024  1.00  0.00     0.183 HD
HETATM    6  C4  UNL     1      14.594  -6.113  -0.439  1.00  0.00     0.684 A 
HETATM    7  N5  UNL     1      13.254  -6.142  -0.202  1.00  0.00    -0.176 N 
ATOM      8  H5  UNL     1      12.720  -6.904  -0.620  1.00  0.00     0.186 HD
HETATM    9  C18 UNL     1      12.585  -5.256   0.532  1.00  0.00     0.128 A 
ENDROOT
BRANCH   6  10
HETATM   10  N2  UNL     1      15.144  -7.121  -1.233  1.00  0.00    -0.192 N 
ATOM     11  H2  UNL     1      15.818  -7.755  -0.805  1.00  0.00     0.184 HD
BRANCH  10  12
HETATM   12  C5  UNL     1      14.818  -7.314  -2.600  1.00  0.00     0.052 A 
HETATM   13  C6  UNL     1      15.463  -8.368  -3.280  1.00  0.00     0.031 A 
HETATM   14  C7  UNL     1      15.230  -8.629  -4.604  1.00  0.00     0.022 A 
HETATM   15  C8  UNL     1      14.323  -7.838  -5.329  1.00  0.00     0.070 A 
HETATM   16  C16 UNL     1      13.712  -6.830  -4.662  1.00  0.00     0.134 A 
HETATM   17  F1  UNL     1      12.820  -6.033  -5.293  1.00  0.00    -0.205 F 
HETATM   18  C17 UNL     1      13.947  -6.565  -3.325  1.00  0.00     0.073 A 
BRANCH  15  19
HETATM   19  C9  UNL     1      14.128  -8.152  -6.722  1.00  0.00     0.255 C 
HETATM   20  O1  UNL     1      13.978  -9.406  -7.010  1.00  0.00    -0.268 OA
HETATM   21  N3  UNL     1      14.087  -7.209  -7.785  1.00  0.00    -0.352 N 
ATOM     22  H3  UNL     1      14.202  -6.212  -7.607  1.00  0.00     0.163 HD
BRANCH  21  23
HETATM   23  C10 UNL     1      13.876  -7.714  -9.147  1.00  0.00     0.088 C 
HETATM   24  C11 UNL     1      14.665  -6.927 -10.133  1.00  0.00     0.055 C 
HETATM   25  C12 UNL     1      14.162  -5.528 -10.353  1.00  0.00     0.274 C 
HETATM   26  N4  UNL     1      12.735  -5.452 -10.492  1.00  0.00     0.084 N 
HETATM   27  C13 UNL     1      12.263  -5.858 -11.798  1.00  0.00     0.309 C 
HETATM   28  C14 UNL     1      12.015  -6.173  -9.486  1.00  0.00     0.274 C 
HETATM   29  C15 UNL     1      12.416  -7.625  -9.517  1.00  0.00     0.055 C 
ENDBRANCH  21  23
ENDBRANCH  15  19
ENDBRANCH  10  12
ENDBRANCH   6  10
BRANCH   9  30
HETATM   30  N6  UNL     1      11.216  -5.368   0.745  1.00  0.00    -0.342 N 
ATOM     31  H6  UNL     1      10.835  -4.895   1.565  1.00  0.00     0.167 HD
BRANCH  30  32
HETATM   32  C19 UNL     1      10.311  -6.071  -0.060  1.00  0.00     0.035 A 
HETATM   33  C20 UNL     1      10.344  -5.996  -1.436  1.00  0.00     0.031 A 
HETATM   34  C21 UNL     1       9.434  -6.732  -2.201  1.00  0.00     0.028 A 
HETATM   35  C22 UNL     1       8.529  -7.509  -1.557  1.00  0.00     0.061 A 
HETATM   36 CL1  UNL     1       7.372  -8.445  -2.484  1.00  0.00    -0.082 Cl
HETATM   37  C23 UNL     1       8.467  -7.606  -0.169  1.00  0.00     0.066 A 
HETATM   38  C28 UNL     1       9.361  -6.885   0.561  1.00  0.00     0.061 A 
BRANCH  37  39
HETATM   39  N7  UNL     1       7.510  -8.450   0.430  1.00  0.00    -0.282 N 
ATOM     40  H7  UNL     1       7.268  -9.322  -0.042  1.00  0.00     0.178 HD
BRANCH  39  41
HETATM   41  S1  UNL     1       6.743  -8.088   1.897  1.00  0.00     0.238 S 
HETATM   42  O2  UNL     1       5.302  -8.585   1.911  1.00  0.00    -0.205 OA
HETATM   43  O3  UNL     1       6.681  -6.572   2.053  1.00  0.00    -0.205 OA
BRANCH  41  44
HETATM   44  C24 UNL     1       7.518  -8.777   3.327  1.00  0.00     0.072 C 
HETATM   45  C25 UNL     1       8.066 -10.145   2.937  1.00  0.00     0.033 C 
HETATM   46  C26 UNL     1       8.613  -7.939   3.904  1.00  0.00     0.033 C 
HETATM   47  C27 UNL     1       6.472  -8.979   4.431  1.00  0.00     0.033 C 
ENDBRANCH  41  44
ENDBRANCH  39  41
ENDBRANCH  37  39
ENDBRANCH  30  32
ENDBRANCH   9  30
TORSDOF 9
ENDMDL
