MODEL 2
REMARK VINA RESULT: -8.949545284      3.724     10.632
REMARK  9 active torsions:
REMARK  status: ('A' for Active; 'I' for Inactive)
REMARK    1  A    between atoms: C4_6  and  N2_7 
REMARK    2  A    between atoms: N2_7  and  C5_9 
REMARK    3  A    between atoms: C8_12  and  C9_13 
REMARK       I    between atoms: C9_13  and  N3_15 
REMARK    4  A    between atoms: N3_15  and  C10_17 
REMARK    5  A    between atoms: C18_29  and  N6_30 
REMARK    6  A    between atoms: N6_30  and  C19_32 
REMARK    7  A    between atoms: C23_37  and  N7_38 
REMARK    8  A    between atoms: N7_38  and  S1_40 
REMARK    9  A    between atoms: S1_40  and  C24_43 
ROOT
HETATM    1  C1  UNL     1      15.468  -4.646   0.570  1.00  0.00     0.054 C 
HETATM    2  C2  UNL     1      14.022  -4.896   0.510  1.00  0.00    -0.001 A 
HETATM    3  C3  UNL     1      13.089  -4.085   1.077  1.00  0.00     0.116 A 
HETATM    4  N1  UNL     1      11.791  -4.378   0.980  1.00  0.00    -0.201 N 
ATOM      5  H1  UNL     1      11.121  -3.746   1.419  1.00  0.00     0.183 HD
HETATM    6  C4  UNL     1      11.318  -5.445   0.346  1.00  0.00     0.684 A 
HETATM    7  N5  UNL     1      12.260  -6.250  -0.218  1.00  0.00    -0.176 N 
ATOM      8  H5  UNL     1      11.933  -7.079  -0.714  1.00  0.00     0.186 HD
HETATM    9  C18 UNL     1      13.574  -6.040  -0.174  1.00  0.00     0.128 A 
ENDROOT
BRANCH   6  10
HETATM   10  N2  UNL     1       9.977  -5.807   0.208  1.00  0.00    -0.192 N 
ATOM     11  H2  UNL     1       9.430  -5.355  -0.525  1.00  0.00     0.184 HD
BRANCH  10  12
HETATM   12  C5  UNL     1       9.330  -6.766   1.029  1.00  0.00     0.052 A 
HETATM   13  C6  UNL     1       8.371  -7.601   0.421  1.00  0.00     0.031 A 
HETATM   14  C7  UNL     1       7.680  -8.550   1.128  1.00  0.00     0.022 A 
HETATM   15  C8  UNL     1       7.919  -8.716   2.503  1.00  0.00     0.070 A 
HETATM   16  C16 UNL     1       8.844  -7.907   3.071  1.00  0.00     0.134 A 
HETATM   17  F1  UNL     1       9.133  -8.016   4.388  1.00  0.00    -0.205 F 
HETATM   18  C17 UNL     1       9.541  -6.949   2.358  1.00  0.00     0.073 A 
BRANCH  15  19
HETATM   19  C9  UNL     1       7.154  -9.721   3.197  1.00  0.00     0.255 C 
HETATM   20  O1  UNL     1       7.343 -10.946   2.820  1.00  0.00    -0.268 OA
HETATM   21  N3  UNL     1       6.224  -9.477   4.244  1.00  0.00    -0.352 N 
ATOM     22  H3  UNL     1       6.041  -8.529   4.573  1.00  0.00     0.163 HD
BRANCH  21  23
HETATM   23  C10 UNL     1       5.535 -10.629   4.838  1.00  0.00     0.088 C 
HETATM   24  C11 UNL     1       4.095 -10.329   5.062  1.00  0.00     0.055 C 
HETATM   25  C12 UNL     1       3.834  -9.342   6.166  1.00  0.00     0.274 C 
HETATM   26  N4  UNL     1       4.611  -9.592   7.347  1.00  0.00     0.084 N 
HETATM   27  C13 UNL     1       4.097 -10.676   8.155  1.00  0.00     0.309 C 
HETATM   28  C14 UNL     1       6.002  -9.815   7.090  1.00  0.00     0.274 C 
HETATM   29  C15 UNL     1       6.164 -10.989   6.161  1.00  0.00     0.055 C 
ENDBRANCH  21  23
ENDBRANCH  15  19
ENDBRANCH  10  12
ENDBRANCH   6  10
BRANCH   9  30
HETATM   30  N6  UNL     1      14.472  -6.900  -0.796  1.00  0.00    -0.342 N 
ATOM     31  H6  UNL     1      15.168  -7.351  -0.201  1.00  0.00     0.167 HD
BRANCH  30  32
HETATM   32  C19 UNL     1      14.511  -7.203  -2.162  1.00  0.00     0.035 A 
HETATM   33  C20 UNL     1      15.391  -8.128  -2.682  1.00  0.00     0.031 A 
HETATM   34  C21 UNL     1      15.379  -8.415  -4.051  1.00  0.00     0.028 A 
HETATM   35  C22 UNL     1      14.490  -7.764  -4.840  1.00  0.00     0.061 A 
HETATM   36 CL1  UNL     1      14.448  -8.099  -6.560  1.00  0.00    -0.082 Cl
HETATM   37  C23 UNL     1      13.588  -6.824  -4.347  1.00  0.00     0.066 A 
HETATM   38  C28 UNL     1      13.611  -6.556  -3.013  1.00  0.00     0.061 A 
BRANCH  37  39
HETATM   39  N7  UNL     1      12.679  -6.202  -5.226  1.00  0.00    -0.282 N 
ATOM     40  H7  UNL     1      12.977  -5.360  -5.719  1.00  0.00     0.178 HD
BRANCH  39  41
HETATM   41  S1  UNL     1      11.112  -6.786  -5.505  1.00  0.00     0.238 S 
HETATM   42  O2  UNL     1      10.912  -8.164  -4.886  1.00  0.00    -0.205 OA
HETATM   43  O3  UNL     1      10.914  -6.951  -7.008  1.00  0.00    -0.205 OA
BRANCH  41  44
HETATM   44  C24 UNL     1       9.818  -5.765  -4.868  1.00  0.00     0.072 C 
HETATM   45  C25 UNL     1      10.045  -4.354  -5.398  1.00  0.00     0.033 C 
HETATM   46  C26 UNL     1       8.438  -6.222  -5.219  1.00  0.00     0.033 C 
HETATM   47  C27 UNL     1       9.906  -5.720  -3.337  1.00  0.00     0.033 C 
ENDBRANCH  41  44
ENDBRANCH  39  41
ENDBRANCH  37  39
ENDBRANCH  30  32
ENDBRANCH   9  30
TORSDOF 9
ENDMDL
