MODEL 3
REMARK VINA RESULT: -8.899647354      3.683     10.296
REMARK  9 active torsions:
REMARK  status: ('A' for Active; 'I' for Inactive)
REMARK    1  A    between atoms: C4_6  and  N2_7 
REMARK    2  A    between atoms: N2_7  and  C5_9 
REMARK    3  A    between atoms: C8_12  and  C9_13 
REMARK       I    between atoms: C9_13  and  N3_15 
REMARK    4  A    between atoms: N3_15  and  C10_17 
REMARK    5  A    between atoms: C18_29  and  N6_30 
REMARK    6  A    between atoms: N6_30  and  C19_32 
REMARK    7  A    between atoms: C23_37  and  N7_38 
REMARK    8  A    between atoms: N7_38  and  S1_40 
REMARK    9  A    between atoms: S1_40  and  C24_43 
ROOT
HETATM    1  C1  UNL     1      15.497  -4.525   0.653  1.00  0.00     0.054 C 
HETATM    2  C2  UNL     1      14.059  -4.810   0.567  1.00  0.00    -0.001 A 
HETATM    3  C3  UNL     1      13.098  -4.040   1.145  1.00  0.00     0.116 A 
HETATM    4  N1  UNL     1      11.809  -4.363   1.023  1.00  0.00    -0.201 N 
ATOM      5  H1  UNL     1      11.118  -3.761   1.471  1.00  0.00     0.183 HD
HETATM    6  C4  UNL     1      11.372  -5.424   0.353  1.00  0.00     0.684 A 
HETATM    7  N5  UNL     1      12.341  -6.187  -0.221  1.00  0.00    -0.176 N 
ATOM      8  H5  UNL     1      12.042  -7.010  -0.745  1.00  0.00     0.186 HD
HETATM    9  C18 UNL     1      13.648  -5.946  -0.154  1.00  0.00     0.128 A 
ENDROOT
BRANCH   6  10
HETATM   10  N2  UNL     1      10.042  -5.815   0.188  1.00  0.00    -0.192 N 
ATOM     11  H2  UNL     1       9.525  -5.437  -0.605  1.00  0.00     0.184 HD
BRANCH  10  12
HETATM   12  C5  UNL     1       9.369  -6.708   1.061  1.00  0.00     0.052 A 
HETATM   13  C6  UNL     1       9.889  -6.861   2.363  1.00  0.00     0.031 A 
HETATM   14  C7  UNL     1       9.322  -7.708   3.278  1.00  0.00     0.022 A 
HETATM   15  C8  UNL     1       8.184  -8.458   2.932  1.00  0.00     0.070 A 
HETATM   16  C16 UNL     1       7.697  -8.299   1.679  1.00  0.00     0.134 A 
HETATM   17  F1  UNL     1       6.599  -8.981   1.279  1.00  0.00    -0.205 F 
HETATM   18  C17 UNL     1       8.269  -7.444   0.755  1.00  0.00     0.073 A 
BRANCH  15  19
HETATM   19  C9  UNL     1       7.638  -9.342   3.931  1.00  0.00     0.255 C 
HETATM   20  O1  UNL     1       8.102  -9.203   5.132  1.00  0.00    -0.268 OA
HETATM   21  N3  UNL     1       6.648 -10.336   3.704  1.00  0.00    -0.352 N 
ATOM     22  H3  UNL     1       6.254 -10.482   2.774  1.00  0.00     0.163 HD
BRANCH  21  23
HETATM   23  C10 UNL     1       6.208 -11.145   4.847  1.00  0.00     0.088 C 
HETATM   24  C11 UNL     1       5.968 -12.555   4.437  1.00  0.00     0.055 C 
HETATM   25  C12 UNL     1       4.756 -12.750   3.569  1.00  0.00     0.274 C 
HETATM   26  N4  UNL     1       3.604 -12.030   4.033  1.00  0.00     0.084 N 
HETATM   27  C13 UNL     1       2.941 -12.665   5.151  1.00  0.00     0.309 C 
HETATM   28  C14 UNL     1       3.868 -10.660   4.358  1.00  0.00     0.274 C 
HETATM   29  C15 UNL     1       4.931 -10.587   5.423  1.00  0.00     0.055 C 
ENDBRANCH  21  23
ENDBRANCH  15  19
ENDBRANCH  10  12
ENDBRANCH   6  10
BRANCH   9  30
HETATM   30  N6  UNL     1      14.576  -6.764  -0.789  1.00  0.00    -0.342 N 
ATOM     31  H6  UNL     1      15.337  -7.131  -0.217  1.00  0.00     0.167 HD
BRANCH  30  32
HETATM   32  C19 UNL     1      14.563  -7.131  -2.141  1.00  0.00     0.035 A 
HETATM   33  C20 UNL     1      15.402  -8.102  -2.644  1.00  0.00     0.031 A 
HETATM   34  C21 UNL     1      15.339  -8.451  -3.997  1.00  0.00     0.028 A 
HETATM   35  C22 UNL     1      14.442  -7.813  -4.787  1.00  0.00     0.061 A 
HETATM   36 CL1  UNL     1      14.337  -8.225  -6.488  1.00  0.00    -0.082 Cl
HETATM   37  C23 UNL     1      13.581  -6.827  -4.311  1.00  0.00     0.066 A 
HETATM   38  C28 UNL     1      13.653  -6.499  -2.993  1.00  0.00     0.061 A 
BRANCH  37  39
HETATM   39  N7  UNL     1      12.660  -6.221  -5.190  1.00  0.00    -0.282 N 
ATOM     40  H7  UNL     1      12.958  -5.398  -5.714  1.00  0.00     0.178 HD
BRANCH  39  41
HETATM   41  S1  UNL     1      11.082  -6.795  -5.418  1.00  0.00     0.238 S 
HETATM   42  O2  UNL     1      10.874  -8.143  -4.737  1.00  0.00    -0.205 OA
HETATM   43  O3  UNL     1      10.858  -7.023  -6.910  1.00  0.00    -0.205 OA
BRANCH  41  44
HETATM   44  C24 UNL     1       9.812  -5.731  -4.807  1.00  0.00     0.072 C 
HETATM   45  C25 UNL     1       8.480  -6.263  -5.324  1.00  0.00     0.033 C 
HETATM   46  C26 UNL     1       9.766  -5.612  -3.317  1.00  0.00     0.033 C 
HETATM   47  C27 UNL     1      10.011  -4.318  -5.369  1.00  0.00     0.033 C 
ENDBRANCH  41  44
ENDBRANCH  39  41
ENDBRANCH  37  39
ENDBRANCH  30  32
ENDBRANCH   9  30
TORSDOF 9
ENDMDL
