MODEL 5
REMARK VINA RESULT: -7.568613423      3.903      5.838
REMARK  6 active torsions:
REMARK  status: ('A' for Active; 'I' for Inactive)
REMARK    1  A    between atoms: N5_13  and  C6_14 
REMARK    2  A    between atoms: C7_16  and  C8_17 
REMARK    3  A    between atoms: C8_17  and  O2_18 
REMARK    4  A    between atoms: O2_18  and  P1_19 
REMARK    5  A    between atoms: C9_23  and  O6_24 
REMARK    6  A    between atoms: C10_26  and  O7_27 
ROOT
HETATM    1  C6  UNL     1      11.625  43.937   6.422  1.00  0.00     0.262 C 
HETATM    2  O1  UNL     1      12.666  43.168   6.858  1.00  0.00    -0.353 OA
HETATM    3  C7  UNL     1      13.538  43.918   7.590  1.00  0.00     0.180 C 
HETATM    4  C9  UNL     1      13.116  45.370   7.501  1.00  0.00     0.182 C 
HETATM    5  C10 UNL     1      11.656  45.244   7.164  1.00  0.00     0.198 C 
ENDROOT
BRANCH   1   6
HETATM    6  N5  UNL     1      10.392  43.235   6.601  1.00  0.00    -0.297 N 
HETATM    7  C3  UNL     1       9.933  42.125   5.962  1.00  0.00     0.142 A 
HETATM    8  N3  UNL     1      10.505  41.399   5.001  1.00  0.00    -0.336 N 
HETATM    9  C4  UNL     1       8.683  41.783   6.451  1.00  0.00     0.119 A 
HETATM   10  C2  UNL     1       9.837  40.332   4.527  1.00  0.00     0.183 A 
ATOM     11  H3  UNL     1      11.425  41.646   4.636  1.00  0.00     0.168 HD
HETATM   12  N2  UNL     1       8.609  39.975   4.990  1.00  0.00    -0.339 N 
HETATM   13  C1  UNL     1       8.000  40.683   5.958  1.00  0.00     0.148 A 
ATOM     14  H2  UNL     1       8.143  39.157   4.597  1.00  0.00     0.167 HD
HETATM   15  N1  UNL     1       6.719  40.362   6.484  1.00  0.00    -0.080 NA
HETATM   16  N4  UNL     1       8.403  42.698   7.387  1.00  0.00    -0.346 N 
HETATM   17  C5  UNL     1       9.425  43.565   7.476  1.00  0.00     0.188 A 
ATOM     18  H4  UNL     1       7.548  42.732   7.943  1.00  0.00     0.167 HD
ENDBRANCH   1   6
BRANCH   5  19
HETATM   19  O7  UNL     1      11.285  46.328   6.377  1.00  0.00    -0.388 OA
ATOM     20  H7  UNL     1      12.019  46.732   5.930  1.00  0.00     0.210 HD
ENDBRANCH   5  19
BRANCH   3  21
HETATM   21  C8  UNL     1      13.413  43.537   9.066  1.00  0.00     0.217 C 
BRANCH  21  22
HETATM   22  O2  UNL     1      13.842  42.278   9.258  1.00  0.00    -0.280 OA
BRANCH  22  23
HETATM   23  P1  UNL     1      14.167  41.684  10.701  1.00  0.00     0.422 P 
HETATM   24  O3  UNL     1      13.017  40.797  11.564  1.00  0.00    -0.617 OA
HETATM   25  O4  UNL     1      15.540  42.124  11.563  1.00  0.00    -0.617 OA
HETATM   26  O5  UNL     1      14.820  40.401  10.219  1.00  0.00    -0.617 OA
ENDBRANCH  22  23
ENDBRANCH  21  22
ENDBRANCH   3  21
BRANCH   4  27
HETATM   27  O6  UNL     1      13.765  45.953   6.432  1.00  0.00    -0.390 OA
ATOM     28  H6  UNL     1      13.493  45.514   5.635  1.00  0.00     0.210 HD
ENDBRANCH   4  27
TORSDOF 6
ENDMDL
