MODEL 3
REMARK VINA RESULT: -7.756607621      2.708      4.846
REMARK  6 active torsions:
REMARK  status: ('A' for Active; 'I' for Inactive)
REMARK    1  A    between atoms: N5_13  and  C6_14 
REMARK    2  A    between atoms: C7_16  and  C8_17 
REMARK    3  A    between atoms: C8_17  and  O2_18 
REMARK    4  A    between atoms: O2_18  and  P1_19 
REMARK    5  A    between atoms: C9_23  and  O6_24 
REMARK    6  A    between atoms: C10_26  and  O7_27 
ROOT
HETATM    1  C6  UNL     1      14.077  44.409   6.644  1.00  0.00     0.262 C 
HETATM    2  O1  UNL     1      14.414  43.319   7.395  1.00  0.00    -0.353 OA
HETATM    3  C7  UNL     1      15.546  43.568   8.113  1.00  0.00     0.180 C 
HETATM    4  C9  UNL     1      16.110  44.904   7.675  1.00  0.00     0.182 C 
HETATM    5  C10 UNL     1      14.889  45.582   7.116  1.00  0.00     0.198 C 
ENDROOT
BRANCH   1   6
HETATM    6  N5  UNL     1      12.670  44.646   6.733  1.00  0.00    -0.297 N 
HETATM    7  C3  UNL     1      11.680  43.808   7.143  1.00  0.00     0.142 A 
HETATM    8  N3  UNL     1      11.755  42.546   7.568  1.00  0.00    -0.336 N 
HETATM    9  C4  UNL     1      10.456  44.452   7.069  1.00  0.00     0.119 A 
HETATM   10  C2  UNL     1      10.616  41.925   7.922  1.00  0.00     0.183 A 
ATOM     11  H3  UNL     1      12.653  42.066   7.624  1.00  0.00     0.168 HD
HETATM   12  N2  UNL     1       9.402  42.535   7.859  1.00  0.00    -0.339 N 
HETATM   13  C1  UNL     1       9.286  43.806   7.435  1.00  0.00     0.148 A 
ATOM     14  H2  UNL     1       8.566  42.021   8.138  1.00  0.00     0.167 HD
HETATM   15  N1  UNL     1       8.048  44.499   7.346  1.00  0.00    -0.080 NA
HETATM   16  N4  UNL     1      10.726  45.681   6.612  1.00  0.00    -0.346 N 
HETATM   17  C5  UNL     1      12.049  45.796   6.412  1.00  0.00     0.188 A 
ATOM     18  H4  UNL     1      10.037  46.414   6.443  1.00  0.00     0.167 HD
ENDBRANCH   1   6
BRANCH   5  19
HETATM   19  O7  UNL     1      15.283  46.425   6.084  1.00  0.00    -0.388 OA
ATOM     20  H7  UNL     1      15.054  47.334   6.236  1.00  0.00     0.210 HD
ENDBRANCH   5  19
BRANCH   3  21
HETATM   21  C8  UNL     1      15.181  43.732   9.588  1.00  0.00     0.217 C 
BRANCH  21  22
HETATM   22  O2  UNL     1      14.096  42.996   9.883  1.00  0.00    -0.280 OA
BRANCH  22  23
HETATM   23  P1  UNL     1      14.184  41.559  10.567  1.00  0.00     0.422 P 
HETATM   24  O3  UNL     1      15.218  40.365   9.968  1.00  0.00    -0.617 OA
HETATM   25  O4  UNL     1      13.082  41.049  11.727  1.00  0.00    -0.617 OA
HETATM   26  O5  UNL     1      15.203  41.932  11.628  1.00  0.00    -0.617 OA
ENDBRANCH  22  23
ENDBRANCH  21  22
ENDBRANCH   3  21
BRANCH   4  27
HETATM   27  O6  UNL     1      17.004  44.690   6.646  1.00  0.00    -0.390 OA
ATOM     28  H6  UNL     1      17.879  44.630   7.010  1.00  0.00     0.210 HD
ENDBRANCH   4  27
TORSDOF 6
ENDMDL
