MODEL 15
REMARK VINA RESULT: -7.124706585      2.861      4.153
REMARK  6 active torsions:
REMARK  status: ('A' for Active; 'I' for Inactive)
REMARK    1  A    between atoms: N5_13  and  C6_14 
REMARK    2  A    between atoms: C7_16  and  C8_17 
REMARK    3  A    between atoms: C8_17  and  O2_18 
REMARK    4  A    between atoms: O2_18  and  P1_19 
REMARK    5  A    between atoms: C9_23  and  O6_24 
REMARK    6  A    between atoms: C10_26  and  O7_27 
ROOT
HETATM    1  C6  UNL     1      16.857  43.723   7.021  1.00  0.00     0.262 C 
HETATM    2  O1  UNL     1      16.479  43.480   8.311  1.00  0.00    -0.353 OA
HETATM    3  C7  UNL     1      15.377  44.217   8.631  1.00  0.00     0.180 C 
HETATM    4  C9  UNL     1      15.084  45.167   7.488  1.00  0.00     0.182 C 
HETATM    5  C10 UNL     1      15.747  44.468   6.332  1.00  0.00     0.198 C 
ENDROOT
BRANCH   1   6
HETATM    6  N5  UNL     1      17.179  42.493   6.368  1.00  0.00    -0.297 N 
HETATM    7  C3  UNL     1      17.848  42.287   5.202  1.00  0.00     0.142 A 
HETATM    8  N3  UNL     1      18.379  43.172   4.358  1.00  0.00    -0.336 N 
HETATM    9  C4  UNL     1      17.935  40.929   4.941  1.00  0.00     0.119 A 
HETATM   10  C2  UNL     1      18.998  42.709   3.257  1.00  0.00     0.183 A 
ATOM     11  H3  UNL     1      18.319  44.173   4.543  1.00  0.00     0.168 HD
HETATM   12  N2  UNL     1      19.097  41.382   2.979  1.00  0.00    -0.339 N 
HETATM   13  C1  UNL     1      18.573  40.459   3.805  1.00  0.00     0.148 A 
ATOM     14  H2  UNL     1      19.577  41.081   2.130  1.00  0.00     0.167 HD
HETATM   15  N1  UNL     1      18.643  39.059   3.571  1.00  0.00    -0.080 NA
HETATM   16  N4  UNL     1      17.312  40.329   5.963  1.00  0.00    -0.346 N 
HETATM   17  C5  UNL     1      16.861  41.265   6.815  1.00  0.00     0.188 A 
ATOM     18  H4  UNL     1      17.197  39.322   6.076  1.00  0.00     0.167 HD
ENDBRANCH   1   6
BRANCH   5  19
HETATM   19  O7  UNL     1      16.206  45.426   5.436  1.00  0.00    -0.388 OA
ATOM     20  H7  UNL     1      16.002  46.314   5.703  1.00  0.00     0.210 HD
ENDBRANCH   5  19
BRANCH   3  21
HETATM   21  C8  UNL     1      14.163  43.292   8.726  1.00  0.00     0.217 C 
BRANCH  21  22
HETATM   22  O2  UNL     1      13.899  43.003  10.011  1.00  0.00    -0.280 OA
BRANCH  22  23
HETATM   23  P1  UNL     1      14.090  41.547  10.629  1.00  0.00     0.422 P 
HETATM   24  O3  UNL     1      15.144  40.428   9.928  1.00  0.00    -0.617 OA
HETATM   25  O4  UNL     1      13.077  40.939  11.823  1.00  0.00    -0.617 OA
HETATM   26  O5  UNL     1      15.147  41.926  11.650  1.00  0.00    -0.617 OA
ENDBRANCH  22  23
ENDBRANCH  21  22
ENDBRANCH   3  21
BRANCH   4  27
HETATM   27  O6  UNL     1      15.747  46.355   7.721  1.00  0.00    -0.390 OA
ATOM     28  H6  UNL     1      15.790  46.500   8.658  1.00  0.00     0.210 HD
ENDBRANCH   4  27
TORSDOF 6
ENDMDL
