MODEL 4
REMARK VINA RESULT: -7.701080658      3.730      5.588
REMARK  6 active torsions:
REMARK  status: ('A' for Active; 'I' for Inactive)
REMARK    1  A    between atoms: N5_13  and  C6_14 
REMARK    2  A    between atoms: C7_16  and  C8_17 
REMARK    3  A    between atoms: C8_17  and  O2_18 
REMARK    4  A    between atoms: O2_18  and  P1_19 
REMARK    5  A    between atoms: C9_23  and  O6_24 
REMARK    6  A    between atoms: C10_26  and  O7_27 
ROOT
HETATM    1  C6  UNL     1      11.839  44.061   6.230  1.00  0.00     0.262 C 
HETATM    2  O1  UNL     1      12.691  43.208   6.872  1.00  0.00    -0.353 OA
HETATM    3  C7  UNL     1      13.281  43.831   7.931  1.00  0.00     0.180 C 
HETATM    4  C9  UNL     1      12.903  45.298   7.898  1.00  0.00     0.182 C 
HETATM    5  C10 UNL     1      11.626  45.267   7.102  1.00  0.00     0.198 C 
ENDROOT
BRANCH   1   6
HETATM    6  N5  UNL     1      10.617  43.387   5.920  1.00  0.00    -0.297 N 
HETATM    7  C3  UNL     1      10.070  42.285   6.500  1.00  0.00     0.142 A 
HETATM    8  N3  UNL     1      10.525  41.540   7.508  1.00  0.00    -0.336 N 
HETATM    9  C4  UNL     1       8.871  41.973   5.882  1.00  0.00     0.119 A 
HETATM   10  C2  UNL     1       9.789  40.486   7.902  1.00  0.00     0.183 A 
ATOM     11  H3  UNL     1      11.408  41.763   7.967  1.00  0.00     0.168 HD
HETATM   12  N2  UNL     1       8.608  40.158   7.313  1.00  0.00    -0.339 N 
HETATM   13  C1  UNL     1       8.117  40.885   6.293  1.00  0.00     0.148 A 
ATOM     14  H2  UNL     1       8.086  39.348   7.649  1.00  0.00     0.167 HD
HETATM   15  N1  UNL     1       6.891  40.595   5.635  1.00  0.00    -0.080 NA
HETATM   16  N4  UNL     1       8.708  42.899   4.929  1.00  0.00    -0.346 N 
HETATM   17  C5  UNL     1       9.752  43.744   4.953  1.00  0.00     0.188 A 
ATOM     18  H4  UNL     1       7.917  42.954   4.287  1.00  0.00     0.167 HD
ENDBRANCH   1   6
BRANCH   5  19
HETATM   19  O7  UNL     1      11.521  46.450   6.382  1.00  0.00    -0.388 OA
ATOM     20  H7  UNL     1      12.336  46.936   6.341  1.00  0.00     0.210 HD
ENDBRANCH   5  19
BRANCH   3  21
HETATM   21  C8  UNL     1      12.695  43.280   9.231  1.00  0.00     0.217 C 
BRANCH  21  22
HETATM   22  O2  UNL     1      13.681  42.906  10.063  1.00  0.00    -0.280 OA
BRANCH  22  23
HETATM   23  P1  UNL     1      13.774  41.447  10.697  1.00  0.00     0.422 P 
HETATM   24  O3  UNL     1      13.007  41.075  12.156  1.00  0.00    -0.617 OA
HETATM   25  O4  UNL     1      14.841  40.284  10.122  1.00  0.00    -0.617 OA
HETATM   26  O5  UNL     1      12.619  40.844   9.918  1.00  0.00    -0.617 OA
ENDBRANCH  22  23
ENDBRANCH  21  22
ENDBRANCH   3  21
BRANCH   4  27
HETATM   27  O6  UNL     1      13.856  45.983   7.171  1.00  0.00    -0.390 OA
ATOM     28  H6  UNL     1      14.193  46.693   7.704  1.00  0.00     0.210 HD
ENDBRANCH   4  27
TORSDOF 6
ENDMDL
