MODEL 8
REMARK VINA RESULT: -7.289361552      3.646      4.901
REMARK  6 active torsions:
REMARK  status: ('A' for Active; 'I' for Inactive)
REMARK    1  A    between atoms: N5_13  and  C6_14 
REMARK    2  A    between atoms: C7_16  and  C8_17 
REMARK    3  A    between atoms: C8_17  and  O2_18 
REMARK    4  A    between atoms: O2_18  and  P1_19 
REMARK    5  A    between atoms: C9_23  and  O6_24 
REMARK    6  A    between atoms: C10_26  and  O7_27 
ROOT
HETATM    1  C6  UNL     1      16.949  42.584   6.957  1.00  0.00     0.262 C 
HETATM    2  O1  UNL     1      16.530  42.736   8.248  1.00  0.00    -0.353 OA
HETATM    3  C7  UNL     1      15.548  43.679   8.322  1.00  0.00     0.180 C 
HETATM    4  C9  UNL     1      15.407  44.335   6.964  1.00  0.00     0.182 C 
HETATM    5  C10 UNL     1      15.966  43.276   6.054  1.00  0.00     0.198 C 
ENDROOT
BRANCH   1   6
HETATM    6  N5  UNL     1      17.089  41.194   6.651  1.00  0.00    -0.297 N 
HETATM    7  C3  UNL     1      17.518  40.605   5.503  1.00  0.00     0.142 A 
HETATM    8  N3  UNL     1      17.920  41.161   4.360  1.00  0.00    -0.336 N 
HETATM    9  C4  UNL     1      17.495  39.227   5.644  1.00  0.00     0.119 A 
HETATM   10  C2  UNL     1      18.301  40.349   3.358  1.00  0.00     0.183 A 
ATOM     11  H3  UNL     1      17.939  42.174   4.249  1.00  0.00     0.168 HD
HETATM   12  N2  UNL     1      18.288  38.994   3.470  1.00  0.00    -0.339 N 
HETATM   13  C1  UNL     1      17.889  38.396   4.607  1.00  0.00     0.148 A 
ATOM     14  H2  UNL     1      18.587  38.421   2.680  1.00  0.00     0.167 HD
HETATM   15  N1  UNL     1      17.852  36.987   4.788  1.00  0.00    -0.080 NA
HETATM   16  N4  UNL     1      17.049  39.002   6.886  1.00  0.00    -0.346 N 
HETATM   17  C5  UNL     1      16.807  40.178   7.487  1.00  0.00     0.188 A 
ATOM     18  H4  UNL     1      16.914  38.083   7.308  1.00  0.00     0.167 HD
ENDBRANCH   1   6
BRANCH   5  19
HETATM   19  O7  UNL     1      16.568  43.897   4.966  1.00  0.00    -0.388 OA
ATOM     20  H7  UNL     1      16.107  44.676   4.679  1.00  0.00     0.210 HD
ENDBRANCH   5  19
BRANCH   3  21
HETATM   21  C8  UNL     1      14.210  42.991   8.594  1.00  0.00     0.217 C 
BRANCH  21  22
HETATM   22  O2  UNL     1      14.000  42.891   9.918  1.00  0.00    -0.280 OA
BRANCH  22  23
HETATM   23  P1  UNL     1      14.070  41.505  10.703  1.00  0.00     0.422 P 
HETATM   24  O3  UNL     1      15.047  40.238  10.161  1.00  0.00    -0.617 OA
HETATM   25  O4  UNL     1      12.994  41.116  11.933  1.00  0.00    -0.617 OA
HETATM   26  O5  UNL     1      15.136  41.922  11.700  1.00  0.00    -0.617 OA
ENDBRANCH  22  23
ENDBRANCH  21  22
ENDBRANCH   3  21
BRANCH   4  27
HETATM   27  O6  UNL     1      16.237  45.437   6.918  1.00  0.00    -0.390 OA
ATOM     28  H6  UNL     1      15.921  46.081   7.539  1.00  0.00     0.210 HD
ENDBRANCH   4  27
TORSDOF 6
ENDMDL
