MODEL 5
REMARK VINA RESULT: -4.535356776      1.832      2.668
REMARK  6 active torsions:
REMARK  status: ('A' for Active; 'I' for Inactive)
REMARK    1  A    between atoms: N1_1  and  C1_5 
REMARK    2  A    between atoms: C2_6  and  O1_7 
REMARK    3  A    between atoms: C3_10  and  C4_11 
REMARK    4  A    between atoms: C4_11  and  O3_12 
REMARK    5  A    between atoms: C5_14  and  O4_15 
REMARK    6  A    between atoms: C6_17  and  O5_18 
ROOT
HETATM    1  C1  UNL     1      47.643  -4.148  12.916  1.00  0.00     0.269 C 
HETATM    2  C2  UNL     1      47.761  -3.632  11.486  1.00  0.00     0.290 C 
HETATM    3  O2  UNL     1      46.481  -3.585  10.940  1.00  0.00    -0.349 OA
HETATM    4  C3  UNL     1      45.725  -2.535  11.461  1.00  0.00     0.179 C 
HETATM    5  C5  UNL     1      46.007  -2.284  12.909  1.00  0.00     0.180 C 
HETATM    6  C6  UNL     1      46.354  -3.646  13.523  1.00  0.00     0.184 C 
ENDROOT
BRANCH   1   7
HETATM    7  N1  UNL     1      47.672  -5.604  12.823  1.00  0.00    -0.068 N 
ATOM      8  H13 UNL     1      48.615  -5.994  12.833  1.00  0.00     0.275 HD
ATOM      9  H12 UNL     1      47.336  -6.072  13.664  1.00  0.00     0.275 HD
ATOM     10  H11 UNL     1      47.143  -5.843  11.985  1.00  0.00     0.275 HD
ENDBRANCH   1   7
BRANCH   2  11
HETATM   11  O1  UNL     1      48.482  -4.558  10.720  1.00  0.00    -0.369 OA
ATOM     12  H1  UNL     1      49.386  -4.272  10.654  1.00  0.00     0.212 HD
ENDBRANCH   2  11
BRANCH   6  13
HETATM   13  O5  UNL     1      46.388  -3.604  14.894  1.00  0.00    -0.391 OA
ATOM     14  H5  UNL     1      46.420  -2.720  15.237  1.00  0.00     0.210 HD
ENDBRANCH   6  13
BRANCH   5  15
HETATM   15  O4  UNL     1      47.055  -1.390  13.110  1.00  0.00    -0.390 OA
ATOM     16  H4  UNL     1      46.759  -0.499  13.257  1.00  0.00     0.210 HD
ENDBRANCH   5  15
BRANCH   4  17
HETATM   17  C4  UNL     1      45.935  -1.308  10.600  1.00  0.00     0.198 C 
BRANCH  17  18
HETATM   18  O3  UNL     1      44.955  -0.358  10.877  1.00  0.00    -0.398 OA
ATOM     19  H3  UNL     1      45.285   0.278  11.500  1.00  0.00     0.209 HD
ENDBRANCH  17  18
ENDBRANCH   4  17
TORSDOF 6
ENDMDL
