MODEL 2
REMARK VINA RESULT: -4.667061419      1.910      2.597
REMARK  6 active torsions:
REMARK  status: ('A' for Active; 'I' for Inactive)
REMARK    1  A    between atoms: N1_1  and  C1_5 
REMARK    2  A    between atoms: C2_6  and  O1_7 
REMARK    3  A    between atoms: C3_10  and  C4_11 
REMARK    4  A    between atoms: C4_11  and  O3_12 
REMARK    5  A    between atoms: C5_14  and  O4_15 
REMARK    6  A    between atoms: C6_17  and  O5_18 
ROOT
HETATM    1  C1  UNL     1      47.460  -3.433  13.952  1.00  0.00     0.269 C 
HETATM    2  C2  UNL     1      46.861  -2.036  13.826  1.00  0.00     0.290 C 
HETATM    3  O2  UNL     1      47.164  -1.553  12.555  1.00  0.00    -0.349 OA
HETATM    4  C3  UNL     1      46.409  -2.177  11.561  1.00  0.00     0.179 C 
HETATM    5  C5  UNL     1      46.159  -3.623  11.849  1.00  0.00     0.180 C 
HETATM    6  C6  UNL     1      47.389  -4.129  12.614  1.00  0.00     0.184 C 
ENDROOT
BRANCH   1   7
HETATM    7  N1  UNL     1      48.837  -3.242  14.397  1.00  0.00    -0.068 N 
ATOM      8  H13 UNL     1      49.332  -4.115  14.577  1.00  0.00     0.275 HD
ATOM      9  H12 UNL     1      49.456  -2.898  13.663  1.00  0.00     0.275 HD
ATOM     10  H11 UNL     1      48.787  -2.627  15.209  1.00  0.00     0.275 HD
ENDBRANCH   1   7
BRANCH   2  11
HETATM   11  O1  UNL     1      47.494  -1.178  14.735  1.00  0.00    -0.369 OA
ATOM     12  H1  UNL     1      48.314  -0.877  14.361  1.00  0.00     0.212 HD
ENDBRANCH   2  11
BRANCH   6  13
HETATM   13  O5  UNL     1      47.408  -5.498  12.720  1.00  0.00    -0.391 OA
ATOM     14  H5  UNL     1      46.561  -5.864  12.945  1.00  0.00     0.210 HD
ENDBRANCH   6  13
BRANCH   5  15
HETATM   15  O4  UNL     1      45.009  -3.836  12.603  1.00  0.00    -0.390 OA
ATOM     16  H4  UNL     1      45.024  -4.659  13.078  1.00  0.00     0.210 HD
ENDBRANCH   5  15
BRANCH   4  17
HETATM   17  C4  UNL     1      45.133  -1.391  11.352  1.00  0.00     0.198 C 
BRANCH  17  18
HETATM   18  O3  UNL     1      45.359  -0.343  10.463  1.00  0.00    -0.398 OA
ATOM     19  H3  UNL     1      46.087  -0.553   9.891  1.00  0.00     0.209 HD
ENDBRANCH  17  18
ENDBRANCH   4  17
TORSDOF 6
ENDMDL
