MODEL 8
REMARK VINA RESULT: -4.387707875      1.212      2.777
REMARK  6 active torsions:
REMARK  status: ('A' for Active; 'I' for Inactive)
REMARK    1  A    between atoms: N1_1  and  C1_5 
REMARK    2  A    between atoms: C2_6  and  O1_7 
REMARK    3  A    between atoms: C3_10  and  C4_11 
REMARK    4  A    between atoms: C4_11  and  O3_12 
REMARK    5  A    between atoms: C5_14  and  O4_15 
REMARK    6  A    between atoms: C6_17  and  O5_18 
ROOT
HETATM    1  C1  UNL     1      47.501  -2.834  13.076  1.00  0.00     0.269 C 
HETATM    2  C2  UNL     1      47.705  -1.759  12.014  1.00  0.00     0.290 C 
HETATM    3  O2  UNL     1      47.248  -2.264  10.799  1.00  0.00    -0.349 OA
HETATM    4  C3  UNL     1      45.855  -2.324  10.746  1.00  0.00     0.179 C 
HETATM    5  C5  UNL     1      45.242  -2.680  12.063  1.00  0.00     0.180 C 
HETATM    6  C6  UNL     1      46.241  -3.608  12.766  1.00  0.00     0.184 C 
ENDROOT
BRANCH   1   7
HETATM    7  N1  UNL     1      48.689  -3.681  13.026  1.00  0.00    -0.068 N 
ATOM      8  H13 UNL     1      49.512  -3.252  13.449  1.00  0.00     0.275 HD
ATOM      9  H12 UNL     1      48.638  -4.489  13.645  1.00  0.00     0.275 HD
ATOM     10  H11 UNL     1      48.817  -3.927  12.044  1.00  0.00     0.275 HD
ENDBRANCH   1   7
BRANCH   2  11
HETATM   11  O1  UNL     1      49.077  -1.525  11.852  1.00  0.00    -0.369 OA
ATOM     12  H1  UNL     1      49.215  -0.612  11.627  1.00  0.00     0.212 HD
ENDBRANCH   2  11
BRANCH   6  13
HETATM   13  O5  UNL     1      45.699  -4.213  13.872  1.00  0.00    -0.391 OA
ATOM     14  H5  UNL     1      44.755  -4.305  13.819  1.00  0.00     0.210 HD
ENDBRANCH   6  13
BRANCH   5  15
HETATM   15  O4  UNL     1      44.982  -1.569  12.859  1.00  0.00    -0.390 OA
ATOM     16  H4  UNL     1      44.380  -1.754  13.569  1.00  0.00     0.210 HD
ENDBRANCH   5  15
BRANCH   4  17
HETATM   17  C4  UNL     1      45.331  -1.019  10.187  1.00  0.00     0.198 C 
BRANCH  17  18
HETATM   18  O3  UNL     1      46.092  -0.630   9.088  1.00  0.00    -0.398 OA
ATOM     19  H3  UNL     1      46.989  -0.465   9.356  1.00  0.00     0.209 HD
ENDBRANCH  17  18
ENDBRANCH   4  17
TORSDOF 6
ENDMDL
