MODEL 14
REMARK VINA RESULT: -3.579163318      1.513      1.821
REMARK  4 active torsions:
REMARK  status: ('A' for Active; 'I' for Inactive)
REMARK    1  A    between atoms: C1_2  and  C2_4 
REMARK    2  A    between atoms: C2_4  and  C3_5 
REMARK    3  A    between atoms: C3_5  and  O3_6 
REMARK    4  A    between atoms: C3_5  and  C4_8 
ROOT
HETATM    1  C3  UNL     1     -14.821  27.052  26.055  1.00  0.00     0.228 C 
ENDROOT
BRANCH   1   2
HETATM    2  C2  UNL     1     -14.978  26.076  27.167  1.00  0.00     0.156 C 
BRANCH   2   3
HETATM    3  C1  UNL     1     -16.298  25.471  27.316  1.00  0.00     0.175 C 
HETATM    4  O1  UNL     1     -16.775  24.502  26.715  1.00  0.00    -0.648 OA
HETATM    5  O2  UNL     1     -17.142  26.072  28.271  1.00  0.00    -0.648 OA
ENDBRANCH   2   3
ENDBRANCH   1   2
BRANCH   1   6
HETATM    6  O3  UNL     1     -13.433  27.238  25.855  1.00  0.00    -0.384 OA
ATOM      7  H3  UNL     1     -13.329  28.012  25.314  1.00  0.00     0.210 HD
ENDBRANCH   1   6
BRANCH   1   8
HETATM    8  C4  UNL     1     -15.339  28.390  26.454  1.00  0.00     0.203 C 
HETATM    9  O4  UNL     1     -16.460  28.811  26.083  1.00  0.00    -0.646 OA
HETATM   10  O5  UNL     1     -14.621  29.271  27.267  1.00  0.00    -0.646 OA
ENDBRANCH   1   8
TORSDOF 4
ENDMDL
