MODEL 15
REMARK VINA RESULT: -3.547803955      1.302      1.504
REMARK  4 active torsions:
REMARK  status: ('A' for Active; 'I' for Inactive)
REMARK    1  A    between atoms: C1_2  and  C2_4 
REMARK    2  A    between atoms: C2_4  and  C3_5 
REMARK    3  A    between atoms: C3_5  and  O3_6 
REMARK    4  A    between atoms: C3_5  and  C4_8 
ROOT
HETATM    1  C3  UNL     1     -14.659  27.033  26.666  1.00  0.00     0.228 C 
ENDROOT
BRANCH   1   2
HETATM    2  C2  UNL     1     -15.089  25.691  27.142  1.00  0.00     0.156 C 
BRANCH   2   3
HETATM    3  C1  UNL     1     -16.500  25.547  27.486  1.00  0.00     0.175 C 
HETATM    4  O1  UNL     1     -17.178  26.231  28.262  1.00  0.00    -0.648 OA
HETATM    5  O2  UNL     1     -17.181  24.489  26.850  1.00  0.00    -0.648 OA
ENDBRANCH   2   3
ENDBRANCH   1   2
BRANCH   1   6
HETATM    6  O3  UNL     1     -13.705  26.828  25.641  1.00  0.00    -0.384 OA
ATOM      7  H3  UNL     1     -13.074  26.197  25.967  1.00  0.00     0.210 HD
ENDBRANCH   1   6
BRANCH   1   8
HETATM    8  C4  UNL     1     -13.925  27.760  27.739  1.00  0.00     0.203 C 
HETATM    9  O4  UNL     1     -14.508  28.516  28.552  1.00  0.00    -0.646 OA
HETATM   10  O5  UNL     1     -12.544  27.656  27.920  1.00  0.00    -0.646 OA
ENDBRANCH   1   8
TORSDOF 4
ENDMDL
