MODEL 1
REMARK VINA RESULT: -7.598692398      0.000      0.000
REMARK  5 active torsions:
REMARK  status: ('A' for Active; 'I' for Inactive)
REMARK    1  A    between atoms: C6_6  and  C7_7 
REMARK    2  A    between atoms: C18_20  and  O3_21 
REMARK    3  A    between atoms: C19_23  and  C21_25 
REMARK    4  A    between atoms: C21_25  and  O4_26 
REMARK    5  A    between atoms: C30_36  and  O5_37 
ROOT
HETATM    1  C1  UNL     1      39.465  -8.036  45.005  1.00  0.00     0.015 C 
HETATM    2  C2  UNL     1      40.392  -9.078  44.454  1.00  0.00    -0.047 C 
HETATM    3  C3  UNL     1      39.669  -9.726  43.267  1.00  0.00     0.015 C 
HETATM    4  C4  UNL     1      41.679  -8.529  43.936  1.00  0.00     0.010 C 
HETATM    5  C5  UNL     1      42.741  -9.611  44.124  1.00  0.00     0.024 C 
HETATM    6  C6  UNL     1      43.091  -9.557  45.624  1.00  0.00     0.081 C 
HETATM    7  C8  UNL     1      41.835  -9.832  46.363  1.00  0.00     0.037 C 
HETATM    8  C9  UNL     1      40.628 -10.126  45.513  1.00  0.00     0.019 C 
HETATM    9  C10 UNL     1      41.918 -10.851  47.425  1.00  0.00    -0.069 C 
HETATM   10  C11 UNL     1      41.047 -10.747  48.420  1.00  0.00    -0.022 C 
HETATM   11  C12 UNL     1      40.985 -11.680  49.574  1.00  0.00     0.033 C 
HETATM   12  C13 UNL     1      41.613 -12.961  49.132  1.00  0.00     0.007 C 
HETATM   13  C14 UNL     1      41.365 -14.090  50.080  1.00  0.00    -0.035 C 
HETATM   14  C15 UNL     1      41.567 -13.726  51.520  1.00  0.00     0.016 C 
HETATM   15  C16 UNL     1      39.879 -14.425  49.927  1.00  0.00     0.012 C 
HETATM   16  C17 UNL     1      39.665 -15.851  49.478  1.00  0.00     0.033 C 
HETATM   17  C18 UNL     1      40.378 -16.823  50.418  1.00  0.00     0.128 C 
HETATM   18  C19 UNL     1      41.862 -16.571  50.376  1.00  0.00     0.007 C 
HETATM   19  C20 UNL     1      42.524 -16.726  51.699  1.00  0.00     0.020 C 
HETATM   20  C22 UNL     1      42.134 -15.306  49.655  1.00  0.00     0.007 C 
HETATM   21  C23 UNL     1      43.600 -14.913  49.671  1.00  0.00     0.007 C 
HETATM   22  C24 UNL     1      43.762 -13.997  48.446  1.00  0.00     0.011 C 
HETATM   23  C25 UNL     1      43.000 -12.707  48.682  1.00  0.00    -0.028 C 
HETATM   24  C26 UNL     1      43.832 -11.898  49.643  1.00  0.00     0.016 C 
HETATM   25  C27 UNL     1      42.942 -11.945  47.373  1.00  0.00    -0.010 C 
HETATM   26  C28 UNL     1      42.758 -12.902  46.248  1.00  0.00     0.021 C 
HETATM   27  C29 UNL     1      44.259 -11.220  47.137  1.00  0.00     0.047 C 
HETATM   28  C30 UNL     1      44.239 -10.462  45.831  1.00  0.00     0.139 C 
ENDROOT
BRANCH  18  29
HETATM   29  C21 UNL     1      42.427 -17.704  49.495  1.00  0.00     0.176 C 
BRANCH  29  30
HETATM   30  O4  UNL     1      41.784 -18.894  49.869  1.00  0.00    -0.400 OA
ATOM     31  H4  UNL     1      41.567 -18.827  50.791  1.00  0.00     0.209 HD
ENDBRANCH  29  30
ENDBRANCH  18  29
BRANCH  17  32
HETATM   32  O3  UNL     1      39.823 -16.707  51.674  1.00  0.00    -0.395 OA
ATOM     33  H3  UNL     1      39.467 -17.550  51.927  1.00  0.00     0.210 HD
ENDBRANCH  17  32
BRANCH  28  34
HETATM   34  O5  UNL     1      44.477 -11.324  44.732  1.00  0.00    -0.394 OA
ATOM     35  H5  UNL     1      44.347 -12.242  44.940  1.00  0.00     0.210 HD
ENDBRANCH  28  34
BRANCH   6  36
HETATM   36  C7  UNL     1      43.535  -8.123  45.813  1.00  0.00     0.185 C 
HETATM   37  O1  UNL     1      44.610  -7.785  45.274  1.00  0.00    -0.647 OA
HETATM   38  O2  UNL     1      42.808  -7.220  46.534  1.00  0.00    -0.647 OA
ENDBRANCH   6  36
TORSDOF 5
ENDMDL
