MODEL 2
REMARK VINA RESULT: -7.579494454      3.981      6.346
REMARK  5 active torsions:
REMARK  status: ('A' for Active; 'I' for Inactive)
REMARK    1  A    between atoms: C6_6  and  C7_7 
REMARK    2  A    between atoms: C18_20  and  O3_21 
REMARK    3  A    between atoms: C19_23  and  C21_25 
REMARK    4  A    between atoms: C21_25  and  O4_26 
REMARK    5  A    between atoms: C30_36  and  O5_37 
ROOT
HETATM    1  C1  UNL     1      40.244 -14.148  42.721  1.00  0.00     0.015 C 
HETATM    2  C2  UNL     1      40.797 -12.809  42.335  1.00  0.00    -0.047 C 
HETATM    3  C3  UNL     1      41.774 -13.054  41.179  1.00  0.00     0.015 C 
HETATM    4  C4  UNL     1      39.767 -11.849  41.843  1.00  0.00     0.010 C 
HETATM    5  C5  UNL     1      40.250 -10.445  42.204  1.00  0.00     0.024 C 
HETATM    6  C6  UNL     1      39.950 -10.304  43.709  1.00  0.00     0.081 C 
HETATM    7  C8  UNL     1      40.707 -11.380  44.395  1.00  0.00     0.037 C 
HETATM    8  C9  UNL     1      41.561 -12.245  43.507  1.00  0.00     0.019 C 
HETATM    9  C10 UNL     1      41.512 -10.964  45.557  1.00  0.00    -0.069 C 
HETATM   10  C11 UNL     1      41.743 -11.887  46.483  1.00  0.00    -0.022 C 
HETATM   11  C12 UNL     1      42.531 -11.648  47.718  1.00  0.00     0.033 C 
HETATM   12  C13 UNL     1      43.424 -10.483  47.448  1.00  0.00     0.007 C 
HETATM   13  C14 UNL     1      44.482 -10.304  48.488  1.00  0.00    -0.035 C 
HETATM   14  C15 UNL     1      43.975 -10.425  49.893  1.00  0.00     0.016 C 
HETATM   15  C16 UNL     1      45.452 -11.470  48.280  1.00  0.00     0.012 C 
HETATM   16  C17 UNL     1      46.850 -10.992  47.966  1.00  0.00     0.033 C 
HETATM   17  C18 UNL     1      47.341 -10.022  49.041  1.00  0.00     0.128 C 
HETATM   18  C19 UNL     1      46.458  -8.803  49.063  1.00  0.00     0.007 C 
HETATM   19  C20 UNL     1      46.218  -8.274  50.433  1.00  0.00     0.020 C 
HETATM   20  C22 UNL     1      45.253  -9.042  48.236  1.00  0.00     0.007 C 
HETATM   21  C23 UNL     1      44.249  -7.906  48.301  1.00  0.00     0.007 C 
HETATM   22  C24 UNL     1      43.437  -8.041  47.001  1.00  0.00     0.011 C 
HETATM   23  C25 UNL     1      42.609  -9.310  47.059  1.00  0.00    -0.028 C 
HETATM   24  C26 UNL     1      41.454  -9.016  47.982  1.00  0.00     0.016 C 
HETATM   25  C27 UNL     1      42.037  -9.565  45.679  1.00  0.00    -0.010 C 
HETATM   26  C28 UNL     1      43.046  -9.199  44.647  1.00  0.00     0.021 C 
HETATM   27  C29 UNL     1      40.819  -8.682  45.451  1.00  0.00     0.047 C 
HETATM   28  C30 UNL     1      40.234  -8.903  44.076  1.00  0.00     0.139 C 
ENDROOT
BRANCH  18  29
HETATM   29  C21 UNL     1      47.276  -7.714  48.337  1.00  0.00     0.176 C 
BRANCH  29  30
HETATM   30  O4  UNL     1      47.570  -6.710  49.272  1.00  0.00    -0.400 OA
ATOM     31  H4  UNL     1      47.455  -7.080  50.139  1.00  0.00     0.209 HD
ENDBRANCH  29  30
ENDBRANCH  18  29
BRANCH  17  32
HETATM   32  O3  UNL     1      47.403 -10.694  50.243  1.00  0.00    -0.395 OA
ATOM     33  H3  UNL     1      48.300 -10.670  50.557  1.00  0.00     0.210 HD
ENDBRANCH  17  32
BRANCH  28  34
HETATM   34  O5  UNL     1      40.969  -8.203  43.086  1.00  0.00    -0.394 OA
ATOM     35  H5  UNL     1      40.703  -7.296  42.993  1.00  0.00     0.210 HD
ENDBRANCH  28  34
BRANCH   6  36
HETATM   36  C7  UNL     1      38.459 -10.554  43.778  1.00  0.00     0.185 C 
HETATM   37  O1  UNL     1      37.709  -9.567  43.618  1.00  0.00    -0.647 OA
HETATM   38  O2  UNL     1      37.933 -11.794  44.003  1.00  0.00    -0.647 OA
ENDBRANCH   6  36
TORSDOF 5
ENDMDL
