MODEL 4
REMARK VINA RESULT: -6.963266404      4.075      6.200
REMARK  5 active torsions:
REMARK  status: ('A' for Active; 'I' for Inactive)
REMARK    1  A    between atoms: C6_6  and  C7_7 
REMARK    2  A    between atoms: C18_20  and  O3_21 
REMARK    3  A    between atoms: C19_23  and  C21_25 
REMARK    4  A    between atoms: C21_25  and  O4_26 
REMARK    5  A    between atoms: C30_36  and  O5_37 
ROOT
HETATM    1  C1  UNL     1      44.186  -9.667  48.751  1.00  0.00     0.015 C 
HETATM    2  C2  UNL     1      42.826 -10.036  48.238  1.00  0.00    -0.047 C 
HETATM    3  C3  UNL     1      42.030 -10.558  49.440  1.00  0.00     0.015 C 
HETATM    4  C4  UNL     1      42.062  -8.886  47.672  1.00  0.00     0.010 C 
HETATM    5  C5  UNL     1      41.148  -9.444  46.582  1.00  0.00     0.024 C 
HETATM    6  C6  UNL     1      42.078  -9.679  45.375  1.00  0.00     0.081 C 
HETATM    7  C8  UNL     1      43.116 -10.640  45.820  1.00  0.00     0.037 C 
HETATM    8  C9  UNL     1      42.974 -11.148  47.231  1.00  0.00     0.019 C 
HETATM    9  C10 UNL     1      43.357 -11.791  44.931  1.00  0.00    -0.069 C 
HETATM   10  C11 UNL     1      44.564 -12.339  44.979  1.00  0.00    -0.022 C 
HETATM   11  C12 UNL     1      44.985 -13.501  44.155  1.00  0.00     0.033 C 
HETATM   12  C13 UNL     1      43.742 -14.230  43.764  1.00  0.00     0.007 C 
HETATM   13  C14 UNL     1      44.016 -15.579  43.181  1.00  0.00    -0.035 C 
HETATM   14  C15 UNL     1      45.123 -15.588  42.172  1.00  0.00     0.016 C 
HETATM   15  C16 UNL     1      44.498 -16.434  44.356  1.00  0.00     0.012 C 
HETATM   16  C17 UNL     1      43.607 -17.632  44.587  1.00  0.00     0.033 C 
HETATM   17  C18 UNL     1      43.463 -18.450  43.303  1.00  0.00     0.128 C 
HETATM   18  C19 UNL     1      42.802 -17.612  42.241  1.00  0.00     0.007 C 
HETATM   19  C20 UNL     1      43.347 -17.851  40.878  1.00  0.00     0.020 C 
HETATM   20  C22 UNL     1      42.744 -16.199  42.682  1.00  0.00     0.007 C 
HETATM   21  C23 UNL     1      42.201 -15.263  41.617  1.00  0.00     0.007 C 
HETATM   22  C24 UNL     1      41.669 -14.055  42.409  1.00  0.00     0.011 C 
HETATM   23  C25 UNL     1      42.836 -13.315  43.033  1.00  0.00    -0.028 C 
HETATM   24  C26 UNL     1      43.492 -12.545  41.916  1.00  0.00     0.016 C 
HETATM   25  C27 UNL     1      42.283 -12.307  44.020  1.00  0.00    -0.010 C 
HETATM   26  C28 UNL     1      41.111 -12.893  44.727  1.00  0.00     0.021 C 
HETATM   27  C29 UNL     1      41.790 -11.073  43.279  1.00  0.00     0.047 C 
HETATM   28  C30 UNL     1      41.218 -10.053  44.235  1.00  0.00     0.139 C 
ENDROOT
BRANCH  18  29
HETATM   29  C21 UNL     1      41.344 -18.115  42.197  1.00  0.00     0.176 C 
BRANCH  29  30
HETATM   30  O4  UNL     1      41.047 -18.441  40.865  1.00  0.00    -0.400 OA
ATOM     31  H4  UNL     1      41.800 -18.208  40.336  1.00  0.00     0.209 HD
ENDBRANCH  29  30
ENDBRANCH  18  29
BRANCH  17  32
HETATM   32  O3  UNL     1      44.705 -18.931  42.947  1.00  0.00    -0.395 OA
ATOM     33  H3  UNL     1      44.591 -19.761  42.498  1.00  0.00     0.210 HD
ENDBRANCH  17  32
BRANCH  28  34
HETATM   34  O5  UNL     1      39.897 -10.392  44.619  1.00  0.00    -0.394 OA
ATOM     35  H5  UNL     1      39.493 -11.035  44.047  1.00  0.00     0.210 HD
ENDBRANCH  28  34
BRANCH   6  36
HETATM   36  C7  UNL     1      42.669  -8.307  45.136  1.00  0.00     0.185 C 
HETATM   37  O1  UNL     1      41.872  -7.386  44.855  1.00  0.00    -0.647 OA
HETATM   38  O2  UNL     1      44.009  -8.061  45.219  1.00  0.00    -0.647 OA
ENDBRANCH   6  36
TORSDOF 5
ENDMDL
