MODEL 1
REMARK VINA RESULT: -7.434158094      0.000      0.000
REMARK  5 active torsions:
REMARK  status: ('A' for Active; 'I' for Inactive)
REMARK    1  A    between atoms: S1_2  and  C2_3 
REMARK    2  A    between atoms: C2_3  and  C3_4 
REMARK    3  A    between atoms: C4_6  and  N1_7 
REMARK    4  A    between atoms: C10_20  and  O2_21 
REMARK    5  A    between atoms: C11_23  and  O3_24 
ROOT
HETATM    1  N1  UNL     1     -16.114-100.905  -3.911  1.00  0.00    -0.297 N 
HETATM    2  C5  UNL     1     -15.104-100.200  -4.435  1.00  0.00     0.188 A 
HETATM    3  N2  UNL     1     -13.929-100.875  -4.300  1.00  0.00    -0.346 N 
ATOM      4  H2  UNL     1     -13.012-100.558  -4.614  1.00  0.00     0.167 HD
HETATM    5  C6  UNL     1     -14.192-102.017  -3.685  1.00  0.00     0.119 A 
HETATM    6  C7  UNL     1     -13.379-103.060  -3.304  1.00  0.00     0.148 A 
HETATM    7  N3  UNL     1     -11.977-103.107  -3.522  1.00  0.00    -0.080 NA
HETATM    8  N4  UNL     1     -13.953-104.104  -2.686  1.00  0.00    -0.339 N 
ATOM      9  H4  UNL     1     -13.364-104.884  -2.397  1.00  0.00     0.167 HD
HETATM   10  C8  UNL     1     -15.278-104.165  -2.430  1.00  0.00     0.183 A 
HETATM   11  N5  UNL     1     -16.043-103.128  -2.815  1.00  0.00    -0.336 N 
ATOM     12  H5  UNL     1     -17.043-103.171  -2.623  1.00  0.00     0.168 HD
HETATM   13  C9  UNL     1     -15.564-102.040  -3.439  1.00  0.00     0.142 A 
ENDROOT
BRANCH   1  14
HETATM   14  C4  UNL     1     -17.529-100.612  -3.815  1.00  0.00     0.262 C 
HETATM   15  O1  UNL     1     -18.169-100.678  -5.043  1.00  0.00    -0.355 OA
HETATM   16  C3  UNL     1     -19.288 -99.905  -4.860  1.00  0.00     0.165 C 
HETATM   17  C11 UNL     1     -18.692 -98.622  -4.303  1.00  0.00     0.180 C 
HETATM   18  C10 UNL     1     -17.707 -99.191  -3.301  1.00  0.00     0.198 C 
BRANCH  16  19
HETATM   19  C2  UNL     1     -20.067 -99.657  -6.125  1.00  0.00     0.108 C 
BRANCH  19  20
HETATM   20  S1  UNL     1     -21.768-100.256  -5.816  1.00  0.00    -0.171 SA
HETATM   21  C1  UNL     1     -22.933 -98.869  -5.815  1.00  0.00     0.089 C 
ENDBRANCH  19  20
ENDBRANCH  16  19
BRANCH  17  22
HETATM   22  O3  UNL     1     -19.656 -97.847  -3.673  1.00  0.00    -0.390 OA
ATOM     23  H3  UNL     1     -19.268 -97.270  -3.025  1.00  0.00     0.210 HD
ENDBRANCH  17  22
BRANCH  18  24
HETATM   24  O2  UNL     1     -18.339 -99.222  -2.064  1.00  0.00    -0.388 OA
ATOM     25  H2  UNL     1     -18.740 -98.378  -1.892  1.00  0.00     0.210 HD
ENDBRANCH  18  24
ENDBRANCH   1  14
TORSDOF 5
ENDMDL
