MODEL 2
REMARK VINA RESULT: -6.243730181      3.599      6.246
REMARK  5 active torsions:
REMARK  status: ('A' for Active; 'I' for Inactive)
REMARK    1  A    between atoms: S1_2  and  C2_3 
REMARK    2  A    between atoms: C2_3  and  C3_4 
REMARK    3  A    between atoms: C4_6  and  N1_7 
REMARK    4  A    between atoms: C10_20  and  O2_21 
REMARK    5  A    between atoms: C11_23  and  O3_24 
ROOT
HETATM    1  N1  UNL     1     -18.006 -99.406  -3.672  1.00  0.00    -0.297 N 
HETATM    2  C5  UNL     1     -18.831 -98.540  -3.070  1.00  0.00     0.188 A 
HETATM    3  N2  UNL     1     -19.981 -98.397  -3.787  1.00  0.00    -0.346 N 
ATOM      4  H2  UNL     1     -20.770 -97.798  -3.546  1.00  0.00     0.167 HD
HETATM    5  C6  UNL     1     -19.887 -99.177  -4.851  1.00  0.00     0.119 A 
HETATM    6  C7  UNL     1     -20.756 -99.411  -5.893  1.00  0.00     0.148 A 
HETATM    7  N3  UNL     1     -22.032 -98.803  -6.027  1.00  0.00    -0.080 NA
HETATM    8  N4  UNL     1     -20.370-100.275  -6.844  1.00  0.00    -0.339 N 
ATOM      9  H4  UNL     1     -21.002-100.459  -7.623  1.00  0.00     0.167 HD
HETATM   10  C8  UNL     1     -19.179-100.912  -6.815  1.00  0.00     0.183 A 
HETATM   11  N5  UNL     1     -18.354-100.659  -5.783  1.00  0.00    -0.336 N 
ATOM     12  H5  UNL     1     -17.454-101.138  -5.759  1.00  0.00     0.168 HD
HETATM   13  C9  UNL     1     -18.649 -99.813  -4.784  1.00  0.00     0.142 A 
ENDROOT
BRANCH   1  14
HETATM   14  C4  UNL     1     -16.688 -99.878  -3.302  1.00  0.00     0.262 C 
HETATM   15  O1  UNL     1     -15.721 -99.536  -4.235  1.00  0.00    -0.355 OA
HETATM   16  C3  UNL     1     -14.727-100.455  -4.012  1.00  0.00     0.165 C 
HETATM   17  C11 UNL     1     -15.498-101.765  -4.058  1.00  0.00     0.180 C 
HETATM   18  C10 UNL     1     -16.710-101.397  -3.226  1.00  0.00     0.198 C 
BRANCH  16  19
HETATM   19  C2  UNL     1     -13.625-100.418  -5.039  1.00  0.00     0.108 C 
BRANCH  19  20
HETATM   20  S1  UNL     1     -14.076 -99.114  -6.241  1.00  0.00    -0.171 SA
HETATM   21  C1  UNL     1     -13.351 -99.475  -7.861  1.00  0.00     0.089 C 
ENDBRANCH  19  20
ENDBRANCH  16  19
BRANCH  17  22
HETATM   22  O3  UNL     1     -14.779-102.796  -3.468  1.00  0.00    -0.390 OA
ATOM     23  H3  UNL     1     -15.324-103.306  -2.879  1.00  0.00     0.210 HD
ENDBRANCH  17  22
BRANCH  18  24
HETATM   24  O2  UNL     1     -16.459-101.800  -1.920  1.00  0.00    -0.388 OA
ATOM     25  H2  UNL     1     -15.527-101.743  -1.745  1.00  0.00     0.210 HD
ENDBRANCH  18  24
ENDBRANCH   1  14
TORSDOF 5
ENDMDL
