MODEL 5
REMARK VINA RESULT: -5.953167373      3.611      6.379
REMARK  5 active torsions:
REMARK  status: ('A' for Active; 'I' for Inactive)
REMARK    1  A    between atoms: S1_2  and  C2_3 
REMARK    2  A    between atoms: C2_3  and  C3_4 
REMARK    3  A    between atoms: C4_6  and  N1_7 
REMARK    4  A    between atoms: C10_20  and  O2_21 
REMARK    5  A    between atoms: C11_23  and  O3_24 
ROOT
HETATM    1  N1  UNL     1     -18.288 -99.869  -3.929  1.00  0.00    -0.297 N 
HETATM    2  C5  UNL     1     -19.582 -99.902  -3.586  1.00  0.00     0.188 A 
HETATM    3  N2  UNL     1     -20.353 -99.360  -4.570  1.00  0.00    -0.346 N 
ATOM      4  H2  UNL     1     -21.368 -99.265  -4.557  1.00  0.00     0.167 HD
HETATM    5  C6  UNL     1     -19.544 -98.978  -5.545  1.00  0.00     0.119 A 
HETATM    6  C7  UNL     1     -19.795 -98.378  -6.758  1.00  0.00     0.148 A 
HETATM    7  N3  UNL     1     -21.086 -98.029  -7.231  1.00  0.00    -0.080 NA
HETATM    8  N4  UNL     1     -18.743 -98.109  -7.548  1.00  0.00    -0.339 N 
ATOM      9  H4  UNL     1     -18.912 -97.665  -8.450  1.00  0.00     0.167 HD
HETATM   10  C8  UNL     1     -17.471 -98.401  -7.200  1.00  0.00     0.183 A 
HETATM   11  N5  UNL     1     -17.263 -98.986  -6.007  1.00  0.00    -0.336 N 
ATOM     12  H5  UNL     1     -16.304 -99.208  -5.741  1.00  0.00     0.168 HD
HETATM   13  C9  UNL     1     -18.246 -99.296  -5.147  1.00  0.00     0.142 A 
ENDROOT
BRANCH   1  14
HETATM   14  C4  UNL     1     -17.106-100.319  -3.225  1.00  0.00     0.262 C 
HETATM   15  O1  UNL     1     -15.949 -99.711  -3.689  1.00  0.00    -0.355 OA
HETATM   16  C3  UNL     1     -14.960-100.585  -3.315  1.00  0.00     0.165 C 
HETATM   17  C11 UNL     1     -15.484-101.902  -3.866  1.00  0.00     0.180 C 
HETATM   18  C10 UNL     1     -16.938-101.815  -3.446  1.00  0.00     0.198 C 
BRANCH  16  19
HETATM   19  C2  UNL     1     -13.604-100.244  -3.876  1.00  0.00     0.108 C 
BRANCH  19  20
HETATM   20  S1  UNL     1     -13.737-100.402  -5.693  1.00  0.00    -0.171 SA
HETATM   21  C1  UNL     1     -13.868 -98.766  -6.460  1.00  0.00     0.089 C 
ENDBRANCH  19  20
ENDBRANCH  16  19
BRANCH  17  22
HETATM   22  O3  UNL     1     -14.855-102.987  -3.270  1.00  0.00    -0.390 OA
ATOM     23  H3  UNL     1     -15.486-103.589  -2.892  1.00  0.00     0.210 HD
ENDBRANCH  17  22
BRANCH  18  24
HETATM   24  O2  UNL     1     -17.064-102.480  -2.233  1.00  0.00    -0.388 OA
ATOM     25  H2  UNL     1     -16.910-101.871  -1.521  1.00  0.00     0.210 HD
ENDBRANCH  18  24
ENDBRANCH   1  14
TORSDOF 5
ENDMDL
