MODEL 7
REMARK VINA RESULT: -5.931704787      3.759      6.651
REMARK  5 active torsions:
REMARK  status: ('A' for Active; 'I' for Inactive)
REMARK    1  A    between atoms: S1_2  and  C2_3 
REMARK    2  A    between atoms: C2_3  and  C3_4 
REMARK    3  A    between atoms: C4_6  and  N1_7 
REMARK    4  A    between atoms: C10_20  and  O2_21 
REMARK    5  A    between atoms: C11_23  and  O3_24 
ROOT
HETATM    1  N1  UNL     1     -17.529 -99.086  -5.622  1.00  0.00    -0.297 N 
HETATM    2  C5  UNL     1     -17.328 -98.508  -6.813  1.00  0.00     0.188 A 
HETATM    3  N2  UNL     1     -18.518 -98.230  -7.416  1.00  0.00    -0.346 N 
ATOM      4  H2  UNL     1     -18.642 -97.790  -8.328  1.00  0.00     0.167 HD
HETATM    5  C6  UNL     1     -19.481 -98.633  -6.605  1.00  0.00     0.119 A 
HETATM    6  C7  UNL     1     -20.852 -98.592  -6.721  1.00  0.00     0.148 A 
HETATM    7  N3  UNL     1     -21.548 -98.058  -7.837  1.00  0.00    -0.080 NA
HETATM    8  N4  UNL     1     -21.578 -99.089  -5.708  1.00  0.00    -0.339 N 
ATOM      9  H4  UNL     1     -22.595 -99.066  -5.779  1.00  0.00     0.167 HD
HETATM   10  C8  UNL     1     -21.020 -99.619  -4.598  1.00  0.00     0.183 A 
HETATM   11  N5  UNL     1     -19.678 -99.643  -4.517  1.00  0.00    -0.336 N 
ATOM     12  H5  UNL     1     -19.254-100.043  -3.681  1.00  0.00     0.168 HD
HETATM   13  C9  UNL     1     -18.866 -99.171  -5.476  1.00  0.00     0.142 A 
ENDROOT
BRANCH   1  14
HETATM   14  C4  UNL     1     -16.592 -99.558  -4.624  1.00  0.00     0.262 C 
HETATM   15  O1  UNL     1     -15.441-100.087  -5.186  1.00  0.00    -0.355 OA
HETATM   16  C3  UNL     1     -14.955-100.909  -4.200  1.00  0.00     0.165 C 
HETATM   17  C11 UNL     1     -16.178-101.749  -3.865  1.00  0.00     0.180 C 
HETATM   18  C10 UNL     1     -17.245-100.673  -3.821  1.00  0.00     0.198 C 
BRANCH  16  19
HETATM   19  C2  UNL     1     -13.793-101.761  -4.638  1.00  0.00     0.108 C 
BRANCH  19  20
HETATM   20  S1  UNL     1     -12.896-102.242  -3.118  1.00  0.00    -0.171 SA
HETATM   21  C1  UNL     1     -13.248-103.968  -2.699  1.00  0.00     0.089 C 
ENDBRANCH  19  20
ENDBRANCH  16  19
BRANCH  17  22
HETATM   22  O3  UNL     1     -16.042-102.371  -2.632  1.00  0.00    -0.390 OA
ATOM     23  H3  UNL     1     -16.845-102.810  -2.375  1.00  0.00     0.210 HD
ENDBRANCH  17  22
BRANCH  18  24
HETATM   24  O2  UNL     1     -17.381-100.273  -2.498  1.00  0.00    -0.388 OA
ATOM     25  H2  UNL     1     -16.878 -99.481  -2.353  1.00  0.00     0.210 HD
ENDBRANCH  18  24
ENDBRANCH   1  14
TORSDOF 5
ENDMDL
