MODEL 8
REMARK VINA RESULT: -8.906834110      5.595      9.804
REMARK  10 active torsions:
REMARK  status: ('A' for Active; 'I' for Inactive)
REMARK    1  A    between atoms: N4_17  and  C9_18 
REMARK    2  A    between atoms: C9_18  and  C10_19 
REMARK    3  A    between atoms: C10_19  and  O3_20 
REMARK    4  A    between atoms: C10_19  and  C11_22 
REMARK    5  A    between atoms: C11_22  and  O4_23 
REMARK    6  A    between atoms: C11_22  and  C12_25 
REMARK    7  A    between atoms: C12_25  and  O5_26 
REMARK    8  A    between atoms: C12_25  and  C13_28 
REMARK    9  A    between atoms: C13_28  and  O6_29 
REMARK   10  A    between atoms: O6_29  and  P1_30 
ROOT
HETATM    1  C1  UNL     1      11.367  -8.736   4.846  1.00  0.00     0.049 C 
HETATM    2  C2  UNL     1      11.170  -8.797   3.378  1.00  0.00    -0.054 A 
HETATM    3  C3  UNL     1      11.793  -7.895   2.542  1.00  0.00     0.039 A 
HETATM    4  C4  UNL     1      11.626  -7.930   1.166  1.00  0.00     0.060 A 
HETATM    5  N1  UNL     1      12.264  -7.028   0.399  1.00  0.00    -0.347 N 
ATOM      6  H1  UNL     1      12.860  -6.326   0.837  1.00  0.00     0.166 HD
HETATM    7  C5  UNL     1      12.126  -7.041  -0.932  1.00  0.00     0.146 A 
HETATM    8  C6  UNL     1      12.768  -6.125  -1.774  1.00  0.00     0.280 A 
HETATM    9  O1  UNL     1      13.497  -5.266  -1.246  1.00  0.00    -0.265 OA
HETATM   10  N2  UNL     1      12.580  -6.198  -3.115  1.00  0.00    -0.273 N 
ATOM     11  H2  UNL     1      13.046  -5.532  -3.733  1.00  0.00     0.173 HD
HETATM   12  C7  UNL     1      11.781  -7.148  -3.633  1.00  0.00     0.328 A 
HETATM   13  O2  UNL     1      11.651  -7.160  -4.885  1.00  0.00    -0.247 OA
HETATM   14  N3  UNL     1      11.135  -8.061  -2.849  1.00  0.00    -0.292 N 
ATOM     15  H3  UNL     1      10.539  -8.763  -3.287  1.00  0.00     0.172 HD
HETATM   16  C8  UNL     1      11.270  -8.054  -1.514  1.00  0.00     0.145 A 
HETATM   17  N4  UNL     1      10.640  -8.951  -0.694  1.00  0.00    -0.327 N 
HETATM   18  C14 UNL     1      10.792  -8.924   0.640  1.00  0.00     0.063 A 
HETATM   19  C15 UNL     1      10.163  -9.831   1.470  1.00  0.00     0.039 A 
HETATM   20  C16 UNL     1      10.351  -9.770   2.838  1.00  0.00    -0.054 A 
HETATM   21  C17 UNL     1       9.684 -10.737   3.746  1.00  0.00     0.049 C 
ENDROOT
BRANCH  17  22
HETATM   22  C9  UNL     1       9.798  -9.943  -1.327  1.00  0.00     0.165 C 
BRANCH  22  23
HETATM   23  C10 UNL     1       8.442  -9.287  -1.621  1.00  0.00     0.167 C 
BRANCH  23  24
HETATM   24  O3  UNL     1       8.434  -7.930  -1.459  1.00  0.00    -0.391 OA
ATOM     25  H3  UNL     1       7.605  -7.519  -1.677  1.00  0.00     0.210 HD
ENDBRANCH  23  24
BRANCH  23  26
HETATM   26  C11 UNL     1       7.309  -9.946  -0.977  1.00  0.00     0.179 C 
BRANCH  26  27
HETATM   27  O4  UNL     1       7.678 -11.214  -0.520  1.00  0.00    -0.390 OA
ATOM     28  H4  UNL     1       7.016 -11.856  -0.751  1.00  0.00     0.210 HD
ENDBRANCH  26  27
BRANCH  26  29
HETATM   29  C12 UNL     1       5.973  -9.993  -1.575  1.00  0.00     0.173 C 
BRANCH  29  30
HETATM   30  O5  UNL     1       5.690  -8.620  -1.926  1.00  0.00    -0.391 OA
ATOM     31  H5  UNL     1       5.671  -8.163  -1.093  1.00  0.00     0.210 HD
ENDBRANCH  29  30
BRANCH  29  32
HETATM   32  C13 UNL     1       4.823 -10.309  -0.624  1.00  0.00     0.217 C 
BRANCH  32  33
HETATM   33  O6  UNL     1       4.703 -11.727  -0.513  1.00  0.00    -0.280 OA
BRANCH  33  34
HETATM   34  P1  UNL     1       4.512 -12.161   1.101  1.00  0.00     0.422 P 
HETATM   35  O7  UNL     1       3.728 -13.430   1.165  1.00  0.00    -0.617 OA
HETATM   36  O8  UNL     1       3.702 -10.973   1.984  1.00  0.00    -0.617 OA
HETATM   37  O9  UNL     1       6.011 -12.434   1.853  1.00  0.00    -0.617 OA
ENDBRANCH  33  34
ENDBRANCH  32  33
ENDBRANCH  29  32
ENDBRANCH  26  29
ENDBRANCH  23  26
ENDBRANCH  22  23
ENDBRANCH  17  22
TORSDOF 10
ENDMDL
