MODEL 2
REMARK VINA RESULT: -10.106832524      2.192      4.615
REMARK  10 active torsions:
REMARK  status: ('A' for Active; 'I' for Inactive)
REMARK    1  A    between atoms: N4_17  and  C9_18 
REMARK    2  A    between atoms: C9_18  and  C10_19 
REMARK    3  A    between atoms: C10_19  and  O3_20 
REMARK    4  A    between atoms: C10_19  and  C11_22 
REMARK    5  A    between atoms: C11_22  and  O4_23 
REMARK    6  A    between atoms: C11_22  and  C12_25 
REMARK    7  A    between atoms: C12_25  and  O5_26 
REMARK    8  A    between atoms: C12_25  and  C13_28 
REMARK    9  A    between atoms: C13_28  and  O6_29 
REMARK   10  A    between atoms: O6_29  and  P1_30 
ROOT
HETATM    1  C1  UNL     1       7.892 -12.525   4.190  1.00  0.00     0.049 C 
HETATM    2  C2  UNL     1       8.920 -11.459   4.278  1.00  0.00    -0.054 A 
HETATM    3  C3  UNL     1       9.359 -10.805   3.147  1.00  0.00     0.039 A 
HETATM    4  C4  UNL     1      10.319  -9.805   3.201  1.00  0.00     0.060 A 
HETATM    5  N1  UNL     1      10.705  -9.197   2.066  1.00  0.00    -0.347 N 
ATOM      6  H1  UNL     1      10.293  -9.480   1.177  1.00  0.00     0.166 HD
HETATM    7  C5  UNL     1      11.625  -8.225   2.089  1.00  0.00     0.146 A 
HETATM    8  C6  UNL     1      12.061  -7.561   0.936  1.00  0.00     0.280 A 
HETATM    9  O1  UNL     1      11.562  -7.901  -0.152  1.00  0.00    -0.265 OA
HETATM   10  N2  UNL     1      12.998  -6.585   1.035  1.00  0.00    -0.273 N 
ATOM     11  H2  UNL     1      13.319  -6.099   0.197  1.00  0.00     0.173 HD
HETATM   12  C7  UNL     1      13.504  -6.257   2.237  1.00  0.00     0.328 A 
HETATM   13  O2  UNL     1      14.369  -5.343   2.259  1.00  0.00    -0.247 OA
HETATM   14  N3  UNL     1      13.108  -6.879   3.387  1.00  0.00    -0.292 N 
ATOM     15  H3  UNL     1      13.520  -6.596   4.275  1.00  0.00     0.172 HD
HETATM   16  C8  UNL     1      12.186  -7.853   3.371  1.00  0.00     0.145 A 
HETATM   17  N4  UNL     1      11.763  -8.500   4.500  1.00  0.00    -0.327 N 
HETATM   18  C14 UNL     1      10.838  -9.473   4.459  1.00  0.00     0.063 A 
HETATM   19  C15 UNL     1      10.403 -10.123   5.597  1.00  0.00     0.039 A 
HETATM   20  C16 UNL     1       9.445 -11.115   5.509  1.00  0.00    -0.054 A 
HETATM   21  C17 UNL     1       8.965 -11.826   6.721  1.00  0.00     0.049 C 
ENDROOT
BRANCH  17  22
HETATM   22  C9  UNL     1      12.354  -8.090   5.755  1.00  0.00     0.165 C 
BRANCH  22  23
HETATM   23  C10 UNL     1      13.731  -8.758   5.865  1.00  0.00     0.167 C 
BRANCH  23  24
HETATM   24  O3  UNL     1      13.682 -10.120   5.969  1.00  0.00    -0.391 OA
ATOM     25  H3  UNL     1      12.836 -10.495   5.751  1.00  0.00     0.210 HD
ENDBRANCH  23  24
BRANCH  23  26
HETATM   26  C11 UNL     1      14.617  -8.142   6.849  1.00  0.00     0.179 C 
BRANCH  26  27
HETATM   27  O4  UNL     1      13.889  -7.733   7.970  1.00  0.00    -0.390 OA
ATOM     28  H4  UNL     1      14.405  -7.849   8.760  1.00  0.00     0.210 HD
ENDBRANCH  26  27
BRANCH  26  29
HETATM   29  C12 UNL     1      15.615  -7.130   6.496  1.00  0.00     0.173 C 
BRANCH  29  30
HETATM   30  O5  UNL     1      15.296  -6.774   5.132  1.00  0.00    -0.391 OA
ATOM     31  H5  UNL     1      15.747  -5.949   4.994  1.00  0.00     0.210 HD
ENDBRANCH  29  30
BRANCH  29  32
HETATM   32  C13 UNL     1      17.051  -7.624   6.357  1.00  0.00     0.217 C 
BRANCH  32  33
HETATM   33  O6  UNL     1      17.438  -7.514   4.988  1.00  0.00    -0.280 OA
BRANCH  33  34
HETATM   34  P1  UNL     1      18.657  -8.621   4.645  1.00  0.00     0.422 P 
HETATM   35  O7  UNL     1      19.858  -7.877   4.163  1.00  0.00    -0.617 OA
HETATM   36  O8  UNL     1      18.190  -9.730   3.462  1.00  0.00    -0.617 OA
HETATM   37  O9  UNL     1      19.107  -9.498   6.029  1.00  0.00    -0.617 OA
ENDBRANCH  33  34
ENDBRANCH  32  33
ENDBRANCH  29  32
ENDBRANCH  26  29
ENDBRANCH  23  26
ENDBRANCH  22  23
ENDBRANCH  17  22
TORSDOF 10
ENDMDL
