MODEL 1
REMARK VINA RESULT: -10.581839224      0.000      0.000
REMARK  10 active torsions:
REMARK  status: ('A' for Active; 'I' for Inactive)
REMARK    1  A    between atoms: N4_17  and  C9_18 
REMARK    2  A    between atoms: C9_18  and  C10_19 
REMARK    3  A    between atoms: C10_19  and  O3_20 
REMARK    4  A    between atoms: C10_19  and  C11_22 
REMARK    5  A    between atoms: C11_22  and  O4_23 
REMARK    6  A    between atoms: C11_22  and  C12_25 
REMARK    7  A    between atoms: C12_25  and  O5_26 
REMARK    8  A    between atoms: C12_25  and  C13_28 
REMARK    9  A    between atoms: C13_28  and  O6_29 
REMARK   10  A    between atoms: O6_29  and  P1_30 
ROOT
HETATM    1  C1  UNL     1      10.863  -8.460  -1.485  1.00  0.00     0.049 C 
HETATM    2  C2  UNL     1      10.875  -8.659  -0.016  1.00  0.00    -0.054 A 
HETATM    3  C3  UNL     1      10.106  -9.640   0.572  1.00  0.00     0.039 A 
HETATM    4  C4  UNL     1      10.098  -9.847   1.944  1.00  0.00     0.060 A 
HETATM    5  N1  UNL     1       9.332 -10.824   2.461  1.00  0.00    -0.347 N 
ATOM      6  H1  UNL     1       8.762 -11.399   1.841  1.00  0.00     0.166 HD
HETATM    7  C5  UNL     1       9.310 -11.049   3.780  1.00  0.00     0.146 A 
HETATM    8  C6  UNL     1       8.530 -12.053   4.368  1.00  0.00     0.280 A 
HETATM    9  O1  UNL     1       7.832 -12.759   3.617  1.00  0.00    -0.265 OA
HETATM   10  N2  UNL     1       8.557 -12.224   5.713  1.00  0.00    -0.273 N 
ATOM     11  H2  UNL     1       7.990 -12.954   6.146  1.00  0.00     0.173 HD
HETATM   12  C7  UNL     1       9.330 -11.432   6.477  1.00  0.00     0.328 A 
HETATM   13  O2  UNL     1       9.309 -11.645   7.718  1.00  0.00    -0.247 OA
HETATM   14  N3  UNL     1      10.105 -10.442   5.946  1.00  0.00    -0.292 N 
ATOM     15  H3  UNL     1      10.675  -9.866   6.566  1.00  0.00     0.172 HD
HETATM   16  C8  UNL     1      10.133 -10.210   4.625  1.00  0.00     0.145 A 
HETATM   17  N4  UNL     1      10.896  -9.228   4.054  1.00  0.00    -0.327 N 
HETATM   18  C14 UNL     1      10.908  -9.016   2.728  1.00  0.00     0.063 A 
HETATM   19  C15 UNL     1      11.681  -8.030   2.147  1.00  0.00     0.039 A 
HETATM   20  C16 UNL     1      11.667  -7.850   0.777  1.00  0.00    -0.054 A 
HETATM   21  C17 UNL     1      12.491  -6.796   0.135  1.00  0.00     0.049 C 
ENDROOT
BRANCH  17  22
HETATM   22  C9  UNL     1      11.701  -8.419   4.943  1.00  0.00     0.165 C 
BRANCH  22  23
HETATM   23  C10 UNL     1      13.090  -9.066   5.035  1.00  0.00     0.167 C 
BRANCH  23  24
HETATM   24  O3  UNL     1      13.180 -10.061   5.968  1.00  0.00    -0.391 OA
ATOM     25  H3  UNL     1      13.434 -10.904   5.611  1.00  0.00     0.210 HD
ENDBRANCH  23  24
BRANCH  23  26
HETATM   26  C11 UNL     1      14.190  -8.107   5.115  1.00  0.00     0.179 C 
BRANCH  26  27
HETATM   27  O4  UNL     1      14.506  -7.622   3.843  1.00  0.00    -0.390 OA
ATOM     28  H4  UNL     1      15.435  -7.724   3.671  1.00  0.00     0.210 HD
ENDBRANCH  26  27
BRANCH  26  29
HETATM   29  C12 UNL     1      15.413  -8.363   5.878  1.00  0.00     0.173 C 
BRANCH  29  30
HETATM   30  O5  UNL     1      15.035  -8.122   7.251  1.00  0.00    -0.391 OA
ATOM     31  H5  UNL     1      15.651  -7.464   7.552  1.00  0.00     0.210 HD
ENDBRANCH  29  30
BRANCH  29  32
HETATM   32  C13 UNL     1      16.545  -7.358   5.689  1.00  0.00     0.217 C 
BRANCH  32  33
HETATM   33  O6  UNL     1      17.166  -7.605   4.428  1.00  0.00    -0.280 OA
BRANCH  33  34
HETATM   34  P1  UNL     1      18.485  -8.629   4.630  1.00  0.00     0.422 P 
HETATM   35  O7  UNL     1      19.724  -7.896   4.235  1.00  0.00    -0.617 OA
HETATM   36  O8  UNL     1      18.352 -10.024   3.689  1.00  0.00    -0.617 OA
HETATM   37  O9  UNL     1      18.656  -9.111   6.250  1.00  0.00    -0.617 OA
ENDBRANCH  33  34
ENDBRANCH  32  33
ENDBRANCH  29  32
ENDBRANCH  26  29
ENDBRANCH  23  26
ENDBRANCH  22  23
ENDBRANCH  17  22
TORSDOF 10
ENDMDL
