MODEL 2
REMARK VINA RESULT: -8.384340500      0.970      1.526
REMARK  5 active torsions:
REMARK  status: ('A' for Active; 'I' for Inactive)
REMARK    1  A    between atoms: C1_2  and  C2_4 
REMARK    2  A    between atoms: C6_8  and  O2_9 
REMARK    3  A    between atoms: O2_9  and  C7_10 
REMARK    4  A    between atoms: C7_10  and  C8_11 
REMARK    5  A    between atoms: C12_15  and  C13_16 
ROOT
HETATM    1  C2  UNL     1       4.297   4.577   1.166  1.00  0.00     0.099 A 
HETATM    2  C3  UNL     1       3.113   5.082   1.638  1.00  0.00     0.048 A 
HETATM    3  C4  UNL     1       3.220   6.450   1.644  1.00  0.00    -0.004 A 
HETATM    4  C5  UNL     1       2.368   7.462   2.006  1.00  0.00     0.050 A 
HETATM    5  C6  UNL     1       2.728   8.783   1.912  1.00  0.00     0.070 A 
HETATM    6  C15 UNL     1       3.994   9.086   1.435  1.00  0.00     0.039 A 
HETATM    7  C16 UNL     1       4.866   8.071   1.065  1.00  0.00     0.033 A 
HETATM    8  C17 UNL     1       4.489   6.738   1.166  1.00  0.00     0.043 A 
HETATM    9  N2  UNL     1       5.131   5.589   0.880  1.00  0.00    -0.351 N 
ATOM     10  H2  UNL     1       6.079   5.503   0.513  1.00  0.00     0.166 HD
ENDROOT
BRANCH   5  11
HETATM   11  O2  UNL     1       1.867   9.804   2.278  1.00  0.00    -0.347 OA
BRANCH  11  12
HETATM   12  C7  UNL     1       1.235   9.766   3.518  1.00  0.00     0.214 C 
BRANCH  12  13
HETATM   13  C8  UNL     1      -0.068   9.096   3.510  1.00  0.00    -0.033 A 
HETATM   14  C9  UNL     1      -0.862   9.228   2.388  1.00  0.00     0.009 A 
HETATM   15  C10 UNL     1      -2.093   8.637   2.294  1.00  0.00     0.002 A 
HETATM   16  C11 UNL     1      -2.543   7.888   3.355  1.00  0.00     0.018 A 
HETATM   17  C12 UNL     1      -1.781   7.732   4.494  1.00  0.00     0.041 A 
HETATM   18  C14 UNL     1      -0.538   8.342   4.562  1.00  0.00     0.027 A 
BRANCH  17  19
HETATM   19  C13 UNL     1      -2.296   6.930   5.598  1.00  0.00     0.209 C 
HETATM   20  O3  UNL     1      -2.882   5.858   5.336  1.00  0.00    -0.644 OA
HETATM   21  O4  UNL     1      -2.155   7.320   6.917  1.00  0.00    -0.644 OA
ENDBRANCH  17  19
ENDBRANCH  12  13
ENDBRANCH  11  12
ENDBRANCH   5  11
BRANCH   1  22
HETATM   22  C1  UNL     1       4.578   3.141   1.009  1.00  0.00     0.281 C 
HETATM   23  N1  UNL     1       4.518   2.554  -0.278  1.00  0.00    -0.056 NA
HETATM   24  O1  UNL     1       4.869   2.424   1.994  1.00  0.00    -0.269 OA
ENDBRANCH   1  22
TORSDOF 5
ENDMDL
