MODEL 4
REMARK VINA RESULT: -8.190802790      1.172      1.739
REMARK  5 active torsions:
REMARK  status: ('A' for Active; 'I' for Inactive)
REMARK    1  A    between atoms: C1_2  and  C2_4 
REMARK    2  A    between atoms: C6_8  and  O2_9 
REMARK    3  A    between atoms: O2_9  and  C7_10 
REMARK    4  A    between atoms: C7_10  and  C8_11 
REMARK    5  A    between atoms: C12_15  and  C13_16 
ROOT
HETATM    1  C2  UNL     1       4.489   4.246   0.626  1.00  0.00     0.099 A 
HETATM    2  C3  UNL     1       3.349   4.783   1.166  1.00  0.00     0.048 A 
HETATM    3  C4  UNL     1       3.555   6.132   1.310  1.00  0.00    -0.004 A 
HETATM    4  C5  UNL     1       2.784   7.160   1.787  1.00  0.00     0.050 A 
HETATM    5  C6  UNL     1       3.238   8.455   1.823  1.00  0.00     0.070 A 
HETATM    6  C15 UNL     1       4.519   8.714   1.359  1.00  0.00     0.039 A 
HETATM    7  C16 UNL     1       5.311   7.682   0.873  1.00  0.00     0.033 A 
HETATM    8  C17 UNL     1       4.838   6.376   0.843  1.00  0.00     0.043 A 
HETATM    9  N2  UNL     1       5.392   5.219   0.431  1.00  0.00    -0.351 N 
ATOM     10  H2  UNL     1       6.328   5.104   0.042  1.00  0.00     0.166 HD
ENDROOT
BRANCH   5  11
HETATM   11  O2  UNL     1       2.457   9.492   2.305  1.00  0.00    -0.347 OA
BRANCH  11  12
HETATM   12  C7  UNL     1       1.462  10.041   1.500  1.00  0.00     0.214 C 
BRANCH  12  13
HETATM   13  C8  UNL     1       0.125   9.487   1.734  1.00  0.00    -0.033 A 
HETATM   14  C9  UNL     1      -0.825   9.638   0.744  1.00  0.00     0.009 A 
HETATM   15  C10 UNL     1      -2.099   9.152   0.878  1.00  0.00     0.002 A 
HETATM   16  C11 UNL     1      -2.431   8.495   2.038  1.00  0.00     0.018 A 
HETATM   17  C12 UNL     1      -1.510   8.323   3.051  1.00  0.00     0.041 A 
HETATM   18  C14 UNL     1      -0.227   8.825   2.888  1.00  0.00     0.027 A 
BRANCH  17  19
HETATM   19  C13 UNL     1      -1.903   7.619   4.267  1.00  0.00     0.209 C 
HETATM   20  O3  UNL     1      -1.479   8.041   5.364  1.00  0.00    -0.644 OA
HETATM   21  O4  UNL     1      -2.724   6.508   4.239  1.00  0.00    -0.644 OA
ENDBRANCH  17  19
ENDBRANCH  12  13
ENDBRANCH  11  12
ENDBRANCH   5  11
BRANCH   1  22
HETATM   22  C1  UNL     1       4.663   2.817   0.319  1.00  0.00     0.281 C 
HETATM   23  N1  UNL     1       4.839   2.408  -1.025  1.00  0.00    -0.056 NA
HETATM   24  O1  UNL     1       4.658   1.952   1.225  1.00  0.00    -0.269 OA
ENDBRANCH   1  22
TORSDOF 5
ENDMDL
