MODEL 1
REMARK VINA RESULT: -8.507421276      0.000      0.000
REMARK  5 active torsions:
REMARK  status: ('A' for Active; 'I' for Inactive)
REMARK    1  A    between atoms: C1_2  and  C2_4 
REMARK    2  A    between atoms: C6_8  and  O2_9 
REMARK    3  A    between atoms: O2_9  and  C7_10 
REMARK    4  A    between atoms: C7_10  and  C8_11 
REMARK    5  A    between atoms: C12_15  and  C13_16 
ROOT
HETATM    1  C2  UNL     1       4.489   4.270   0.614  1.00  0.00     0.099 A 
HETATM    2  C3  UNL     1       3.345   4.797   1.156  1.00  0.00     0.048 A 
HETATM    3  C4  UNL     1       3.548   6.144   1.321  1.00  0.00    -0.004 A 
HETATM    4  C5  UNL     1       2.771   7.163   1.809  1.00  0.00     0.050 A 
HETATM    5  C6  UNL     1       3.223   8.458   1.867  1.00  0.00     0.070 A 
HETATM    6  C15 UNL     1       4.505   8.726   1.413  1.00  0.00     0.039 A 
HETATM    7  C16 UNL     1       5.302   7.703   0.917  1.00  0.00     0.033 A 
HETATM    8  C17 UNL     1       4.833   6.397   0.865  1.00  0.00     0.043 A 
HETATM    9  N2  UNL     1       5.392   5.248   0.439  1.00  0.00    -0.351 N 
ATOM     10  H2  UNL     1       6.330   5.141   0.053  1.00  0.00     0.166 HD
ENDROOT
BRANCH   5  11
HETATM   11  O2  UNL     1       2.437   9.486   2.359  1.00  0.00    -0.347 OA
BRANCH  11  12
HETATM   12  C7  UNL     1       1.058   9.459   2.163  1.00  0.00     0.214 C 
BRANCH  12  13
HETATM   13  C8  UNL     1       0.276   9.378   3.400  1.00  0.00    -0.033 A 
HETATM   14  C9  UNL     1       0.372  10.418   4.302  1.00  0.00     0.009 A 
HETATM   15  C10 UNL     1      -0.323  10.426   5.481  1.00  0.00     0.002 A 
HETATM   16  C11 UNL     1      -1.140   9.358   5.767  1.00  0.00     0.018 A 
HETATM   17  C12 UNL     1      -1.263   8.298   4.893  1.00  0.00     0.041 A 
HETATM   18  C14 UNL     1      -0.548   8.318   3.705  1.00  0.00     0.027 A 
BRANCH  17  19
HETATM   19  C13 UNL     1      -2.140   7.184   5.234  1.00  0.00     0.209 C 
HETATM   20  O3  UNL     1      -2.297   6.894   6.440  1.00  0.00    -0.644 OA
HETATM   21  O4  UNL     1      -2.798   6.446   4.269  1.00  0.00    -0.644 OA
ENDBRANCH  17  19
ENDBRANCH  12  13
ENDBRANCH  11  12
ENDBRANCH   5  11
BRANCH   1  22
HETATM   22  C1  UNL     1       4.668   2.847   0.287  1.00  0.00     0.281 C 
HETATM   23  N1  UNL     1       4.764   2.448  -1.068  1.00  0.00    -0.056 NA
HETATM   24  O1  UNL     1       4.737   1.977   1.186  1.00  0.00    -0.269 OA
ENDBRANCH   1  22
TORSDOF 5
ENDMDL
