MODEL 5
REMARK VINA RESULT: -8.032940370      3.531      6.409
REMARK  6 active torsions:
REMARK  status: ('A' for Active; 'I' for Inactive)
REMARK    1  A    between atoms: C2_2  and  N1_3 
REMARK    2  A    between atoms: C2_2  and  C18_30 
REMARK       I    between atoms: N1_3  and  C3_5 
REMARK    3  A    between atoms: C3_5  and  C4_7 
REMARK       I    between atoms: N2_12  and  C9_13 
REMARK    4  A    between atoms: C9_13  and  C10_15 
REMARK    5  A    between atoms: C10_15  and  N3_16 
REMARK    6  A    between atoms: C11_19  and  C12_20 
ROOT
HETATM    1  C4  UNL     1      -0.231 -11.625   8.967  1.00  0.00     0.180 C 
HETATM    2  C5  UNL     1       0.854 -12.648   9.351  1.00  0.00     0.042 C 
HETATM    3  C6  UNL     1       1.575 -11.963  10.497  1.00  0.00     0.013 A 
HETATM    4  C7  UNL     1       2.651 -11.020  10.142  1.00  0.00     0.032 A 
HETATM    5  C8  UNL     1       1.273 -10.532  10.429  1.00  0.00     0.092 A 
HETATM    6  N2  UNL     1       0.329 -10.356   9.333  1.00  0.00    -0.332 N 
HETATM    7  C9  UNL     1       0.028  -9.106   8.735  1.00  0.00     0.240 C 
HETATM    8  O2  UNL     1       0.560  -8.054   9.141  1.00  0.00    -0.271 OA
ENDROOT
BRANCH   1   9
HETATM    9  C3  UNL     1      -1.461 -11.911   9.762  1.00  0.00     0.241 C 
HETATM   10  N1  UNL     1      -2.300 -13.001   9.509  1.00  0.00    -0.351 N 
ATOM     11  H1  UNL     1      -2.069 -13.648   8.755  1.00  0.00     0.163 HD
HETATM   12  O1  UNL     1      -1.762 -11.109  10.717  1.00  0.00    -0.271 OA
BRANCH  10  13
HETATM   13  C2  UNL     1      -3.497 -13.229  10.305  1.00  0.00     0.116 C 
HETATM   14  C1  UNL     1      -3.382 -14.543  11.012  1.00  0.00     0.037 C 
BRANCH  13  15
HETATM   15  C18 UNL     1      -4.710 -13.263   9.407  1.00  0.00     0.004 A 
HETATM   16  C19 UNL     1      -5.530 -14.380   9.342  1.00  0.00     0.012 A 
HETATM   17  C20 UNL     1      -6.634 -14.409   8.510  1.00  0.00     0.002 A 
HETATM   18  C21 UNL     1      -6.942 -13.322   7.723  1.00  0.00     0.027 A 
HETATM   19  C22 UNL     1      -6.161 -12.201   7.754  1.00  0.00     0.073 A 
HETATM   20 CL1  UNL     1      -6.544 -10.817   6.754  1.00  0.00    -0.081 Cl
HETATM   21  C23 UNL     1      -5.050 -12.189   8.601  1.00  0.00     0.146 A 
HETATM   22  F1  UNL     1      -4.277 -11.081   8.636  1.00  0.00    -0.204 F 
ENDBRANCH  13  15
ENDBRANCH  10  13
ENDBRANCH   1   9
BRANCH   7  23
HETATM   23  C10 UNL     1      -0.938  -9.053   7.614  1.00  0.00     0.252 C 
BRANCH  23  24
HETATM   24  N3  UNL     1      -0.658  -7.833   6.856  1.00  0.00    -0.281 N 
HETATM   25  N4  UNL     1      -0.929  -6.598   7.191  1.00  0.00    -0.292 N 
HETATM   26  C11 UNL     1      -0.525  -5.732   6.233  1.00  0.00     0.126 A 
ATOM     27  H4  UNL     1      -1.385  -6.324   8.061  1.00  0.00     0.187 HD
HETATM   28  C13 UNL     1       0.036  -6.537   5.241  1.00  0.00     0.028 A 
HETATM   29  C14 UNL     1       0.609  -6.249   4.038  1.00  0.00     0.033 A 
HETATM   30  C17 UNL     1      -0.057  -7.851   5.650  1.00  0.00     0.079 A 
HETATM   31  C15 UNL     1       1.087  -7.293   3.256  1.00  0.00     0.088 A 
HETATM   32  N6  UNL     1       0.972  -8.569   3.702  1.00  0.00    -0.373 N 
HETATM   33  C16 UNL     1       0.415  -8.884   4.878  1.00  0.00     0.119 A 
ATOM     34  H6  UNL     1       1.326  -9.323   3.114  1.00  0.00     0.164 HD
BRANCH  26  35
HETATM   35  C12 UNL     1      -0.640  -4.287   6.195  1.00  0.00     0.283 C 
HETATM   36  N5  UNL     1       0.012  -3.460   7.116  1.00  0.00    -0.056 NA
HETATM   37  O3  UNL     1      -1.356  -3.736   5.301  1.00  0.00    -0.269 OA
ENDBRANCH  26  35
ENDBRANCH  23  24
ENDBRANCH   7  23
TORSDOF 6
ENDMDL
