MODEL 2
REMARK VINA RESULT: -8.189605130      4.120      7.203
REMARK  6 active torsions:
REMARK  status: ('A' for Active; 'I' for Inactive)
REMARK    1  A    between atoms: C2_2  and  N1_3 
REMARK    2  A    between atoms: C2_2  and  C18_30 
REMARK       I    between atoms: N1_3  and  C3_5 
REMARK    3  A    between atoms: C3_5  and  C4_7 
REMARK       I    between atoms: N2_12  and  C9_13 
REMARK    4  A    between atoms: C9_13  and  C10_15 
REMARK    5  A    between atoms: C10_15  and  N3_16 
REMARK    6  A    between atoms: C11_19  and  C12_20 
ROOT
HETATM    1  C4  UNL     1      -1.982 -11.734   8.486  1.00  0.00     0.180 C 
HETATM    2  C5  UNL     1      -1.352 -12.917   9.245  1.00  0.00     0.042 C 
HETATM    3  C6  UNL     1      -0.886 -12.278  10.541  1.00  0.00     0.013 A 
HETATM    4  C7  UNL     1       0.440 -11.634  10.531  1.00  0.00     0.032 A 
HETATM    5  C8  UNL     1      -0.800 -10.833  10.324  1.00  0.00     0.092 A 
HETATM    6  N2  UNL     1      -1.279 -10.582   8.972  1.00  0.00    -0.332 N 
HETATM    7  C9  UNL     1      -1.068  -9.372   8.264  1.00  0.00     0.240 C 
HETATM    8  O2  UNL     1      -0.455  -8.420   8.785  1.00  0.00    -0.271 OA
ENDROOT
BRANCH   1   9
HETATM    9  C3  UNL     1      -3.431 -11.659   8.836  1.00  0.00     0.241 C 
HETATM   10  N1  UNL     1      -4.327 -12.711   8.622  1.00  0.00    -0.351 N 
ATOM     11  H1  UNL     1      -3.989 -13.584   8.216  1.00  0.00     0.163 HD
HETATM   12  O1  UNL     1      -3.870 -10.569   9.352  1.00  0.00    -0.271 OA
BRANCH  10  13
HETATM   13  C2  UNL     1      -5.734 -12.581   8.968  1.00  0.00     0.116 C 
HETATM   14  C1  UNL     1      -6.111 -13.661   9.934  1.00  0.00     0.037 C 
BRANCH  13  15
HETATM   15  C18 UNL     1      -6.582 -12.722   7.726  1.00  0.00     0.004 A 
HETATM   16  C19 UNL     1      -7.226 -13.912   7.421  1.00  0.00     0.012 A 
HETATM   17  C20 UNL     1      -7.992 -14.037   6.277  1.00  0.00     0.002 A 
HETATM   18  C21 UNL     1      -8.132 -12.974   5.412  1.00  0.00     0.027 A 
HETATM   19  C22 UNL     1      -7.514 -11.784   5.673  1.00  0.00     0.073 A 
HETATM   20 CL1  UNL     1      -7.683 -10.431   4.576  1.00  0.00    -0.081 Cl
HETATM   21  C23 UNL     1      -6.744 -11.675   6.834  1.00  0.00     0.146 A 
HETATM   22  F1  UNL     1      -6.134 -10.498   7.095  1.00  0.00    -0.204 F 
ENDBRANCH  13  15
ENDBRANCH  10  13
ENDBRANCH   1   9
BRANCH   7  23
HETATM   23  C10 UNL     1      -1.589  -9.240   6.883  1.00  0.00     0.252 C 
BRANCH  23  24
HETATM   24  N3  UNL     1      -1.082  -7.976   6.347  1.00  0.00    -0.281 N 
HETATM   25  N4  UNL     1      -1.372  -6.763   6.739  1.00  0.00    -0.292 N 
HETATM   26  C11 UNL     1      -0.713  -5.840   6.000  1.00  0.00     0.126 A 
ATOM     27  H4  UNL     1      -2.012  -6.540   7.501  1.00  0.00     0.187 HD
HETATM   28  C13 UNL     1       0.035  -6.585   5.087  1.00  0.00     0.028 A 
HETATM   29  C14 UNL     1       0.892  -6.225   4.090  1.00  0.00     0.033 A 
HETATM   30  C17 UNL     1      -0.211  -7.922   5.321  1.00  0.00     0.079 A 
HETATM   31  C15 UNL     1       1.498  -7.223   3.335  1.00  0.00     0.088 A 
HETATM   32  N6  UNL     1       1.224  -8.523   3.603  1.00  0.00    -0.373 N 
HETATM   33  C16 UNL     1       0.387  -8.909   4.576  1.00  0.00     0.119 A 
ATOM     34  H6  UNL     1       1.676  -9.241   3.038  1.00  0.00     0.164 HD
BRANCH  26  35
HETATM   35  C12 UNL     1      -0.753  -4.393   6.090  1.00  0.00     0.283 C 
HETATM   36  N5  UNL     1      -0.080  -3.688   7.093  1.00  0.00    -0.056 NA
HETATM   37  O3  UNL     1      -1.419  -3.728   5.236  1.00  0.00    -0.269 OA
ENDBRANCH  26  35
ENDBRANCH  23  24
ENDBRANCH   7  23
TORSDOF 6
ENDMDL
