MODEL 13
REMARK VINA RESULT: -7.304667960      1.870      3.076
REMARK  6 active torsions:
REMARK  status: ('A' for Active; 'I' for Inactive)
REMARK    1  A    between atoms: C2_2  and  N1_3 
REMARK    2  A    between atoms: C2_2  and  C18_30 
REMARK       I    between atoms: N1_3  and  C3_5 
REMARK    3  A    between atoms: C3_5  and  C4_7 
REMARK       I    between atoms: N2_12  and  C9_13 
REMARK    4  A    between atoms: C9_13  and  C10_15 
REMARK    5  A    between atoms: C10_15  and  N3_16 
REMARK    6  A    between atoms: C11_19  and  C12_20 
ROOT
HETATM    1  C4  UNL     1       0.168  -9.852   8.913  1.00  0.00     0.180 C 
HETATM    2  C5  UNL     1       0.048  -8.908  10.123  1.00  0.00     0.042 C 
HETATM    3  C6  UNL     1      -1.196  -9.417  10.828  1.00  0.00     0.013 A 
HETATM    4  C7  UNL     1      -2.493  -8.903  10.353  1.00  0.00     0.032 A 
HETATM    5  C8  UNL     1      -1.966 -10.209   9.867  1.00  0.00     0.092 A 
HETATM    6  N2  UNL     1      -1.180 -10.258   8.641  1.00  0.00    -0.332 N 
HETATM    7  C9  UNL     1      -1.696 -10.652   7.381  1.00  0.00     0.240 C 
HETATM    8  O2  UNL     1      -2.886 -11.004   7.254  1.00  0.00    -0.271 OA
ENDROOT
BRANCH   1   9
HETATM    9  C3  UNL     1       1.007 -11.023   9.302  1.00  0.00     0.241 C 
HETATM   10  N1  UNL     1       1.863 -11.019  10.408  1.00  0.00    -0.351 N 
ATOM     11  H1  UNL     1       1.922 -10.187  10.994  1.00  0.00     0.163 HD
HETATM   12  O1  UNL     1       0.940 -12.079   8.576  1.00  0.00    -0.271 OA
BRANCH  10  13
HETATM   13  C2  UNL     1       2.671 -12.184  10.736  1.00  0.00     0.116 C 
HETATM   14  C1  UNL     1       2.723 -12.352  12.222  1.00  0.00     0.037 C 
BRANCH  13  15
HETATM   15  C18 UNL     1       4.077 -11.994  10.219  1.00  0.00     0.004 A 
HETATM   16  C19 UNL     1       4.824 -13.062   9.744  1.00  0.00     0.012 A 
HETATM   17  C20 UNL     1       6.115 -12.882   9.282  1.00  0.00     0.002 A 
HETATM   18  C21 UNL     1       6.688 -11.630   9.283  1.00  0.00     0.027 A 
HETATM   19  C22 UNL     1       5.988 -10.550   9.743  1.00  0.00     0.073 A 
HETATM   20 CL1  UNL     1       6.712  -8.956   9.752  1.00  0.00    -0.081 Cl
HETATM   21  C23 UNL     1       4.686 -10.749  10.206  1.00  0.00     0.146 A 
HETATM   22  F1  UNL     1       3.991  -9.682  10.659  1.00  0.00    -0.204 F 
ENDBRANCH  13  15
ENDBRANCH  10  13
ENDBRANCH   1   9
BRANCH   7  23
HETATM   23  C10 UNL     1      -0.804 -10.645   6.198  1.00  0.00     0.252 C 
BRANCH  23  24
HETATM   24  N3  UNL     1      -0.485  -9.248   5.902  1.00  0.00    -0.281 N 
HETATM   25  N4  UNL     1      -0.862  -8.181   6.557  1.00  0.00    -0.292 N 
HETATM   26  C11 UNL     1      -0.376  -7.057   5.981  1.00  0.00     0.126 A 
ATOM     27  H4  UNL     1      -1.446  -8.194   7.393  1.00  0.00     0.187 HD
HETATM   28  C13 UNL     1       0.355  -7.509   4.882  1.00  0.00     0.028 A 
HETATM   29  C14 UNL     1       1.072  -6.857   3.923  1.00  0.00     0.033 A 
HETATM   30  C17 UNL     1       0.274  -8.885   4.849  1.00  0.00     0.079 A 
HETATM   31  C15 UNL     1       1.704  -7.603   2.936  1.00  0.00     0.088 A 
HETATM   32  N6  UNL     1       1.594  -8.954   2.946  1.00  0.00    -0.373 N 
HETATM   33  C16 UNL     1       0.898  -9.624   3.874  1.00  0.00     0.119 A 
ATOM     34  H6  UNL     1       2.063  -9.485   2.213  1.00  0.00     0.164 HD
BRANCH  26  35
HETATM   35  C12 UNL     1      -0.558  -5.673   6.374  1.00  0.00     0.283 C 
HETATM   36  N5  UNL     1      -1.293  -4.767   5.602  1.00  0.00    -0.056 NA
HETATM   37  O3  UNL     1      -0.038  -5.252   7.455  1.00  0.00    -0.269 OA
ENDBRANCH  26  35
ENDBRANCH  23  24
ENDBRANCH   7  23
TORSDOF 6
ENDMDL
