MODEL 7
REMARK VINA RESULT: -7.762713305      3.422      6.088
REMARK  6 active torsions:
REMARK  status: ('A' for Active; 'I' for Inactive)
REMARK    1  A    between atoms: C2_2  and  N1_3 
REMARK    2  A    between atoms: C2_2  and  C18_30 
REMARK       I    between atoms: N1_3  and  C3_5 
REMARK    3  A    between atoms: C3_5  and  C4_7 
REMARK       I    between atoms: N2_12  and  C9_13 
REMARK    4  A    between atoms: C9_13  and  C10_15 
REMARK    5  A    between atoms: C10_15  and  N3_16 
REMARK    6  A    between atoms: C11_19  and  C12_20 
ROOT
HETATM    1  C4  UNL     1      -0.571 -11.597   8.636  1.00  0.00     0.180 C 
HETATM    2  C5  UNL     1       0.477 -12.679   8.953  1.00  0.00     0.042 C 
HETATM    3  C6  UNL     1       1.269 -12.060  10.090  1.00  0.00     0.013 A 
HETATM    4  C7  UNL     1       2.375 -11.158   9.722  1.00  0.00     0.032 A 
HETATM    5  C8  UNL     1       1.032 -10.616  10.071  1.00  0.00     0.092 A 
HETATM    6  N2  UNL     1       0.060 -10.366   9.015  1.00  0.00    -0.332 N 
HETATM    7  C9  UNL     1      -0.204  -9.087   8.462  1.00  0.00     0.240 C 
HETATM    8  O2  UNL     1       0.391  -8.073   8.876  1.00  0.00    -0.271 OA
ENDROOT
BRANCH   1   9
HETATM    9  C3  UNL     1      -1.785 -11.849   9.466  1.00  0.00     0.241 C 
HETATM   10  N1  UNL     1      -2.657 -12.920   9.243  1.00  0.00    -0.351 N 
ATOM     11  H1  UNL     1      -2.464 -13.576   8.486  1.00  0.00     0.163 HD
HETATM   12  O1  UNL     1      -2.039 -11.035  10.425  1.00  0.00    -0.271 OA
BRANCH  10  13
HETATM   13  C2  UNL     1      -3.836 -13.114  10.074  1.00  0.00     0.116 C 
HETATM   14  C1  UNL     1      -3.713 -14.406  10.819  1.00  0.00     0.037 C 
BRANCH  13  15
HETATM   15  C18 UNL     1      -5.070 -13.168   9.206  1.00  0.00     0.004 A 
HETATM   16  C19 UNL     1      -5.908 -14.274   9.209  1.00  0.00     0.012 A 
HETATM   17  C20 UNL     1      -7.031 -14.321   8.403  1.00  0.00     0.002 A 
HETATM   18  C21 UNL     1      -7.342 -13.264   7.578  1.00  0.00     0.027 A 
HETATM   19  C22 UNL     1      -6.544 -12.156   7.542  1.00  0.00     0.073 A 
HETATM   20 CL1  UNL     1      -6.930 -10.810   6.491  1.00  0.00    -0.081 Cl
HETATM   21  C23 UNL     1      -5.413 -12.124   8.362  1.00  0.00     0.146 A 
HETATM   22  F1  UNL     1      -4.623 -11.028   8.331  1.00  0.00    -0.204 F 
ENDBRANCH  13  15
ENDBRANCH  10  13
ENDBRANCH   1   9
BRANCH   7  23
HETATM   23  C10 UNL     1      -1.205  -8.959   7.377  1.00  0.00     0.252 C 
BRANCH  23  24
HETATM   24  N3  UNL     1      -0.539  -8.308   6.248  1.00  0.00    -0.281 N 
HETATM   25  N4  UNL     1       0.195  -8.862   5.319  1.00  0.00    -0.292 N 
HETATM   26  C11 UNL     1       0.650  -7.939   4.440  1.00  0.00     0.126 A 
ATOM     27  H4  UNL     1       0.400  -9.859   5.265  1.00  0.00     0.187 HD
HETATM   28  C13 UNL     1       0.131  -6.727   4.899  1.00  0.00     0.028 A 
HETATM   29  C14 UNL     1       0.238  -5.448   4.438  1.00  0.00     0.033 A 
HETATM   30  C17 UNL     1      -0.611  -6.979   6.033  1.00  0.00     0.079 A 
HETATM   31  C15 UNL     1      -0.409  -4.431   5.129  1.00  0.00     0.088 A 
HETATM   32  N6  UNL     1      -1.127  -4.730   6.240  1.00  0.00    -0.373 N 
HETATM   33  C16 UNL     1      -1.251  -5.975   6.717  1.00  0.00     0.119 A 
ATOM     34  H6  UNL     1      -1.593  -3.971   6.735  1.00  0.00     0.164 HD
BRANCH  26  35
HETATM   35  C12 UNL     1       1.497  -8.119   3.277  1.00  0.00     0.283 C 
HETATM   36  N5  UNL     1       1.080  -8.838   2.152  1.00  0.00    -0.056 NA
HETATM   37  O3  UNL     1       2.663  -7.612   3.264  1.00  0.00    -0.269 OA
ENDBRANCH  26  35
ENDBRANCH  23  24
ENDBRANCH   7  23
TORSDOF 6
ENDMDL
