MODEL 3
REMARK VINA RESULT: -6.151711824      1.592      2.974
REMARK  6 active torsions:
REMARK  status: ('A' for Active; 'I' for Inactive)
REMARK    1  A    between atoms: C2_2  and  N1_4 
REMARK    2  A    between atoms: N1_4  and  C3_6 
REMARK    3  A    between atoms: C5_9  and  C6_10 
REMARK    4  A    between atoms: C6_10  and  O2_11 
REMARK    5  A    between atoms: C7_13  and  O3_14 
REMARK    6  A    between atoms: C8_16  and  O4_17 
ROOT
HETATM    1  C3  UNL     1      -5.430  67.616  10.239  1.00  0.00     0.137 C 
HETATM    2  C4  UNL     1      -5.033  68.664   9.170  1.00  0.00     0.196 C 
HETATM    3  O1  UNL     1      -6.007  68.670   8.168  1.00  0.00    -0.379 OA
HETATM    4  C5  UNL     1      -5.976  67.484   7.475  1.00  0.00     0.176 C 
HETATM    5  C7  UNL     1      -6.453  66.392   8.424  1.00  0.00     0.180 C 
HETATM    6  C8  UNL     1      -5.354  66.283   9.480  1.00  0.00     0.174 C 
ENDROOT
BRANCH   1   7
HETATM    7  N1  UNL     1      -4.521  67.698  11.323  1.00  0.00    -0.375 N 
ATOM      8  H1  UNL     1      -3.665  67.146  11.298  1.00  0.00     0.160 HD
BRANCH   7   9
HETATM    9  C2  UNL     1      -4.777  68.527  12.437  1.00  0.00     0.070 C 
HETATM   10  C1  UNL     1      -5.709  68.038  13.522  1.00  0.00     0.081 C 
HETATM   11  S1  UNL     1      -4.116  70.000  12.671  1.00  0.00    -0.066 SA
ENDBRANCH   7   9
ENDBRANCH   1   7
BRANCH   6  12
HETATM   12  O4  UNL     1      -5.443  65.179  10.263  1.00  0.00    -0.391 OA
ATOM     13  H4  UNL     1      -5.164  64.373   9.844  1.00  0.00     0.210 HD
ENDBRANCH   6  12
BRANCH   5  14
HETATM   14  O3  UNL     1      -6.683  65.194   7.781  1.00  0.00    -0.390 OA
ATOM     15  H3  UNL     1      -5.905  64.650   7.734  1.00  0.00     0.210 HD
ENDBRANCH   5  14
BRANCH   4  16
HETATM   16  C6  UNL     1      -6.746  67.488   6.202  1.00  0.00     0.198 C 
BRANCH  16  17
HETATM   17  O2  UNL     1      -6.389  68.517   5.363  1.00  0.00    -0.398 OA
ATOM     18  H2  UNL     1      -5.461  68.720   5.403  1.00  0.00     0.209 HD
ENDBRANCH  16  17
ENDBRANCH   4  16
TORSDOF 6
ENDMDL
