MODEL 20
REMARK VINA RESULT: -5.084048877      3.007      4.787
REMARK  6 active torsions:
REMARK  status: ('A' for Active; 'I' for Inactive)
REMARK    1  A    between atoms: C2_2  and  N1_4 
REMARK    2  A    between atoms: N1_4  and  C3_6 
REMARK    3  A    between atoms: C5_9  and  C6_10 
REMARK    4  A    between atoms: C6_10  and  O2_11 
REMARK    5  A    between atoms: C7_13  and  O3_14 
REMARK    6  A    between atoms: C8_16  and  O4_17 
ROOT
HETATM    1  C3  UNL     1      -6.368  65.976   9.277  1.00  0.00     0.137 C 
HETATM    2  C4  UNL     1      -5.100  65.115   9.501  1.00  0.00     0.196 C 
HETATM    3  O1  UNL     1      -4.159  65.881  10.193  1.00  0.00    -0.379 OA
HETATM    4  C5  UNL     1      -3.708  66.907   9.397  1.00  0.00     0.176 C 
HETATM    5  C7  UNL     1      -4.871  67.871   9.200  1.00  0.00     0.180 C 
HETATM    6  C8  UNL     1      -5.881  67.099   8.350  1.00  0.00     0.174 C 
ENDROOT
BRANCH   1   7
HETATM    7  N1  UNL     1      -7.376  65.166   8.697  1.00  0.00    -0.375 N 
ATOM      8  H1  UNL     1      -8.290  65.111   9.145  1.00  0.00     0.160 HD
BRANCH   7   9
HETATM    9  C2  UNL     1      -7.142  64.435   7.512  1.00  0.00     0.070 C 
HETATM   10  C1  UNL     1      -6.832  62.959   7.605  1.00  0.00     0.081 C 
HETATM   11  S1  UNL     1      -7.201  65.062   6.006  1.00  0.00    -0.066 SA
ENDBRANCH   7   9
ENDBRANCH   1   7
BRANCH   6  12
HETATM   12  O4  UNL     1      -6.866  67.868   7.824  1.00  0.00    -0.391 OA
ATOM     13  H4  UNL     1      -6.914  68.749   8.178  1.00  0.00     0.210 HD
ENDBRANCH   6  12
BRANCH   5  14
HETATM   14  O3  UNL     1      -4.484  69.054   8.607  1.00  0.00    -0.390 OA
ATOM     15  H3  UNL     1      -4.312  68.957   7.678  1.00  0.00     0.210 HD
ENDBRANCH   5  14
BRANCH   4  16
HETATM   16  C6  UNL     1      -2.493  67.600   9.902  1.00  0.00     0.198 C 
BRANCH  16  17
HETATM   17  O2  UNL     1      -1.732  66.810  10.731  1.00  0.00    -0.398 OA
ATOM     18  H2  UNL     1      -0.971  66.442  10.296  1.00  0.00     0.209 HD
ENDBRANCH  16  17
ENDBRANCH   4  16
TORSDOF 6
ENDMDL
