MODEL 4
REMARK VINA RESULT: -5.923167734      1.260      2.234
REMARK  6 active torsions:
REMARK  status: ('A' for Active; 'I' for Inactive)
REMARK    1  A    between atoms: C2_2  and  N1_4 
REMARK    2  A    between atoms: N1_4  and  C3_6 
REMARK    3  A    between atoms: C5_9  and  C6_10 
REMARK    4  A    between atoms: C6_10  and  O2_11 
REMARK    5  A    between atoms: C7_13  and  O3_14 
REMARK    6  A    between atoms: C8_16  and  O4_17 
ROOT
HETATM    1  C3  UNL     1      -4.584  68.012  10.374  1.00  0.00     0.137 C 
HETATM    2  C4  UNL     1      -5.315  68.573   9.129  1.00  0.00     0.196 C 
HETATM    3  O1  UNL     1      -6.307  67.665   8.749  1.00  0.00    -0.379 OA
HETATM    4  C5  UNL     1      -5.732  66.508   8.281  1.00  0.00     0.176 C 
HETATM    5  C7  UNL     1      -5.064  65.824   9.468  1.00  0.00     0.180 C 
HETATM    6  C8  UNL     1      -3.902  66.740   9.845  1.00  0.00     0.174 C 
ENDROOT
BRANCH   1   7
HETATM    7  N1  UNL     1      -3.669  68.985  10.847  1.00  0.00    -0.375 N 
ATOM      8  H1  UNL     1      -2.793  69.130  10.347  1.00  0.00     0.160 HD
BRANCH   7   9
HETATM    9  C2  UNL     1      -3.944  69.757  11.996  1.00  0.00     0.070 C 
HETATM   10  C1  UNL     1      -3.412  71.170  12.080  1.00  0.00     0.081 C 
HETATM   11  S1  UNL     1      -4.830  69.249  13.268  1.00  0.00    -0.066 SA
ENDBRANCH   7   9
ENDBRANCH   1   7
BRANCH   6  12
HETATM   12  O4  UNL     1      -3.007  66.181  10.698  1.00  0.00    -0.391 OA
ATOM     13  H4  UNL     1      -2.538  65.433  10.347  1.00  0.00     0.210 HD
ENDBRANCH   6  12
BRANCH   5  14
HETATM   14  O3  UNL     1      -4.647  64.543   9.174  1.00  0.00    -0.390 OA
ATOM     15  H3  UNL     1      -3.840  64.528   8.673  1.00  0.00     0.210 HD
ENDBRANCH   5  14
BRANCH   4  16
HETATM   16  C6  UNL     1      -6.663  65.595   7.566  1.00  0.00     0.198 C 
BRANCH  16  17
HETATM   17  O2  UNL     1      -7.501  64.912   8.416  1.00  0.00    -0.398 OA
ATOM     18  H2  UNL     1      -7.325  63.979   8.438  1.00  0.00     0.209 HD
ENDBRANCH  16  17
ENDBRANCH   4  16
TORSDOF 6
ENDMDL
