MODEL 7
REMARK VINA RESULT: -5.536625413      3.250      4.371
REMARK  6 active torsions:
REMARK  status: ('A' for Active; 'I' for Inactive)
REMARK    1  A    between atoms: C2_2  and  N1_4 
REMARK    2  A    between atoms: N1_4  and  C3_6 
REMARK    3  A    between atoms: C5_9  and  C6_10 
REMARK    4  A    between atoms: C6_10  and  O2_11 
REMARK    5  A    between atoms: C7_13  and  O3_14 
REMARK    6  A    between atoms: C8_16  and  O4_17 
ROOT
HETATM    1  C3  UNL     1      -3.978  69.818  13.486  1.00  0.00     0.137 C 
HETATM    2  C4  UNL     1      -5.227  68.975  13.843  1.00  0.00     0.196 C 
HETATM    3  O1  UNL     1      -5.163  67.767  13.146  1.00  0.00    -0.379 OA
HETATM    4  C5  UNL     1      -5.309  67.992  11.798  1.00  0.00     0.176 C 
HETATM    5  C7  UNL     1      -4.066  68.737  11.327  1.00  0.00     0.180 C 
HETATM    6  C8  UNL     1      -4.158  70.111  11.989  1.00  0.00     0.174 C 
ENDROOT
BRANCH   1   7
HETATM    7  N1  UNL     1      -3.965  70.985  14.290  1.00  0.00    -0.375 N 
ATOM      8  H1  UNL     1      -4.843  71.467  14.481  1.00  0.00     0.160 HD
BRANCH   7   9
HETATM    9  C2  UNL     1      -2.765  71.495  14.830  1.00  0.00     0.070 C 
HETATM   10  C1  UNL     1      -1.873  70.580  15.638  1.00  0.00     0.081 C 
HETATM   11  S1  UNL     1      -2.233  73.025  14.634  1.00  0.00    -0.066 SA
ENDBRANCH   7   9
ENDBRANCH   1   7
BRANCH   6  12
HETATM   12  O4  UNL     1      -3.299  71.030  11.484  1.00  0.00    -0.391 OA
ATOM     13  H4  UNL     1      -2.467  70.676  11.189  1.00  0.00     0.210 HD
ENDBRANCH   6  12
BRANCH   5  14
HETATM   14  O3  UNL     1      -3.988  68.822   9.953  1.00  0.00    -0.390 OA
ATOM     15  H3  UNL     1      -3.104  68.696   9.629  1.00  0.00     0.210 HD
ENDBRANCH   5  14
BRANCH   4  16
HETATM   16  C6  UNL     1      -5.565  66.771  10.987  1.00  0.00     0.198 C 
BRANCH  16  17
HETATM   17  O2  UNL     1      -6.303  67.026   9.856  1.00  0.00    -0.398 OA
ATOM     18  H2  UNL     1      -6.311  66.296   9.247  1.00  0.00     0.209 HD
ENDBRANCH  16  17
ENDBRANCH   4  16
TORSDOF 6
ENDMDL
