MODEL 2
REMARK VINA RESULT: -6.959452907      2.206      4.541
REMARK  6 active torsions:
REMARK  status: ('A' for Active; 'I' for Inactive)
REMARK       I    between atoms: C2_2  and  N1_4 
REMARK    1  A    between atoms: N1_4  and  C3_6 
REMARK    2  A    between atoms: C4_7  and  O2_8 
REMARK    3  A    between atoms: C5_11  and  C6_12 
REMARK    4  A    between atoms: C6_12  and  O4_13 
REMARK    5  A    between atoms: C7_15  and  O5_16 
REMARK    6  A    between atoms: C8_18  and  O6_19 
ROOT
HETATM    1  C3  UNL     1      -4.181  67.405  10.253  1.00  0.00     0.170 C 
HETATM    2  C4  UNL     1      -4.080  65.908  10.491  1.00  0.00     0.282 C 
HETATM    3  O3  UNL     1      -5.262  65.247  10.218  1.00  0.00    -0.349 OA
HETATM    4  C5  UNL     1      -5.730  65.394   8.945  1.00  0.00     0.179 C 
HETATM    5  C7  UNL     1      -5.080  66.524   8.180  1.00  0.00     0.180 C 
HETATM    6  C8  UNL     1      -5.121  67.733   9.126  1.00  0.00     0.177 C 
ENDROOT
BRANCH   1   7
HETATM    7  N1  UNL     1      -4.546  68.075  11.487  1.00  0.00    -0.349 N 
HETATM    8  C2  UNL     1      -3.625  68.648  12.382  1.00  0.00     0.214 C 
HETATM    9  C1  UNL     1      -3.995  69.334  13.645  1.00  0.00     0.117 C 
HETATM   10  O1  UNL     1      -2.400  68.580  12.102  1.00  0.00    -0.274 OA
ATOM     11  H1  UNL     1      -5.537  68.134  11.722  1.00  0.00     0.163 HD
ENDBRANCH   1   7
BRANCH   2  12
HETATM   12  O2  UNL     1      -2.982  65.359   9.825  1.00  0.00    -0.369 OA
ATOM     13  H2  UNL     1      -2.674  65.933   9.133  1.00  0.00     0.212 HD
ENDBRANCH   2  12
BRANCH   6  14
HETATM   14  O6  UNL     1      -4.816  68.898   8.464  1.00  0.00    -0.391 OA
ATOM     15  H6  UNL     1      -5.516  69.221   7.908  1.00  0.00     0.210 HD
ENDBRANCH   6  14
BRANCH   5  16
HETATM   16  O5  UNL     1      -5.781  66.766   7.019  1.00  0.00    -0.390 OA
ATOM     17  H5  UNL     1      -5.176  66.979   6.317  1.00  0.00     0.210 HD
ENDBRANCH   5  16
BRANCH   4  18
HETATM   18  C6  UNL     1      -5.699  64.096   8.161  1.00  0.00     0.198 C 
BRANCH  18  19
HETATM   19  O4  UNL     1      -6.519  64.153   7.061  1.00  0.00    -0.398 OA
ATOM     20  H4  UNL     1      -6.124  63.725   6.310  1.00  0.00     0.209 HD
ENDBRANCH  18  19
ENDBRANCH   4  18
TORSDOF 6
ENDMDL
