MODEL 1
REMARK VINA RESULT: -7.914751755      0.000      0.000
REMARK  6 active torsions:
REMARK  status: ('A' for Active; 'I' for Inactive)
REMARK       I    between atoms: C2_2  and  N1_4 
REMARK    1  A    between atoms: N1_4  and  C3_6 
REMARK    2  A    between atoms: C4_7  and  O2_8 
REMARK    3  A    between atoms: C5_11  and  C6_12 
REMARK    4  A    between atoms: C6_12  and  O4_13 
REMARK    5  A    between atoms: C7_15  and  O5_16 
REMARK    6  A    between atoms: C8_18  and  O6_19 
ROOT
HETATM    1  C3  UNL     1      -5.383  66.813   9.168  1.00  0.00     0.170 C 
HETATM    2  C4  UNL     1      -4.798  66.404  10.510  1.00  0.00     0.282 C 
HETATM    3  O3  UNL     1      -3.566  65.792  10.386  1.00  0.00    -0.349 OA
HETATM    4  C5  UNL     1      -2.605  66.537   9.768  1.00  0.00     0.179 C 
HETATM    5  C7  UNL     1      -3.145  67.734   9.020  1.00  0.00     0.180 C 
HETATM    6  C8  UNL     1      -4.315  67.198   8.183  1.00  0.00     0.177 C 
ENDROOT
BRANCH   1   7
HETATM    7  N1  UNL     1      -6.242  65.757   8.666  1.00  0.00    -0.349 N 
HETATM    8  C2  UNL     1      -5.795  64.473   8.306  1.00  0.00     0.214 C 
HETATM    9  C1  UNL     1      -6.670  63.391   7.792  1.00  0.00     0.117 C 
HETATM   10  O1  UNL     1      -4.568  64.214   8.424  1.00  0.00    -0.274 OA
ATOM     11  H1  UNL     1      -7.237  65.959   8.567  1.00  0.00     0.163 HD
ENDBRANCH   1   7
BRANCH   2  12
HETATM   12  O2  UNL     1      -4.787  67.474  11.408  1.00  0.00    -0.369 OA
ATOM     13  H2  UNL     1      -5.214  67.245  12.225  1.00  0.00     0.212 HD
ENDBRANCH   2  12
BRANCH   6  14
HETATM   14  O6  UNL     1      -4.723  68.116   7.245  1.00  0.00    -0.391 OA
ATOM     15  H6  UNL     1      -4.342  68.979   7.358  1.00  0.00     0.210 HD
ENDBRANCH   6  14
BRANCH   5  16
HETATM   16  O5  UNL     1      -2.158  68.272   8.224  1.00  0.00    -0.390 OA
ATOM     17  H5  UNL     1      -2.386  69.163   7.985  1.00  0.00     0.210 HD
ENDBRANCH   5  16
BRANCH   4  18
HETATM   18  C6  UNL     1      -1.478  66.924  10.706  1.00  0.00     0.198 C 
BRANCH  18  19
HETATM   19  O4  UNL     1      -0.754  65.827  11.103  1.00  0.00    -0.398 OA
ATOM     20  H4  UNL     1      -0.118  66.053  11.772  1.00  0.00     0.209 HD
ENDBRANCH  18  19
ENDBRANCH   4  18
TORSDOF 6
ENDMDL
