MODEL 6
REMARK VINA RESULT: -6.398965089      2.588      4.705
REMARK  6 active torsions:
REMARK  status: ('A' for Active; 'I' for Inactive)
REMARK       I    between atoms: C2_2  and  N1_4 
REMARK    1  A    between atoms: N1_4  and  C3_6 
REMARK    2  A    between atoms: C4_7  and  O2_8 
REMARK    3  A    between atoms: C5_11  and  C6_12 
REMARK    4  A    between atoms: C6_12  and  O4_13 
REMARK    5  A    between atoms: C7_15  and  O5_16 
REMARK    6  A    between atoms: C8_18  and  O6_19 
ROOT
HETATM    1  C3  UNL     1      -4.084  67.285  11.766  1.00  0.00     0.170 C 
HETATM    2  C4  UNL     1      -4.504  66.108  10.901  1.00  0.00     0.282 C 
HETATM    3  O3  UNL     1      -5.421  66.464   9.931  1.00  0.00    -0.349 OA
HETATM    4  C5  UNL     1      -5.007  67.436   9.068  1.00  0.00     0.179 C 
HETATM    5  C7  UNL     1      -3.786  68.193   9.538  1.00  0.00     0.180 C 
HETATM    6  C8  UNL     1      -4.078  68.575  10.995  1.00  0.00     0.177 C 
ENDROOT
BRANCH   1   7
HETATM    7  N1  UNL     1      -4.926  67.352  12.947  1.00  0.00    -0.349 N 
HETATM    8  C2  UNL     1      -4.633  68.119  14.089  1.00  0.00     0.214 C 
HETATM    9  C1  UNL     1      -5.491  68.189  15.296  1.00  0.00     0.117 C 
HETATM   10  O1  UNL     1      -3.571  68.795  14.096  1.00  0.00    -0.274 OA
ATOM     11  H1  UNL     1      -5.787  66.806  12.948  1.00  0.00     0.163 HD
ENDBRANCH   1   7
BRANCH   2  12
HETATM   12  O2  UNL     1      -3.395  65.436  10.382  1.00  0.00    -0.369 OA
ATOM     13  H2  UNL     1      -3.530  64.495  10.382  1.00  0.00     0.212 HD
ENDBRANCH   2  12
BRANCH   6  14
HETATM   14  O6  UNL     1      -3.176  69.502  11.461  1.00  0.00    -0.391 OA
ATOM     15  H6  UNL     1      -3.540  70.371  11.579  1.00  0.00     0.210 HD
ENDBRANCH   6  14
BRANCH   5  16
HETATM   16  O5  UNL     1      -3.595  69.306   8.750  1.00  0.00    -0.390 OA
ATOM     17  H5  UNL     1      -2.987  69.900   9.174  1.00  0.00     0.210 HD
ENDBRANCH   5  16
BRANCH   4  18
HETATM   18  C6  UNL     1      -4.839  66.921   7.652  1.00  0.00     0.198 C 
BRANCH  18  19
HETATM   19  O4  UNL     1      -5.098  67.901   6.726  1.00  0.00    -0.398 OA
ATOM     20  H4  UNL     1      -6.005  68.181   6.760  1.00  0.00     0.209 HD
ENDBRANCH  18  19
ENDBRANCH   4  18
TORSDOF 6
ENDMDL
