MODEL 4
REMARK VINA RESULT: -6.455279368      2.362      4.531
REMARK  6 active torsions:
REMARK  status: ('A' for Active; 'I' for Inactive)
REMARK       I    between atoms: C2_2  and  N1_4 
REMARK    1  A    between atoms: N1_4  and  C3_6 
REMARK    2  A    between atoms: C4_7  and  O2_8 
REMARK    3  A    between atoms: C5_11  and  C6_12 
REMARK    4  A    between atoms: C6_12  and  O4_13 
REMARK    5  A    between atoms: C7_15  and  O5_16 
REMARK    6  A    between atoms: C8_18  and  O6_19 
ROOT
HETATM    1  C3  UNL     1      -2.882  67.821  10.385  1.00  0.00     0.170 C 
HETATM    2  C4  UNL     1      -2.924  66.328  10.664  1.00  0.00     0.282 C 
HETATM    3  O3  UNL     1      -4.211  65.855  10.832  1.00  0.00    -0.349 OA
HETATM    4  C5  UNL     1      -5.049  66.064   9.776  1.00  0.00     0.179 C 
HETATM    5  C7  UNL     1      -4.536  67.075   8.777  1.00  0.00     0.180 C 
HETATM    6  C8  UNL     1      -4.086  68.282   9.612  1.00  0.00     0.177 C 
ENDROOT
BRANCH   1   7
HETATM    7  N1  UNL     1      -2.716  68.548  11.631  1.00  0.00    -0.349 N 
HETATM    8  C2  UNL     1      -3.763  68.854  12.518  1.00  0.00     0.214 C 
HETATM    9  C1  UNL     1      -3.596  69.597  13.791  1.00  0.00     0.117 C 
HETATM   10  O1  UNL     1      -4.926  68.478  12.219  1.00  0.00    -0.274 OA
ATOM     11  H1  UNL     1      -1.776  68.856  11.879  1.00  0.00     0.163 HD
ENDBRANCH   1   7
BRANCH   2  12
HETATM   12  O2  UNL     1      -2.201  65.611   9.708  1.00  0.00    -0.369 OA
ATOM     13  H2  UNL     1      -2.750  64.976   9.262  1.00  0.00     0.212 HD
ENDBRANCH   2  12
BRANCH   6  14
HETATM   14  O6  UNL     1      -3.856  69.381   8.820  1.00  0.00    -0.391 OA
ATOM     15  H6  UNL     1      -4.035  70.210   9.248  1.00  0.00     0.210 HD
ENDBRANCH   6  14
BRANCH   5  16
HETATM   16  O5  UNL     1      -5.541  67.414   7.897  1.00  0.00    -0.390 OA
ATOM     17  H5  UNL     1      -6.261  66.799   7.979  1.00  0.00     0.210 HD
ENDBRANCH   5  16
BRANCH   4  18
HETATM   18  C6  UNL     1      -5.468  64.772   9.102  1.00  0.00     0.198 C 
BRANCH  18  19
HETATM   19  O4  UNL     1      -6.770  64.827   8.672  1.00  0.00    -0.398 OA
ATOM     20  H4  UNL     1      -6.910  64.274   7.912  1.00  0.00     0.209 HD
ENDBRANCH  18  19
ENDBRANCH   4  18
TORSDOF 6
ENDMDL
