MODEL 5
REMARK VINA RESULT: -6.283737503      3.932      5.550
REMARK  4 active torsions:
REMARK  status: ('A' for Active; 'I' for Inactive)
REMARK    1  A    between atoms: N1_1  and  S1_4 
REMARK    2  A    between atoms: S1_4  and  N2_7 
REMARK    3  A    between atoms: N2_7  and  C1_9 
REMARK    4  A    between atoms: C1_9  and  C2_10 
ROOT
HETATM    1  C2  UNL     1      -4.833   2.292  14.024  1.00  0.00    -0.022 A 
HETATM    2  C3  UNL     1      -5.194   3.500  13.492  1.00  0.00     0.060 A 
HETATM    3  S2  UNL     1      -6.206   4.160  14.692  1.00  0.00    -0.101 SA
HETATM    4  C4  UNL     1      -6.147   2.894  15.830  1.00  0.00     0.015 A 
HETATM    5  C5  UNL     1      -6.739   2.715  17.088  1.00  0.00     0.019 A 
HETATM    6  C6  UNL     1      -6.510   1.554  17.811  1.00  0.00     0.001 A 
HETATM    7  C7  UNL     1      -5.693   0.633  17.227  1.00  0.00     0.001 A 
HETATM    8  C8  UNL     1      -5.118   0.803  16.009  1.00  0.00     0.013 A 
HETATM    9  C9  UNL     1      -5.327   1.973  15.238  1.00  0.00    -0.011 A 
ENDROOT
BRANCH   1  10
HETATM   10  C1  UNL     1      -3.910   1.362  13.251  1.00  0.00     0.173 C 
BRANCH  10  11
HETATM   11  N2  UNL     1      -3.158   2.079  12.281  1.00  0.00    -0.299 N 
ATOM     12  H2  UNL     1      -2.449   2.770  12.524  1.00  0.00     0.174 HD
BRANCH  11  13
HETATM   13  S1  UNL     1      -3.551   1.675  10.676  1.00  0.00     0.313 S 
HETATM   14  O1  UNL     1      -2.418   0.984   9.949  1.00  0.00    -0.183 OA
HETATM   15  O2  UNL     1      -3.807   2.973   9.924  1.00  0.00    -0.183 OA
BRANCH  13  16
HETATM   16  N1  UNL     1      -4.980   0.685  10.641  1.00  0.00    -0.312 N 
ATOM     17  H12 UNL     1      -5.005  -0.268  10.281  1.00  0.00     0.170 HD
ATOM     18  H11 UNL     1      -5.773   1.197  11.028  1.00  0.00     0.170 HD
ENDBRANCH  13  16
ENDBRANCH  11  13
ENDBRANCH  10  11
ENDBRANCH   1  10
TORSDOF 4
ENDMDL
