MODEL 6
REMARK VINA RESULT: -6.235198340      3.787      5.518
REMARK  4 active torsions:
REMARK  status: ('A' for Active; 'I' for Inactive)
REMARK    1  A    between atoms: N1_1  and  S1_4 
REMARK    2  A    between atoms: S1_4  and  N2_7 
REMARK    3  A    between atoms: N2_7  and  C1_9 
REMARK    4  A    between atoms: C1_9  and  C2_10 
ROOT
HETATM    1  C2  UNL     1      -4.682   2.463  13.971  1.00  0.00    -0.022 A 
HETATM    2  C3  UNL     1      -5.085   3.674  13.476  1.00  0.00     0.060 A 
HETATM    3  S2  UNL     1      -6.205   4.212  14.640  1.00  0.00    -0.101 SA
HETATM    4  C4  UNL     1      -6.136   2.896  15.719  1.00  0.00     0.015 A 
HETATM    5  C5  UNL     1      -6.789   2.618  16.928  1.00  0.00     0.019 A 
HETATM    6  C6  UNL     1      -6.532   1.438  17.608  1.00  0.00     0.001 A 
HETATM    7  C7  UNL     1      -5.627   0.597  17.032  1.00  0.00     0.001 A 
HETATM    8  C8  UNL     1      -4.993   0.862  15.862  1.00  0.00     0.013 A 
HETATM    9  C9  UNL     1      -5.227   2.055  15.136  1.00  0.00    -0.011 A 
ENDROOT
BRANCH   1  10
HETATM   10  C1  UNL     1      -3.660   1.630  13.214  1.00  0.00     0.173 C 
BRANCH  10  11
HETATM   11  N2  UNL     1      -4.291   0.792  12.256  1.00  0.00    -0.299 N 
ATOM     12  H2  UNL     1      -4.985   0.086  12.503  1.00  0.00     0.174 HD
BRANCH  11  13
HETATM   13  S1  UNL     1      -3.783   1.076  10.658  1.00  0.00     0.313 S 
HETATM   14  O1  UNL     1      -4.304   2.381  10.098  1.00  0.00    -0.183 OA
HETATM   15  O2  UNL     1      -4.371  -0.024   9.785  1.00  0.00    -0.183 OA
BRANCH  13  16
HETATM   16  N1  UNL     1      -2.047   1.032  10.565  1.00  0.00    -0.312 N 
ATOM     17  H12 UNL     1      -1.460   1.859  10.464  1.00  0.00     0.170 HD
ATOM     18  H11 UNL     1      -1.715   0.069  10.627  1.00  0.00     0.170 HD
ENDBRANCH  13  16
ENDBRANCH  11  13
ENDBRANCH  10  11
ENDBRANCH   1  10
TORSDOF 4
ENDMDL
