MODEL 7
REMARK VINA RESULT: -6.233193791      1.503      2.753
REMARK  4 active torsions:
REMARK  status: ('A' for Active; 'I' for Inactive)
REMARK    1  A    between atoms: N1_1  and  S1_4 
REMARK    2  A    between atoms: S1_4  and  N2_7 
REMARK    3  A    between atoms: N2_7  and  C1_9 
REMARK    4  A    between atoms: C1_9  and  C2_10 
ROOT
HETATM    1  C2  UNL     1      -5.558   4.324  14.313  1.00  0.00    -0.022 A 
HETATM    2  C3  UNL     1      -6.585   4.942  13.651  1.00  0.00     0.060 A 
HETATM    3  S2  UNL     1      -5.788   6.132  12.731  1.00  0.00    -0.101 SA
HETATM    4  C4  UNL     1      -4.182   5.820  13.206  1.00  0.00     0.015 A 
HETATM    5  C5  UNL     1      -2.955   6.404  12.862  1.00  0.00     0.019 A 
HETATM    6  C6  UNL     1      -1.776   5.934  13.419  1.00  0.00     0.001 A 
HETATM    7  C7  UNL     1      -1.895   4.897  14.294  1.00  0.00     0.001 A 
HETATM    8  C8  UNL     1      -3.081   4.328  14.629  1.00  0.00     0.013 A 
HETATM    9  C9  UNL     1      -4.308   4.779  14.084  1.00  0.00    -0.011 A 
ENDROOT
BRANCH   1  10
HETATM   10  C1  UNL     1      -5.846   3.174  15.265  1.00  0.00     0.173 C 
BRANCH  10  11
HETATM   11  N2  UNL     1      -5.308   1.954  14.771  1.00  0.00    -0.299 N 
ATOM     12  H2  UNL     1      -5.274   1.721  13.778  1.00  0.00     0.174 HD
BRANCH  11  13
HETATM   13  S1  UNL     1      -4.725   0.921  15.989  1.00  0.00     0.313 S 
HETATM   14  O1  UNL     1      -3.286   1.202  16.360  1.00  0.00    -0.183 OA
HETATM   15  O2  UNL     1      -4.752  -0.499  15.441  1.00  0.00    -0.183 OA
BRANCH  13  16
HETATM   16  N1  UNL     1      -5.740   1.024  17.397  1.00  0.00    -0.312 N 
ATOM     17  H12 UNL     1      -5.513   1.573  18.226  1.00  0.00     0.170 HD
ATOM     18  H11 UNL     1      -6.581   0.461  17.268  1.00  0.00     0.170 HD
ENDBRANCH  13  16
ENDBRANCH  11  13
ENDBRANCH  10  11
ENDBRANCH   1  10
TORSDOF 4
ENDMDL
