MODEL 2
REMARK VINA RESULT: -6.363493025      3.632      5.395
REMARK  4 active torsions:
REMARK  status: ('A' for Active; 'I' for Inactive)
REMARK    1  A    between atoms: N1_1  and  S1_4 
REMARK    2  A    between atoms: S1_4  and  N2_7 
REMARK    3  A    between atoms: N2_7  and  C1_9 
REMARK    4  A    between atoms: C1_9  and  C2_10 
ROOT
HETATM    1  C2  UNL     1      -4.684   2.439  13.663  1.00  0.00    -0.022 A 
HETATM    2  C3  UNL     1      -5.137   3.611  13.120  1.00  0.00     0.060 A 
HETATM    3  S2  UNL     1      -6.204   4.199  14.309  1.00  0.00    -0.101 SA
HETATM    4  C4  UNL     1      -6.051   2.952  15.459  1.00  0.00     0.015 A 
HETATM    5  C5  UNL     1      -6.633   2.737  16.716  1.00  0.00     0.019 A 
HETATM    6  C6  UNL     1      -6.316   1.605  17.450  1.00  0.00     0.001 A 
HETATM    7  C7  UNL     1      -5.427   0.746  16.877  1.00  0.00     0.001 A 
HETATM    8  C8  UNL     1      -4.861   0.950  15.661  1.00  0.00     0.013 A 
HETATM    9  C9  UNL     1      -5.157   2.094  14.879  1.00  0.00    -0.011 A 
ENDROOT
BRANCH   1  10
HETATM   10  C1  UNL     1      -3.686   1.580  12.903  1.00  0.00     0.173 C 
BRANCH  10  11
HETATM   11  N2  UNL     1      -4.351   0.628  12.083  1.00  0.00    -0.299 N 
ATOM     12  H2  UNL     1      -5.353   0.444  12.142  1.00  0.00     0.174 HD
BRANCH  11  13
HETATM   13  S1  UNL     1      -3.321  -0.176  10.994  1.00  0.00     0.313 S 
HETATM   14  O1  UNL     1      -3.849  -0.174   9.577  1.00  0.00    -0.183 OA
HETATM   15  O2  UNL     1      -3.251  -1.635  11.419  1.00  0.00    -0.183 OA
BRANCH  13  16
HETATM   16  N1  UNL     1      -1.732   0.527  11.046  1.00  0.00    -0.312 N 
ATOM     17  H12 UNL     1      -0.934   0.172  10.519  1.00  0.00     0.170 HD
ATOM     18  H11 UNL     1      -1.722   1.333  11.671  1.00  0.00     0.170 HD
ENDBRANCH  13  16
ENDBRANCH  11  13
ENDBRANCH  10  11
ENDBRANCH   1  10
TORSDOF 4
ENDMDL
