MODEL 5
REMARK VINA RESULT: -6.964180393      2.795      5.058
REMARK  4 active torsions:
REMARK  status: ('A' for Active; 'I' for Inactive)
REMARK    1  A    between atoms: N1_1  and  S1_4 
REMARK    2  A    between atoms: S1_4  and  N2_7 
REMARK    3  A    between atoms: N2_7  and  C1_9 
REMARK    4  A    between atoms: C1_9  and  C2_10 
ROOT
HETATM    1  C2  UNL     1      -4.471   1.686  12.977  1.00  0.00    -0.017 A 
HETATM    2  C3  UNL     1      -4.155   0.721  13.797  1.00  0.00     0.124 A 
HETATM    3  S2  UNL     1      -4.592   1.237  15.406  1.00  0.00     0.198 S 
HETATM    4  O3  UNL     1      -5.670   0.377  15.993  1.00  0.00    -0.218 OA
HETATM    5  O4  UNL     1      -3.427   1.406  16.298  1.00  0.00    -0.218 OA
HETATM    6  C4  UNL     1      -5.215   2.806  14.922  1.00  0.00     0.074 A 
HETATM    7  C5  UNL     1      -5.759   3.824  15.671  1.00  0.00     0.025 A 
HETATM    8  C6  UNL     1      -6.176   4.960  15.056  1.00  0.00     0.002 A 
HETATM    9  C7  UNL     1      -6.036   5.049  13.696  1.00  0.00     0.001 A 
HETATM   10  C8  UNL     1      -5.495   4.033  12.958  1.00  0.00     0.013 A 
HETATM   11  C9  UNL     1      -5.056   2.851  13.563  1.00  0.00    -0.006 A 
ENDROOT
BRANCH   1  12
HETATM   12  C1  UNL     1      -4.200   1.512  11.498  1.00  0.00     0.173 C 
BRANCH  12  13
HETATM   13  N2  UNL     1      -3.305   2.514  11.009  1.00  0.00    -0.299 N 
ATOM     14  H2  UNL     1      -3.585   3.466  10.771  1.00  0.00     0.174 HD
BRANCH  13  15
HETATM   15  S1  UNL     1      -1.699   1.914  10.873  1.00  0.00     0.313 S 
HETATM   16  O1  UNL     1      -1.097   2.283   9.532  1.00  0.00    -0.183 OA
HETATM   17  O2  UNL     1      -1.616   0.438  11.076  1.00  0.00    -0.183 OA
BRANCH  15  18
HETATM   18  N1  UNL     1      -0.711   2.711  12.072  1.00  0.00    -0.312 N 
ATOM     19  H12 UNL     1      -0.673   3.714  12.253  1.00  0.00     0.170 HD
ATOM     20  H11 UNL     1      -0.192   1.969  12.541  1.00  0.00     0.170 HD
ENDBRANCH  15  18
ENDBRANCH  13  15
ENDBRANCH  12  13
ENDBRANCH   1  12
TORSDOF 4
ENDMDL
