MODEL 2
REMARK VINA RESULT: -7.177086498      1.292      1.467
REMARK  4 active torsions:
REMARK  status: ('A' for Active; 'I' for Inactive)
REMARK    1  A    between atoms: N1_1  and  S1_4 
REMARK    2  A    between atoms: S1_4  and  N2_7 
REMARK    3  A    between atoms: N2_7  and  C1_9 
REMARK    4  A    between atoms: C1_9  and  C2_10 
ROOT
HETATM    1  C2  UNL     1      -4.643   4.377  14.281  1.00  0.00    -0.017 A 
HETATM    2  C3  UNL     1      -3.338   4.345  14.263  1.00  0.00     0.124 A 
HETATM    3  S2  UNL     1      -2.796   5.627  13.210  1.00  0.00     0.198 S 
HETATM    4  O3  UNL     1      -2.016   6.667  13.956  1.00  0.00    -0.218 OA
HETATM    5  O4  UNL     1      -2.108   5.134  12.000  1.00  0.00    -0.218 OA
HETATM    6  C4  UNL     1      -4.404   6.204  12.799  1.00  0.00     0.074 A 
HETATM    7  C5  UNL     1      -4.802   7.236  11.980  1.00  0.00     0.025 A 
HETATM    8  C6  UNL     1      -6.127   7.490  11.820  1.00  0.00     0.002 A 
HETATM    9  C7  UNL     1      -7.024   6.700  12.487  1.00  0.00     0.001 A 
HETATM   10  C8  UNL     1      -6.619   5.676  13.299  1.00  0.00     0.013 A 
HETATM   11  C9  UNL     1      -5.263   5.389  13.485  1.00  0.00    -0.006 A 
ENDROOT
BRANCH   1  12
HETATM   12  C1  UNL     1      -5.392   3.365  15.121  1.00  0.00     0.173 C 
BRANCH  12  13
HETATM   13  N2  UNL     1      -5.197   2.036  14.635  1.00  0.00    -0.299 N 
ATOM     14  H2  UNL     1      -5.345   1.751  13.667  1.00  0.00     0.174 HD
BRANCH  13  15
HETATM   15  S1  UNL     1      -4.679   0.976  15.888  1.00  0.00     0.313 S 
HETATM   16  O1  UNL     1      -3.298   1.359  16.382  1.00  0.00    -0.183 OA
HETATM   17  O2  UNL     1      -4.688  -0.456  15.470  1.00  0.00    -0.183 OA
BRANCH  15  18
HETATM   18  N1  UNL     1      -5.746   1.178  17.254  1.00  0.00    -0.312 N 
ATOM     19  H12 UNL     1      -5.472   1.207  18.237  1.00  0.00     0.170 HD
ATOM     20  H11 UNL     1      -6.685   1.258  16.864  1.00  0.00     0.170 HD
ENDBRANCH  15  18
ENDBRANCH  13  15
ENDBRANCH  12  13
ENDBRANCH   1  12
TORSDOF 4
ENDMDL
