MODEL 6
REMARK VINA RESULT: -6.942333698      3.301      4.917
REMARK  4 active torsions:
REMARK  status: ('A' for Active; 'I' for Inactive)
REMARK    1  A    between atoms: N1_1  and  S1_4 
REMARK    2  A    between atoms: S1_4  and  N2_7 
REMARK    3  A    between atoms: N2_7  and  C1_9 
REMARK    4  A    between atoms: C1_9  and  C2_10 
ROOT
HETATM    1  C2  UNL     1      -4.529   2.023  13.022  1.00  0.00    -0.017 A 
HETATM    2  C3  UNL     1      -4.209   1.019  13.792  1.00  0.00     0.124 A 
HETATM    3  S2  UNL     1      -4.664   1.442  15.423  1.00  0.00     0.198 S 
HETATM    4  O3  UNL     1      -5.737   0.541  15.953  1.00  0.00    -0.218 OA
HETATM    5  O4  UNL     1      -3.508   1.577  16.332  1.00  0.00    -0.218 OA
HETATM    6  C4  UNL     1      -5.301   3.028  15.018  1.00  0.00     0.074 A 
HETATM    7  C5  UNL     1      -5.862   3.998  15.816  1.00  0.00     0.025 A 
HETATM    8  C6  UNL     1      -6.288   5.161  15.259  1.00  0.00     0.002 A 
HETATM    9  C7  UNL     1      -6.139   5.324  13.908  1.00  0.00     0.001 A 
HETATM   10  C8  UNL     1      -5.580   4.356  13.121  1.00  0.00     0.013 A 
HETATM   11  C9  UNL     1      -5.133   3.148  13.665  1.00  0.00    -0.006 A 
ENDROOT
BRANCH   1  12
HETATM   12  C1  UNL     1      -4.244   1.932  11.538  1.00  0.00     0.173 C 
BRANCH  12  13
HETATM   13  N2  UNL     1      -4.745   0.714  10.984  1.00  0.00    -0.299 N 
ATOM     14  H2  UNL     1      -5.733   0.523  10.816  1.00  0.00     0.174 HD
BRANCH  13  15
HETATM   15  S1  UNL     1      -3.472  -0.392  10.637  1.00  0.00     0.313 S 
HETATM   16  O1  UNL     1      -3.461  -0.754   9.165  1.00  0.00    -0.183 OA
HETATM   17  O2  UNL     1      -3.545  -1.631  11.464  1.00  0.00    -0.183 OA
BRANCH  15  18
HETATM   18  N1  UNL     1      -1.951   0.409  10.941  1.00  0.00    -0.312 N 
ATOM     19  H12 UNL     1      -1.048   0.166  10.533  1.00  0.00     0.170 HD
ATOM     20  H11 UNL     1      -2.159   1.156  11.603  1.00  0.00     0.170 HD
ENDBRANCH  15  18
ENDBRANCH  13  15
ENDBRANCH  12  13
ENDBRANCH   1  12
TORSDOF 4
ENDMDL
