MODEL 9
REMARK VINA RESULT: -6.824688369      1.833      2.100
REMARK  4 active torsions:
REMARK  status: ('A' for Active; 'I' for Inactive)
REMARK    1  A    between atoms: N1_1  and  S1_4 
REMARK    2  A    between atoms: S1_4  and  N2_7 
REMARK    3  A    between atoms: N2_7  and  C1_9 
REMARK    4  A    between atoms: C1_9  and  C2_10 
ROOT
HETATM    1  C2  UNL     1      -4.977   3.879  14.607  1.00  0.00    -0.017 A 
HETATM    2  C3  UNL     1      -3.698   3.618  14.590  1.00  0.00     0.124 A 
HETATM    3  S2  UNL     1      -2.952   4.727  13.468  1.00  0.00     0.198 S 
HETATM    4  O3  UNL     1      -1.995   5.654  14.155  1.00  0.00    -0.218 OA
HETATM    5  O4  UNL     1      -2.374   4.058  12.286  1.00  0.00    -0.218 OA
HETATM    6  C4  UNL     1      -4.439   5.553  13.028  1.00  0.00     0.074 A 
HETATM    7  C5  UNL     1      -4.660   6.593  12.154  1.00  0.00     0.025 A 
HETATM    8  C6  UNL     1      -5.922   7.066  11.981  1.00  0.00     0.002 A 
HETATM    9  C7  UNL     1      -6.936   6.481  12.692  1.00  0.00     0.001 A 
HETATM   10  C8  UNL     1      -6.707   5.448  13.559  1.00  0.00     0.013 A 
HETATM   11  C9  UNL     1      -5.420   4.939  13.758  1.00  0.00    -0.006 A 
ENDROOT
BRANCH   1  12
HETATM   12  C1  UNL     1      -5.882   3.060  15.503  1.00  0.00     0.173 C 
BRANCH  12  13
HETATM   13  N2  UNL     1      -5.275   1.818  15.864  1.00  0.00    -0.299 N 
ATOM     14  H2  UNL     1      -4.401   1.470  15.469  1.00  0.00     0.174 HD
BRANCH  13  15
HETATM   15  S1  UNL     1      -6.203   0.982  17.049  1.00  0.00     0.313 S 
HETATM   16  O1  UNL     1      -5.589  -0.368  17.360  1.00  0.00    -0.183 OA
HETATM   17  O2  UNL     1      -7.629   0.810  16.646  1.00  0.00    -0.183 OA
BRANCH  15  18
HETATM   18  N1  UNL     1      -6.136   1.890  18.538  1.00  0.00    -0.312 N 
ATOM     19  H12 UNL     1      -6.633   1.671  19.402  1.00  0.00     0.170 HD
ATOM     20  H11 UNL     1      -5.506   2.671  18.359  1.00  0.00     0.170 HD
ENDBRANCH  15  18
ENDBRANCH  13  15
ENDBRANCH  12  13
ENDBRANCH   1  12
TORSDOF 4
ENDMDL
