MODEL 12
REMARK VINA RESULT: -6.704069189      1.073      1.472
REMARK  4 active torsions:
REMARK  status: ('A' for Active; 'I' for Inactive)
REMARK    1  A    between atoms: N1_1  and  S1_4 
REMARK    2  A    between atoms: S1_4  and  N2_7 
REMARK    3  A    between atoms: N2_7  and  C1_9 
REMARK    4  A    between atoms: C1_9  and  C2_10 
ROOT
HETATM    1  C2  UNL     1      -4.962   4.492  13.552  1.00  0.00    -0.017 A 
HETATM    2  C3  UNL     1      -3.707   4.349  13.224  1.00  0.00     0.124 A 
HETATM    3  S2  UNL     1      -3.297   5.652  12.138  1.00  0.00     0.198 S 
HETATM    4  O3  UNL     1      -2.266   6.565  12.729  1.00  0.00    -0.218 OA
HETATM    5  O4  UNL     1      -2.960   5.190  10.777  1.00  0.00    -0.218 OA
HETATM    6  C4  UNL     1      -4.889   6.393  12.148  1.00  0.00     0.074 A 
HETATM    7  C5  UNL     1      -5.361   7.511  11.499  1.00  0.00     0.025 A 
HETATM    8  C6  UNL     1      -6.654   7.889  11.670  1.00  0.00     0.002 A 
HETATM    9  C7  UNL     1      -7.447   7.133  12.491  1.00  0.00     0.001 A 
HETATM   10  C8  UNL     1      -6.971   6.023  13.132  1.00  0.00     0.013 A 
HETATM   11  C9  UNL     1      -5.645   5.608  12.977  1.00  0.00    -0.006 A 
ENDROOT
BRANCH   1  12
HETATM   12  C1  UNL     1      -5.594   3.491  14.495  1.00  0.00     0.173 C 
BRANCH  12  13
HETATM   13  N2  UNL     1      -4.666   3.049  15.488  1.00  0.00    -0.299 N 
ATOM     14  H2  UNL     1      -4.144   3.674  16.103  1.00  0.00     0.174 HD
BRANCH  13  15
HETATM   15  S1  UNL     1      -4.541   1.334  15.517  1.00  0.00     0.313 S 
HETATM   16  O1  UNL     1      -5.856   0.704  15.931  1.00  0.00    -0.183 OA
HETATM   17  O2  UNL     1      -3.446   0.852  16.408  1.00  0.00    -0.183 OA
BRANCH  15  18
HETATM   18  N1  UNL     1      -4.239   0.777  13.890  1.00  0.00    -0.312 N 
ATOM     19  H12 UNL     1      -3.325   0.606  13.470  1.00  0.00     0.170 HD
ATOM     20  H11 UNL     1      -5.157   0.664  13.461  1.00  0.00     0.170 HD
ENDBRANCH  15  18
ENDBRANCH  13  15
ENDBRANCH  12  13
ENDBRANCH   1  12
TORSDOF 4
ENDMDL
