MODEL 7
REMARK VINA RESULT: -6.891190822      3.121      4.870
REMARK  4 active torsions:
REMARK  status: ('A' for Active; 'I' for Inactive)
REMARK    1  A    between atoms: N1_1  and  S1_4 
REMARK    2  A    between atoms: S1_4  and  N2_7 
REMARK    3  A    between atoms: N2_7  and  C1_9 
REMARK    4  A    between atoms: C1_9  and  C2_10 
ROOT
HETATM    1  C2  UNL     1      -4.543   2.008  13.021  1.00  0.00    -0.017 A 
HETATM    2  C3  UNL     1      -4.215   1.004  13.788  1.00  0.00     0.124 A 
HETATM    3  S2  UNL     1      -4.655   1.427  15.423  1.00  0.00     0.198 S 
HETATM    4  O3  UNL     1      -5.722   0.524  15.963  1.00  0.00    -0.218 OA
HETATM    5  O4  UNL     1      -3.491   1.562  16.321  1.00  0.00    -0.218 OA
HETATM    6  C4  UNL     1      -5.298   3.012  15.024  1.00  0.00     0.074 A 
HETATM    7  C5  UNL     1      -5.853   3.981  15.827  1.00  0.00     0.025 A 
HETATM    8  C6  UNL     1      -6.285   5.144  15.274  1.00  0.00     0.002 A 
HETATM    9  C7  UNL     1      -6.148   5.308  13.922  1.00  0.00     0.001 A 
HETATM   10  C8  UNL     1      -5.596   4.339  13.129  1.00  0.00     0.013 A 
HETATM   11  C9  UNL     1      -5.142   3.132  13.669  1.00  0.00    -0.006 A 
ENDROOT
BRANCH   1  12
HETATM   12  C1  UNL     1      -4.272   1.917  11.534  1.00  0.00     0.173 C 
BRANCH  12  13
HETATM   13  N2  UNL     1      -4.737   0.679  10.993  1.00  0.00    -0.299 N 
ATOM     14  H2  UNL     1      -5.721   0.445  10.860  1.00  0.00     0.174 HD
BRANCH  13  15
HETATM   15  S1  UNL     1      -3.430  -0.367  10.594  1.00  0.00     0.313 S 
HETATM   16  O1  UNL     1      -2.104   0.255  10.985  1.00  0.00    -0.183 OA
HETATM   17  O2  UNL     1      -3.410  -0.737   9.149  1.00  0.00    -0.183 OA
BRANCH  15  18
HETATM   18  N1  UNL     1      -3.575  -1.818  11.553  1.00  0.00    -0.312 N 
ATOM     19  H12 UNL     1      -3.833  -1.868  12.539  1.00  0.00     0.170 HD
ATOM     20  H11 UNL     1      -3.350  -2.589  10.925  1.00  0.00     0.170 HD
ENDBRANCH  15  18
ENDBRANCH  13  15
ENDBRANCH  12  13
ENDBRANCH   1  12
TORSDOF 4
ENDMDL
