MODEL 13
REMARK VINA RESULT: -6.699596172      1.402      1.491
REMARK  4 active torsions:
REMARK  status: ('A' for Active; 'I' for Inactive)
REMARK    1  A    between atoms: N1_1  and  S1_4 
REMARK    2  A    between atoms: S1_4  and  N2_7 
REMARK    3  A    between atoms: N2_7  and  C1_9 
REMARK    4  A    between atoms: C1_9  and  C2_10 
ROOT
HETATM    1  C2  UNL     1      -5.147   3.583  14.076  1.00  0.00    -0.017 A 
HETATM    2  C3  UNL     1      -4.045   3.063  13.608  1.00  0.00     0.124 A 
HETATM    3  S2  UNL     1      -3.553   4.025  12.237  1.00  0.00     0.198 S 
HETATM    4  O3  UNL     1      -2.244   4.713  12.481  1.00  0.00    -0.218 OA
HETATM    5  O4  UNL     1      -3.596   3.283  10.961  1.00  0.00    -0.218 OA
HETATM    6  C4  UNL     1      -4.896   5.153  12.326  1.00  0.00     0.074 A 
HETATM    7  C5  UNL     1      -5.206   6.240  11.542  1.00  0.00     0.025 A 
HETATM    8  C6  UNL     1      -6.319   6.969  11.816  1.00  0.00     0.002 A 
HETATM    9  C7  UNL     1      -7.098   6.587  12.875  1.00  0.00     0.001 A 
HETATM   10  C8  UNL     1      -6.784   5.505  13.651  1.00  0.00     0.013 A 
HETATM   11  C9  UNL     1      -5.645   4.735  13.393  1.00  0.00    -0.006 A 
ENDROOT
BRANCH   1  12
HETATM   12  C1  UNL     1      -5.807   2.944  15.279  1.00  0.00     0.173 C 
BRANCH  12  13
HETATM   13  N2  UNL     1      -4.952   1.979  15.894  1.00  0.00    -0.299 N 
ATOM     14  H2  UNL     1      -3.955   1.889  15.699  1.00  0.00     0.174 HD
BRANCH  13  15
HETATM   15  S1  UNL     1      -5.815   0.987  17.004  1.00  0.00     0.313 S 
HETATM   16  O1  UNL     1      -5.522   1.396  18.434  1.00  0.00    -0.183 OA
HETATM   17  O2  UNL     1      -5.525  -0.465  16.823  1.00  0.00    -0.183 OA
BRANCH  15  18
HETATM   18  N1  UNL     1      -7.523   1.261  16.772  1.00  0.00    -0.312 N 
ATOM     19  H12 UNL     1      -8.279   0.882  17.343  1.00  0.00     0.170 HD
ATOM     20  H11 UNL     1      -7.599   1.870  15.957  1.00  0.00     0.170 HD
ENDBRANCH  15  18
ENDBRANCH  13  15
ENDBRANCH  12  13
ENDBRANCH   1  12
TORSDOF 4
ENDMDL
