MODEL 1
REMARK VINA RESULT: -7.263213833      0.000      0.000
REMARK  4 active torsions:
REMARK  status: ('A' for Active; 'I' for Inactive)
REMARK    1  A    between atoms: N1_1  and  S1_4 
REMARK    2  A    between atoms: S1_4  and  N2_7 
REMARK    3  A    between atoms: N2_7  and  C1_9 
REMARK    4  A    between atoms: C1_9  and  C2_10 
ROOT
HETATM    1  C2  UNL     1      -4.727   4.034  13.125  1.00  0.00    -0.017 A 
HETATM    2  C3  UNL     1      -3.705   3.767  12.358  1.00  0.00     0.124 A 
HETATM    3  S2  UNL     1      -3.680   4.961  11.084  1.00  0.00     0.198 S 
HETATM    4  O3  UNL     1      -2.455   5.821  11.152  1.00  0.00    -0.218 OA
HETATM    5  O4  UNL     1      -3.922   4.387   9.746  1.00  0.00    -0.218 OA
HETATM    6  C4  UNL     1      -5.104   5.830  11.635  1.00  0.00     0.074 A 
HETATM    7  C5  UNL     1      -5.731   6.940  11.117  1.00  0.00     0.025 A 
HETATM    8  C6  UNL     1      -6.836   7.434  11.733  1.00  0.00     0.002 A 
HETATM    9  C7  UNL     1      -7.288   6.799  12.859  1.00  0.00     0.001 A 
HETATM   10  C8  UNL     1      -6.659   5.697  13.368  1.00  0.00     0.013 A 
HETATM   11  C9  UNL     1      -5.520   5.164  12.756  1.00  0.00    -0.006 A 
ENDROOT
BRANCH   1  12
HETATM   12  C1  UNL     1      -4.996   3.150  14.324  1.00  0.00     0.173 C 
BRANCH  12  13
HETATM   13  N2  UNL     1      -4.443   1.845  14.146  1.00  0.00    -0.299 N 
ATOM     14  H2  UNL     1      -4.051   1.503  13.268  1.00  0.00     0.174 HD
BRANCH  13  15
HETATM   15  S1  UNL     1      -4.522   0.922  15.596  1.00  0.00     0.313 S 
HETATM   16  O1  UNL     1      -3.319   1.197  16.476  1.00  0.00    -0.183 OA
HETATM   17  O2  UNL     1      -4.638  -0.543  15.340  1.00  0.00    -0.183 OA
BRANCH  15  18
HETATM   18  N1  UNL     1      -5.911   1.453  16.511  1.00  0.00    -0.312 N 
ATOM     19  H12 UNL     1      -6.009   1.434  17.526  1.00  0.00     0.170 HD
ATOM     20  H11 UNL     1      -6.588   1.780  15.822  1.00  0.00     0.170 HD
ENDBRANCH  15  18
ENDBRANCH  13  15
ENDBRANCH  12  13
ENDBRANCH   1  12
TORSDOF 4
ENDMDL
