MODEL 2
REMARK VINA RESULT: -7.793869746      1.420      1.666
REMARK  7 active torsions:
REMARK  status: ('A' for Active; 'I' for Inactive)
REMARK       I    between atoms: N1_2  and  C2_4 
REMARK    1  A    between atoms: C2_4  and  C3_6 
REMARK    2  A    between atoms: C5_8  and  O2_9 
REMARK    3  A    between atoms: O2_9  and  C6_10 
REMARK    4  A    between atoms: C6_10  and  C7_11 
REMARK       I    between atoms: C7_11  and  N2_13 
REMARK    5  A    between atoms: N2_13  and  C8_15 
REMARK    6  A    between atoms: C16_23  and  O4_24 
REMARK    7  A    between atoms: O4_24  and  C17_25 
ROOT
HETATM    1  C3  UNL     1      -1.854   7.613  75.480  1.00  0.00     0.068 A 
HETATM    2  C4  UNL     1      -1.371   8.023  74.226  1.00  0.00     0.056 A 
HETATM    3  C5  UNL     1      -0.536   9.086  74.025  1.00  0.00     0.070 A 
HETATM    4  C14 UNL     1      -0.154   9.792  75.153  1.00  0.00     0.039 A 
HETATM    5  C15 UNL     1      -0.592   9.442  76.413  1.00  0.00     0.040 A 
HETATM    6  C16 UNL     1      -1.445   8.354  76.593  1.00  0.00     0.085 A 
ENDROOT
BRANCH   3   7
HETATM    7  O2  UNL     1      -0.045   9.518  72.833  1.00  0.00    -0.342 OA
BRANCH   7   8
HETATM    8  C6  UNL     1      -0.352  10.596  72.049  1.00  0.00     0.278 C 
BRANCH   8   9
HETATM    9  C7  UNL     1       0.220  11.902  72.414  1.00  0.00     0.246 C 
HETATM   10  O3  UNL     1       1.351  12.189  71.908  1.00  0.00    -0.271 OA
HETATM   11  N2  UNL     1      -0.371  12.857  73.271  1.00  0.00    -0.325 N 
ATOM     12  H2  UNL     1      -1.276  12.603  73.666  1.00  0.00     0.169 HD
BRANCH  11  13
HETATM   13  C8  UNL     1       0.130  14.111  73.647  1.00  0.00     0.034 A 
HETATM   14  C9  UNL     1       0.166  14.376  75.027  1.00  0.00     0.029 A 
HETATM   15  C10 UNL     1       0.649  15.574  75.507  1.00  0.00     0.002 A 
HETATM   16  C11 UNL     1       1.112  16.555  74.633  1.00  0.00     0.000 A 
HETATM   17  C12 UNL     1       1.065  16.271  73.303  1.00  0.00     0.002 A 
HETATM   18  C13 UNL     1       0.585  15.074  72.802  1.00  0.00     0.029 A 
ENDBRANCH  11  13
ENDBRANCH   8   9
ENDBRANCH   7   8
ENDBRANCH   3   7
BRANCH   1  19
HETATM   19  C2  UNL     1      -2.721   6.455  75.528  1.00  0.00     0.254 C 
HETATM   20  N1  UNL     1      -2.660   5.417  76.461  1.00  0.00    -0.361 N 
HETATM   21  C1  UNL     1      -3.622   4.285  76.395  1.00  0.00     0.149 C 
ATOM     22  H1  UNL     1      -1.950   5.435  77.193  1.00  0.00     0.162 HD
HETATM   23  O1  UNL     1      -3.637   6.377  74.626  1.00  0.00    -0.268 OA
ENDBRANCH   1  19
BRANCH   6  24
HETATM   24  O4  UNL     1      -1.877   8.013  77.836  1.00  0.00    -0.345 OA
BRANCH  24  25
HETATM   25  C17 UNL     1      -2.669   8.654  78.754  1.00  0.00     0.133 C 
HETATM   26  C18 UNL     1      -1.909   9.261  79.913  1.00  0.00     0.058 C 
HETATM   27  C19 UNL     1      -1.694   8.312  81.038  1.00  0.00     0.170 C 
HETATM   28  O5  UNL     1      -2.803   7.578  81.383  1.00  0.00    -0.391 OA
HETATM   29  C20 UNL     1      -3.167   6.789  80.298  1.00  0.00     0.170 C 
HETATM   30  C21 UNL     1      -3.750   7.701  79.245  1.00  0.00     0.058 C 
ENDBRANCH  24  25
ENDBRANCH   6  24
TORSDOF 7
ENDMDL
