MODEL 4
REMARK VINA RESULT: -7.467899129      1.266      2.673
REMARK  7 active torsions:
REMARK  status: ('A' for Active; 'I' for Inactive)
REMARK       I    between atoms: N1_2  and  C2_4 
REMARK    1  A    between atoms: C2_4  and  C3_6 
REMARK    2  A    between atoms: C5_8  and  O2_9 
REMARK    3  A    between atoms: O2_9  and  C6_10 
REMARK    4  A    between atoms: C6_10  and  C7_11 
REMARK       I    between atoms: C7_11  and  N2_13 
REMARK    5  A    between atoms: N2_13  and  C8_15 
REMARK    6  A    between atoms: C16_23  and  O4_24 
REMARK    7  A    between atoms: O4_24  and  C17_25 
ROOT
HETATM    1  C3  UNL     1      -2.073   9.078  77.276  1.00  0.00     0.068 A 
HETATM    2  C4  UNL     1      -1.083   9.374  76.324  1.00  0.00     0.056 A 
HETATM    3  C5  UNL     1      -1.203   9.149  74.981  1.00  0.00     0.070 A 
HETATM    4  C14 UNL     1      -2.396   8.590  74.555  1.00  0.00     0.039 A 
HETATM    5  C15 UNL     1      -3.408   8.275  75.437  1.00  0.00     0.040 A 
HETATM    6  C16 UNL     1      -3.262   8.513  76.803  1.00  0.00     0.085 A 
ENDROOT
BRANCH   3   7
HETATM    7  O2  UNL     1      -0.273   9.418  74.027  1.00  0.00    -0.342 OA
BRANCH   7   8
HETATM    8  C6  UNL     1      -0.315  10.180  72.891  1.00  0.00     0.278 C 
BRANCH   8   9
HETATM    9  C7  UNL     1       0.191  11.560  72.966  1.00  0.00     0.246 C 
HETATM   10  O3  UNL     1       1.191  11.840  72.231  1.00  0.00    -0.271 OA
HETATM   11  N2  UNL     1      -0.333  12.594  73.775  1.00  0.00    -0.325 N 
ATOM     12  H2  UNL     1      -1.132  12.344  74.356  1.00  0.00     0.169 HD
BRANCH  11  13
HETATM   13  C8  UNL     1       0.110  13.920  73.879  1.00  0.00     0.034 A 
HETATM   14  C9  UNL     1       0.255  14.424  75.182  1.00  0.00     0.029 A 
HETATM   15  C10 UNL     1       0.693  15.713  75.401  1.00  0.00     0.002 A 
HETATM   16  C11 UNL     1       1.001  16.549  74.330  1.00  0.00     0.000 A 
HETATM   17  C12 UNL     1       0.852  16.034  73.079  1.00  0.00     0.002 A 
HETATM   18  C13 UNL     1       0.414  14.743  72.840  1.00  0.00     0.029 A 
ENDBRANCH  11  13
ENDBRANCH   8   9
ENDBRANCH   7   8
ENDBRANCH   3   7
BRANCH   1  19
HETATM   19  C2  UNL     1      -1.797   9.390  78.662  1.00  0.00     0.254 C 
HETATM   20  N1  UNL     1      -2.729   9.409  79.704  1.00  0.00    -0.361 N 
HETATM   21  C1  UNL     1      -2.305   9.744  81.088  1.00  0.00     0.149 C 
ATOM     22  H1  UNL     1      -3.707   9.191  79.512  1.00  0.00     0.162 HD
HETATM   23  O1  UNL     1      -0.579   9.676  78.962  1.00  0.00    -0.268 OA
ENDBRANCH   1  19
BRANCH   6  24
HETATM   24  O4  UNL     1      -4.261   8.201  77.669  1.00  0.00    -0.345 OA
BRANCH  24  25
HETATM   25  C17 UNL     1      -4.955   7.042  77.910  1.00  0.00     0.133 C 
HETATM   26  C18 UNL     1      -5.995   7.158  79.002  1.00  0.00     0.058 C 
HETATM   27  C19 UNL     1      -5.453   6.896  80.363  1.00  0.00     0.170 C 
HETATM   28  O5  UNL     1      -4.634   5.796  80.446  1.00  0.00    -0.391 OA
HETATM   29  C20 UNL     1      -3.522   6.010  79.640  1.00  0.00     0.170 C 
HETATM   30  C21 UNL     1      -3.975   5.915  78.202  1.00  0.00     0.058 C 
ENDBRANCH  24  25
ENDBRANCH   6  24
TORSDOF 7
ENDMDL
