MODEL 1
REMARK VINA RESULT: -8.066151264      0.000      0.000
REMARK  7 active torsions:
REMARK  status: ('A' for Active; 'I' for Inactive)
REMARK       I    between atoms: N1_2  and  C2_4 
REMARK    1  A    between atoms: C2_4  and  C3_6 
REMARK    2  A    between atoms: C5_8  and  O2_9 
REMARK    3  A    between atoms: O2_9  and  C6_10 
REMARK    4  A    between atoms: C6_10  and  C7_11 
REMARK       I    between atoms: C7_11  and  N2_13 
REMARK    5  A    between atoms: N2_13  and  C8_15 
REMARK    6  A    between atoms: C16_23  and  O4_24 
REMARK    7  A    between atoms: O4_24  and  C17_25 
ROOT
HETATM    1  C3  UNL     1      -2.245   8.695  76.435  1.00  0.00     0.068 A 
HETATM    2  C4  UNL     1      -1.989   8.807  75.058  1.00  0.00     0.056 A 
HETATM    3  C5  UNL     1      -0.872   9.384  74.520  1.00  0.00     0.070 A 
HETATM    4  C14 UNL     1       0.057   9.884  75.417  1.00  0.00     0.039 A 
HETATM    5  C15 UNL     1      -0.135   9.807  76.780  1.00  0.00     0.040 A 
HETATM    6  C16 UNL     1      -1.282   9.214  77.306  1.00  0.00     0.085 A 
ENDROOT
BRANCH   3   7
HETATM    7  O2  UNL     1      -0.583   9.514  73.198  1.00  0.00    -0.342 OA
BRANCH   7   8
HETATM    8  C6  UNL     1      -0.743  10.551  72.320  1.00  0.00     0.278 C 
BRANCH   8   9
HETATM    9  C7  UNL     1      -0.057  11.819  72.616  1.00  0.00     0.246 C 
HETATM   10  O3  UNL     1       1.115  11.957  72.140  1.00  0.00    -0.271 OA
HETATM   11  N2  UNL     1      -0.580  12.889  73.377  1.00  0.00    -0.325 N 
ATOM     12  H2  UNL     1      -1.520  12.754  73.749  1.00  0.00     0.169 HD
BRANCH  11  13
HETATM   13  C8  UNL     1       0.029  14.113  73.684  1.00  0.00     0.034 A 
HETATM   14  C9  UNL     1       0.135  14.428  75.049  1.00  0.00     0.029 A 
HETATM   15  C10 UNL     1       0.726  15.602  75.464  1.00  0.00     0.002 A 
HETATM   16  C11 UNL     1       1.232  16.508  74.535  1.00  0.00     0.000 A 
HETATM   17  C12 UNL     1       1.118  16.177  73.221  1.00  0.00     0.002 A 
HETATM   18  C13 UNL     1       0.529  15.003  72.785  1.00  0.00     0.029 A 
ENDBRANCH  11  13
ENDBRANCH   8   9
ENDBRANCH   7   8
ENDBRANCH   3   7
BRANCH   1  19
HETATM   19  C2  UNL     1      -3.470   8.043  76.845  1.00  0.00     0.254 C 
HETATM   20  N1  UNL     1      -4.237   8.363  77.969  1.00  0.00    -0.361 N 
HETATM   21  C1  UNL     1      -5.483   7.610  78.271  1.00  0.00     0.149 C 
ATOM     22  H1  UNL     1      -3.940   9.118  78.587  1.00  0.00     0.162 HD
HETATM   23  O1  UNL     1      -3.893   7.079  76.104  1.00  0.00    -0.268 OA
ENDBRANCH   1  19
BRANCH   6  24
HETATM   24  O4  UNL     1      -1.468   9.141  78.650  1.00  0.00    -0.345 OA
BRANCH  24  25
HETATM   25  C17 UNL     1      -0.873   8.389  79.632  1.00  0.00     0.133 C 
HETATM   26  C18 UNL     1      -0.790   6.912  79.317  1.00  0.00     0.058 C 
HETATM   27  C19 UNL     1      -2.001   6.152  79.728  1.00  0.00     0.170 C 
HETATM   28  O5  UNL     1      -2.466   6.460  80.983  1.00  0.00    -0.391 OA
HETATM   29  C20 UNL     1      -2.844   7.796  81.000  1.00  0.00     0.170 C 
HETATM   30  C21 UNL     1      -1.585   8.629  80.956  1.00  0.00     0.058 C 
ENDBRANCH  24  25
ENDBRANCH   6  24
TORSDOF 7
ENDMDL
