MODEL 15
REMARK VINA RESULT: -7.176467608      5.774      8.507
REMARK  7 active torsions:
REMARK  status: ('A' for Active; 'I' for Inactive)
REMARK       I    between atoms: N1_2  and  C2_4 
REMARK    1  A    between atoms: C2_4  and  C3_6 
REMARK    2  A    between atoms: C5_8  and  O2_9 
REMARK    3  A    between atoms: O2_9  and  C6_10 
REMARK    4  A    between atoms: C6_10  and  C7_11 
REMARK       I    between atoms: C7_11  and  N2_13 
REMARK    5  A    between atoms: N2_13  and  C8_15 
REMARK    6  A    between atoms: C16_23  and  O4_24 
REMARK    7  A    between atoms: O4_24  and  C17_25 
ROOT
HETATM    1  C3  UNL     1       0.610  10.166  71.443  1.00  0.00     0.068 A 
HETATM    2  C4  UNL     1       0.694   9.611  70.156  1.00  0.00     0.056 A 
HETATM    3  C5  UNL     1       0.857   8.279  69.892  1.00  0.00     0.070 A 
HETATM    4  C14 UNL     1       0.941   7.440  70.990  1.00  0.00     0.039 A 
HETATM    5  C15 UNL     1       0.867   7.920  72.280  1.00  0.00     0.040 A 
HETATM    6  C16 UNL     1       0.701   9.283  72.524  1.00  0.00     0.085 A 
ENDROOT
BRANCH   3   7
HETATM    7  O2  UNL     1       0.944   7.700  68.665  1.00  0.00    -0.342 OA
BRANCH   7   8
HETATM    8  C6  UNL     1       1.946   7.006  68.045  1.00  0.00     0.278 C 
BRANCH   8   9
HETATM    9  C7  UNL     1       2.226   7.311  66.632  1.00  0.00     0.246 C 
HETATM   10  O3  UNL     1       3.315   6.857  66.157  1.00  0.00    -0.271 OA
HETATM   11  N2  UNL     1       1.399   8.059  65.764  1.00  0.00    -0.325 N 
ATOM     12  H2  UNL     1       0.533   8.414  66.169  1.00  0.00     0.169 HD
BRANCH  11  13
HETATM   13  C8  UNL     1       1.618   8.373  64.416  1.00  0.00     0.034 A 
HETATM   14  C9  UNL     1       0.978   7.549  63.475  1.00  0.00     0.029 A 
HETATM   15  C10 UNL     1       1.117   7.775  62.122  1.00  0.00     0.002 A 
HETATM   16  C11 UNL     1       1.901   8.827  61.655  1.00  0.00     0.000 A 
HETATM   17  C12 UNL     1       2.509   9.608  62.588  1.00  0.00     0.002 A 
HETATM   18  C13 UNL     1       2.380   9.399  63.950  1.00  0.00     0.029 A 
ENDBRANCH  11  13
ENDBRANCH   8   9
ENDBRANCH   7   8
ENDBRANCH   3   7
BRANCH   1  19
HETATM   19  C2  UNL     1       0.423  11.596  71.555  1.00  0.00     0.254 C 
HETATM   20  N1  UNL     1       1.363  12.517  72.026  1.00  0.00    -0.361 N 
HETATM   21  C1  UNL     1       1.038  13.966  72.082  1.00  0.00     0.149 C 
ATOM     22  H1  UNL     1       2.280  12.191  72.333  1.00  0.00     0.162 HD
HETATM   23  O1  UNL     1      -0.717  12.064  71.183  1.00  0.00    -0.268 OA
ENDBRANCH   1  19
BRANCH   6  24
HETATM   24  O4  UNL     1       0.629   9.753  73.797  1.00  0.00    -0.345 OA
BRANCH  24  25
HETATM   25  C17 UNL     1      -0.379  10.345  74.514  1.00  0.00     0.133 C 
HETATM   26  C18 UNL     1      -0.223  10.232  76.014  1.00  0.00     0.058 C 
HETATM   27  C19 UNL     1      -0.808   8.984  76.576  1.00  0.00     0.170 C 
HETATM   28  O5  UNL     1      -2.055   8.673  76.090  1.00  0.00    -0.391 OA
HETATM   29  C20 UNL     1      -1.955   8.452  74.722  1.00  0.00     0.170 C 
HETATM   30  C21 UNL     1      -1.721   9.788  74.058  1.00  0.00     0.058 C 
ENDBRANCH  24  25
ENDBRANCH   6  24
TORSDOF 7
ENDMDL
