MODEL 6
REMARK VINA RESULT: -5.197366768      3.287      6.112
REMARK  2 active torsions:
REMARK  status: ('A' for Active; 'I' for Inactive)
REMARK    1  A    between atoms: N1_1  and  C1_5 
REMARK       I    between atoms: N2_8  and  C4_9 
REMARK    2  A    between atoms: C4_9  and  C5_11 
ROOT
HETATM    1  C1  UNL     1       1.251   7.078  31.869  1.00  0.00     0.186 C 
HETATM    2  C2  UNL     1       1.640   8.221  31.005  1.00  0.00     0.052 C 
HETATM    3  C3  UNL     1       2.004   9.473  31.801  1.00  0.00     0.128 C 
HETATM    4  N2  UNL     1       0.948   9.776  32.759  1.00  0.00    -0.352 N 
HETATM    5  C4  UNL     1       0.489  11.095  32.857  1.00  0.00     0.224 C 
HETATM    6  O1  UNL     1       1.022  11.974  32.095  1.00  0.00    -0.273 OA
HETATM    7  C8  UNL     1       0.401   8.718  33.578  1.00  0.00     0.128 C 
HETATM    8  C9  UNL     1       1.046   7.387  33.317  1.00  0.00     0.052 C 
ENDROOT
BRANCH   5   9
HETATM    9  C5  UNL     1      -0.565  11.565  33.772  1.00  0.00     0.078 A 
HETATM   10  C6  UNL     1      -0.533  12.814  34.455  1.00  0.00     0.015 A 
HETATM   11  C7  UNL     1      -1.370  12.707  33.259  1.00  0.00     0.015 A 
ENDBRANCH   5   9
BRANCH   1  12
HETATM   12  N1  UNL     1      -0.011   6.550  31.348  1.00  0.00    -0.075 N 
ATOM     13  H13 UNL     1      -0.831   6.998  31.758  1.00  0.00     0.274 HD
ATOM     14  H12 UNL     1      -0.186   6.817  30.379  1.00  0.00     0.274 HD
ATOM     15  H11 UNL     1       0.003   5.539  31.486  1.00  0.00     0.274 HD
ENDBRANCH   1  12
TORSDOF 2
ENDMDL
