MODEL 3
REMARK VINA RESULT: -5.547736736      3.036      5.729
REMARK  2 active torsions:
REMARK  status: ('A' for Active; 'I' for Inactive)
REMARK    1  A    between atoms: N1_1  and  C1_5 
REMARK       I    between atoms: N2_8  and  C4_9 
REMARK    2  A    between atoms: C4_9  and  C5_11 
ROOT
HETATM    1  C1  UNL     1       1.162   7.198  33.369  1.00  0.00     0.186 C 
HETATM    2  C2  UNL     1       1.290   7.882  32.057  1.00  0.00     0.052 C 
HETATM    3  C3  UNL     1       1.933   9.262  32.165  1.00  0.00     0.128 C 
HETATM    4  N2  UNL     1       1.253  10.048  33.188  1.00  0.00    -0.352 N 
HETATM    5  C4  UNL     1       0.896  11.368  32.893  1.00  0.00     0.224 C 
HETATM    6  O1  UNL     1       1.183  11.823  31.732  1.00  0.00    -0.273 OA
HETATM    7  C8  UNL     1       0.965   9.450  34.473  1.00  0.00     0.128 C 
HETATM    8  C9  UNL     1       1.446   8.032  34.576  1.00  0.00     0.052 C 
ENDROOT
BRANCH   5   9
HETATM    9  C5  UNL     1       0.210  12.291  33.813  1.00  0.00     0.078 A 
HETATM   10  C6  UNL     1      -0.295  13.569  33.437  1.00  0.00     0.015 A 
HETATM   11  C7  UNL     1      -1.246  12.462  33.554  1.00  0.00     0.015 A 
ENDBRANCH   5   9
BRANCH   1  12
HETATM   12  N1  UNL     1      -0.218   6.720  33.477  1.00  0.00    -0.075 N 
ATOM     13  H13 UNL     1      -0.437   5.976  32.814  1.00  0.00     0.274 HD
ATOM     14  H12 UNL     1      -0.392   6.191  34.331  1.00  0.00     0.274 HD
ATOM     15  H11 UNL     1      -0.827   7.533  33.380  1.00  0.00     0.274 HD
ENDBRANCH   1  12
TORSDOF 2
ENDMDL
