MODEL 5
REMARK VINA RESULT: -5.296610698      2.722      5.355
REMARK  2 active torsions:
REMARK  status: ('A' for Active; 'I' for Inactive)
REMARK    1  A    between atoms: N1_1  and  C1_5 
REMARK       I    between atoms: N2_8  and  C4_9 
REMARK    2  A    between atoms: C4_9  and  C5_11 
ROOT
HETATM    1  C1  UNL     1       0.828   7.684  34.506  1.00  0.00     0.186 C 
HETATM    2  C2  UNL     1       1.234   7.992  33.112  1.00  0.00     0.052 C 
HETATM    3  C3  UNL     1       1.824   9.392  32.960  1.00  0.00     0.128 C 
HETATM    4  N2  UNL     1       0.929  10.376  33.556  1.00  0.00    -0.352 N 
HETATM    5  C4  UNL     1       0.632  11.538  32.834  1.00  0.00     0.224 C 
HETATM    6  O1  UNL     1       1.162  11.679  31.679  1.00  0.00    -0.273 OA
HETATM    7  C8  UNL     1       0.371  10.132  34.868  1.00  0.00     0.128 C 
HETATM    8  C9  UNL     1       0.831   8.833  35.463  1.00  0.00     0.052 C 
ENDROOT
BRANCH   5   9
HETATM    9  C5  UNL     1      -0.248  12.626  33.294  1.00  0.00     0.078 A 
HETATM   10  C6  UNL     1      -0.136  13.264  34.563  1.00  0.00     0.015 A 
HETATM   11  C7  UNL     1       0.409  13.958  33.394  1.00  0.00     0.015 A 
ENDBRANCH   5   9
BRANCH   1  12
HETATM   12  N1  UNL     1      -0.538   7.157  34.454  1.00  0.00    -0.075 N 
ATOM     13  H13 UNL     1      -1.022   7.386  33.586  1.00  0.00     0.274 HD
ATOM     14  H12 UNL     1      -0.571   6.142  34.360  1.00  0.00     0.274 HD
ATOM     15  H11 UNL     1      -1.025   7.497  35.284  1.00  0.00     0.274 HD
ENDBRANCH   1  12
TORSDOF 2
ENDMDL
