MODEL 2
REMARK VINA RESULT: -5.661758859      2.307      3.229
REMARK  2 active torsions:
REMARK  status: ('A' for Active; 'I' for Inactive)
REMARK    1  A    between atoms: N1_1  and  C1_5 
REMARK       I    between atoms: N2_8  and  C4_9 
REMARK    2  A    between atoms: C4_9  and  C5_11 
ROOT
HETATM    1  C1  UNL     1      -0.027  13.648  34.150  1.00  0.00     0.186 C 
HETATM    2  C2  UNL     1       1.303  13.365  33.555  1.00  0.00     0.052 C 
HETATM    3  C3  UNL     1       1.251  12.305  32.458  1.00  0.00     0.128 C 
HETATM    4  N2  UNL     1       0.546  11.124  32.941  1.00  0.00    -0.352 N 
HETATM    5  C4  UNL     1       1.109   9.864  32.710  1.00  0.00     0.224 C 
HETATM    6  O1  UNL     1       2.223   9.810  32.083  1.00  0.00    -0.273 OA
HETATM    7  C8  UNL     1      -0.708  11.279  33.645  1.00  0.00     0.128 C 
HETATM    8  C9  UNL     1      -1.131  12.714  33.771  1.00  0.00     0.052 C 
ENDROOT
BRANCH   5   9
HETATM    9  C5  UNL     1       0.525   8.579  33.129  1.00  0.00     0.078 A 
HETATM   10  C6  UNL     1       1.251   7.356  33.207  1.00  0.00     0.015 A 
HETATM   11  C7  UNL     1       0.996   8.083  34.452  1.00  0.00     0.015 A 
ENDBRANCH   5   9
BRANCH   1  12
HETATM   12  N1  UNL     1       0.126  13.583  35.605  1.00  0.00    -0.075 N 
ATOM     13  H13 UNL     1      -0.315  12.760  36.017  1.00  0.00     0.274 HD
ATOM     14  H12 UNL     1       1.082  13.381  35.898  1.00  0.00     0.274 HD
ATOM     15  H11 UNL     1      -0.231  14.459  35.987  1.00  0.00     0.274 HD
ENDBRANCH   1  12
TORSDOF 2
ENDMDL
