MODEL 4
REMARK VINA RESULT: -5.531750097      2.820      3.758
REMARK  2 active torsions:
REMARK  status: ('A' for Active; 'I' for Inactive)
REMARK    1  A    between atoms: N1_1  and  C1_5 
REMARK       I    between atoms: N2_8  and  C4_9 
REMARK    2  A    between atoms: C4_9  and  C5_11 
ROOT
HETATM    1  C1  UNL     1       0.800  13.229  32.749  1.00  0.00     0.186 C 
HETATM    2  C2  UNL     1       1.472  11.923  32.532  1.00  0.00     0.052 C 
HETATM    3  C3  UNL     1       0.493  10.754  32.459  1.00  0.00     0.128 C 
HETATM    4  N2  UNL     1      -0.403  10.784  33.609  1.00  0.00    -0.352 N 
HETATM    5  C4  UNL     1      -0.631   9.597  34.314  1.00  0.00     0.224 C 
HETATM    6  O1  UNL     1      -0.038   8.537  33.913  1.00  0.00    -0.273 OA
HETATM    7  C8  UNL     1      -1.028  12.030  33.995  1.00  0.00     0.128 C 
HETATM    8  C9  UNL     1      -0.653  13.172  33.095  1.00  0.00     0.052 C 
ENDROOT
BRANCH   5   9
HETATM    9  C5  UNL     1      -1.506   9.459  35.491  1.00  0.00     0.078 A 
HETATM   10  C6  UNL     1      -1.824   8.217  36.112  1.00  0.00     0.015 A 
HETATM   11  C7  UNL     1      -0.807   9.061  36.743  1.00  0.00     0.015 A 
ENDBRANCH   5   9
BRANCH   1  12
HETATM   12  N1  UNL     1       1.492  13.894  33.856  1.00  0.00    -0.075 N 
ATOM     13  H13 UNL     1       1.868  13.240  34.542  1.00  0.00     0.274 HD
ATOM     14  H12 UNL     1       2.377  14.317  33.577  1.00  0.00     0.274 HD
ATOM     15  H11 UNL     1       0.838  14.566  34.260  1.00  0.00     0.274 HD
ENDBRANCH   1  12
TORSDOF 2
ENDMDL
