MODEL 1
REMARK VINA RESULT: -5.728130947      0.000      0.000
REMARK  2 active torsions:
REMARK  status: ('A' for Active; 'I' for Inactive)
REMARK    1  A    between atoms: N1_1  and  C1_5 
REMARK       I    between atoms: N2_8  and  C4_9 
REMARK    2  A    between atoms: C4_9  and  C5_11 
ROOT
HETATM    1  C1  UNL     1       1.731  15.765  35.846  1.00  0.00     0.186 C 
HETATM    2  C2  UNL     1       1.639  15.788  34.364  1.00  0.00     0.052 C 
HETATM    3  C3  UNL     1       0.398  15.074  33.833  1.00  0.00     0.128 C 
HETATM    4  N2  UNL     1       0.302  13.743  34.419  1.00  0.00    -0.352 N 
HETATM    5  C4  UNL     1       0.028  12.658  33.580  1.00  0.00     0.224 C 
HETATM    6  O1  UNL     1      -0.124  12.888  32.330  1.00  0.00    -0.273 OA
HETATM    7  C8  UNL     1       0.492  13.574  35.843  1.00  0.00     0.128 C 
HETATM    8  C9  UNL     1       0.763  14.870  36.552  1.00  0.00     0.052 C 
ENDROOT
BRANCH   5   9
HETATM    9  C5  UNL     1      -0.104  11.256  34.013  1.00  0.00     0.078 A 
HETATM   10  C6  UNL     1      -0.239  10.152  33.124  1.00  0.00     0.015 A 
HETATM   11  C7  UNL     1       1.077  10.399  33.716  1.00  0.00     0.015 A 
ENDBRANCH   5   9
BRANCH   1  12
HETATM   12  N1  UNL     1       3.081  15.312  36.191  1.00  0.00    -0.075 N 
ATOM     13  H13 UNL     1       3.098  14.372  36.586  1.00  0.00     0.274 HD
ATOM     14  H12 UNL     1       3.659  15.122  35.372  1.00  0.00     0.274 HD
ATOM     15  H11 UNL     1       3.486  16.014  36.810  1.00  0.00     0.274 HD
ENDBRANCH   1  12
TORSDOF 2
ENDMDL
