MODEL 16
REMARK VINA RESULT: -5.578636333      1.780      3.885
REMARK  3 active torsions:
REMARK  status: ('A' for Active; 'I' for Inactive)
REMARK    1  A    between atoms: N2_5  and  C3_6 
REMARK    2  A    between atoms: C3_6  and  C4_7 
REMARK    3  A    between atoms: C4_7  and  O1_8 
ROOT
HETATM    1  C1  UNL     1     -10.505  39.061  19.104  1.00  0.00     0.070 C 
HETATM    2  C2  UNL     1     -10.256  38.899  20.557  1.00  0.00     0.038 A 
HETATM    3  N1  UNL     1      -9.632  37.914  21.227  1.00  0.00    -0.302 N 
ATOM      4  H1  UNL     1      -9.218  37.090  20.791  1.00  0.00     0.186 HD
HETATM    5  N2  UNL     1      -9.628  38.158  22.527  1.00  0.00    -0.293 N 
HETATM    6  C5  UNL     1     -10.271  39.346  22.725  1.00  0.00     0.044 A 
HETATM    7  C6  UNL     1     -10.672  39.829  21.505  1.00  0.00     0.058 A 
HETATM    8  C7  UNL     1     -11.384  41.093  21.460  1.00  0.00     0.163 C 
HETATM    9  O2  UNL     1     -12.209  41.264  20.526  1.00  0.00    -0.292 OA
HETATM   10  C8  UNL     1     -11.127  42.126  22.487  1.00  0.00     0.084 C 
HETATM   11  C9  UNL     1     -10.457  41.620  23.703  1.00  0.00     0.014 C 
HETATM   12  C10 UNL     1     -10.585  40.137  23.925  1.00  0.00     0.060 C 
ENDROOT
BRANCH   5  13
HETATM   13  C3  UNL     1      -9.063  37.351  23.588  1.00  0.00     0.174 C 
BRANCH  13  14
HETATM   14  C4  UNL     1      -7.956  36.512  22.937  1.00  0.00     0.185 C 
BRANCH  14  15
HETATM   15  O1  UNL     1      -7.082  37.300  22.221  1.00  0.00    -0.399 OA
ATOM     16  H1  UNL     1      -6.437  37.705  22.788  1.00  0.00     0.209 HD
ENDBRANCH  14  15
ENDBRANCH  13  14
ENDBRANCH   5  13
TORSDOF 3
ENDMDL
