MODEL 18
REMARK VINA RESULT: -5.460900877      2.083      3.349
REMARK  3 active torsions:
REMARK  status: ('A' for Active; 'I' for Inactive)
REMARK    1  A    between atoms: N2_5  and  C3_6 
REMARK    2  A    between atoms: C3_6  and  C4_7 
REMARK    3  A    between atoms: C4_7  and  O1_8 
ROOT
HETATM    1  C1  UNL     1     -10.112  39.750  26.238  1.00  0.00     0.070 C 
HETATM    2  C2  UNL     1     -10.286  39.809  24.767  1.00  0.00     0.038 A 
HETATM    3  N1  UNL     1     -10.846  40.758  23.995  1.00  0.00    -0.302 N 
ATOM      4  H1  UNL     1     -11.253  41.624  24.348  1.00  0.00     0.186 HD
HETATM    5  N2  UNL     1     -10.797  40.416  22.718  1.00  0.00    -0.293 N 
HETATM    6  C5  UNL     1     -10.183  39.199  22.642  1.00  0.00     0.044 A 
HETATM    7  C6  UNL     1      -9.853  38.800  23.911  1.00  0.00     0.058 A 
HETATM    8  C7  UNL     1      -9.184  37.524  24.086  1.00  0.00     0.163 C 
HETATM    9  O2  UNL     1      -9.378  36.906  25.165  1.00  0.00    -0.292 OA
HETATM   10  C8  UNL     1      -8.309  36.993  23.017  1.00  0.00     0.084 C 
HETATM   11  C9  UNL     1      -8.512  37.625  21.697  1.00  0.00     0.014 C 
HETATM   12  C10 UNL     1      -9.840  38.310  21.520  1.00  0.00     0.060 C 
ENDROOT
BRANCH   5  13
HETATM   13  C3  UNL     1     -11.288  41.156  21.574  1.00  0.00     0.174 C 
BRANCH  13  14
HETATM   14  C4  UNL     1     -10.169  42.132  21.191  1.00  0.00     0.185 C 
BRANCH  14  15
HETATM   15  O1  UNL     1     -10.053  43.151  22.110  1.00  0.00    -0.399 OA
ATOM     16  H1  UNL     1     -10.545  42.963  22.900  1.00  0.00     0.209 HD
ENDBRANCH  14  15
ENDBRANCH  13  14
ENDBRANCH   5  13
TORSDOF 3
ENDMDL
