MODEL 6
REMARK VINA RESULT: -6.203199955      1.811      3.974
REMARK  3 active torsions:
REMARK  status: ('A' for Active; 'I' for Inactive)
REMARK    1  A    between atoms: N2_5  and  C3_6 
REMARK    2  A    between atoms: C3_6  and  C4_7 
REMARK    3  A    between atoms: C4_7  and  O1_8 
ROOT
HETATM    1  C1  UNL     1     -10.025  39.430  20.324  1.00  0.00     0.070 C 
HETATM    2  C2  UNL     1      -9.730  38.693  21.576  1.00  0.00     0.038 A 
HETATM    3  N1  UNL     1      -9.000  37.582  21.779  1.00  0.00    -0.302 N 
ATOM      4  H1  UNL     1      -8.518  37.065  21.044  1.00  0.00     0.186 HD
HETATM    5  N2  UNL     1      -8.990  37.251  23.060  1.00  0.00    -0.293 N 
HETATM    6  C5  UNL     1      -9.741  38.175  23.728  1.00  0.00     0.044 A 
HETATM    7  C6  UNL     1     -10.213  39.088  22.821  1.00  0.00     0.058 A 
HETATM    8  C7  UNL     1     -11.045  40.177  23.300  1.00  0.00     0.163 C 
HETATM    9  O2  UNL     1     -11.903  40.647  22.509  1.00  0.00    -0.292 OA
HETATM   10  C8  UNL     1     -10.867  40.697  24.674  1.00  0.00     0.084 C 
HETATM   11  C9  UNL     1     -10.124  39.790  25.574  1.00  0.00     0.014 C 
HETATM   12  C10 UNL     1     -10.103  38.348  25.144  1.00  0.00     0.060 C 
ENDROOT
BRANCH   5  13
HETATM   13  C3  UNL     1      -8.326  36.129  23.690  1.00  0.00     0.174 C 
BRANCH  13  14
HETATM   14  C4  UNL     1      -6.914  36.616  24.039  1.00  0.00     0.185 C 
BRANCH  14  15
HETATM   15  O1  UNL     1      -6.772  36.821  25.393  1.00  0.00    -0.399 OA
ATOM     16  H1  UNL     1      -5.904  36.577  25.691  1.00  0.00     0.209 HD
ENDBRANCH  14  15
ENDBRANCH  13  14
ENDBRANCH   5  13
TORSDOF 3
ENDMDL
