MODEL 4
REMARK VINA RESULT: -7.282350461      1.502      1.529
REMARK  2 active torsions:
REMARK  status: ('A' for Active; 'I' for Inactive)
REMARK    1  A    between atoms: C8_10  and  N2_11 
REMARK    2  A    between atoms: N2_11  and  S1_13 
ROOT
HETATM    1  C1  UNL     1     -12.837  16.905  78.247  1.00  0.00     0.020 C 
HETATM    2  C2  UNL     1     -11.691  17.553  78.373  1.00  0.00    -0.046 C 
HETATM    3  C3  UNL     1     -10.965  18.085  77.185  1.00  0.00     0.142 C 
HETATM    4  C4  UNL     1     -10.502  19.465  77.553  1.00  0.00     0.228 C 
HETATM    5  O1  UNL     1     -10.653  20.417  76.745  1.00  0.00    -0.273 OA
HETATM    6  N1  UNL     1      -9.890  19.720  78.810  1.00  0.00    -0.321 N 
HETATM    7  C5  UNL     1      -8.978  20.834  78.996  1.00  0.00     0.159 C 
HETATM    8  C6  UNL     1     -10.205  18.839  79.889  1.00  0.00     0.049 A 
HETATM    9  C7  UNL     1      -9.648  19.020  81.145  1.00  0.00     0.060 A 
HETATM   10  C8  UNL     1      -9.959  18.163  82.180  1.00  0.00     0.044 A 
HETATM   11  C10 UNL     1     -10.831  17.119  81.956  1.00  0.00     0.031 A 
HETATM   12  C11 UNL     1     -11.409  16.904  80.710  1.00  0.00     0.016 A 
HETATM   13  C12 UNL     1     -11.084  17.777  79.683  1.00  0.00    -0.003 A 
ENDROOT
BRANCH  10  14
HETATM   14  N2  UNL     1      -9.349  18.407  83.460  1.00  0.00    -0.285 N 
ATOM     15  H2  UNL     1      -9.706  19.164  84.043  1.00  0.00     0.178 HD
BRANCH  14  16
HETATM   16  S1  UNL     1      -8.035  17.460  84.036  1.00  0.00     0.227 S 
HETATM   17  C9  UNL     1      -8.548  16.437  85.396  1.00  0.00     0.186 C 
HETATM   18  O2  UNL     1      -7.515  16.594  82.900  1.00  0.00    -0.206 OA
HETATM   19  O3  UNL     1      -6.921  18.385  84.422  1.00  0.00    -0.206 OA
ENDBRANCH  14  16
ENDBRANCH  10  14
TORSDOF 2
ENDMDL
