MODEL 11
REMARK VINA RESULT: -6.735036524      3.543      4.830
REMARK  2 active torsions:
REMARK  status: ('A' for Active; 'I' for Inactive)
REMARK    1  A    between atoms: C8_10  and  N2_11 
REMARK    2  A    between atoms: N2_11  and  S1_13 
ROOT
HETATM    1  C1  UNL     1     -12.038  18.650  76.067  1.00  0.00     0.020 C 
HETATM    2  C2  UNL     1     -11.530  18.406  77.264  1.00  0.00    -0.046 C 
HETATM    3  C3  UNL     1     -12.155  17.417  78.186  1.00  0.00     0.142 C 
HETATM    4  C4  UNL     1     -11.030  16.616  78.775  1.00  0.00     0.228 C 
HETATM    5  O1  UNL     1     -11.116  15.363  78.843  1.00  0.00    -0.273 OA
HETATM    6  N1  UNL     1      -9.857  17.252  79.264  1.00  0.00    -0.321 N 
HETATM    7  C5  UNL     1      -9.028  16.635  80.283  1.00  0.00     0.159 C 
HETATM    8  C6  UNL     1      -9.520  18.527  78.714  1.00  0.00     0.049 A 
HETATM    9  C7  UNL     1      -8.392  19.212  79.139  1.00  0.00     0.060 A 
HETATM   10  C8  UNL     1      -8.076  20.443  78.602  1.00  0.00     0.044 A 
HETATM   11  C10 UNL     1      -8.893  20.990  77.635  1.00  0.00     0.031 A 
HETATM   12  C11 UNL     1     -10.032  20.334  77.185  1.00  0.00     0.016 A 
HETATM   13  C12 UNL     1     -10.333  19.099  77.737  1.00  0.00    -0.003 A 
ENDROOT
BRANCH  10  14
HETATM   14  N2  UNL     1      -6.892  21.101  79.085  1.00  0.00    -0.285 N 
ATOM     15  H2  UNL     1      -6.985  21.842  79.781  1.00  0.00     0.178 HD
BRANCH  14  16
HETATM   16  S1  UNL     1      -5.324  20.678  78.524  1.00  0.00     0.227 S 
HETATM   17  C9  UNL     1      -4.534  19.556  79.655  1.00  0.00     0.186 C 
HETATM   18  O2  UNL     1      -5.446  20.034  77.153  1.00  0.00    -0.206 OA
HETATM   19  O3  UNL     1      -4.532  21.938  78.343  1.00  0.00    -0.206 OA
ENDBRANCH  14  16
ENDBRANCH  10  14
TORSDOF 2
ENDMDL
