MODEL 2
REMARK VINA RESULT: -7.447971643      1.774      1.836
REMARK  2 active torsions:
REMARK  status: ('A' for Active; 'I' for Inactive)
REMARK    1  A    between atoms: C8_10  and  N2_11 
REMARK    2  A    between atoms: N2_11  and  S1_13 
ROOT
HETATM    1  C1  UNL     1     -12.116  18.155  76.507  1.00  0.00     0.020 C 
HETATM    2  C2  UNL     1     -10.892  18.428  76.927  1.00  0.00    -0.046 C 
HETATM    3  C3  UNL     1      -9.797  18.754  75.971  1.00  0.00     0.142 C 
HETATM    4  C4  UNL     1      -9.055  19.921  76.555  1.00  0.00     0.228 C 
HETATM    5  O1  UNL     1      -8.743  20.898  75.829  1.00  0.00    -0.273 OA
HETATM    6  N1  UNL     1      -8.695  19.944  77.930  1.00  0.00    -0.321 N 
HETATM    7  C5  UNL     1      -7.569  20.728  78.405  1.00  0.00     0.159 C 
HETATM    8  C6  UNL     1      -9.482  19.165  78.832  1.00  0.00     0.049 A 
HETATM    9  C7  UNL     1      -9.194  19.134  80.188  1.00  0.00     0.060 A 
HETATM   10  C8  UNL     1      -9.960  18.378  81.050  1.00  0.00     0.044 A 
HETATM   11  C10 UNL     1     -11.021  17.649  80.553  1.00  0.00     0.031 A 
HETATM   12  C11 UNL     1     -11.340  17.655  79.200  1.00  0.00     0.016 A 
HETATM   13  C12 UNL     1     -10.558  18.421  78.350  1.00  0.00    -0.003 A 
ENDROOT
BRANCH  10  14
HETATM   14  N2  UNL     1      -9.610  18.390  82.445  1.00  0.00    -0.285 N 
ATOM     15  H2  UNL     1     -10.003  19.113  83.048  1.00  0.00     0.178 HD
BRANCH  14  16
HETATM   16  S1  UNL     1      -8.550  17.222  83.126  1.00  0.00     0.227 S 
HETATM   17  C9  UNL     1      -7.589  17.937  84.440  1.00  0.00     0.186 C 
HETATM   18  O2  UNL     1      -9.371  16.058  83.656  1.00  0.00    -0.206 OA
HETATM   19  O3  UNL     1      -7.681  16.679  82.032  1.00  0.00    -0.206 OA
ENDBRANCH  14  16
ENDBRANCH  10  14
TORSDOF 2
ENDMDL
