MODEL 5
REMARK VINA RESULT: -7.122931388      2.189      2.618
REMARK  2 active torsions:
REMARK  status: ('A' for Active; 'I' for Inactive)
REMARK    1  A    between atoms: C8_10  and  N2_11 
REMARK    2  A    between atoms: N2_11  and  S1_13 
ROOT
HETATM    1  C1  UNL     1     -12.548  18.420  76.019  1.00  0.00     0.020 C 
HETATM    2  C2  UNL     1     -11.365  18.473  76.610  1.00  0.00    -0.046 C 
HETATM    3  C3  UNL     1     -10.174  19.037  75.915  1.00  0.00     0.142 C 
HETATM    4  C4  UNL     1      -9.469  19.905  76.916  1.00  0.00     0.228 C 
HETATM    5  O1  UNL     1      -9.065  21.049  76.587  1.00  0.00    -0.273 OA
HETATM    6  N1  UNL     1      -9.246  19.454  78.246  1.00  0.00    -0.321 N 
HETATM    7  C5  UNL     1      -8.157  19.976  79.050  1.00  0.00     0.159 C 
HETATM    8  C6  UNL     1     -10.136  18.464  78.765  1.00  0.00     0.049 A 
HETATM    9  C7  UNL     1      -9.984  17.973  80.053  1.00  0.00     0.060 A 
HETATM   10  C8  UNL     1     -10.848  17.017  80.545  1.00  0.00     0.044 A 
HETATM   11  C10 UNL     1     -11.870  16.551  79.743  1.00  0.00     0.031 A 
HETATM   12  C11 UNL     1     -12.053  17.019  78.448  1.00  0.00     0.016 A 
HETATM   13  C12 UNL     1     -11.174  17.979  77.972  1.00  0.00    -0.003 A 
ENDROOT
BRANCH  10  14
HETATM   14  N2  UNL     1     -10.638  16.550  81.889  1.00  0.00    -0.285 N 
ATOM     15  H2  UNL     1     -10.203  15.638  82.034  1.00  0.00     0.178 HD
BRANCH  14  16
HETATM   16  S1  UNL     1     -11.096  17.482  83.257  1.00  0.00     0.227 S 
HETATM   17  C9  UNL     1      -9.715  18.417  83.872  1.00  0.00     0.186 C 
HETATM   18  O2  UNL     1     -12.225  18.420  82.861  1.00  0.00    -0.206 OA
HETATM   19  O3  UNL     1     -11.648  16.553  84.296  1.00  0.00    -0.206 OA
ENDBRANCH  14  16
ENDBRANCH  10  14
TORSDOF 2
ENDMDL
