MODEL 6
REMARK VINA RESULT: -6.950523517      4.068      7.083
REMARK  2 active torsions:
REMARK  status: ('A' for Active; 'I' for Inactive)
REMARK    1  A    between atoms: C8_10  and  N2_11 
REMARK    2  A    between atoms: N2_11  and  S1_13 
ROOT
HETATM    1  C1  UNL     1      -9.426  21.160  78.195  1.00  0.00     0.020 C 
HETATM    2  C2  UNL     1      -9.696  19.934  78.612  1.00  0.00    -0.046 C 
HETATM    3  C3  UNL     1      -9.011  19.350  79.800  1.00  0.00     0.142 C 
HETATM    4  C4  UNL     1     -10.073  18.656  80.603  1.00  0.00     0.228 C 
HETATM    5  O1  UNL     1     -10.123  18.811  81.850  1.00  0.00    -0.273 OA
HETATM    6  N1  UNL     1     -11.034  17.817  79.976  1.00  0.00    -0.321 N 
HETATM    7  C5  UNL     1     -11.696  16.748  80.702  1.00  0.00     0.159 C 
HETATM    8  C6  UNL     1     -11.326  18.064  78.600  1.00  0.00     0.049 A 
HETATM    9  C7  UNL     1     -12.251  17.289  77.916  1.00  0.00     0.060 A 
HETATM   10  C8  UNL     1     -12.526  17.534  76.587  1.00  0.00     0.044 A 
HETATM   11  C10 UNL     1     -11.873  18.561  75.939  1.00  0.00     0.031 A 
HETATM   12  C11 UNL     1     -10.939  19.359  76.590  1.00  0.00     0.016 A 
HETATM   13  C12 UNL     1     -10.676  19.096  77.925  1.00  0.00    -0.003 A 
ENDROOT
BRANCH  10  14
HETATM   14  N2  UNL     1     -13.496  16.695  75.936  1.00  0.00    -0.285 N 
ATOM     15  H2  UNL     1     -13.306  15.697  75.845  1.00  0.00     0.178 HD
BRANCH  14  16
HETATM   16  S1  UNL     1     -14.967  17.324  75.309  1.00  0.00     0.227 S 
HETATM   17  C9  UNL     1     -16.237  16.081  75.319  1.00  0.00     0.186 C 
HETATM   18  O2  UNL     1     -15.397  18.513  76.154  1.00  0.00    -0.206 OA
HETATM   19  O3  UNL     1     -14.706  17.845  73.928  1.00  0.00    -0.206 OA
ENDBRANCH  14  16
ENDBRANCH  10  14
TORSDOF 2
ENDMDL
