MODEL 3
REMARK VINA RESULT: -7.423247313      1.955      2.328
REMARK  2 active torsions:
REMARK  status: ('A' for Active; 'I' for Inactive)
REMARK    1  A    between atoms: C8_10  and  N2_11 
REMARK    2  A    between atoms: N2_11  and  S1_13 
ROOT
HETATM    1  C1  UNL     1     -12.165  18.677  76.050  1.00  0.00     0.020 C 
HETATM    2  C2  UNL     1     -10.985  18.752  76.643  1.00  0.00    -0.046 C 
HETATM    3  C3  UNL     1      -9.794  19.300  75.936  1.00  0.00     0.142 C 
HETATM    4  C4  UNL     1      -9.095  20.199  76.914  1.00  0.00     0.228 C 
HETATM    5  O1  UNL     1      -8.694  21.335  76.553  1.00  0.00    -0.273 OA
HETATM    6  N1  UNL     1      -8.875  19.788  78.257  1.00  0.00    -0.321 N 
HETATM    7  C5  UNL     1      -7.791  20.338  79.050  1.00  0.00     0.159 C 
HETATM    8  C6  UNL     1      -9.763  18.811  78.802  1.00  0.00     0.049 A 
HETATM    9  C7  UNL     1      -9.614  18.358  80.104  1.00  0.00     0.060 A 
HETATM   10  C8  UNL     1     -10.476  17.413  80.621  1.00  0.00     0.044 A 
HETATM   11  C10 UNL     1     -11.493  16.920  79.830  1.00  0.00     0.031 A 
HETATM   12  C11 UNL     1     -11.673  17.349  78.521  1.00  0.00     0.016 A 
HETATM   13  C12 UNL     1     -10.796  18.298  78.020  1.00  0.00    -0.003 A 
ENDROOT
BRANCH  10  14
HETATM   14  N2  UNL     1     -10.268  16.986  81.978  1.00  0.00    -0.285 N 
ATOM     15  H2  UNL     1     -10.908  17.311  82.703  1.00  0.00     0.178 HD
BRANCH  14  16
HETATM   16  S1  UNL     1      -8.974  15.944  82.416  1.00  0.00     0.227 S 
HETATM   17  C9  UNL     1      -7.549  16.886  82.908  1.00  0.00     0.186 C 
HETATM   18  O2  UNL     1      -9.424  15.047  83.557  1.00  0.00    -0.206 OA
HETATM   19  O3  UNL     1      -8.675  15.048  81.251  1.00  0.00    -0.206 OA
ENDBRANCH  14  16
ENDBRANCH  10  14
TORSDOF 2
ENDMDL
