MODEL 7
REMARK VINA RESULT: -6.933470942      4.201      7.036
REMARK  2 active torsions:
REMARK  status: ('A' for Active; 'I' for Inactive)
REMARK    1  A    between atoms: C8_10  and  N2_11 
REMARK    2  A    between atoms: N2_11  and  S1_13 
ROOT
HETATM    1  C1  UNL     1      -9.419  21.152  78.189  1.00  0.00     0.020 C 
HETATM    2  C2  UNL     1      -9.698  19.929  78.611  1.00  0.00    -0.046 C 
HETATM    3  C3  UNL     1      -9.027  19.349  79.808  1.00  0.00     0.142 C 
HETATM    4  C4  UNL     1     -10.099  18.664  80.605  1.00  0.00     0.228 C 
HETATM    5  O1  UNL     1     -10.159  18.826  81.851  1.00  0.00    -0.273 OA
HETATM    6  N1  UNL     1     -11.058  17.826  79.974  1.00  0.00    -0.321 N 
HETATM    7  C5  UNL     1     -11.732  16.765  80.700  1.00  0.00     0.159 C 
HETATM    8  C6  UNL     1     -11.337  18.067  78.594  1.00  0.00     0.049 A 
HETATM    9  C7  UNL     1     -12.260  17.293  77.907  1.00  0.00     0.060 A 
HETATM   10  C8  UNL     1     -12.522  17.532  76.574  1.00  0.00     0.044 A 
HETATM   11  C10 UNL     1     -11.857  18.553  75.926  1.00  0.00     0.031 A 
HETATM   12  C11 UNL     1     -10.926  19.350  76.581  1.00  0.00     0.016 A 
HETATM   13  C12 UNL     1     -10.676  19.092  77.920  1.00  0.00    -0.003 A 
ENDROOT
BRANCH  10  14
HETATM   14  N2  UNL     1     -13.490  16.694  75.919  1.00  0.00    -0.285 N 
ATOM     15  H2  UNL     1     -13.259  15.717  75.739  1.00  0.00     0.178 HD
BRANCH  14  16
HETATM   16  S1  UNL     1     -15.027  17.290  75.433  1.00  0.00     0.227 S 
HETATM   17  C9  UNL     1     -15.001  17.769  73.721  1.00  0.00     0.186 C 
HETATM   18  O2  UNL     1     -16.070  16.207  75.654  1.00  0.00    -0.206 OA
HETATM   19  O3  UNL     1     -15.394  18.435  76.328  1.00  0.00    -0.206 OA
ENDBRANCH  14  16
ENDBRANCH  10  14
TORSDOF 2
ENDMDL
