MODEL 5
REMARK VINA RESULT: -7.265157643      3.422      6.832
REMARK  4 active torsions:
REMARK  status: ('A' for Active; 'I' for Inactive)
REMARK    1  A    between atoms: C2_2  and  C3_3 
REMARK    2  A    between atoms: C3_3  and  C4_4 
REMARK    3  A    between atoms: C3_3  and  C6_6 
REMARK    4  A    between atoms: C6_6  and  C7_7 
ROOT
HETATM    1  C7  UNL     1       2.491  27.032   8.042  1.00  0.00    -0.012 A 
HETATM    2  C8  UNL     1       2.671  28.421   7.893  1.00  0.00     0.028 A 
HETATM    3  C9  UNL     1       1.469  29.005   8.186  1.00  0.00     0.099 A 
HETATM    4  N1  UNL     1       0.562  28.062   8.508  1.00  0.00    -0.307 N 
HETATM    5  C10 UNL     1       1.186  26.847   8.423  1.00  0.00     0.121 A 
HETATM    6  N2  UNL     1       0.445  25.753   8.745  1.00  0.00    -0.308 N 
ATOM      7  H2  UNL     1       0.868  24.827   8.698  1.00  0.00     0.170 HD
HETATM    8  C11 UNL     1      -0.836  25.880   9.123  1.00  0.00     0.261 A 
HETATM    9  O1  UNL     1      -1.515  24.850   9.418  1.00  0.00    -0.267 OA
HETATM   10  C12 UNL     1      -1.462  27.093   9.207  1.00  0.00     0.081 A 
HETATM   11  C13 UNL     1      -2.769  27.265   9.594  1.00  0.00     0.052 A 
HETATM   12 CL1  UNL     1      -3.659  25.794   9.987  1.00  0.00    -0.083 Cl
HETATM   13  C14 UNL     1      -3.344  28.508   9.665  1.00  0.00     0.025 A 
HETATM   14  C15 UNL     1      -2.623  29.640   9.349  1.00  0.00     0.004 A 
HETATM   15  C16 UNL     1      -1.306  29.452   8.961  1.00  0.00     0.031 A 
HETATM   16  C17 UNL     1      -0.718  28.202   8.885  1.00  0.00     0.058 A 
ENDROOT
BRANCH   1  17
HETATM   17  C6  UNL     1       3.518  26.041   7.738  1.00  0.00     0.047 C 
BRANCH  17  18
HETATM   18  C3  UNL     1       4.186  26.077   6.425  1.00  0.00    -0.011 C 
BRANCH  18  19
HETATM   19  C2  UNL     1       5.575  26.517   6.387  1.00  0.00     0.000 C 
HETATM   20  C1  UNL     1       6.072  26.946   5.046  1.00  0.00     0.005 C 
ENDBRANCH  18  19
BRANCH  18  21
HETATM   21  C4  UNL     1       3.993  24.736   5.682  1.00  0.00     0.000 C 
HETATM   22  C5  UNL     1       2.517  24.327   5.696  1.00  0.00     0.005 C 
ENDBRANCH  18  21
ENDBRANCH  17  18
ENDBRANCH   1  17
TORSDOF 4
ENDMDL
