MODEL 3
REMARK VINA RESULT: -7.647023628      0.574      1.568
REMARK  4 active torsions:
REMARK  status: ('A' for Active; 'I' for Inactive)
REMARK    1  A    between atoms: C2_2  and  C3_3 
REMARK    2  A    between atoms: C3_3  and  C4_4 
REMARK    3  A    between atoms: C3_3  and  C6_6 
REMARK    4  A    between atoms: C6_6  and  C7_7 
ROOT
HETATM    1  C7  UNL     1       0.382  28.673   9.179  1.00  0.00    -0.012 A 
HETATM    2  C8  UNL     1      -0.601  27.675   9.027  1.00  0.00     0.028 A 
HETATM    3  C9  UNL     1      -0.041  26.687   8.263  1.00  0.00     0.099 A 
HETATM    4  N1  UNL     1       1.225  27.015   7.938  1.00  0.00    -0.307 N 
HETATM    5  C10 UNL     1       1.490  28.234   8.500  1.00  0.00     0.121 A 
HETATM    6  N2  UNL     1       2.741  28.734   8.317  1.00  0.00    -0.308 N 
ATOM      7  H2  UNL     1       2.986  29.639   8.719  1.00  0.00     0.170 HD
HETATM    8  C11 UNL     1       3.656  28.052   7.612  1.00  0.00     0.261 A 
HETATM    9  O1  UNL     1       4.818  28.533   7.448  1.00  0.00    -0.267 OA
HETATM   10  C12 UNL     1       3.393  26.835   7.047  1.00  0.00     0.081 A 
HETATM   11  C13 UNL     1       4.302  26.103   6.323  1.00  0.00     0.052 A 
HETATM   12 CL1  UNL     1       5.897  26.828   6.128  1.00  0.00    -0.083 Cl
HETATM   13  C14 UNL     1       3.983  24.884   5.783  1.00  0.00     0.025 A 
HETATM   14  C15 UNL     1       2.726  24.343   5.950  1.00  0.00     0.004 A 
HETATM   15  C16 UNL     1       1.818  25.091   6.684  1.00  0.00     0.031 A 
HETATM   16  C17 UNL     1       2.131  26.323   7.231  1.00  0.00     0.058 A 
ENDROOT
BRANCH   1  17
HETATM   17  C6  UNL     1       0.154  29.941   9.862  1.00  0.00     0.047 C 
BRANCH  17  18
HETATM   18  C3  UNL     1       0.065  29.960  11.334  1.00  0.00    -0.011 C 
BRANCH  18  19
HETATM   19  C2  UNL     1      -1.264  29.912  11.929  1.00  0.00     0.000 C 
HETATM   20  C1  UNL     1      -2.370  30.420  11.065  1.00  0.00     0.005 C 
ENDBRANCH  18  19
BRANCH  18  21
HETATM   21  C4  UNL     1       1.003  28.896  11.947  1.00  0.00     0.000 C 
HETATM   22  C5  UNL     1       0.496  28.470  13.327  1.00  0.00     0.005 C 
ENDBRANCH  18  21
ENDBRANCH  17  18
ENDBRANCH   1  17
TORSDOF 4
ENDMDL
