MODEL 9
REMARK VINA RESULT: -6.933095432      3.358      6.042
REMARK  4 active torsions:
REMARK  status: ('A' for Active; 'I' for Inactive)
REMARK    1  A    between atoms: C2_2  and  C3_3 
REMARK    2  A    between atoms: C3_3  and  C4_4 
REMARK    3  A    between atoms: C3_3  and  C6_6 
REMARK    4  A    between atoms: C6_6  and  C7_7 
ROOT
HETATM    1  C7  UNL     1      -2.478  25.360   8.816  1.00  0.00    -0.012 A 
HETATM    2  C8  UNL     1      -3.152  26.421   9.451  1.00  0.00     0.028 A 
HETATM    3  C9  UNL     1      -2.276  27.472   9.493  1.00  0.00     0.099 A 
HETATM    4  N1  UNL     1      -1.107  27.123   8.920  1.00  0.00    -0.307 N 
HETATM    5  C10 UNL     1      -1.227  25.826   8.500  1.00  0.00     0.121 A 
HETATM    6  N2  UNL     1      -0.156  25.288   7.859  1.00  0.00    -0.308 N 
ATOM      7  H2  UNL     1      -0.199  24.325   7.526  1.00  0.00     0.170 HD
HETATM    8  C11 UNL     1       0.958  26.010   7.659  1.00  0.00     0.261 A 
HETATM    9  O1  UNL     1       1.949  25.493   7.061  1.00  0.00    -0.267 OA
HETATM   10  C12 UNL     1       1.081  27.305   8.079  1.00  0.00     0.081 A 
HETATM   11  C13 UNL     1       2.200  28.079   7.890  1.00  0.00     0.052 A 
HETATM   12 CL1  UNL     1       3.545  27.301   7.056  1.00  0.00    -0.083 Cl
HETATM   13  C14 UNL     1       2.265  29.376   8.330  1.00  0.00     0.025 A 
HETATM   14  C15 UNL     1       1.198  29.957   8.982  1.00  0.00     0.004 A 
HETATM   15  C16 UNL     1       0.074  29.165   9.165  1.00  0.00     0.031 A 
HETATM   16  C17 UNL     1       0.000  27.856   8.726  1.00  0.00     0.058 A 
ENDROOT
BRANCH   1  17
HETATM   17  C6  UNL     1      -3.039  24.025   8.648  1.00  0.00     0.047 C 
BRANCH  17  18
HETATM   18  C3  UNL     1      -4.140  23.822   7.688  1.00  0.00    -0.011 C 
BRANCH  18  19
HETATM   19  C2  UNL     1      -4.221  24.732   6.553  1.00  0.00     0.000 C 
HETATM   20  C1  UNL     1      -4.918  24.191   5.349  1.00  0.00     0.005 C 
ENDBRANCH  18  19
BRANCH  18  21
HETATM   21  C4  UNL     1      -4.200  22.345   7.239  1.00  0.00     0.000 C 
HETATM   22  C5  UNL     1      -3.092  21.535   7.918  1.00  0.00     0.005 C 
ENDBRANCH  18  21
ENDBRANCH  17  18
ENDBRANCH   1  17
TORSDOF 4
ENDMDL
