MODEL 2
REMARK VINA RESULT: -7.756663514      1.280      1.932
REMARK  4 active torsions:
REMARK  status: ('A' for Active; 'I' for Inactive)
REMARK    1  A    between atoms: C2_2  and  C3_3 
REMARK    2  A    between atoms: C3_3  and  C4_4 
REMARK    3  A    between atoms: C3_3  and  C6_6 
REMARK    4  A    between atoms: C6_6  and  C7_7 
ROOT
HETATM    1  C7  UNL     1      -0.026  27.748   9.145  1.00  0.00    -0.012 A 
HETATM    2  C8  UNL     1      -0.798  26.612   8.831  1.00  0.00     0.028 A 
HETATM    3  C9  UNL     1      -0.030  25.833   8.008  1.00  0.00     0.099 A 
HETATM    4  N1  UNL     1       1.166  26.419   7.800  1.00  0.00    -0.307 N 
HETATM    5  C10 UNL     1       1.174  27.595   8.498  1.00  0.00     0.121 A 
HETATM    6  N2  UNL     1       2.316  28.331   8.447  1.00  0.00    -0.308 N 
ATOM      7  H2  UNL     1       2.369  29.214   8.953  1.00  0.00     0.170 HD
HETATM    8  C11 UNL     1       3.373  27.908   7.737  1.00  0.00     0.261 A 
HETATM    9  O1  UNL     1       4.430  28.606   7.697  1.00  0.00    -0.267 OA
HETATM   10  C12 UNL     1       3.367  26.733   7.036  1.00  0.00     0.081 A 
HETATM   11  C13 UNL     1       4.428  26.263   6.302  1.00  0.00     0.052 A 
HETATM   12 CL1  UNL     1       5.867  27.282   6.284  1.00  0.00    -0.083 Cl
HETATM   13  C14 UNL     1       4.366  25.074   5.623  1.00  0.00     0.025 A 
HETATM   14  C15 UNL     1       3.227  24.299   5.654  1.00  0.00     0.004 A 
HETATM   15  C16 UNL     1       2.163  24.785   6.399  1.00  0.00     0.031 A 
HETATM   16  C17 UNL     1       2.216  25.984   7.087  1.00  0.00     0.058 A 
ENDROOT
BRANCH   1  17
HETATM   17  C6  UNL     1      -0.517  28.870   9.936  1.00  0.00     0.047 C 
BRANCH  17  18
HETATM   18  C3  UNL     1      -1.553  29.752   9.369  1.00  0.00    -0.011 C 
BRANCH  18  19
HETATM   19  C2  UNL     1      -2.945  29.436   9.665  1.00  0.00     0.000 C 
HETATM   20  C1  UNL     1      -3.955  30.276   8.957  1.00  0.00     0.005 C 
ENDBRANCH  18  19
BRANCH  18  21
HETATM   21  C4  UNL     1      -1.229  31.233   9.671  1.00  0.00     0.000 C 
HETATM   22  C5  UNL     1      -0.422  31.347  10.968  1.00  0.00     0.005 C 
ENDBRANCH  18  21
ENDBRANCH  17  18
ENDBRANCH   1  17
TORSDOF 4
ENDMDL
