MODEL 1
REMARK VINA RESULT: -7.765521897      0.000      0.000
REMARK  4 active torsions:
REMARK  status: ('A' for Active; 'I' for Inactive)
REMARK    1  A    between atoms: C2_2  and  C3_3 
REMARK    2  A    between atoms: C3_3  and  C4_4 
REMARK    3  A    between atoms: C3_3  and  C6_6 
REMARK    4  A    between atoms: C6_6  and  C7_7 
ROOT
HETATM    1  C7  UNL     1       0.328  28.620   9.134  1.00  0.00    -0.012 A 
HETATM    2  C8  UNL     1      -0.651  27.621   8.970  1.00  0.00     0.028 A 
HETATM    3  C9  UNL     1      -0.082  26.636   8.208  1.00  0.00     0.099 A 
HETATM    4  N1  UNL     1       1.187  26.967   7.897  1.00  0.00    -0.307 N 
HETATM    5  C10 UNL     1       1.445  28.185   8.465  1.00  0.00     0.121 A 
HETATM    6  N2  UNL     1       2.696  28.688   8.295  1.00  0.00    -0.308 N 
ATOM      7  H2  UNL     1       2.935  29.592   8.702  1.00  0.00     0.170 HD
HETATM    8  C11 UNL     1       3.620  28.009   7.598  1.00  0.00     0.261 A 
HETATM    9  O1  UNL     1       4.782  28.493   7.446  1.00  0.00    -0.267 OA
HETATM   10  C12 UNL     1       3.364  26.793   7.027  1.00  0.00     0.081 A 
HETATM   11  C13 UNL     1       4.282  26.064   6.310  1.00  0.00     0.052 A 
HETATM   12 CL1  UNL     1       5.878  26.793   6.133  1.00  0.00    -0.083 Cl
HETATM   13  C14 UNL     1       3.970  24.846   5.765  1.00  0.00     0.025 A 
HETATM   14  C15 UNL     1       2.713  24.302   5.918  1.00  0.00     0.004 A 
HETATM   15  C16 UNL     1       1.796  25.048   6.644  1.00  0.00     0.031 A 
HETATM   16  C17 UNL     1       2.101  26.278   7.198  1.00  0.00     0.058 A 
ENDROOT
BRANCH   1  17
HETATM   17  C6  UNL     1       0.092  29.886   9.817  1.00  0.00     0.047 C 
BRANCH  17  18
HETATM   18  C3  UNL     1      -0.148  29.885  11.272  1.00  0.00    -0.011 C 
BRANCH  18  19
HETATM   19  C2  UNL     1       0.827  29.206  12.116  1.00  0.00     0.000 C 
HETATM   20  C1  UNL     1       0.253  28.403  13.235  1.00  0.00     0.005 C 
ENDBRANCH  18  19
BRANCH  18  21
HETATM   21  C4  UNL     1      -0.437  31.317  11.774  1.00  0.00     0.000 C 
HETATM   22  C5  UNL     1      -1.224  32.103  10.721  1.00  0.00     0.005 C 
ENDBRANCH  18  21
ENDBRANCH  17  18
ENDBRANCH   1  17
TORSDOF 4
ENDMDL
