MODEL 7
REMARK VINA RESULT: -7.173606564      2.733      4.618
REMARK  4 active torsions:
REMARK  status: ('A' for Active; 'I' for Inactive)
REMARK    1  A    between atoms: C2_2  and  C3_3 
REMARK    2  A    between atoms: C3_3  and  C4_4 
REMARK    3  A    between atoms: C3_3  and  C6_6 
REMARK    4  A    between atoms: C6_6  and  C7_7 
ROOT
HETATM    1  C7  UNL     1      -1.217  26.189   8.834  1.00  0.00    -0.012 A 
HETATM    2  C8  UNL     1      -1.138  27.425   9.506  1.00  0.00     0.028 A 
HETATM    3  C9  UNL     1       0.116  27.919   9.270  1.00  0.00     0.099 A 
HETATM    4  N1  UNL     1       0.811  27.065   8.493  1.00  0.00    -0.307 N 
HETATM    5  C10 UNL     1      -0.005  26.001   8.221  1.00  0.00     0.121 A 
HETATM    6  N2  UNL     1       0.501  25.031   7.414  1.00  0.00    -0.308 N 
ATOM      7  H2  UNL     1      -0.071  24.219   7.182  1.00  0.00     0.170 HD
HETATM    8  C11 UNL     1       1.745  25.129   6.920  1.00  0.00     0.261 A 
HETATM    9  O1  UNL     1       2.204  24.215   6.171  1.00  0.00    -0.267 OA
HETATM   10  C12 UNL     1       2.563  26.190   7.193  1.00  0.00     0.081 A 
HETATM   11  C13 UNL     1       3.840  26.330   6.704  1.00  0.00     0.052 A 
HETATM   12 CL1  UNL     1       4.419  25.024   5.672  1.00  0.00    -0.083 Cl
HETATM   13  C14 UNL     1       4.614  27.420   7.008  1.00  0.00     0.025 A 
HETATM   14  C15 UNL     1       4.134  28.426   7.820  1.00  0.00     0.004 A 
HETATM   15  C16 UNL     1       2.844  28.272   8.305  1.00  0.00     0.031 A 
HETATM   16  C17 UNL     1       2.057  27.175   8.006  1.00  0.00     0.058 A 
ENDROOT
BRANCH   1  17
HETATM   17  C6  UNL     1      -2.369  25.298   8.905  1.00  0.00     0.047 C 
BRANCH  17  18
HETATM   18  C3  UNL     1      -3.578  25.621   8.124  1.00  0.00    -0.011 C 
BRANCH  18  19
HETATM   19  C2  UNL     1      -3.979  24.683   7.084  1.00  0.00     0.000 C 
HETATM   20  C1  UNL     1      -5.208  25.059   6.325  1.00  0.00     0.005 C 
ENDBRANCH  18  19
BRANCH  18  21
HETATM   21  C4  UNL     1      -4.754  25.965   9.066  1.00  0.00     0.000 C 
HETATM   22  C5  UNL     1      -4.877  27.483   9.231  1.00  0.00     0.005 C 
ENDBRANCH  18  21
ENDBRANCH  17  18
ENDBRANCH   1  17
TORSDOF 4
ENDMDL
