MODEL 5
REMARK VINA RESULT: -11.253988682      1.234      1.417
REMARK  7 active torsions:
REMARK  status: ('A' for Active; 'I' for Inactive)
REMARK    1  A    between atoms: C6_6  and  C7_7 
REMARK    2  A    between atoms: C7_7  and  N1_8 
REMARK    3  A    between atoms: C8_13  and  C9_14 
REMARK    4  A    between atoms: C11_20  and  C12_21 
REMARK    5  A    between atoms: C12_21  and  C13_22 
REMARK    6  A    between atoms: C13_22  and  N5_23 
REMARK    7  A    between atoms: C13_22  and  C14_27 
ROOT
HETATM    1  N1  UNL     1     -18.001  -7.280   9.677  1.00  0.00    -0.214 N 
HETATM    2  N2  UNL     1     -17.308  -7.214  10.798  1.00  0.00    -0.224 N 
ATOM      3  H2  UNL     1     -17.115  -6.356  11.315  1.00  0.00     0.210 HD
HETATM    4  N3  UNL     1     -16.899  -8.420  11.154  1.00  0.00    -0.266 N 
ATOM      5  H3  UNL     1     -16.345  -8.638  11.983  1.00  0.00     0.190 HD
HETATM    6  C8  UNL     1     -17.328  -9.307  10.252  1.00  0.00     0.174 A 
HETATM    7  N6  UNL     1     -18.013  -8.562   9.342  1.00  0.00    -0.264 N 
ATOM      8  H6  UNL     1     -18.474  -8.940   8.514  1.00  0.00     0.190 HD
ENDROOT
BRANCH   6   9
HETATM    9  C9  UNL     1     -17.119 -10.747  10.236  1.00  0.00     0.157 A 
HETATM   10  O1  UNL     1     -17.721 -11.636  11.034  1.00  0.00    -0.230 OA
HETATM   11  N4  UNL     1     -17.340 -12.834  10.780  1.00  0.00    -0.225 N 
HETATM   12  C10 UNL     1     -16.447 -12.788   9.779  1.00  0.00     0.274 A 
ATOM     13  H4  UNL     1     -17.661 -13.676  11.257  1.00  0.00     0.198 HD
HETATM   14  O2  UNL     1     -15.865 -13.775   9.269  1.00  0.00    -0.266 OA
HETATM   15  C11 UNL     1     -16.293 -11.441   9.419  1.00  0.00     0.054 A 
BRANCH  15  16
HETATM   16  C12 UNL     1     -15.350 -10.980   8.392  1.00  0.00     0.091 C 
BRANCH  16  17
HETATM   17  C13 UNL     1     -15.851 -11.025   6.983  1.00  0.00     0.287 C 
BRANCH  17  18
HETATM   18  N5  UNL     1     -16.072 -12.308   6.413  1.00  0.00    -0.065 N 
ATOM     19  H53 UNL     1     -15.943 -12.257   5.403  1.00  0.00     0.275 HD
ATOM     20  H52 UNL     1     -15.306 -12.930   6.670  1.00  0.00     0.275 HD
ATOM     21  H51 UNL     1     -16.962 -12.761   6.619  1.00  0.00     0.275 HD
ENDBRANCH  17  18
BRANCH  17  22
HETATM   22  C14 UNL     1     -14.860 -10.284   6.153  1.00  0.00     0.204 C 
HETATM   23  O3  UNL     1     -14.696  -9.067   6.359  1.00  0.00    -0.646 OA
HETATM   24  O4  UNL     1     -14.145 -10.927   5.185  1.00  0.00    -0.646 OA
ENDBRANCH  17  22
ENDBRANCH  16  17
ENDBRANCH  15  16
ENDBRANCH   6   9
BRANCH   1  25
HETATM   25  C7  UNL     1     -18.630  -6.176   8.947  1.00  0.00     0.209 C 
BRANCH  25  26
HETATM   26  C6  UNL     1     -19.702  -5.597   9.782  1.00  0.00    -0.036 A 
HETATM   27  C5  UNL     1     -20.982  -6.087   9.749  1.00  0.00     0.009 A 
HETATM   28  C4  UNL     1     -21.977  -5.562  10.519  1.00  0.00     0.001 A 
HETATM   29  C3  UNL     1     -21.651  -4.509  11.345  1.00  0.00     0.007 A 
HETATM   30  C2  UNL     1     -20.389  -4.011  11.393  1.00  0.00    -0.061 A 
HETATM   31  C1  UNL     1     -20.039  -2.868  12.293  1.00  0.00     0.048 C 
HETATM   32  C15 UNL     1     -19.404  -4.550  10.613  1.00  0.00     0.015 A 
ENDBRANCH  25  26
ENDBRANCH   1  25
TORSDOF 7
ENDMDL
