MODEL 15
REMARK VINA RESULT: -8.224042493      3.777      8.067
REMARK  7 active torsions:
REMARK  status: ('A' for Active; 'I' for Inactive)
REMARK    1  A    between atoms: C6_6  and  C7_7 
REMARK    2  A    between atoms: C7_7  and  N1_8 
REMARK    3  A    between atoms: C8_13  and  C9_14 
REMARK    4  A    between atoms: C11_20  and  C12_21 
REMARK    5  A    between atoms: C12_21  and  C13_22 
REMARK    6  A    between atoms: C13_22  and  N5_23 
REMARK    7  A    between atoms: C13_22  and  C14_27 
ROOT
HETATM    1  N1  UNL     1     -17.760  -7.995  10.139  1.00  0.00    -0.214 N 
HETATM    2  N2  UNL     1     -17.425  -7.336   9.045  1.00  0.00    -0.224 N 
ATOM      3  H2  UNL     1     -17.028  -7.761   8.207  1.00  0.00     0.210 HD
HETATM    4  N3  UNL     1     -17.679  -6.046   9.192  1.00  0.00    -0.266 N 
ATOM      5  H3  UNL     1     -17.510  -5.325   8.490  1.00  0.00     0.190 HD
HETATM    6  C8  UNL     1     -18.193  -5.842  10.407  1.00  0.00     0.174 A 
HETATM    7  N6  UNL     1     -18.230  -7.079  10.973  1.00  0.00    -0.264 N 
ATOM      8  H6  UNL     1     -18.574  -7.275  11.914  1.00  0.00     0.190 HD
ENDROOT
BRANCH   6   9
HETATM    9  C9  UNL     1     -18.622  -4.586  11.002  1.00  0.00     0.157 A 
HETATM   10  O1  UNL     1     -17.842  -3.528  11.252  1.00  0.00    -0.230 OA
HETATM   11  N4  UNL     1     -18.506  -2.563  11.774  1.00  0.00    -0.225 N 
HETATM   12  C10 UNL     1     -19.786  -2.950  11.896  1.00  0.00     0.274 A 
ATOM     13  H4  UNL     1     -18.126  -1.657  12.048  1.00  0.00     0.198 HD
HETATM   14  O2  UNL     1     -20.719  -2.258  12.367  1.00  0.00    -0.266 OA
HETATM   15  C11 UNL     1     -19.874  -4.260  11.402  1.00  0.00     0.054 A 
BRANCH  15  16
HETATM   16  C12 UNL     1     -21.111  -5.050  11.421  1.00  0.00     0.091 C 
BRANCH  16  17
HETATM   17  C13 UNL     1     -21.801  -5.210  10.103  1.00  0.00     0.287 C 
BRANCH  17  18
HETATM   18  N5  UNL     1     -23.181  -5.548  10.130  1.00  0.00    -0.065 N 
ATOM     19  H53 UNL     1     -23.348  -6.233  10.867  1.00  0.00     0.275 HD
ATOM     20  H52 UNL     1     -23.717  -4.755  10.483  1.00  0.00     0.275 HD
ATOM     21  H51 UNL     1     -23.596  -5.878   9.259  1.00  0.00     0.275 HD
ENDBRANCH  17  18
BRANCH  17  22
HETATM   22  C14 UNL     1     -21.054  -6.258   9.354  1.00  0.00     0.204 C 
HETATM   23  O3  UNL     1     -21.092  -7.433   9.766  1.00  0.00    -0.646 OA
HETATM   24  O4  UNL     1     -20.341  -5.938   8.235  1.00  0.00    -0.646 OA
ENDBRANCH  17  22
ENDBRANCH  16  17
ENDBRANCH  15  16
ENDBRANCH   6   9
BRANCH   1  25
HETATM   25  C7  UNL     1     -17.642  -9.434  10.389  1.00  0.00     0.209 C 
BRANCH  25  26
HETATM   26  C6  UNL     1     -16.940 -10.062   9.251  1.00  0.00    -0.036 A 
HETATM   27  C5  UNL     1     -16.665  -9.365   8.103  1.00  0.00     0.009 A 
HETATM   28  C4  UNL     1     -16.015  -9.935   7.050  1.00  0.00     0.001 A 
HETATM   29  C3  UNL     1     -15.636 -11.254   7.176  1.00  0.00     0.007 A 
HETATM   30  C2  UNL     1     -15.898 -11.961   8.306  1.00  0.00    -0.061 A 
HETATM   31  C1  UNL     1     -15.484 -13.392   8.440  1.00  0.00     0.048 C 
HETATM   32  C15 UNL     1     -16.553 -11.372   9.352  1.00  0.00     0.015 A 
ENDBRANCH  25  26
ENDBRANCH   1  25
TORSDOF 7
ENDMDL
