MODEL 16
REMARK VINA RESULT: -7.881529635      3.873      7.854
REMARK  7 active torsions:
REMARK  status: ('A' for Active; 'I' for Inactive)
REMARK    1  A    between atoms: C6_6  and  C7_7 
REMARK    2  A    between atoms: C7_7  and  N1_8 
REMARK    3  A    between atoms: C8_13  and  C9_14 
REMARK    4  A    between atoms: C11_20  and  C12_21 
REMARK    5  A    between atoms: C12_21  and  C13_22 
REMARK    6  A    between atoms: C13_22  and  N5_23 
REMARK    7  A    between atoms: C13_22  and  C14_27 
ROOT
HETATM    1  N1  UNL     1     -17.394  -7.195   9.046  1.00  0.00    -0.214 N 
HETATM    2  N2  UNL     1     -17.122  -7.617  10.266  1.00  0.00    -0.224 N 
ATOM      3  H2  UNL     1     -16.675  -8.507  10.489  1.00  0.00     0.210 HD
HETATM    4  N3  UNL     1     -17.511  -6.721  11.158  1.00  0.00    -0.266 N 
ATOM      5  H3  UNL     1     -17.413  -6.810  12.170  1.00  0.00     0.190 HD
HETATM    6  C8  UNL     1     -18.054  -5.682  10.519  1.00  0.00     0.174 A 
HETATM    7  N6  UNL     1     -17.966  -6.009   9.201  1.00  0.00    -0.264 N 
ATOM      8  H6  UNL     1     -18.295  -5.421   8.435  1.00  0.00     0.190 HD
ENDROOT
BRANCH   6   9
HETATM    9  C9  UNL     1     -18.614  -4.467  11.091  1.00  0.00     0.157 A 
HETATM   10  O1  UNL     1     -17.939  -3.344  11.364  1.00  0.00    -0.230 OA
HETATM   11  N4  UNL     1     -18.704  -2.440  11.856  1.00  0.00    -0.225 N 
HETATM   12  C10 UNL     1     -19.949  -2.938  11.933  1.00  0.00     0.274 A 
ATOM     13  H4  UNL     1     -18.416  -1.504  12.139  1.00  0.00     0.198 HD
HETATM   14  O2  UNL     1     -20.956  -2.330  12.366  1.00  0.00    -0.266 OA
HETATM   15  C11 UNL     1     -19.903  -4.251  11.442  1.00  0.00     0.054 A 
BRANCH  15  16
HETATM   16  C12 UNL     1     -21.066  -5.147  11.420  1.00  0.00     0.091 C 
BRANCH  16  17
HETATM   17  C13 UNL     1     -21.785  -5.247  10.112  1.00  0.00     0.287 C 
BRANCH  17  18
HETATM   18  N5  UNL     1     -23.145  -5.657  10.149  1.00  0.00    -0.065 N 
ATOM     19  H53 UNL     1     -23.360  -6.037  11.071  1.00  0.00     0.275 HD
ATOM     20  H52 UNL     1     -23.748  -4.834  10.138  1.00  0.00     0.275 HD
ATOM     21  H51 UNL     1     -23.453  -6.314   9.432  1.00  0.00     0.275 HD
ENDBRANCH  17  18
BRANCH  17  22
HETATM   22  C14 UNL     1     -21.009  -6.197   9.268  1.00  0.00     0.204 C 
HETATM   23  O3  UNL     1     -20.857  -7.367   9.666  1.00  0.00    -0.646 OA
HETATM   24  O4  UNL     1     -20.473  -5.793   8.079  1.00  0.00    -0.646 OA
ENDBRANCH  17  22
ENDBRANCH  16  17
ENDBRANCH  15  16
ENDBRANCH   6   9
BRANCH   1  25
HETATM   25  C7  UNL     1     -17.126  -7.882   7.780  1.00  0.00     0.209 C 
BRANCH  25  26
HETATM   26  C6  UNL     1     -16.721  -9.274   8.066  1.00  0.00    -0.036 A 
HETATM   27  C5  UNL     1     -15.843  -9.947   7.258  1.00  0.00     0.009 A 
HETATM   28  C4  UNL     1     -15.461 -11.229   7.516  1.00  0.00     0.001 A 
HETATM   29  C3  UNL     1     -15.993 -11.838   8.633  1.00  0.00     0.007 A 
HETATM   30  C2  UNL     1     -16.864 -11.187   9.446  1.00  0.00    -0.061 A 
HETATM   31  C1  UNL     1     -17.438 -11.850  10.658  1.00  0.00     0.048 C 
HETATM   32  C15 UNL     1     -17.236  -9.901   9.170  1.00  0.00     0.015 A 
ENDBRANCH  25  26
ENDBRANCH   1  25
TORSDOF 7
ENDMDL
