MODEL 2
REMARK VINA RESULT: -11.767174031      0.348      1.315
REMARK  7 active torsions:
REMARK  status: ('A' for Active; 'I' for Inactive)
REMARK    1  A    between atoms: C6_6  and  C7_7 
REMARK    2  A    between atoms: C7_7  and  N1_8 
REMARK    3  A    between atoms: C8_13  and  C9_14 
REMARK    4  A    between atoms: C11_20  and  C12_21 
REMARK    5  A    between atoms: C12_21  and  C13_22 
REMARK    6  A    between atoms: C13_22  and  N5_23 
REMARK    7  A    between atoms: C13_22  and  C14_27 
ROOT
HETATM    1  N1  UNL     1     -17.976  -7.531   9.546  1.00  0.00    -0.214 N 
HETATM    2  N2  UNL     1     -18.343  -7.994  10.726  1.00  0.00    -0.224 N 
ATOM      3  H2  UNL     1     -18.897  -7.477  11.409  1.00  0.00     0.210 HD
HETATM    4  N3  UNL     1     -17.890  -9.225  10.895  1.00  0.00    -0.266 N 
ATOM      5  H3  UNL     1     -18.039  -9.803  11.723  1.00  0.00     0.190 HD
HETATM    6  C8  UNL     1     -17.207  -9.589   9.807  1.00  0.00     0.174 A 
HETATM    7  N6  UNL     1     -17.279  -8.508   8.983  1.00  0.00    -0.264 N 
ATOM      8  H6  UNL     1     -16.854  -8.456   8.057  1.00  0.00     0.190 HD
ENDROOT
BRANCH   6   9
HETATM    9  C9  UNL     1     -16.536 -10.853   9.547  1.00  0.00     0.157 A 
HETATM   10  O1  UNL     1     -16.247 -11.790  10.457  1.00  0.00    -0.230 OA
HETATM   11  N4  UNL     1     -15.660 -12.799   9.927  1.00  0.00    -0.225 N 
HETATM   12  C10 UNL     1     -15.528 -12.568   8.611  1.00  0.00     0.274 A 
ATOM     13  H4  UNL     1     -15.346 -13.634  10.421  1.00  0.00     0.198 HD
HETATM   14  O2  UNL     1     -15.000 -13.342   7.779  1.00  0.00    -0.266 OA
HETATM   15  C11 UNL     1     -16.091 -11.308   8.352  1.00  0.00     0.054 A 
BRANCH  15  16
HETATM   16  C12 UNL     1     -16.085 -10.677   7.027  1.00  0.00     0.091 C 
BRANCH  16  17
HETATM   17  C13 UNL     1     -14.868  -9.874   6.695  1.00  0.00     0.287 C 
BRANCH  17  18
HETATM   18  N5  UNL     1     -14.990  -8.459   6.748  1.00  0.00    -0.065 N 
ATOM     19  H53 UNL     1     -14.604  -8.118   7.629  1.00  0.00     0.275 HD
ATOM     20  H52 UNL     1     -14.343  -8.037   6.082  1.00  0.00     0.275 HD
ATOM     21  H51 UNL     1     -15.921  -8.066   6.612  1.00  0.00     0.275 HD
ENDBRANCH  17  18
BRANCH  17  22
HETATM   22  C14 UNL     1     -14.449 -10.278   5.324  1.00  0.00     0.204 C 
HETATM   23  O3  UNL     1     -14.330 -11.491   5.067  1.00  0.00    -0.646 OA
HETATM   24  O4  UNL     1     -14.199  -9.338   4.367  1.00  0.00    -0.646 OA
ENDBRANCH  17  22
ENDBRANCH  16  17
ENDBRANCH  15  16
ENDBRANCH   6   9
BRANCH   1  25
HETATM   25  C7  UNL     1     -18.269  -6.216   8.970  1.00  0.00     0.209 C 
BRANCH  25  26
HETATM   26  C6  UNL     1     -19.234  -5.515   9.841  1.00  0.00    -0.036 A 
HETATM   27  C5  UNL     1     -18.835  -4.537  10.714  1.00  0.00     0.009 A 
HETATM   28  C4  UNL     1     -19.719  -3.883  11.519  1.00  0.00     0.001 A 
HETATM   29  C3  UNL     1     -21.047  -4.240  11.427  1.00  0.00     0.007 A 
HETATM   30  C2  UNL     1     -21.462  -5.205  10.567  1.00  0.00    -0.061 A 
HETATM   31  C1  UNL     1     -22.905  -5.589  10.468  1.00  0.00     0.048 C 
HETATM   32  C15 UNL     1     -20.560  -5.851   9.768  1.00  0.00     0.015 A 
ENDBRANCH  25  26
ENDBRANCH   1  25
TORSDOF 7
ENDMDL
