MODEL 1
REMARK VINA RESULT: -12.317542933      0.000      0.000
REMARK  7 active torsions:
REMARK  status: ('A' for Active; 'I' for Inactive)
REMARK    1  A    between atoms: C6_6  and  C7_7 
REMARK    2  A    between atoms: C7_7  and  N1_8 
REMARK    3  A    between atoms: C8_13  and  C9_14 
REMARK    4  A    between atoms: C11_20  and  C12_21 
REMARK    5  A    between atoms: C12_21  and  C13_22 
REMARK    6  A    between atoms: C13_22  and  N5_23 
REMARK    7  A    between atoms: C13_22  and  C14_27 
ROOT
HETATM    1  N1  UNL     1     -18.059  -7.517   9.607  1.00  0.00    -0.214 N 
HETATM    2  N2  UNL     1     -18.384  -7.977  10.801  1.00  0.00    -0.224 N 
ATOM      3  H2  UNL     1     -18.926  -7.463  11.496  1.00  0.00     0.210 HD
HETATM    4  N3  UNL     1     -17.906  -9.199  10.967  1.00  0.00    -0.266 N 
ATOM      5  H3  UNL     1     -18.021  -9.772  11.803  1.00  0.00     0.190 HD
HETATM    6  C8  UNL     1     -17.249  -9.560   9.861  1.00  0.00     0.174 A 
HETATM    7  N6  UNL     1     -17.363  -8.487   9.032  1.00  0.00    -0.264 N 
ATOM      8  H6  UNL     1     -16.966  -8.437   8.093  1.00  0.00     0.190 HD
ENDROOT
BRANCH   6   9
HETATM    9  C9  UNL     1     -16.565 -10.815   9.592  1.00  0.00     0.157 A 
HETATM   10  O1  UNL     1     -16.267 -11.757  10.494  1.00  0.00    -0.230 OA
HETATM   11  N4  UNL     1     -15.668 -12.756   9.957  1.00  0.00    -0.225 N 
HETATM   12  C10 UNL     1     -15.540 -12.512   8.643  1.00  0.00     0.274 A 
ATOM     13  H4  UNL     1     -15.346 -13.591  10.445  1.00  0.00     0.198 HD
HETATM   14  O2  UNL     1     -15.003 -13.275   7.805  1.00  0.00    -0.266 OA
HETATM   15  C11 UNL     1     -16.115 -11.257   8.394  1.00  0.00     0.054 A 
BRANCH  15  16
HETATM   16  C12 UNL     1     -16.116 -10.616   7.073  1.00  0.00     0.091 C 
BRANCH  16  17
HETATM   17  C13 UNL     1     -14.872  -9.867   6.713  1.00  0.00     0.287 C 
BRANCH  17  18
HETATM   18  N5  UNL     1     -14.939  -8.448   6.735  1.00  0.00    -0.065 N 
ATOM     19  H53 UNL     1     -15.901  -8.151   6.574  1.00  0.00     0.275 HD
ATOM     20  H52 UNL     1     -14.795  -8.116   7.688  1.00  0.00     0.275 HD
ATOM     21  H51 UNL     1     -14.318  -7.943   6.102  1.00  0.00     0.275 HD
ENDBRANCH  17  18
BRANCH  17  22
HETATM   22  C14 UNL     1     -14.480 -10.319   5.349  1.00  0.00     0.204 C 
HETATM   23  O3  UNL     1     -14.427 -11.541   5.114  1.00  0.00    -0.646 OA
HETATM   24  O4  UNL     1     -14.185  -9.411   4.374  1.00  0.00    -0.646 OA
ENDBRANCH  17  22
ENDBRANCH  16  17
ENDBRANCH  15  16
ENDBRANCH   6   9
BRANCH   1  25
HETATM   25  C7  UNL     1     -18.391  -6.212   9.029  1.00  0.00     0.209 C 
BRANCH  25  26
HETATM   26  C6  UNL     1     -19.502  -5.616   9.798  1.00  0.00    -0.036 A 
HETATM   27  C5  UNL     1     -20.789  -6.068   9.668  1.00  0.00     0.009 A 
HETATM   28  C4  UNL     1     -21.821  -5.527  10.376  1.00  0.00     0.001 A 
HETATM   29  C3  UNL     1     -21.525  -4.495  11.241  1.00  0.00     0.007 A 
HETATM   30  C2  UNL     1     -20.256  -4.034  11.384  1.00  0.00    -0.061 A 
HETATM   31  C1  UNL     1     -19.938  -2.916  12.325  1.00  0.00     0.048 C 
HETATM   32  C15 UNL     1     -19.234  -4.590  10.665  1.00  0.00     0.015 A 
ENDBRANCH  25  26
ENDBRANCH   1  25
TORSDOF 7
ENDMDL
