MODEL 3
REMARK VINA RESULT: -11.704725574      1.013      1.098
REMARK  7 active torsions:
REMARK  status: ('A' for Active; 'I' for Inactive)
REMARK    1  A    between atoms: C6_6  and  C7_7 
REMARK    2  A    between atoms: C7_7  and  N1_8 
REMARK    3  A    between atoms: C8_13  and  C9_14 
REMARK    4  A    between atoms: C11_20  and  C12_21 
REMARK    5  A    between atoms: C12_21  and  C13_22 
REMARK    6  A    between atoms: C13_22  and  N5_23 
REMARK    7  A    between atoms: C13_22  and  C14_27 
ROOT
HETATM    1  N1  UNL     1     -18.610  -6.763   9.550  1.00  0.00    -0.214 N 
HETATM    2  N2  UNL     1     -17.666  -6.472  10.425  1.00  0.00    -0.224 N 
ATOM      3  H2  UNL     1     -17.506  -5.546  10.824  1.00  0.00     0.210 HD
HETATM    4  N3  UNL     1     -16.958  -7.551  10.711  1.00  0.00    -0.266 N 
ATOM      5  H3  UNL     1     -16.171  -7.590  11.359  1.00  0.00     0.190 HD
HETATM    6  C8  UNL     1     -17.440  -8.583  10.011  1.00  0.00     0.174 A 
HETATM    7  N6  UNL     1     -18.471  -8.056   9.296  1.00  0.00    -0.264 N 
ATOM      8  H6  UNL     1     -19.058  -8.586   8.652  1.00  0.00     0.190 HD
ENDROOT
BRANCH   6   9
HETATM    9  C9  UNL     1     -16.977  -9.962  10.008  1.00  0.00     0.157 A 
HETATM   10  O1  UNL     1     -16.840 -10.746  11.084  1.00  0.00    -0.230 OA
HETATM   11  N4  UNL     1     -16.419 -11.915  10.766  1.00  0.00    -0.225 N 
HETATM   12  C10 UNL     1     -16.254 -11.956   9.434  1.00  0.00     0.274 A 
ATOM     13  H4  UNL     1     -16.240 -12.682  11.415  1.00  0.00     0.198 HD
HETATM   14  O2  UNL     1     -15.855 -12.945   8.775  1.00  0.00    -0.266 OA
HETATM   15  C11 UNL     1     -16.611 -10.696   8.932  1.00  0.00     0.054 A 
BRANCH  15  16
HETATM   16  C12 UNL     1     -16.507 -10.332   7.513  1.00  0.00     0.091 C 
BRANCH  16  17
HETATM   17  C13 UNL     1     -15.159  -9.871   7.058  1.00  0.00     0.287 C 
BRANCH  17  18
HETATM   18  N5  UNL     1     -15.030  -8.505   6.688  1.00  0.00    -0.065 N 
ATOM     19  H53 UNL     1     -15.855  -8.216   6.164  1.00  0.00     0.275 HD
ATOM     20  H52 UNL     1     -15.119  -7.919   7.519  1.00  0.00     0.275 HD
ATOM     21  H51 UNL     1     -14.191  -8.239   6.174  1.00  0.00     0.275 HD
ENDBRANCH  17  18
BRANCH  17  22
HETATM   22  C14 UNL     1     -14.781 -10.729   5.900  1.00  0.00     0.204 C 
HETATM   23  O3  UNL     1     -15.302 -11.856   5.794  1.00  0.00    -0.646 OA
HETATM   24  O4  UNL     1     -13.881 -10.290   4.973  1.00  0.00    -0.646 OA
ENDBRANCH  17  22
ENDBRANCH  16  17
ENDBRANCH  15  16
ENDBRANCH   6   9
BRANCH   1  25
HETATM   25  C7  UNL     1     -19.607  -5.857   8.973  1.00  0.00     0.209 C 
BRANCH  25  26
HETATM   26  C6  UNL     1     -20.389  -5.245  10.067  1.00  0.00    -0.036 A 
HETATM   27  C5  UNL     1     -21.643  -5.692  10.391  1.00  0.00     0.009 A 
HETATM   28  C4  UNL     1     -22.370  -5.136  11.401  1.00  0.00     0.001 A 
HETATM   29  C3  UNL     1     -21.796  -4.095  12.098  1.00  0.00     0.007 A 
HETATM   30  C2  UNL     1     -20.554  -3.639  11.793  1.00  0.00    -0.061 A 
HETATM   31  C1  UNL     1     -19.932  -2.510  12.553  1.00  0.00     0.048 C 
HETATM   32  C15 UNL     1     -19.840  -4.209  10.776  1.00  0.00     0.015 A 
ENDBRANCH  25  26
ENDBRANCH   1  25
TORSDOF 7
ENDMDL
