MODEL 4
REMARK VINA RESULT: -11.407648056      1.082      1.708
REMARK  7 active torsions:
REMARK  status: ('A' for Active; 'I' for Inactive)
REMARK    1  A    between atoms: C6_6  and  C7_7 
REMARK    2  A    between atoms: C7_7  and  N1_8 
REMARK    3  A    between atoms: C8_13  and  C9_14 
REMARK    4  A    between atoms: C11_20  and  C12_21 
REMARK    5  A    between atoms: C12_21  and  C13_22 
REMARK    6  A    between atoms: C13_22  and  N5_23 
REMARK    7  A    between atoms: C13_22  and  C14_27 
ROOT
HETATM    1  N1  UNL     1     -18.725  -6.760   9.703  1.00  0.00    -0.214 N 
HETATM    2  N2  UNL     1     -17.657  -6.436  10.406  1.00  0.00    -0.224 N 
ATOM      3  H2  UNL     1     -17.438  -5.495  10.735  1.00  0.00     0.210 HD
HETATM    4  N3  UNL     1     -16.911  -7.507  10.624  1.00  0.00    -0.266 N 
ATOM      5  H3  UNL     1     -16.032  -7.522  11.144  1.00  0.00     0.190 HD
HETATM    6  C8  UNL     1     -17.494  -8.564  10.054  1.00  0.00     0.174 A 
HETATM    7  N6  UNL     1     -18.625  -8.064   9.486  1.00  0.00    -0.264 N 
ATOM      8  H6  UNL     1     -19.305  -8.618   8.965  1.00  0.00     0.190 HD
ENDROOT
BRANCH   6   9
HETATM    9  C9  UNL     1     -17.035  -9.945  10.038  1.00  0.00     0.157 A 
HETATM   10  O1  UNL     1     -16.900 -10.739  11.106  1.00  0.00    -0.230 OA
HETATM   11  N4  UNL     1     -16.483 -11.906  10.779  1.00  0.00    -0.225 N 
HETATM   12  C10 UNL     1     -16.318 -11.936   9.446  1.00  0.00     0.274 A 
ATOM     13  H4  UNL     1     -16.306 -12.679  11.420  1.00  0.00     0.198 HD
HETATM   14  O2  UNL     1     -15.922 -12.920   8.777  1.00  0.00    -0.266 OA
HETATM   15  C11 UNL     1     -16.671 -10.670   8.955  1.00  0.00     0.054 A 
BRANCH  15  16
HETATM   16  C12 UNL     1     -16.567 -10.293   7.540  1.00  0.00     0.091 C 
BRANCH  16  17
HETATM   17  C13 UNL     1     -15.214  -9.847   7.084  1.00  0.00     0.287 C 
BRANCH  17  18
HETATM   18  N5  UNL     1     -15.078  -8.489   6.688  1.00  0.00    -0.065 N 
ATOM     19  H53 UNL     1     -15.532  -7.888   7.376  1.00  0.00     0.275 HD
ATOM     20  H52 UNL     1     -14.106  -8.199   6.796  1.00  0.00     0.275 HD
ATOM     21  H51 UNL     1     -15.404  -8.241   5.754  1.00  0.00     0.275 HD
ENDBRANCH  17  18
BRANCH  17  22
HETATM   22  C14 UNL     1     -14.832 -10.730   5.948  1.00  0.00     0.204 C 
HETATM   23  O3  UNL     1     -15.394 -11.834   5.831  1.00  0.00    -0.646 OA
HETATM   24  O4  UNL     1     -13.882 -10.336   5.050  1.00  0.00    -0.646 OA
ENDBRANCH  17  22
ENDBRANCH  16  17
ENDBRANCH  15  16
ENDBRANCH   6   9
BRANCH   1  25
HETATM   25  C7  UNL     1     -19.801  -5.875   9.250  1.00  0.00     0.209 C 
BRANCH  25  26
HETATM   26  C6  UNL     1     -20.234  -5.029  10.382  1.00  0.00    -0.036 A 
HETATM   27  C5  UNL     1     -19.444  -4.020  10.868  1.00  0.00     0.009 A 
HETATM   28  C4  UNL     1     -19.837  -3.233  11.909  1.00  0.00     0.001 A 
HETATM   29  C3  UNL     1     -21.072  -3.486  12.466  1.00  0.00     0.007 A 
HETATM   30  C2  UNL     1     -21.869  -4.481  11.998  1.00  0.00    -0.061 A 
HETATM   31  C1  UNL     1     -23.210  -4.752  12.603  1.00  0.00     0.048 C 
HETATM   32  C15 UNL     1     -21.458  -5.261  10.952  1.00  0.00     0.015 A 
ENDBRANCH  25  26
ENDBRANCH   1  25
TORSDOF 7
ENDMDL
