MODEL 17
REMARK VINA RESULT: -7.501260735      4.043      8.309
REMARK  7 active torsions:
REMARK  status: ('A' for Active; 'I' for Inactive)
REMARK    1  A    between atoms: C6_6  and  C7_7 
REMARK    2  A    between atoms: C7_7  and  N1_8 
REMARK    3  A    between atoms: C8_13  and  C9_14 
REMARK    4  A    between atoms: C11_20  and  C12_21 
REMARK    5  A    between atoms: C12_21  and  C13_22 
REMARK    6  A    between atoms: C13_22  and  N5_23 
REMARK    7  A    between atoms: C13_22  and  C14_27 
ROOT
HETATM    1  N1  UNL     1     -17.172  -8.369   8.247  1.00  0.00    -0.214 N 
HETATM    2  N2  UNL     1     -18.342  -8.842   8.632  1.00  0.00    -0.224 N 
ATOM      3  H2  UNL     1     -18.702  -9.768   8.401  1.00  0.00     0.210 HD
HETATM    4  N3  UNL     1     -18.982  -7.942   9.361  1.00  0.00    -0.266 N 
ATOM      5  H3  UNL     1     -19.905  -8.063   9.777  1.00  0.00     0.190 HD
HETATM    6  C8  UNL     1     -18.221  -6.848   9.463  1.00  0.00     0.174 A 
HETATM    7  N6  UNL     1     -17.098  -7.148   8.755  1.00  0.00    -0.264 N 
ATOM      8  H6  UNL     1     -16.305  -6.517   8.633  1.00  0.00     0.190 HD
ENDROOT
BRANCH   6   9
HETATM    9  C9  UNL     1     -18.516  -5.611  10.169  1.00  0.00     0.157 A 
HETATM   10  O1  UNL     1     -17.653  -4.616  10.403  1.00  0.00    -0.230 OA
HETATM   11  N4  UNL     1     -18.204  -3.651  11.042  1.00  0.00    -0.225 N 
HETATM   12  C10 UNL     1     -19.488  -3.974  11.268  1.00  0.00     0.274 A 
ATOM     13  H4  UNL     1     -17.746  -2.787  11.331  1.00  0.00     0.198 HD
HETATM   14  O2  UNL     1     -20.329  -3.265  11.868  1.00  0.00    -0.266 OA
HETATM   15  C11 UNL     1     -19.702  -5.243  10.708  1.00  0.00     0.054 A 
BRANCH  15  16
HETATM   16  C12 UNL     1     -20.977  -5.965  10.803  1.00  0.00     0.091 C 
BRANCH  16  17
HETATM   17  C13 UNL     1     -22.088  -5.435   9.953  1.00  0.00     0.287 C 
BRANCH  17  18
HETATM   18  N5  UNL     1     -21.911  -4.145   9.383  1.00  0.00    -0.065 N 
ATOM     19  H53 UNL     1     -21.086  -3.705   9.790  1.00  0.00     0.275 HD
ATOM     20  H52 UNL     1     -21.615  -4.241   8.412  1.00  0.00     0.275 HD
ATOM     21  H51 UNL     1     -22.700  -3.501   9.436  1.00  0.00     0.275 HD
ENDBRANCH  17  18
BRANCH  17  22
HETATM   22  C14 UNL     1     -23.312  -5.434  10.801  1.00  0.00     0.204 C 
HETATM   23  O3  UNL     1     -24.410  -5.682  10.269  1.00  0.00    -0.646 OA
HETATM   24  O4  UNL     1     -23.233  -5.164  12.136  1.00  0.00    -0.646 OA
ENDBRANCH  17  22
ENDBRANCH  16  17
ENDBRANCH  15  16
ENDBRANCH   6   9
BRANCH   1  25
HETATM   25  C7  UNL     1     -16.159  -9.043   7.429  1.00  0.00     0.209 C 
BRANCH  25  26
HETATM   26  C6  UNL     1     -16.033 -10.444   7.882  1.00  0.00    -0.036 A 
HETATM   27  C5  UNL     1     -15.477 -11.409   7.083  1.00  0.00     0.009 A 
HETATM   28  C4  UNL     1     -15.353 -12.703   7.493  1.00  0.00     0.001 A 
HETATM   29  C3  UNL     1     -15.809 -13.016   8.756  1.00  0.00     0.007 A 
HETATM   30  C2  UNL     1     -16.362 -12.073   9.562  1.00  0.00    -0.061 A 
HETATM   31  C1  UNL     1     -16.855 -12.415  10.932  1.00  0.00     0.048 C 
HETATM   32  C15 UNL     1     -16.479 -10.780   9.132  1.00  0.00     0.015 A 
ENDBRANCH  25  26
ENDBRANCH   1  25
TORSDOF 7
ENDMDL
