MODEL 3
REMARK VINA RESULT: -10.715535805      1.377      1.594
REMARK  7 active torsions:
REMARK  status: ('A' for Active; 'I' for Inactive)
REMARK    1  A    between atoms: N1_1  and  C1_5 
REMARK    2  A    between atoms: C1_5  and  C2_6 
REMARK    3  A    between atoms: C1_5  and  C14_29 
REMARK    4  A    between atoms: C2_6  and  C3_7 
REMARK    5  A    between atoms: C4_8  and  C5_9 
REMARK    6  A    between atoms: N4_13  and  C6_14 
REMARK    7  A    between atoms: C6_14  and  C7_15 
ROOT
HETATM    1  C3  UNL     1      92.675  17.344  29.688  1.00  0.00     0.054 A 
HETATM    2  C4  UNL     1      93.477  17.363  30.803  1.00  0.00     0.157 A 
HETATM    3  O1  UNL     1      93.180  18.465  31.452  1.00  0.00    -0.230 OA
HETATM    4  N6  UNL     1      92.262  19.130  30.834  1.00  0.00    -0.225 N 
ATOM      5  H6  UNL     1      91.873  20.017  31.154  1.00  0.00     0.198 HD
HETATM    6  C13 UNL     1      91.888  18.493  29.715  1.00  0.00     0.274 A 
HETATM    7  O2  UNL     1      91.015  18.844  28.861  1.00  0.00    -0.266 OA
ENDROOT
BRANCH   2   8
HETATM    8  C5  UNL     1      94.477  16.363  31.217  1.00  0.00     0.171 A 
HETATM    9  N2  UNL     1      94.519  15.825  32.442  1.00  0.00    -0.264 N 
HETATM   10  N3  UNL     1      95.532  14.958  32.475  1.00  0.00    -0.002 NA
ATOM     11  H2  UNL     1      93.889  16.040  33.213  1.00  0.00     0.186 HD
HETATM   12  N4  UNL     1      96.136  14.935  31.287  1.00  0.00    -0.212 N 
HETATM   13  N5  UNL     1      95.478  15.797  30.540  1.00  0.00    -0.267 N 
ATOM     14  H5  UNL     1      95.704  16.006  29.567  1.00  0.00     0.190 HD
BRANCH  12  15
HETATM   15  C6  UNL     1      97.281  14.111  30.946  1.00  0.00     0.205 C 
BRANCH  15  16
HETATM   16  C7  UNL     1      98.271  14.160  32.030  1.00  0.00    -0.036 A 
HETATM   17  C8  UNL     1      99.096  15.239  32.240  1.00  0.00     0.009 A 
HETATM   18  C9  UNL     1     100.022  15.260  33.268  1.00  0.00     0.002 A 
HETATM   19  C10 UNL     1     100.104  14.142  34.102  1.00  0.00     0.024 A 
HETATM   20  C11 UNL     1      99.291  13.059  33.907  1.00  0.00     0.034 A 
HETATM   21 CL1  UNL     1      99.434  11.688  34.977  1.00  0.00    -0.084 Cl
HETATM   22  C12 UNL     1      98.383  13.070  32.877  1.00  0.00     0.032 A 
ENDBRANCH  15  16
ENDBRANCH  12  15
ENDBRANCH   2   8
BRANCH   1  23
HETATM   23  C2  UNL     1      92.637  16.329  28.625  1.00  0.00     0.091 C 
BRANCH  23  24
HETATM   24  C1  UNL     1      93.642  16.567  27.521  1.00  0.00     0.287 C 
BRANCH  24  25
HETATM   25  N1  UNL     1      93.379  17.806  26.815  1.00  0.00    -0.065 N 
ATOM     26  H13 UNL     1      92.576  17.717  26.193  1.00  0.00     0.275 HD
ATOM     27  H12 UNL     1      93.016  18.522  27.443  1.00  0.00     0.275 HD
ATOM     28  H11 UNL     1      94.204  18.136  26.313  1.00  0.00     0.275 HD
ENDBRANCH  24  25
BRANCH  24  29
HETATM   29  C14 UNL     1      93.624  15.462  26.533  1.00  0.00     0.204 C 
HETATM   30  O3  UNL     1      94.137  14.362  26.810  1.00  0.00    -0.646 OA
HETATM   31  O4  UNL     1      93.035  15.618  25.271  1.00  0.00    -0.646 OA
ENDBRANCH  24  29
ENDBRANCH  23  24
ENDBRANCH   1  23
TORSDOF 7
ENDMDL
