MODEL 2
REMARK VINA RESULT: -11.729360278      1.054      1.421
REMARK  7 active torsions:
REMARK  status: ('A' for Active; 'I' for Inactive)
REMARK    1  A    between atoms: N1_1  and  C1_5 
REMARK    2  A    between atoms: C1_5  and  C2_6 
REMARK    3  A    between atoms: C1_5  and  C14_29 
REMARK    4  A    between atoms: C2_6  and  C3_7 
REMARK    5  A    between atoms: C4_8  and  C5_9 
REMARK    6  A    between atoms: N4_13  and  C6_14 
REMARK    7  A    between atoms: C6_14  and  C7_15 
ROOT
HETATM    1  C3  UNL     1      93.544  16.683  29.275  1.00  0.00     0.054 A 
HETATM    2  C4  UNL     1      94.125  16.462  30.499  1.00  0.00     0.157 A 
HETATM    3  O1  UNL     1      93.229  16.801  31.398  1.00  0.00    -0.230 OA
HETATM    4  N6  UNL     1      92.143  17.213  30.833  1.00  0.00    -0.225 N 
ATOM      5  H6  UNL     1      91.312  17.527  31.334  1.00  0.00     0.198 HD
HETATM    6  C13 UNL     1      92.258  17.169  29.499  1.00  0.00     0.274 A 
HETATM    7  O2  UNL     1      91.399  17.494  28.621  1.00  0.00    -0.266 OA
ENDROOT
BRANCH   2   8
HETATM    8  C5  UNL     1      95.476  15.948  30.783  1.00  0.00     0.171 A 
HETATM    9  N2  UNL     1      96.528  16.736  31.036  1.00  0.00    -0.264 N 
HETATM   10  N3  UNL     1      97.584  15.954  31.257  1.00  0.00    -0.002 NA
ATOM     11  H2  UNL     1      96.522  17.755  31.056  1.00  0.00     0.186 HD
HETATM   12  N4  UNL     1      97.221  14.675  31.148  1.00  0.00    -0.212 N 
HETATM   13  N5  UNL     1      95.936  14.698  30.859  1.00  0.00    -0.267 N 
ATOM     14  H5  UNL     1      95.365  13.865  30.713  1.00  0.00     0.190 HD
BRANCH  12  15
HETATM   15  C6  UNL     1      98.104  13.537  31.322  1.00  0.00     0.205 C 
BRANCH  15  16
HETATM   16  C7  UNL     1      98.780  13.624  32.623  1.00  0.00    -0.036 A 
HETATM   17  C8  UNL     1      98.772  12.599  33.539  1.00  0.00     0.009 A 
HETATM   18  C9  UNL     1      99.416  12.707  34.759  1.00  0.00     0.002 A 
HETATM   19  C10 UNL     1     100.087  13.899  35.046  1.00  0.00     0.024 A 
HETATM   20  C11 UNL     1     100.105  14.929  34.145  1.00  0.00     0.034 A 
HETATM   21 CL1  UNL     1     100.957  16.396  34.553  1.00  0.00    -0.084 Cl
HETATM   22  C12 UNL     1      99.455  14.791  32.944  1.00  0.00     0.032 A 
ENDBRANCH  15  16
ENDBRANCH  12  15
ENDBRANCH   2   8
BRANCH   1  23
HETATM   23  C2  UNL     1      94.142  16.479  27.946  1.00  0.00     0.091 C 
BRANCH  23  24
HETATM   24  C1  UNL     1      93.717  15.190  27.280  1.00  0.00     0.287 C 
BRANCH  24  25
HETATM   25  N1  UNL     1      94.647  14.113  27.557  1.00  0.00    -0.065 N 
ATOM     26  H13 UNL     1      94.946  13.650  26.698  1.00  0.00     0.275 HD
ATOM     27  H12 UNL     1      95.550  14.471  27.867  1.00  0.00     0.275 HD
ATOM     28  H11 UNL     1      94.262  13.444  28.225  1.00  0.00     0.275 HD
ENDBRANCH  24  25
BRANCH  24  29
HETATM   29  C14 UNL     1      93.625  15.352  25.809  1.00  0.00     0.204 C 
HETATM   30  O3  UNL     1      92.922  16.255  25.319  1.00  0.00    -0.646 OA
HETATM   31  O4  UNL     1      94.317  14.504  24.935  1.00  0.00    -0.646 OA
ENDBRANCH  24  29
ENDBRANCH  23  24
ENDBRANCH   1  23
TORSDOF 7
ENDMDL
