MODEL 13
REMARK VINA RESULT: -7.119683550      4.980      7.266
REMARK  7 active torsions:
REMARK  status: ('A' for Active; 'I' for Inactive)
REMARK    1  A    between atoms: N1_1  and  C1_5 
REMARK    2  A    between atoms: C1_5  and  C2_6 
REMARK    3  A    between atoms: C1_5  and  C14_29 
REMARK    4  A    between atoms: C2_6  and  C3_7 
REMARK    5  A    between atoms: C4_8  and  C5_9 
REMARK    6  A    between atoms: N4_13  and  C6_14 
REMARK    7  A    between atoms: C6_14  and  C7_15 
ROOT
HETATM    1  C3  UNL     1      98.942  13.937  33.004  1.00  0.00     0.054 A 
HETATM    2  C4  UNL     1      99.686  14.015  34.156  1.00  0.00     0.157 A 
HETATM    3  O1  UNL     1      99.649  12.820  34.699  1.00  0.00    -0.230 OA
HETATM    4  N6  UNL     1      98.946  12.009  33.982  1.00  0.00    -0.225 N 
ATOM      5  H6  UNL     1      98.780  11.029  34.209  1.00  0.00     0.198 HD
HETATM    6  C13 UNL     1      98.466  12.632  32.897  1.00  0.00     0.274 A 
HETATM    7  O2  UNL     1      97.739  12.156  31.970  1.00  0.00    -0.266 OA
ENDROOT
BRANCH   2   8
HETATM    8  C5  UNL     1     100.397  15.186  34.698  1.00  0.00     0.171 A 
HETATM    9  N2  UNL     1     100.370  15.532  35.991  1.00  0.00    -0.264 N 
HETATM   10  N3  UNL     1     101.119  16.624  36.140  1.00  0.00    -0.002 NA
ATOM     11  H2  UNL     1      99.865  15.045  36.731  1.00  0.00     0.186 HD
HETATM   12  N4  UNL     1     101.625  16.981  34.959  1.00  0.00    -0.212 N 
HETATM   13  N5  UNL     1     101.171  16.092  34.099  1.00  0.00    -0.267 N 
ATOM     14  H5  UNL     1     101.385  16.096  33.101  1.00  0.00     0.190 HD
BRANCH  12  15
HETATM   15  C6  UNL     1     102.489  18.123  34.730  1.00  0.00     0.205 C 
BRANCH  15  16
HETATM   16  C7  UNL     1     103.020  18.612  36.009  1.00  0.00    -0.036 A 
HETATM   17  C8  UNL     1     102.671  19.829  36.546  1.00  0.00     0.009 A 
HETATM   18  C9  UNL     1     103.186  20.267  37.753  1.00  0.00     0.002 A 
HETATM   19  C10 UNL     1     104.083  19.434  38.427  1.00  0.00     0.024 A 
HETATM   20  C11 UNL     1     104.441  18.220  37.906  1.00  0.00     0.034 A 
HETATM   21 CL1  UNL     1     105.566  17.219  38.788  1.00  0.00    -0.084 Cl
HETATM   22  C12 UNL     1     103.913  17.815  36.706  1.00  0.00     0.032 A 
ENDBRANCH  15  16
ENDBRANCH  12  15
ENDBRANCH   2   8
BRANCH   1  23
HETATM   23  C2  UNL     1      98.657  15.013  32.043  1.00  0.00     0.091 C 
BRANCH  23  24
HETATM   24  C1  UNL     1      97.258  14.961  31.470  1.00  0.00     0.287 C 
BRANCH  24  25
HETATM   25  N1  UNL     1      97.245  14.378  30.143  1.00  0.00    -0.065 N 
ATOM     26  H13 UNL     1      97.358  15.090  29.422  1.00  0.00     0.275 HD
ATOM     27  H12 UNL     1      98.090  13.836  29.966  1.00  0.00     0.275 HD
ATOM     28  H11 UNL     1      96.405  13.820  29.985  1.00  0.00     0.275 HD
ENDBRANCH  24  25
BRANCH  24  29
HETATM   29  C14 UNL     1      96.664  16.317  31.383  1.00  0.00     0.204 C 
HETATM   30  O3  UNL     1      97.367  17.292  31.061  1.00  0.00    -0.646 OA
HETATM   31  O4  UNL     1      95.309  16.540  31.658  1.00  0.00    -0.646 OA
ENDBRANCH  24  29
ENDBRANCH  23  24
ENDBRANCH   1  23
TORSDOF 7
ENDMDL
