MODEL 5
REMARK VINA RESULT: -10.228028689      1.213      1.495
REMARK  7 active torsions:
REMARK  status: ('A' for Active; 'I' for Inactive)
REMARK    1  A    between atoms: N1_1  and  C1_5 
REMARK    2  A    between atoms: C1_5  and  C2_6 
REMARK    3  A    between atoms: C1_5  and  C14_29 
REMARK    4  A    between atoms: C2_6  and  C3_7 
REMARK    5  A    between atoms: C4_8  and  C5_9 
REMARK    6  A    between atoms: N4_13  and  C6_14 
REMARK    7  A    between atoms: C6_14  and  C7_15 
ROOT
HETATM    1  C3  UNL     1      93.549  17.466  29.847  1.00  0.00     0.054 A 
HETATM    2  C4  UNL     1      94.174  16.676  30.781  1.00  0.00     0.157 A 
HETATM    3  O1  UNL     1      93.640  16.986  31.940  1.00  0.00    -0.230 OA
HETATM    4  N6  UNL     1      92.738  17.899  31.803  1.00  0.00    -0.225 N 
ATOM      5  H6  UNL     1      92.191  18.293  32.569  1.00  0.00     0.198 HD
HETATM    6  C13 UNL     1      92.618  18.256  30.517  1.00  0.00     0.274 A 
HETATM    7  O2  UNL     1      91.836  19.118  30.006  1.00  0.00    -0.266 OA
ENDROOT
BRANCH   2   8
HETATM    8  C5  UNL     1      95.231  15.675  30.559  1.00  0.00     0.171 A 
HETATM    9  N2  UNL     1      95.833  15.485  29.379  1.00  0.00    -0.264 N 
HETATM   10  N3  UNL     1      96.738  14.519  29.529  1.00  0.00    -0.002 NA
ATOM     11  H2  UNL     1      95.633  15.991  28.516  1.00  0.00     0.186 HD
HETATM   12  N4  UNL     1      96.723  14.088  30.791  1.00  0.00    -0.212 N 
HETATM   13  N5  UNL     1      95.800  14.806  31.396  1.00  0.00    -0.267 N 
ATOM     14  H5  UNL     1      95.550  14.709  32.381  1.00  0.00     0.190 HD
BRANCH  12  15
HETATM   15  C6  UNL     1      97.573  13.042  31.328  1.00  0.00     0.205 C 
BRANCH  15  16
HETATM   16  C7  UNL     1      98.486  13.605  32.331  1.00  0.00    -0.036 A 
HETATM   17  C8  UNL     1      99.010  14.873  32.235  1.00  0.00     0.009 A 
HETATM   18  C9  UNL     1      99.870  15.379  33.194  1.00  0.00     0.002 A 
HETATM   19  C10 UNL     1     100.200  14.564  34.280  1.00  0.00     0.024 A 
HETATM   20  C11 UNL     1      99.687  13.300  34.390  1.00  0.00     0.034 A 
HETATM   21 CL1  UNL     1     100.132  12.323  35.765  1.00  0.00    -0.084 Cl
HETATM   22  C12 UNL     1      98.838  12.826  33.421  1.00  0.00     0.032 A 
ENDBRANCH  15  16
ENDBRANCH  12  15
ENDBRANCH   2   8
BRANCH   1  23
HETATM   23  C2  UNL     1      93.800  17.516  28.399  1.00  0.00     0.091 C 
BRANCH  23  24
HETATM   24  C1  UNL     1      92.714  16.870  27.570  1.00  0.00     0.287 C 
BRANCH  24  25
HETATM   25  N1  UNL     1      91.679  16.288  28.402  1.00  0.00    -0.065 N 
ATOM     26  H13 UNL     1      91.887  16.408  29.394  1.00  0.00     0.275 HD
ATOM     27  H12 UNL     1      90.815  16.828  28.355  1.00  0.00     0.275 HD
ATOM     28  H11 UNL     1      91.518  15.307  28.173  1.00  0.00     0.275 HD
ENDBRANCH  24  25
BRANCH  24  29
HETATM   29  C14 UNL     1      93.265  15.800  26.704  1.00  0.00     0.204 C 
HETATM   30  O3  UNL     1      93.930  14.872  27.199  1.00  0.00    -0.646 OA
HETATM   31  O4  UNL     1      93.055  15.799  25.319  1.00  0.00    -0.646 OA
ENDBRANCH  24  29
ENDBRANCH  23  24
ENDBRANCH   1  23
TORSDOF 7
ENDMDL
