MODEL 12
REMARK VINA RESULT: -7.337387566      5.186      7.484
REMARK  7 active torsions:
REMARK  status: ('A' for Active; 'I' for Inactive)
REMARK    1  A    between atoms: N1_1  and  C1_5 
REMARK    2  A    between atoms: C1_5  and  C2_6 
REMARK    3  A    between atoms: C1_5  and  C14_29 
REMARK    4  A    between atoms: C2_6  and  C3_7 
REMARK    5  A    between atoms: C4_8  and  C5_9 
REMARK    6  A    between atoms: N4_13  and  C6_14 
REMARK    7  A    between atoms: C6_14  and  C7_15 
ROOT
HETATM    1  C3  UNL     1      98.984  13.978  33.078  1.00  0.00     0.054 A 
HETATM    2  C4  UNL     1      99.756  14.075  34.210  1.00  0.00     0.157 A 
HETATM    3  O1  UNL     1      99.726  12.891  34.778  1.00  0.00    -0.230 OA
HETATM    4  N6  UNL     1      99.002  12.070  34.094  1.00  0.00    -0.225 N 
ATOM      5  H6  UNL     1      98.836  11.095  34.345  1.00  0.00     0.198 HD
HETATM    6  C13 UNL     1      98.498  12.674  33.009  1.00  0.00     0.274 A 
HETATM    7  O2  UNL     1      97.747  12.184  32.109  1.00  0.00    -0.266 OA
ENDROOT
BRANCH   2   8
HETATM    8  C5  UNL     1     100.485  15.253  34.712  1.00  0.00     0.171 A 
HETATM    9  N2  UNL     1     100.493  15.622  35.998  1.00  0.00    -0.264 N 
HETATM   10  N3  UNL     1     101.251  16.714  36.108  1.00  0.00    -0.002 NA
ATOM     11  H2  UNL     1     100.006  15.152  36.761  1.00  0.00     0.186 HD
HETATM   12  N4  UNL     1     101.727  17.046  34.907  1.00  0.00    -0.212 N 
HETATM   13  N5  UNL     1     101.247  16.144  34.077  1.00  0.00    -0.267 N 
ATOM     14  H5  UNL     1     101.435  16.128  33.073  1.00  0.00     0.190 HD
BRANCH  12  15
HETATM   15  C6  UNL     1     102.590  18.180  34.634  1.00  0.00     0.205 C 
BRANCH  15  16
HETATM   16  C7  UNL     1     102.753  18.987  35.850  1.00  0.00    -0.036 A 
HETATM   17  C8  UNL     1     103.721  18.732  36.792  1.00  0.00     0.009 A 
HETATM   18  C9  UNL     1     103.852  19.509  37.930  1.00  0.00     0.002 A 
HETATM   19  C10 UNL     1     102.967  20.575  38.106  1.00  0.00     0.024 A 
HETATM   20  C11 UNL     1     101.997  20.842  37.178  1.00  0.00     0.034 A 
HETATM   21 CL1  UNL     1     100.916  22.185  37.445  1.00  0.00    -0.084 Cl
HETATM   22  C12 UNL     1     101.893  20.053  36.060  1.00  0.00     0.032 A 
ENDBRANCH  15  16
ENDBRANCH  12  15
ENDBRANCH   2   8
BRANCH   1  23
HETATM   23  C2  UNL     1      98.681  15.036  32.103  1.00  0.00     0.091 C 
BRANCH  23  24
HETATM   24  C1  UNL     1      97.295  14.935  31.507  1.00  0.00     0.287 C 
BRANCH  24  25
HETATM   25  N1  UNL     1      97.324  14.351  30.180  1.00  0.00    -0.065 N 
ATOM     26  H13 UNL     1      98.222  13.907  29.988  1.00  0.00     0.275 HD
ATOM     27  H12 UNL     1      96.725  13.528  30.123  1.00  0.00     0.275 HD
ATOM     28  H11 UNL     1      97.086  15.035  29.462  1.00  0.00     0.275 HD
ENDBRANCH  24  25
BRANCH  24  29
HETATM   29  C14 UNL     1      96.655  16.269  31.409  1.00  0.00     0.204 C 
HETATM   30  O3  UNL     1      97.319  17.260  31.051  1.00  0.00    -0.646 OA
HETATM   31  O4  UNL     1      95.300  16.454  31.711  1.00  0.00    -0.646 OA
ENDBRANCH  24  29
ENDBRANCH  23  24
ENDBRANCH   1  23
TORSDOF 7
ENDMDL
