MODEL 1
REMARK VINA RESULT: -11.860079868      0.000      0.000
REMARK  7 active torsions:
REMARK  status: ('A' for Active; 'I' for Inactive)
REMARK    1  A    between atoms: N1_1  and  C1_5 
REMARK    2  A    between atoms: C1_5  and  C2_6 
REMARK    3  A    between atoms: C1_5  and  C14_29 
REMARK    4  A    between atoms: C2_6  and  C3_7 
REMARK    5  A    between atoms: C4_8  and  C5_9 
REMARK    6  A    between atoms: N4_13  and  C6_14 
REMARK    7  A    between atoms: C6_14  and  C7_15 
ROOT
HETATM    1  C3  UNL     1      93.460  16.782  29.207  1.00  0.00     0.054 A 
HETATM    2  C4  UNL     1      94.019  16.553  30.441  1.00  0.00     0.157 A 
HETATM    3  O1  UNL     1      93.118  16.915  31.325  1.00  0.00    -0.230 OA
HETATM    4  N6  UNL     1      92.049  17.347  30.744  1.00  0.00    -0.225 N 
ATOM      5  H6  UNL     1      91.217  17.681  31.232  1.00  0.00     0.198 HD
HETATM    6  C13 UNL     1      92.182  17.296  29.411  1.00  0.00     0.274 A 
HETATM    7  O2  UNL     1      91.342  17.635  28.520  1.00  0.00    -0.266 OA
ENDROOT
BRANCH   2   8
HETATM    8  C5  UNL     1      95.354  16.012  30.745  1.00  0.00     0.171 A 
HETATM    9  N2  UNL     1      96.423  16.778  30.991  1.00  0.00    -0.264 N 
HETATM   10  N3  UNL     1      97.459  15.975  31.236  1.00  0.00    -0.002 NA
ATOM     11  H2  UNL     1      96.443  17.798  30.991  1.00  0.00     0.186 HD
HETATM   12  N4  UNL     1      97.064  14.704  31.151  1.00  0.00    -0.212 N 
HETATM   13  N5  UNL     1      95.783  14.753  30.851  1.00  0.00    -0.267 N 
ATOM     14  H5  UNL     1      95.192  13.931  30.717  1.00  0.00     0.190 HD
BRANCH  12  15
HETATM   15  C6  UNL     1      97.917  13.548  31.355  1.00  0.00     0.205 C 
BRANCH  15  16
HETATM   16  C7  UNL     1      98.727  13.733  32.566  1.00  0.00    -0.036 A 
HETATM   17  C8  UNL     1      99.356  14.917  32.870  1.00  0.00     0.009 A 
HETATM   18  C9  UNL     1     100.115  15.065  34.018  1.00  0.00     0.002 A 
HETATM   19  C10 UNL     1     100.232  13.968  34.875  1.00  0.00     0.024 A 
HETATM   20  C11 UNL     1      99.613  12.782  34.587  1.00  0.00     0.034 A 
HETATM   21 CL1  UNL     1      99.792  11.443  35.691  1.00  0.00    -0.084 Cl
HETATM   22  C12 UNL     1      98.868  12.668  33.440  1.00  0.00     0.032 A 
ENDBRANCH  15  16
ENDBRANCH  12  15
ENDBRANCH   2   8
BRANCH   1  23
HETATM   23  C2  UNL     1      94.072  16.560  27.889  1.00  0.00     0.091 C 
BRANCH  23  24
HETATM   24  C1  UNL     1      93.703  15.234  27.262  1.00  0.00     0.287 C 
BRANCH  24  25
HETATM   25  N1  UNL     1      94.685  14.210  27.559  1.00  0.00    -0.065 N 
ATOM     26  H13 UNL     1      95.403  14.162  26.836  1.00  0.00     0.275 HD
ATOM     27  H12 UNL     1      95.272  14.474  28.349  1.00  0.00     0.275 HD
ATOM     28  H11 UNL     1      94.247  13.300  27.708  1.00  0.00     0.275 HD
ENDBRANCH  24  25
BRANCH  24  29
HETATM   29  C14 UNL     1      93.589  15.351  25.788  1.00  0.00     0.204 C 
HETATM   30  O3  UNL     1      92.883  16.240  25.281  1.00  0.00    -0.646 OA
HETATM   31  O4  UNL     1      94.266  14.473  24.932  1.00  0.00    -0.646 OA
ENDBRANCH  24  29
ENDBRANCH  23  24
ENDBRANCH   1  23
TORSDOF 7
ENDMDL
