MODEL 10
REMARK VINA RESULT: -7.441726484      5.316      8.632
REMARK  4 active torsions:
REMARK  status: ('A' for Active; 'I' for Inactive)
REMARK    1  A    between atoms: N1_1  and  S1_4 
REMARK    2  A    between atoms: S1_4  and  C1_7 
REMARK    3  A    between atoms: C4_10  and  C5_11 
REMARK    4  A    between atoms: N2_13  and  C7_14 
ROOT
HETATM    1  C5  UNL     1      15.190 -27.119  59.737  1.00  0.00     0.084 A 
HETATM    2  C6  UNL     1      14.027 -27.759  59.387  1.00  0.00     0.150 A 
HETATM    3  N2  UNL     1      13.106 -26.819  59.138  1.00  0.00    -0.250 N 
HETATM    4  N3  UNL     1      13.665 -25.654  59.322  1.00  0.00    -0.235 N 
ATOM      5  H3  UNL     1      13.204 -24.751  59.206  1.00  0.00     0.209 HD
HETATM    6  N4  UNL     1      14.915 -25.832  59.682  1.00  0.00    -0.283 N 
ATOM      7  H4  UNL     1      15.576 -25.083  59.887  1.00  0.00     0.188 HD
ENDROOT
BRANCH   1   8
HETATM    8  C4  UNL     1      16.450 -27.808  60.091  1.00  0.00     0.036 A 
HETATM    9  C3  UNL     1      16.627 -28.815  61.007  1.00  0.00     0.023 A 
HETATM   10  C2  UNL     1      17.867 -29.289  61.163  1.00  0.00     0.034 A 
HETATM   11  C1  UNL     1      18.858 -28.738  60.401  1.00  0.00     0.120 A 
HETATM   12  S2  UNL     1      18.027 -27.566  59.485  1.00  0.00    -0.074 SA
BRANCH  11  13
HETATM   13  S1  UNL     1      20.567 -29.140  60.374  1.00  0.00     0.263 S 
HETATM   14  O1  UNL     1      20.877 -29.789  59.066  1.00  0.00    -0.200 OA
HETATM   15  O2  UNL     1      20.810 -30.100  61.525  1.00  0.00    -0.200 OA
BRANCH  13  16
HETATM   16  N1  UNL     1      21.554 -27.751  60.532  1.00  0.00    -0.324 N 
ATOM     17  H12 UNL     1      22.554 -27.717  60.331  1.00  0.00     0.169 HD
ATOM     18  H11 UNL     1      20.972 -26.979  60.858  1.00  0.00     0.169 HD
ENDBRANCH  13  16
ENDBRANCH  11  13
ENDBRANCH   1   8
BRANCH   3  19
HETATM   19  C7  UNL     1      11.768 -27.151  58.742  1.00  0.00     0.068 A 
HETATM   20  C8  UNL     1      10.783 -27.358  59.709  1.00  0.00     0.032 A 
HETATM   21  C9  UNL     1       9.497 -27.675  59.421  1.00  0.00     0.003 A 
HETATM   22  C10 UNL     1       9.145 -27.800  58.085  1.00  0.00     0.012 A 
HETATM   23  C11 UNL     1      10.076 -27.606  57.095  1.00  0.00    -0.024 A 
HETATM   24  C12 UNL     1       9.697 -27.736  55.788  1.00  0.00     0.012 A 
HETATM   25  C16 UNL     1      11.397 -27.280  57.419  1.00  0.00     0.003 A 
HETATM   26  C13 UNL     1      10.644 -27.539  54.791  1.00  0.00     0.001 A 
HETATM   27  C14 UNL     1      11.953 -27.217  55.099  1.00  0.00     0.001 A 
HETATM   28  C15 UNL     1      12.327 -27.088  56.420  1.00  0.00     0.014 A 
ENDBRANCH   3  19
TORSDOF 4
ENDMDL
