MODEL 12
REMARK VINA RESULT: -7.426611622      2.010      2.934
REMARK  4 active torsions:
REMARK  status: ('A' for Active; 'I' for Inactive)
REMARK    1  A    between atoms: N1_1  and  S1_4 
REMARK    2  A    between atoms: S1_4  and  C1_7 
REMARK    3  A    between atoms: C4_10  and  C5_11 
REMARK    4  A    between atoms: N2_13  and  C7_14 
ROOT
HETATM    1  C5  UNL     1      15.191 -26.936  57.785  1.00  0.00     0.084 A 
HETATM    2  C6  UNL     1      16.280 -26.768  58.605  1.00  0.00     0.150 A 
HETATM    3  N2  UNL     1      17.378 -26.967  57.866  1.00  0.00    -0.250 N 
HETATM    4  N3  UNL     1      16.996 -27.243  56.649  1.00  0.00    -0.235 N 
ATOM      5  H3  UNL     1      17.616 -27.441  55.864  1.00  0.00     0.209 HD
HETATM    6  N4  UNL     1      15.684 -27.224  56.599  1.00  0.00    -0.283 N 
ATOM      7  H4  UNL     1      15.128 -27.407  55.763  1.00  0.00     0.188 HD
ENDROOT
BRANCH   1   8
HETATM    8  C4  UNL     1      13.785 -26.801  58.224  1.00  0.00     0.036 A 
HETATM    9  C3  UNL     1      13.275 -25.925  59.150  1.00  0.00     0.023 A 
HETATM   10  C2  UNL     1      11.961 -25.984  59.390  1.00  0.00     0.034 A 
HETATM   11  C1  UNL     1      11.231 -26.908  58.698  1.00  0.00     0.120 A 
HETATM   12  S2  UNL     1      12.403 -27.672  57.728  1.00  0.00    -0.074 SA
BRANCH  11  13
HETATM   13  S1  UNL     1       9.506 -27.227  58.788  1.00  0.00     0.263 S 
HETATM   14  O1  UNL     1       9.310 -28.585  59.376  1.00  0.00    -0.200 OA
HETATM   15  O2  UNL     1       8.975 -27.172  57.366  1.00  0.00    -0.200 OA
BRANCH  13  16
HETATM   16  N1  UNL     1       8.695 -26.090  59.776  1.00  0.00    -0.324 N 
ATOM     17  H12 UNL     1       9.114 -25.595  60.564  1.00  0.00     0.169 HD
ATOM     18  H11 UNL     1       7.736 -25.999  59.440  1.00  0.00     0.169 HD
ENDBRANCH  13  16
ENDBRANCH  11  13
ENDBRANCH   1   8
BRANCH   3  19
HETATM   19  C7  UNL     1      18.697 -26.866  58.421  1.00  0.00     0.068 A 
HETATM   20  C8  UNL     1      19.574 -25.879  57.969  1.00  0.00     0.032 A 
HETATM   21  C9  UNL     1      20.835 -25.715  58.439  1.00  0.00     0.003 A 
HETATM   22  C10 UNL     1      21.273 -26.583  59.429  1.00  0.00     0.012 A 
HETATM   23  C11 UNL     1      20.450 -27.570  59.909  1.00  0.00    -0.024 A 
HETATM   24  C12 UNL     1      20.912 -28.409  60.884  1.00  0.00     0.012 A 
HETATM   25  C16 UNL     1      19.153 -27.718  59.406  1.00  0.00     0.003 A 
HETATM   26  C13 UNL     1      20.074 -29.407  61.366  1.00  0.00     0.001 A 
HETATM   27  C14 UNL     1      18.791 -29.563  60.877  1.00  0.00     0.001 A 
HETATM   28  C15 UNL     1      18.332 -28.713  59.892  1.00  0.00     0.014 A 
ENDBRANCH   3  19
TORSDOF 4
ENDMDL
