MODEL 14
REMARK VINA RESULT: -7.245727588      5.208      5.775
REMARK  4 active torsions:
REMARK  status: ('A' for Active; 'I' for Inactive)
REMARK    1  A    between atoms: N1_1  and  S1_4 
REMARK    2  A    between atoms: S1_4  and  C1_7 
REMARK    3  A    between atoms: C4_10  and  C5_11 
REMARK    4  A    between atoms: N2_13  and  C7_14 
ROOT
HETATM    1  C5  UNL     1      13.572 -27.500  56.749  1.00  0.00     0.084 A 
HETATM    2  C6  UNL     1      13.775 -27.962  55.472  1.00  0.00     0.150 A 
HETATM    3  N2  UNL     1      15.097 -28.038  55.274  1.00  0.00    -0.250 N 
HETATM    4  N3  UNL     1      15.688 -27.644  56.370  1.00  0.00    -0.235 N 
ATOM      5  H3  UNL     1      16.696 -27.596  56.514  1.00  0.00     0.209 HD
HETATM    6  N4  UNL     1      14.774 -27.322  57.256  1.00  0.00    -0.283 N 
ATOM      7  H4  UNL     1      14.968 -26.983  58.198  1.00  0.00     0.188 HD
ENDROOT
BRANCH   1   8
HETATM    8  C4  UNL     1      12.241 -27.276  57.356  1.00  0.00     0.036 A 
HETATM    9  C3  UNL     1      11.038 -27.807  56.960  1.00  0.00     0.023 A 
HETATM   10  C2  UNL     1       9.956 -27.461  57.664  1.00  0.00     0.034 A 
HETATM   11  C1  UNL     1      10.129 -26.608  58.716  1.00  0.00     0.120 A 
HETATM   12  S2  UNL     1      11.806 -26.311  58.695  1.00  0.00    -0.074 SA
BRANCH  11  13
HETATM   13  S1  UNL     1       8.918 -25.973  59.820  1.00  0.00     0.263 S 
HETATM   14  O1  UNL     1       9.154 -26.569  61.167  1.00  0.00    -0.200 OA
HETATM   15  O2  UNL     1       7.565 -26.392  59.272  1.00  0.00    -0.200 OA
BRANCH  13  16
HETATM   16  N1  UNL     1       9.010 -24.270  59.960  1.00  0.00    -0.324 N 
ATOM     17  H12 UNL     1       9.490 -23.769  60.708  1.00  0.00     0.169 HD
ATOM     18  H11 UNL     1       8.507 -23.856  59.175  1.00  0.00     0.169 HD
ENDBRANCH  13  16
ENDBRANCH  11  13
ENDBRANCH   1   8
BRANCH   3  19
HETATM   19  C7  UNL     1      15.655 -28.489  54.033  1.00  0.00     0.068 A 
HETATM   20  C8  UNL     1      16.028 -27.564  53.055  1.00  0.00     0.032 A 
HETATM   21  C9  UNL     1      16.561 -27.906  51.857  1.00  0.00     0.003 A 
HETATM   22  C10 UNL     1      16.746 -29.255  51.592  1.00  0.00     0.012 A 
HETATM   23  C11 UNL     1      16.397 -30.204  52.519  1.00  0.00    -0.024 A 
HETATM   24  C12 UNL     1      16.592 -31.526  52.227  1.00  0.00     0.012 A 
HETATM   25  C16 UNL     1      15.848 -29.825  53.749  1.00  0.00     0.003 A 
HETATM   26  C13 UNL     1      16.236 -32.481  53.170  1.00  0.00     0.001 A 
HETATM   27  C14 UNL     1      15.692 -32.120  54.388  1.00  0.00     0.001 A 
HETATM   28  C15 UNL     1      15.499 -30.785  54.675  1.00  0.00     0.014 A 
ENDBRANCH   3  19
TORSDOF 4
ENDMDL
