MODEL 17
REMARK VINA RESULT: -7.186770268      2.600      3.391
REMARK  4 active torsions:
REMARK  status: ('A' for Active; 'I' for Inactive)
REMARK    1  A    between atoms: N1_1  and  S1_4 
REMARK    2  A    between atoms: S1_4  and  C1_7 
REMARK    3  A    between atoms: C4_10  and  C5_11 
REMARK    4  A    between atoms: N2_13  and  C7_14 
ROOT
HETATM    1  C5  UNL     1      13.976 -27.787  57.764  1.00  0.00     0.084 A 
HETATM    2  C6  UNL     1      15.070 -27.262  58.406  1.00  0.00     0.150 A 
HETATM    3  N2  UNL     1      16.163 -27.810  57.859  1.00  0.00    -0.250 N 
HETATM    4  N3  UNL     1      15.771 -28.633  56.925  1.00  0.00    -0.235 N 
ATOM      5  H3  UNL     1      16.385 -29.195  56.335  1.00  0.00     0.209 HD
HETATM    6  N4  UNL     1      14.460 -28.620  56.865  1.00  0.00    -0.283 N 
ATOM      7  H4  UNL     1      13.898 -29.174  56.219  1.00  0.00     0.188 HD
ENDROOT
BRANCH   1   8
HETATM    8  C4  UNL     1      12.574 -27.435  58.077  1.00  0.00     0.036 A 
HETATM    9  C3  UNL     1      11.451 -27.733  57.345  1.00  0.00     0.023 A 
HETATM   10  C2  UNL     1      10.277 -27.309  57.826  1.00  0.00     0.034 A 
HETATM   11  C1  UNL     1      10.287 -26.614  59.002  1.00  0.00     0.120 A 
HETATM   12  S2  UNL     1      11.941 -26.571  59.407  1.00  0.00    -0.074 SA
BRANCH  11  13
HETATM   13  S1  UNL     1       8.927 -25.933  59.880  1.00  0.00     0.263 S 
HETATM   14  O1  UNL     1       9.008 -26.387  61.298  1.00  0.00    -0.200 OA
HETATM   15  O2  UNL     1       7.668 -26.460  59.214  1.00  0.00    -0.200 OA
BRANCH  13  16
HETATM   16  N1  UNL     1       8.945 -24.222  59.861  1.00  0.00    -0.324 N 
ATOM     17  H12 UNL     1       9.598 -23.637  60.382  1.00  0.00     0.169 HD
ATOM     18  H11 UNL     1       8.198 -23.900  59.244  1.00  0.00     0.169 HD
ENDBRANCH  13  16
ENDBRANCH  11  13
ENDBRANCH   1   8
BRANCH   3  19
HETATM   19  C7  UNL     1      17.485 -27.476  58.303  1.00  0.00     0.068 A 
HETATM   20  C8  UNL     1      18.155 -26.385  57.747  1.00  0.00     0.032 A 
HETATM   21  C9  UNL     1      19.404 -26.001  58.109  1.00  0.00     0.003 A 
HETATM   22  C10 UNL     1      20.048 -26.740  59.090  1.00  0.00     0.012 A 
HETATM   23  C11 UNL     1      19.434 -27.821  59.669  1.00  0.00    -0.024 A 
HETATM   24  C12 UNL     1      20.096 -28.529  60.633  1.00  0.00     0.012 A 
HETATM   25  C16 UNL     1      18.144 -28.197  59.277  1.00  0.00     0.003 A 
HETATM   26  C13 UNL     1      19.468 -29.622  61.215  1.00  0.00     0.001 A 
HETATM   27  C14 UNL     1      18.194 -30.003  60.836  1.00  0.00     0.001 A 
HETATM   28  C15 UNL     1      17.533 -29.285  59.863  1.00  0.00     0.014 A 
ENDBRANCH   3  19
TORSDOF 4
ENDMDL
