MODEL 9
REMARK VINA RESULT: -7.443375040      2.876      3.899
REMARK  4 active torsions:
REMARK  status: ('A' for Active; 'I' for Inactive)
REMARK    1  A    between atoms: N1_1  and  S1_4 
REMARK    2  A    between atoms: S1_4  and  C1_7 
REMARK    3  A    between atoms: C4_10  and  C5_11 
REMARK    4  A    between atoms: N2_13  and  C7_14 
ROOT
HETATM    1  C5  UNL     1      14.611 -28.061  59.200  1.00  0.00     0.084 A 
HETATM    2  C6  UNL     1      15.850 -27.591  59.559  1.00  0.00     0.150 A 
HETATM    3  N2  UNL     1      16.744 -28.545  59.270  1.00  0.00    -0.250 N 
HETATM    4  N3  UNL     1      16.098 -29.557  58.759  1.00  0.00    -0.235 N 
ATOM      5  H3  UNL     1      16.519 -30.430  58.444  1.00  0.00     0.209 HD
HETATM    6  N4  UNL     1      14.818 -29.268  58.716  1.00  0.00    -0.283 N 
ATOM      7  H4  UNL     1      14.091 -29.888  58.359  1.00  0.00     0.188 HD
ENDROOT
BRANCH   1   8
HETATM    8  C4  UNL     1      13.351 -27.303  59.359  1.00  0.00     0.036 A 
HETATM    9  C3  UNL     1      13.203 -25.955  59.573  1.00  0.00     0.023 A 
HETATM   10  C2  UNL     1      11.957 -25.486  59.687  1.00  0.00     0.034 A 
HETATM   11  C1  UNL     1      10.930 -26.381  59.583  1.00  0.00     0.120 A 
HETATM   12  S2  UNL     1      11.737 -27.859  59.328  1.00  0.00    -0.074 SA
BRANCH  11  13
HETATM   13  S1  UNL     1       9.203 -26.079  59.687  1.00  0.00     0.263 S 
HETATM   14  O1  UNL     1       8.685 -26.737  60.922  1.00  0.00    -0.200 OA
HETATM   15  O2  UNL     1       8.576 -26.690  58.446  1.00  0.00    -0.200 OA
BRANCH  13  16
HETATM   16  N1  UNL     1       8.849 -24.408  59.779  1.00  0.00    -0.324 N 
ATOM     17  H12 UNL     1       9.498 -23.689  60.102  1.00  0.00     0.169 HD
ATOM     18  H11 UNL     1       7.891 -24.264  59.457  1.00  0.00     0.169 HD
ENDBRANCH  13  16
ENDBRANCH  11  13
ENDBRANCH   1   8
BRANCH   3  19
HETATM   19  C7  UNL     1      18.146 -28.374  59.523  1.00  0.00     0.068 A 
HETATM   20  C8  UNL     1      18.803 -27.226  59.077  1.00  0.00     0.032 A 
HETATM   21  C9  UNL     1      20.123 -26.986  59.273  1.00  0.00     0.003 A 
HETATM   22  C10 UNL     1      20.859 -27.943  59.957  1.00  0.00     0.012 A 
HETATM   23  C11 UNL     1      20.261 -29.089  60.417  1.00  0.00    -0.024 A 
HETATM   24  C12 UNL     1      21.014 -30.012  61.088  1.00  0.00     0.012 A 
HETATM   25  C16 UNL     1      18.897 -29.312  60.201  1.00  0.00     0.003 A 
HETATM   26  C13 UNL     1      20.403 -31.170  61.550  1.00  0.00     0.001 A 
HETATM   27  C14 UNL     1      19.056 -31.402  61.343  1.00  0.00     0.001 A 
HETATM   28  C15 UNL     1      18.303 -30.466  60.665  1.00  0.00     0.014 A 
ENDBRANCH   3  19
TORSDOF 4
ENDMDL
