MODEL 16
REMARK VINA RESULT: -7.202789284      5.038      8.493
REMARK  4 active torsions:
REMARK  status: ('A' for Active; 'I' for Inactive)
REMARK    1  A    between atoms: N1_1  and  S1_4 
REMARK    2  A    between atoms: S1_4  and  C1_7 
REMARK    3  A    between atoms: C4_10  and  C5_11 
REMARK    4  A    between atoms: N2_13  and  C7_14 
ROOT
HETATM    1  C5  UNL     1      16.713 -24.638  58.742  1.00  0.00     0.084 A 
HETATM    2  C6  UNL     1      15.876 -25.672  58.402  1.00  0.00     0.150 A 
HETATM    3  N2  UNL     1      15.225 -26.048  59.510  1.00  0.00    -0.250 N 
HETATM    4  N3  UNL     1      15.634 -25.289  60.489  1.00  0.00    -0.235 N 
ATOM      5  H3  UNL     1      15.311 -25.344  61.456  1.00  0.00     0.209 HD
HETATM    6  N4  UNL     1      16.526 -24.442  60.031  1.00  0.00    -0.283 N 
ATOM      7  H4  UNL     1      17.004 -23.736  60.590  1.00  0.00     0.188 HD
ENDROOT
BRANCH   1   8
HETATM    8  C4  UNL     1      17.609 -23.941  57.794  1.00  0.00     0.036 A 
HETATM    9  C3  UNL     1      18.541 -22.973  58.078  1.00  0.00     0.023 A 
HETATM   10  C2  UNL     1      19.243 -22.480  57.053  1.00  0.00     0.034 A 
HETATM   11  C1  UNL     1      18.980 -22.975  55.807  1.00  0.00     0.120 A 
HETATM   12  S2  UNL     1      17.754 -24.120  56.103  1.00  0.00    -0.074 SA
BRANCH  11  13
HETATM   13  S1  UNL     1      19.724 -22.538  54.277  1.00  0.00     0.263 S 
HETATM   14  O1  UNL     1      20.816 -23.513  53.990  1.00  0.00    -0.200 OA
HETATM   15  O2  UNL     1      20.283 -21.136  54.447  1.00  0.00    -0.200 OA
BRANCH  13  16
HETATM   16  N1  UNL     1      18.605 -22.586  52.984  1.00  0.00    -0.324 N 
ATOM     17  H12 UNL     1      18.013 -23.384  52.751  1.00  0.00     0.169 HD
ATOM     18  H11 UNL     1      18.636 -21.689  52.499  1.00  0.00     0.169 HD
ENDBRANCH  13  16
ENDBRANCH  11  13
ENDBRANCH   1   8
BRANCH   3  19
HETATM   19  C7  UNL     1      14.265 -27.114  59.503  1.00  0.00     0.068 A 
HETATM   20  C8  UNL     1      14.693 -28.442  59.456  1.00  0.00     0.032 A 
HETATM   21  C9  UNL     1      13.854 -29.506  59.446  1.00  0.00     0.003 A 
HETATM   22  C10 UNL     1      12.490 -29.254  59.485  1.00  0.00     0.012 A 
HETATM   23  C11 UNL     1      12.017 -27.968  59.532  1.00  0.00    -0.024 A 
HETATM   24  C12 UNL     1      10.668 -27.753  59.570  1.00  0.00     0.012 A 
HETATM   25  C16 UNL     1      12.905 -26.886  59.541  1.00  0.00     0.003 A 
HETATM   26  C13 UNL     1      10.195 -26.448  59.618  1.00  0.00     0.001 A 
HETATM   27  C14 UNL     1      11.062 -25.372  59.627  1.00  0.00     0.001 A 
HETATM   28  C15 UNL     1      12.422 -25.596  59.588  1.00  0.00     0.014 A 
ENDBRANCH   3  19
TORSDOF 4
ENDMDL
