MODEL 6
REMARK VINA RESULT: -6.781077867      1.113      1.307
REMARK  5 active torsions:
REMARK  status: ('A' for Active; 'I' for Inactive)
REMARK    1  A    between atoms: O1_2  and  C2_3 
REMARK    2  A    between atoms: C5_6  and  N1_7 
REMARK    3  A    between atoms: C7_9  and  C8_10 
REMARK    4  A    between atoms: C11_13  and  S1_14 
REMARK    5  A    between atoms: S1_14  and  N2_15 
ROOT
HETATM    1  N1  UNL     1     -32.522  -2.760   3.701  1.00  0.00    -0.249 N 
HETATM    2  C6  UNL     1     -32.068  -3.603   2.726  1.00  0.00     0.146 A 
HETATM    3  C7  UNL     1     -30.761  -3.317   2.463  1.00  0.00     0.080 A 
HETATM    4  N3  UNL     1     -30.429  -2.303   3.279  1.00  0.00    -0.281 N 
ATOM      5  H3  UNL     1     -29.515  -1.852   3.330  1.00  0.00     0.184 HD
HETATM    6  N4  UNL     1     -31.490  -1.992   4.003  1.00  0.00    -0.015 NA
ENDROOT
BRANCH   3   7
HETATM    7  C8  UNL     1     -29.892  -3.984   1.485  1.00  0.00     0.035 A 
HETATM    8  C9  UNL     1     -29.468  -5.285   1.466  1.00  0.00     0.023 A 
HETATM    9  C10 UNL     1     -28.672  -5.656   0.456  1.00  0.00     0.034 A 
HETATM   10  C11 UNL     1     -28.345  -4.706  -0.476  1.00  0.00     0.120 A 
HETATM   11  S2  UNL     1     -29.165  -3.324   0.094  1.00  0.00    -0.074 SA
BRANCH  10  12
HETATM   12  S1  UNL     1     -27.320  -4.901  -1.907  1.00  0.00     0.263 S 
HETATM   13  O2  UNL     1     -25.956  -5.294  -1.399  1.00  0.00    -0.200 OA
HETATM   14  O3  UNL     1     -27.821  -5.982  -2.790  1.00  0.00    -0.200 OA
BRANCH  12  15
HETATM   15  N2  UNL     1     -27.163  -3.432  -2.755  1.00  0.00    -0.324 N 
ATOM     16  H22 UNL     1     -26.270  -2.971  -2.925  1.00  0.00     0.169 HD
ATOM     17  H21 UNL     1     -28.072  -3.086  -3.062  1.00  0.00     0.169 HD
ENDBRANCH  12  15
ENDBRANCH  10  12
ENDBRANCH   3   7
BRANCH   1  18
HETATM   18  C5  UNL     1     -33.820  -2.708   4.278  1.00  0.00     0.054 A 
HETATM   19  C4  UNL     1     -34.928  -3.056   3.542  1.00  0.00     0.034 A 
HETATM   20  C3  UNL     1     -36.183  -2.991   4.145  1.00  0.00     0.039 A 
HETATM   21  C2  UNL     1     -36.337  -2.589   5.455  1.00  0.00     0.068 A 
HETATM   22  C13 UNL     1     -35.231  -2.237   6.199  1.00  0.00     0.039 A 
HETATM   23  C12 UNL     1     -33.985  -2.304   5.593  1.00  0.00     0.034 A 
BRANCH  21  24
HETATM   24  O1  UNL     1     -37.618  -2.533   6.037  1.00  0.00    -0.356 OA
HETATM   25  C1  UNL     1     -38.296  -3.684   6.441  1.00  0.00     0.210 C 
ENDBRANCH  21  24
ENDBRANCH   1  18
TORSDOF 5
ENDMDL
