MODEL 5
REMARK VINA RESULT: -6.834778899      6.047      6.752
REMARK  5 active torsions:
REMARK  status: ('A' for Active; 'I' for Inactive)
REMARK    1  A    between atoms: O1_2  and  C2_3 
REMARK    2  A    between atoms: C5_6  and  N1_7 
REMARK    3  A    between atoms: C7_9  and  C8_10 
REMARK    4  A    between atoms: C11_13  and  S1_14 
REMARK    5  A    between atoms: S1_14  and  N2_15 
ROOT
HETATM    1  N1  UNL     1     -32.991   0.615  -1.654  1.00  0.00    -0.249 N 
HETATM    2  C6  UNL     1     -31.709   0.238  -1.940  1.00  0.00     0.146 A 
HETATM    3  C7  UNL     1     -31.512  -1.038  -1.503  1.00  0.00     0.080 A 
HETATM    4  N3  UNL     1     -32.675  -1.429  -0.955  1.00  0.00    -0.281 N 
ATOM      5  H3  UNL     1     -32.861  -2.339  -0.533  1.00  0.00     0.184 HD
HETATM    6  N4  UNL     1     -33.535  -0.431  -1.058  1.00  0.00    -0.015 NA
ENDROOT
BRANCH   3   7
HETATM    7  C8  UNL     1     -30.278  -1.827  -1.610  1.00  0.00     0.035 A 
HETATM    8  C9  UNL     1     -28.993  -1.385  -1.772  1.00  0.00     0.023 A 
HETATM    9  C10 UNL     1     -28.031  -2.312  -1.843  1.00  0.00     0.034 A 
HETATM   10  C11 UNL     1     -28.407  -3.626  -1.747  1.00  0.00     0.120 A 
HETATM   11  S2  UNL     1     -30.099  -3.520  -1.562  1.00  0.00    -0.074 SA
BRANCH  10  12
HETATM   12  S1  UNL     1     -27.365  -5.058  -1.807  1.00  0.00     0.263 S 
HETATM   13  O2  UNL     1     -27.590  -5.798  -0.512  1.00  0.00    -0.200 OA
HETATM   14  O3  UNL     1     -27.738  -5.953  -2.929  1.00  0.00    -0.200 OA
BRANCH  12  15
HETATM   15  N2  UNL     1     -25.722  -4.619  -1.884  1.00  0.00    -0.324 N 
ATOM     16  H22 UNL     1     -25.332  -3.805  -1.410  1.00  0.00     0.169 HD
ATOM     17  H21 UNL     1     -25.193  -5.273  -2.461  1.00  0.00     0.169 HD
ENDBRANCH  12  15
ENDBRANCH  10  12
ENDBRANCH   3   7
BRANCH   1  18
HETATM   18  C5  UNL     1     -33.620   1.860  -1.932  1.00  0.00     0.054 A 
HETATM   19  C4  UNL     1     -34.593   1.952  -2.899  1.00  0.00     0.034 A 
HETATM   20  C3  UNL     1     -35.184   3.190  -3.142  1.00  0.00     0.039 A 
HETATM   21  C2  UNL     1     -34.818   4.318  -2.437  1.00  0.00     0.068 A 
HETATM   22  C13 UNL     1     -33.843   4.234  -1.466  1.00  0.00     0.039 A 
HETATM   23  C12 UNL     1     -33.258   2.999  -1.230  1.00  0.00     0.034 A 
BRANCH  21  24
HETATM   24  O1  UNL     1     -35.434   5.556  -2.704  1.00  0.00    -0.356 OA
HETATM   25  C1  UNL     1     -34.740   6.763  -2.599  1.00  0.00     0.210 C 
ENDBRANCH  21  24
ENDBRANCH   1  18
TORSDOF 5
ENDMDL
