MODEL 7
REMARK VINA RESULT: -6.739946586      6.004      6.719
REMARK  5 active torsions:
REMARK  status: ('A' for Active; 'I' for Inactive)
REMARK    1  A    between atoms: O1_2  and  C2_3 
REMARK    2  A    between atoms: C5_6  and  N1_7 
REMARK    3  A    between atoms: C7_9  and  C8_10 
REMARK    4  A    between atoms: C11_13  and  S1_14 
REMARK    5  A    between atoms: S1_14  and  N2_15 
ROOT
HETATM    1  N1  UNL     1     -33.000   0.633  -1.648  1.00  0.00    -0.249 N 
HETATM    2  C6  UNL     1     -31.713   0.263  -1.917  1.00  0.00     0.146 A 
HETATM    3  C7  UNL     1     -31.529  -1.028  -1.519  1.00  0.00     0.080 A 
HETATM    4  N3  UNL     1     -32.704  -1.434  -1.012  1.00  0.00    -0.281 N 
ATOM      5  H3  UNL     1     -32.902  -2.357  -0.625  1.00  0.00     0.184 HD
HETATM    6  N4  UNL     1     -33.560  -0.431  -1.100  1.00  0.00    -0.015 NA
ENDROOT
BRANCH   3   7
HETATM    7  C8  UNL     1     -30.294  -1.816  -1.625  1.00  0.00     0.035 A 
HETATM    8  C9  UNL     1     -29.011  -1.374  -1.801  1.00  0.00     0.023 A 
HETATM    9  C10 UNL     1     -28.047  -2.300  -1.866  1.00  0.00     0.034 A 
HETATM   10  C11 UNL     1     -28.420  -3.613  -1.751  1.00  0.00     0.120 A 
HETATM   11  S2  UNL     1     -30.110  -3.507  -1.556  1.00  0.00    -0.074 SA
BRANCH  10  12
HETATM   12  S1  UNL     1     -27.376  -5.043  -1.800  1.00  0.00     0.263 S 
HETATM   13  O2  UNL     1     -27.597  -5.772  -0.498  1.00  0.00    -0.200 OA
HETATM   14  O3  UNL     1     -27.748  -5.949  -2.913  1.00  0.00    -0.200 OA
BRANCH  12  15
HETATM   15  N2  UNL     1     -25.733  -4.602  -1.884  1.00  0.00    -0.324 N 
ATOM     16  H22 UNL     1     -25.294  -4.217  -2.720  1.00  0.00     0.169 HD
ATOM     17  H21 UNL     1     -25.260  -4.773  -0.997  1.00  0.00     0.169 HD
ENDBRANCH  12  15
ENDBRANCH  10  12
ENDBRANCH   3   7
BRANCH   1  18
HETATM   18  C5  UNL     1     -33.620   1.888  -1.899  1.00  0.00     0.054 A 
HETATM   19  C4  UNL     1     -33.272   2.999  -1.167  1.00  0.00     0.034 A 
HETATM   20  C3  UNL     1     -33.904   4.211  -1.444  1.00  0.00     0.039 A 
HETATM   21  C2  UNL     1     -34.863   4.319  -2.429  1.00  0.00     0.068 A 
HETATM   22  C13 UNL     1     -35.217   3.209  -3.166  1.00  0.00     0.039 A 
HETATM   23  C12 UNL     1     -34.586   2.007  -2.886  1.00  0.00     0.034 A 
BRANCH  21  24
HETATM   24  O1  UNL     1     -35.484   5.557  -2.685  1.00  0.00    -0.356 OA
HETATM   25  C1  UNL     1     -36.781   5.836  -2.251  1.00  0.00     0.210 C 
ENDBRANCH  21  24
ENDBRANCH   1  18
TORSDOF 5
ENDMDL
