MODEL 11
REMARK VINA RESULT: -6.578419781      1.044      1.142
REMARK  5 active torsions:
REMARK  status: ('A' for Active; 'I' for Inactive)
REMARK    1  A    between atoms: O1_2  and  C2_3 
REMARK    2  A    between atoms: C5_6  and  N1_7 
REMARK    3  A    between atoms: C7_9  and  C8_10 
REMARK    4  A    between atoms: C11_13  and  S1_14 
REMARK    5  A    between atoms: S1_14  and  N2_15 
ROOT
HETATM    1  N1  UNL     1     -32.808  -2.889   2.925  1.00  0.00    -0.249 N 
HETATM    2  C6  UNL     1     -32.262  -3.094   1.690  1.00  0.00     0.146 A 
HETATM    3  C7  UNL     1     -30.907  -3.183   1.811  1.00  0.00     0.080 A 
HETATM    4  N3  UNL     1     -30.638  -3.033   3.119  1.00  0.00    -0.281 N 
ATOM      5  H3  UNL     1     -29.711  -3.049   3.544  1.00  0.00     0.184 HD
HETATM    6  N4  UNL     1     -31.782  -2.861   3.758  1.00  0.00    -0.015 NA
ENDROOT
BRANCH   3   7
HETATM    7  C8  UNL     1     -29.937  -3.400   0.730  1.00  0.00     0.035 A 
HETATM    8  C9  UNL     1     -29.442  -2.494  -0.168  1.00  0.00     0.023 A 
HETATM    9  C10 UNL     1     -28.557  -2.942  -1.067  1.00  0.00     0.034 A 
HETATM   10  C11 UNL     1     -28.219  -4.269  -1.017  1.00  0.00     0.120 A 
HETATM   11  S2  UNL     1     -29.152  -4.845   0.289  1.00  0.00    -0.074 SA
BRANCH  10  12
HETATM   12  S1  UNL     1     -27.088  -5.138  -2.067  1.00  0.00     0.263 S 
HETATM   13  O2  UNL     1     -26.856  -6.481  -1.419  1.00  0.00    -0.200 OA
HETATM   14  O3  UNL     1     -27.662  -5.361  -3.415  1.00  0.00    -0.200 OA
BRANCH  12  15
HETATM   15  N2  UNL     1     -25.590  -4.332  -2.157  1.00  0.00    -0.324 N 
ATOM     16  H22 UNL     1     -24.917  -4.305  -1.392  1.00  0.00     0.169 HD
ATOM     17  H21 UNL     1     -25.465  -3.890  -3.067  1.00  0.00     0.169 HD
ENDBRANCH  12  15
ENDBRANCH  10  12
ENDBRANCH   3   7
BRANCH   1  18
HETATM   18  C5  UNL     1     -34.182  -2.739   3.261  1.00  0.00     0.054 A 
HETATM   19  C4  UNL     1     -35.135  -2.627   2.276  1.00  0.00     0.034 A 
HETATM   20  C3  UNL     1     -36.470  -2.481   2.647  1.00  0.00     0.039 A 
HETATM   21  C2  UNL     1     -36.855  -2.447   3.971  1.00  0.00     0.068 A 
HETATM   22  C13 UNL     1     -35.905  -2.559   4.964  1.00  0.00     0.039 A 
HETATM   23  C12 UNL     1     -34.578  -2.703   4.589  1.00  0.00     0.034 A 
BRANCH  21  24
HETATM   24  O1  UNL     1     -38.212  -2.299   4.315  1.00  0.00    -0.356 OA
HETATM   25  C1  UNL     1     -39.191  -3.180   3.854  1.00  0.00     0.210 C 
ENDBRANCH  21  24
ENDBRANCH   1  18
TORSDOF 5
ENDMDL
