MODEL 10
REMARK VINA RESULT: -6.609511533      6.172      6.755
REMARK  5 active torsions:
REMARK  status: ('A' for Active; 'I' for Inactive)
REMARK    1  A    between atoms: O1_2  and  C2_3 
REMARK    2  A    between atoms: C5_6  and  N1_7 
REMARK    3  A    between atoms: C7_9  and  C8_10 
REMARK    4  A    between atoms: C11_13  and  S1_14 
REMARK    5  A    between atoms: S1_14  and  N2_15 
ROOT
HETATM    1  N1  UNL     1     -32.802   1.161  -1.932  1.00  0.00    -0.249 N 
HETATM    2  C6  UNL     1     -32.321  -0.115  -2.026  1.00  0.00     0.146 A 
HETATM    3  C7  UNL     1     -31.031  -0.138  -1.585  1.00  0.00     0.080 A 
HETATM    4  N3  UNL     1     -30.736   1.122  -1.226  1.00  0.00    -0.281 N 
ATOM      5  H3  UNL     1     -29.844   1.444  -0.852  1.00  0.00     0.184 HD
HETATM    6  N4  UNL     1     -31.803   1.873  -1.441  1.00  0.00    -0.015 NA
ENDROOT
BRANCH   3   7
HETATM    7  C8  UNL     1     -30.143  -1.306  -1.516  1.00  0.00     0.035 A 
HETATM    8  C9  UNL     1     -28.795  -1.368  -1.742  1.00  0.00     0.023 A 
HETATM    9  C10 UNL     1     -28.207  -2.563  -1.614  1.00  0.00     0.034 A 
HETATM   10  C11 UNL     1     -28.999  -3.627  -1.269  1.00  0.00     0.120 A 
HETATM   11  S2  UNL     1     -30.543  -2.916  -1.135  1.00  0.00    -0.074 SA
BRANCH  10  12
HETATM   12  S1  UNL     1     -28.506  -5.311  -1.031  1.00  0.00     0.263 S 
HETATM   13  O2  UNL     1     -28.140  -5.442   0.427  1.00  0.00    -0.200 OA
HETATM   14  O3  UNL     1     -29.618  -6.248  -1.321  1.00  0.00    -0.200 OA
BRANCH  12  15
HETATM   15  N2  UNL     1     -27.125  -5.684  -1.956  1.00  0.00    -0.324 N 
ATOM     16  H22 UNL     1     -27.165  -6.094  -2.889  1.00  0.00     0.169 HD
ATOM     17  H21 UNL     1     -26.271  -5.443  -1.454  1.00  0.00     0.169 HD
ENDBRANCH  12  15
ENDBRANCH  10  12
ENDBRANCH   3   7
BRANCH   1  18
HETATM   18  C5  UNL     1     -34.096   1.636  -2.282  1.00  0.00     0.054 A 
HETATM   19  C4  UNL     1     -35.089   0.758  -2.649  1.00  0.00     0.034 A 
HETATM   20  C3  UNL     1     -36.343   1.265  -2.984  1.00  0.00     0.039 A 
HETATM   21  C2  UNL     1     -36.609   2.618  -2.956  1.00  0.00     0.068 A 
HETATM   22  C13 UNL     1     -35.618   3.504  -2.589  1.00  0.00     0.039 A 
HETATM   23  C12 UNL     1     -34.372   2.994  -2.258  1.00  0.00     0.034 A 
BRANCH  21  24
HETATM   24  O1  UNL     1     -37.886   3.100  -3.301  1.00  0.00    -0.356 OA
HETATM   25  C1  UNL     1     -38.387   3.000  -4.600  1.00  0.00     0.210 C 
ENDBRANCH  21  24
ENDBRANCH   1  18
TORSDOF 5
ENDMDL
