MODEL 1
REMARK VINA RESULT: -7.110828050      0.000      0.000
REMARK  5 active torsions:
REMARK  status: ('A' for Active; 'I' for Inactive)
REMARK    1  A    between atoms: O1_2  and  C2_3 
REMARK    2  A    between atoms: C5_6  and  N1_7 
REMARK    3  A    between atoms: C7_9  and  C8_10 
REMARK    4  A    between atoms: C11_13  and  S1_14 
REMARK    5  A    between atoms: S1_14  and  N2_15 
ROOT
HETATM    1  N1  UNL     1     -32.411  -3.440   3.629  1.00  0.00    -0.249 N 
HETATM    2  C6  UNL     1     -31.948  -3.313   2.350  1.00  0.00     0.146 A 
HETATM    3  C7  UNL     1     -30.702  -3.861   2.271  1.00  0.00     0.080 A 
HETATM    4  N3  UNL     1     -30.416  -4.318   3.501  1.00  0.00    -0.281 N 
ATOM      5  H3  UNL     1     -29.554  -4.786   3.780  1.00  0.00     0.184 HD
HETATM    6  N4  UNL     1     -31.446  -4.057   4.288  1.00  0.00    -0.015 NA
ENDROOT
BRANCH   3   7
HETATM    7  C8  UNL     1     -29.845  -3.937   1.080  1.00  0.00     0.035 A 
HETATM    8  C9  UNL     1     -29.618  -2.980   0.129  1.00  0.00     0.023 A 
HETATM    9  C10 UNL     1     -28.785  -3.294  -0.870  1.00  0.00     0.034 A 
HETATM   10  C11 UNL     1     -28.228  -4.546  -0.862  1.00  0.00     0.120 A 
HETATM   11  S2  UNL     1     -28.891  -5.242   0.547  1.00  0.00    -0.074 SA
BRANCH  10  12
HETATM   12  S1  UNL     1     -27.102  -5.238  -2.041  1.00  0.00     0.263 S 
HETATM   13  O2  UNL     1     -26.706  -6.590  -1.504  1.00  0.00    -0.200 OA
HETATM   14  O3  UNL     1     -27.750  -5.429  -3.361  1.00  0.00    -0.200 OA
BRANCH  12  15
HETATM   15  N2  UNL     1     -25.693  -4.291  -2.174  1.00  0.00    -0.324 N 
ATOM     16  H22 UNL     1     -25.516  -3.648  -2.945  1.00  0.00     0.169 HD
ATOM     17  H21 UNL     1     -25.065  -4.454  -1.387  1.00  0.00     0.169 HD
ENDBRANCH  12  15
ENDBRANCH  10  12
ENDBRANCH   3   7
BRANCH   1  18
HETATM   18  C5  UNL     1     -33.661  -3.009   4.154  1.00  0.00     0.054 A 
HETATM   19  C4  UNL     1     -34.826  -3.231   3.459  1.00  0.00     0.034 A 
HETATM   20  C3  UNL     1     -36.030  -2.792   4.008  1.00  0.00     0.039 A 
HETATM   21  C2  UNL     1     -36.077  -2.147   5.226  1.00  0.00     0.068 A 
HETATM   22  C13 UNL     1     -34.913  -1.921   5.928  1.00  0.00     0.039 A 
HETATM   23  C12 UNL     1     -33.719  -2.359   5.376  1.00  0.00     0.034 A 
BRANCH  21  24
HETATM   24  O1  UNL     1     -37.309  -1.715   5.755  1.00  0.00    -0.356 OA
HETATM   25  C1  UNL     1     -38.260  -2.615   6.239  1.00  0.00     0.210 C 
ENDBRANCH  21  24
ENDBRANCH   1  18
TORSDOF 5
ENDMDL
