MODEL 7
REMARK VINA RESULT: -6.880544875      2.017      2.871
REMARK  4 active torsions:
REMARK  status: ('A' for Active; 'I' for Inactive)
REMARK    1  A    between atoms: C5_5  and  N1_6 
REMARK    2  A    between atoms: C7_8  and  C8_9 
REMARK    3  A    between atoms: C11_12  and  S1_13 
REMARK    4  A    between atoms: S1_13  and  N2_14 
ROOT
HETATM    1  N1  UNL     1     -32.063   1.346  -1.479  1.00  0.00    -0.251 N 
HETATM    2  C6  UNL     1     -31.987   0.043  -1.788  1.00  0.00     0.150 A 
HETATM    3  C7  UNL     1     -30.763  -0.416  -1.369  1.00  0.00     0.084 A 
HETATM    4  N3  UNL     1     -30.139   0.636  -0.816  1.00  0.00    -0.283 N 
ATOM      5  H3  UNL     1     -29.205   0.625  -0.405  1.00  0.00     0.188 HD
HETATM    6  N4  UNL     1     -30.922   1.667  -0.890  1.00  0.00    -0.236 N 
ATOM      7  H4  UNL     1     -30.690   2.598  -0.542  1.00  0.00     0.209 HD
ENDROOT
BRANCH   3   8
HETATM    8  C8  UNL     1     -30.212  -1.770  -1.483  1.00  0.00     0.036 A 
HETATM    9  C9  UNL     1     -30.866  -2.973  -1.522  1.00  0.00     0.023 A 
HETATM   10  C10 UNL     1     -30.117  -4.076  -1.631  1.00  0.00     0.034 A 
HETATM   11  C11 UNL     1     -28.758  -3.917  -1.694  1.00  0.00     0.120 A 
HETATM   12  S2  UNL     1     -28.575  -2.224  -1.597  1.00  0.00    -0.074 SA
BRANCH  11  13
HETATM   13  S1  UNL     1     -27.524  -5.175  -1.837  1.00  0.00     0.263 S 
HETATM   14  O1  UNL     1     -27.803  -6.044  -3.018  1.00  0.00    -0.200 OA
HETATM   15  O2  UNL     1     -27.560  -5.961  -0.553  1.00  0.00    -0.200 OA
BRANCH  13  16
HETATM   16  N2  UNL     1     -25.961  -4.471  -1.963  1.00  0.00    -0.324 N 
ATOM     17  H22 UNL     1     -25.794  -3.475  -2.101  1.00  0.00     0.169 HD
ATOM     18  H21 UNL     1     -25.240  -5.188  -1.881  1.00  0.00     0.169 HD
ENDBRANCH  13  16
ENDBRANCH  11  13
ENDBRANCH   3   8
BRANCH   1  19
HETATM   19  C5  UNL     1     -33.133   2.260  -1.710  1.00  0.00     0.057 A 
HETATM   20  C4  UNL     1     -34.235   1.926  -2.473  1.00  0.00     0.032 A 
HETATM   21  C3  UNL     1     -35.275   2.823  -2.694  1.00  0.00     0.009 A 
HETATM   22  C2  UNL     1     -35.216   4.090  -2.140  1.00  0.00    -0.062 A 
HETATM   23  C1  UNL     1     -36.279   5.107  -2.325  1.00  0.00     0.048 C 
HETATM   24  C13 UNL     1     -34.126   4.451  -1.372  1.00  0.00     0.009 A 
HETATM   25  C12 UNL     1     -33.115   3.532  -1.176  1.00  0.00     0.032 A 
ENDBRANCH   1  19
TORSDOF 4
ENDMDL
