MODEL 6
REMARK VINA RESULT: -6.939766181      2.267      2.933
REMARK  4 active torsions:
REMARK  status: ('A' for Active; 'I' for Inactive)
REMARK    1  A    between atoms: C5_5  and  N1_6 
REMARK    2  A    between atoms: C7_8  and  C8_9 
REMARK    3  A    between atoms: C11_12  and  S1_13 
REMARK    4  A    between atoms: S1_13  and  N2_14 
ROOT
HETATM    1  N1  UNL     1     -32.849   0.723  -1.702  1.00  0.00    -0.251 N 
HETATM    2  C6  UNL     1     -31.563   0.359  -1.820  1.00  0.00     0.150 A 
HETATM    3  C7  UNL     1     -31.494  -1.000  -1.638  1.00  0.00     0.084 A 
HETATM    4  N3  UNL     1     -32.752  -1.411  -1.416  1.00  0.00    -0.283 N 
ATOM      5  H3  UNL     1     -33.041  -2.374  -1.243  1.00  0.00     0.188 HD
HETATM    6  N4  UNL     1     -33.538  -0.380  -1.457  1.00  0.00    -0.236 N 
ATOM      7  H4  UNL     1     -34.548  -0.415  -1.319  1.00  0.00     0.209 HD
ENDROOT
BRANCH   3   8
HETATM    8  C8  UNL     1     -30.309  -1.862  -1.674  1.00  0.00     0.036 A 
HETATM    9  C9  UNL     1     -28.997  -1.527  -1.877  1.00  0.00     0.023 A 
HETATM   10  C10 UNL     1     -28.099  -2.519  -1.861  1.00  0.00     0.034 A 
HETATM   11  C11 UNL     1     -28.562  -3.790  -1.642  1.00  0.00     0.120 A 
HETATM   12  S2  UNL     1     -30.242  -3.550  -1.467  1.00  0.00    -0.074 SA
BRANCH  11  13
HETATM   13  S1  UNL     1     -27.625  -5.288  -1.566  1.00  0.00     0.263 S 
HETATM   14  O1  UNL     1     -26.179  -4.986  -1.353  1.00  0.00    -0.200 OA
HETATM   15  O2  UNL     1     -27.854  -6.004  -2.871  1.00  0.00    -0.200 OA
BRANCH  13  16
HETATM   16  N2  UNL     1     -28.219  -6.304  -0.313  1.00  0.00    -0.324 N 
ATOM     17  H22 UNL     1     -27.780  -7.182  -0.035  1.00  0.00     0.169 HD
ATOM     18  H21 UNL     1     -29.060  -5.903   0.102  1.00  0.00     0.169 HD
ENDBRANCH  13  16
ENDBRANCH  11  13
ENDBRANCH   3   8
BRANCH   1  19
HETATM   19  C5  UNL     1     -33.425   2.023  -1.809  1.00  0.00     0.057 A 
HETATM   20  C4  UNL     1     -34.496   2.288  -2.641  1.00  0.00     0.032 A 
HETATM   21  C3  UNL     1     -35.052   3.559  -2.740  1.00  0.00     0.009 A 
HETATM   22  C2  UNL     1     -34.528   4.597  -1.990  1.00  0.00    -0.062 A 
HETATM   23  C1  UNL     1     -35.059   5.980  -2.034  1.00  0.00     0.048 C 
HETATM   24  C13 UNL     1     -33.457   4.361  -1.149  1.00  0.00     0.009 A 
HETATM   25  C12 UNL     1     -32.934   3.086  -1.079  1.00  0.00     0.032 A 
ENDBRANCH   1  19
TORSDOF 4
ENDMDL
