MODEL 12
REMARK VINA RESULT: -6.681639495      6.210      8.802
REMARK  4 active torsions:
REMARK  status: ('A' for Active; 'I' for Inactive)
REMARK    1  A    between atoms: C5_5  and  N1_6 
REMARK    2  A    between atoms: C7_8  and  C8_9 
REMARK    3  A    between atoms: C11_12  and  S1_13 
REMARK    4  A    between atoms: S1_13  and  N2_14 
ROOT
HETATM    1  N1  UNL     1     -31.616  -2.492  -1.337  1.00  0.00    -0.251 N 
HETATM    2  C6  UNL     1     -32.103  -1.326  -1.789  1.00  0.00     0.150 A 
HETATM    3  C7  UNL     1     -33.396  -1.211  -1.344  1.00  0.00     0.084 A 
HETATM    4  N3  UNL     1     -33.647  -2.322  -0.632  1.00  0.00    -0.283 N 
ATOM      5  H3  UNL     1     -34.526  -2.543  -0.164  1.00  0.00     0.188 HD
HETATM    6  N4  UNL     1     -32.584  -3.066  -0.639  1.00  0.00    -0.236 N 
ATOM      7  H4  UNL     1     -32.505  -3.969  -0.172  1.00  0.00     0.209 HD
ENDROOT
BRANCH   3   8
HETATM    8  C8  UNL     1     -34.343  -0.117  -1.576  1.00  0.00     0.036 A 
HETATM    9  C9  UNL     1     -35.663  -0.021  -1.221  1.00  0.00     0.023 A 
HETATM   10  C10 UNL     1     -36.309   1.101  -1.556  1.00  0.00     0.034 A 
HETATM   11  C11 UNL     1     -35.602   2.065  -2.227  1.00  0.00     0.120 A 
HETATM   12  S2  UNL     1     -34.054   1.363  -2.365  1.00  0.00    -0.074 SA
BRANCH  11  13
HETATM   13  S1  UNL     1     -36.180   3.636  -2.796  1.00  0.00     0.263 S 
HETATM   14  O1  UNL     1     -37.274   3.456  -3.795  1.00  0.00    -0.200 OA
HETATM   15  O2  UNL     1     -34.992   4.339  -3.397  1.00  0.00    -0.200 OA
BRANCH  13  16
HETATM   16  N2  UNL     1     -36.724   4.590  -1.473  1.00  0.00    -0.324 N 
ATOM     17  H22 UNL     1     -36.609   4.326  -0.495  1.00  0.00     0.169 HD
ATOM     18  H21 UNL     1     -37.170   5.443  -1.810  1.00  0.00     0.169 HD
ENDBRANCH  13  16
ENDBRANCH  11  13
ENDBRANCH   3   8
BRANCH   1  19
HETATM   19  C5  UNL     1     -30.323  -3.059  -1.532  1.00  0.00     0.057 A 
HETATM   20  C4  UNL     1     -29.184  -2.282  -1.623  1.00  0.00     0.032 A 
HETATM   21  C3  UNL     1     -27.926  -2.842  -1.814  1.00  0.00     0.009 A 
HETATM   22  C2  UNL     1     -27.796  -4.216  -1.918  1.00  0.00    -0.062 A 
HETATM   23  C1  UNL     1     -26.494  -4.895  -2.122  1.00  0.00     0.048 C 
HETATM   24  C13 UNL     1     -28.917  -5.018  -1.830  1.00  0.00     0.009 A 
HETATM   25  C12 UNL     1     -30.148  -4.424  -1.641  1.00  0.00     0.032 A 
ENDBRANCH   1  19
TORSDOF 4
ENDMDL
