MODEL 11
REMARK VINA RESULT: -6.687259380      2.485      3.534
REMARK  4 active torsions:
REMARK  status: ('A' for Active; 'I' for Inactive)
REMARK    1  A    between atoms: C5_5  and  N1_6 
REMARK    2  A    between atoms: C7_8  and  C8_9 
REMARK    3  A    between atoms: C11_12  and  S1_13 
REMARK    4  A    between atoms: S1_13  and  N2_14 
ROOT
HETATM    1  N1  UNL     1     -29.914   4.358  -0.218  1.00  0.00    -0.251 N 
HETATM    2  C6  UNL     1     -29.384   3.143  -0.431  1.00  0.00     0.150 A 
HETATM    3  C7  UNL     1     -30.398   2.307  -0.827  1.00  0.00     0.084 A 
HETATM    4  N3  UNL     1     -31.514   3.054  -0.840  1.00  0.00    -0.283 N 
ATOM      5  H3  UNL     1     -32.446   2.726  -1.093  1.00  0.00     0.188 HD
HETATM    6  N4  UNL     1     -31.208   4.261  -0.477  1.00  0.00    -0.236 N 
ATOM      7  H4  UNL     1     -31.874   5.031  -0.402  1.00  0.00     0.209 HD
ENDROOT
BRANCH   3   8
HETATM    8  C8  UNL     1     -30.321   0.886  -1.176  1.00  0.00     0.036 A 
HETATM    9  C9  UNL     1     -29.709   0.286  -2.244  1.00  0.00     0.023 A 
HETATM   10  C10 UNL     1     -29.787  -1.047  -2.329  1.00  0.00     0.034 A 
HETATM   11  C11 UNL     1     -30.473  -1.706  -1.342  1.00  0.00     0.120 A 
HETATM   12  S2  UNL     1     -30.985  -0.433  -0.329  1.00  0.00    -0.074 SA
BRANCH  11  13
HETATM   13  S1  UNL     1     -30.744  -3.447  -1.187  1.00  0.00     0.263 S 
HETATM   14  O1  UNL     1     -30.694  -3.854   0.247  1.00  0.00    -0.200 OA
HETATM   15  O2  UNL     1     -29.665  -4.123  -1.992  1.00  0.00    -0.200 OA
BRANCH  13  16
HETATM   16  N2  UNL     1     -32.253  -3.884  -1.885  1.00  0.00    -0.324 N 
ATOM     17  H22 UNL     1     -32.350  -4.500  -2.692  1.00  0.00     0.169 HD
ATOM     18  H21 UNL     1     -33.020  -3.441  -1.380  1.00  0.00     0.169 HD
ENDBRANCH  13  16
ENDBRANCH  11  13
ENDBRANCH   3   8
BRANCH   1  19
HETATM   19  C5  UNL     1     -29.266   5.555   0.204  1.00  0.00     0.057 A 
HETATM   20  C4  UNL     1     -29.433   6.756  -0.459  1.00  0.00     0.032 A 
HETATM   21  C3  UNL     1     -28.798   7.921  -0.041  1.00  0.00     0.009 A 
HETATM   22  C2  UNL     1     -27.971   7.890   1.069  1.00  0.00    -0.062 A 
HETATM   23  C1  UNL     1     -27.256   9.083   1.582  1.00  0.00     0.048 C 
HETATM   24  C13 UNL     1     -27.786   6.703   1.751  1.00  0.00     0.009 A 
HETATM   25  C12 UNL     1     -28.434   5.570   1.305  1.00  0.00     0.032 A 
ENDBRANCH   1  19
TORSDOF 4
ENDMDL
