MODEL 10
REMARK VINA RESULT: -6.730020789      6.218      8.772
REMARK  4 active torsions:
REMARK  status: ('A' for Active; 'I' for Inactive)
REMARK    1  A    between atoms: C5_5  and  N1_6 
REMARK    2  A    between atoms: C7_8  and  C8_9 
REMARK    3  A    between atoms: C11_12  and  S1_13 
REMARK    4  A    between atoms: S1_13  and  N2_14 
ROOT
HETATM    1  N1  UNL     1     -31.615  -2.522  -1.338  1.00  0.00    -0.251 N 
HETATM    2  C6  UNL     1     -32.109  -1.368  -1.811  1.00  0.00     0.150 A 
HETATM    3  C7  UNL     1     -33.391  -1.236  -1.339  1.00  0.00     0.084 A 
HETATM    4  N3  UNL     1     -33.627  -2.325  -0.590  1.00  0.00    -0.283 N 
ATOM      5  H3  UNL     1     -34.495  -2.530  -0.094  1.00  0.00     0.188 HD
HETATM    6  N4  UNL     1     -32.567  -3.073  -0.602  1.00  0.00    -0.236 N 
ATOM      7  H4  UNL     1     -32.479  -3.963  -0.110  1.00  0.00     0.209 HD
ENDROOT
BRANCH   3   8
HETATM    8  C8  UNL     1     -34.341  -0.146  -1.579  1.00  0.00     0.036 A 
HETATM    9  C9  UNL     1     -35.663  -0.054  -1.232  1.00  0.00     0.023 A 
HETATM   10  C10 UNL     1     -36.312   1.065  -1.573  1.00  0.00     0.034 A 
HETATM   11  C11 UNL     1     -35.604   2.030  -2.243  1.00  0.00     0.120 A 
HETATM   12  S2  UNL     1     -34.052   1.333  -2.370  1.00  0.00    -0.074 SA
BRANCH  11  13
HETATM   13  S1  UNL     1     -36.185   3.597  -2.819  1.00  0.00     0.263 S 
HETATM   14  O1  UNL     1     -37.259   3.411  -3.838  1.00  0.00    -0.200 OA
HETATM   15  O2  UNL     1     -34.992   4.311  -3.398  1.00  0.00    -0.200 OA
BRANCH  13  16
HETATM   16  N2  UNL     1     -36.760   4.544  -1.504  1.00  0.00    -0.324 N 
ATOM     17  H22 UNL     1     -36.424   4.452  -0.546  1.00  0.00     0.169 HD
ATOM     18  H21 UNL     1     -37.474   5.199  -1.823  1.00  0.00     0.169 HD
ENDBRANCH  13  16
ENDBRANCH  11  13
ENDBRANCH   3   8
BRANCH   1  19
HETATM   19  C5  UNL     1     -30.328  -3.098  -1.549  1.00  0.00     0.057 A 
HETATM   20  C4  UNL     1     -30.145  -4.459  -1.694  1.00  0.00     0.032 A 
HETATM   21  C3  UNL     1     -28.886  -5.014  -1.898  1.00  0.00     0.009 A 
HETATM   22  C2  UNL     1     -27.776  -4.190  -1.960  1.00  0.00    -0.062 A 
HETATM   23  C1  UNL     1     -26.399  -4.697  -2.175  1.00  0.00     0.048 C 
HETATM   24  C13 UNL     1     -27.929  -2.824  -1.818  1.00  0.00     0.009 A 
HETATM   25  C12 UNL     1     -29.194  -2.313  -1.617  1.00  0.00     0.032 A 
ENDBRANCH   1  19
TORSDOF 4
ENDMDL
