MODEL 2
REMARK VINA RESULT: -6.288951930      0.066      1.274
REMARK  3 active torsions:
REMARK  status: ('A' for Active; 'I' for Inactive)
REMARK    1  A    between atoms: C4_5  and  O1_6 
REMARK    2  A    between atoms: O1_6  and  C5_7 
REMARK    3  A    between atoms: C5_7  and  C6_8 
ROOT
HETATM    1  C6  UNL     1      -2.162   4.229  12.551  1.00  0.00     0.137 A 
HETATM    2  N1  UNL     1      -2.317   3.026  11.932  1.00  0.00    -0.270 N 
ATOM      3  H1  UNL     1      -3.212   2.575  11.742  1.00  0.00     0.190 HD
HETATM    4  N2  UNL     1      -1.128   2.531  11.613  1.00  0.00    -0.227 N 
ATOM      5  H2  UNL     1      -0.954   1.643  11.141  1.00  0.00     0.210 HD
HETATM    6  N3  UNL     1      -0.218   3.381  12.010  1.00  0.00    -0.227 N 
ATOM      7  H3  UNL     1       0.790   3.269  11.901  1.00  0.00     0.210 HD
HETATM    8  N4  UNL     1      -0.823   4.412  12.579  1.00  0.00    -0.270 N 
ATOM      9  H4  UNL     1      -0.349   5.222  12.980  1.00  0.00     0.190 HD
ENDROOT
BRANCH   1  10
HETATM   10  C5  UNL     1      -3.234   5.117  13.067  1.00  0.00     0.255 C 
BRANCH  10  11
HETATM   11  O1  UNL     1      -3.373   4.888  14.444  1.00  0.00    -0.344 OA
BRANCH  11  12
HETATM   12  C4  UNL     1      -4.342   4.094  15.012  1.00  0.00     0.069 A 
HETATM   13  C3  UNL     1      -3.965   2.903  15.591  1.00  0.00     0.038 A 
HETATM   14  C2  UNL     1      -4.895   2.066  16.176  1.00  0.00     0.026 A 
HETATM   15  C1  UNL     1      -6.223   2.423  16.183  1.00  0.00     0.034 A 
HETATM   16 CL1  UNL     1      -7.423   1.369  16.924  1.00  0.00    -0.084 Cl
HETATM   17  C8  UNL     1      -6.606   3.632  15.596  1.00  0.00     0.026 A 
HETATM   18  C7  UNL     1      -5.665   4.452  15.018  1.00  0.00     0.038 A 
ENDBRANCH  11  12
ENDBRANCH  10  11
ENDBRANCH   1  10
TORSDOF 3
ENDMDL
