MODEL 3
REMARK VINA RESULT: -6.085897645      0.864      1.678
REMARK  3 active torsions:
REMARK  status: ('A' for Active; 'I' for Inactive)
REMARK    1  A    between atoms: C4_5  and  O1_6 
REMARK    2  A    between atoms: O1_6  and  C5_7 
REMARK    3  A    between atoms: C5_7  and  C6_8 
ROOT
HETATM    1  C6  UNL     1      -1.426   4.877  12.910  1.00  0.00     0.137 A 
HETATM    2  N1  UNL     1      -0.895   3.751  12.358  1.00  0.00    -0.270 N 
ATOM      3  H1  UNL     1      -1.352   2.841  12.327  1.00  0.00     0.190 HD
HETATM    4  N2  UNL     1       0.308   4.021  11.866  1.00  0.00    -0.227 N 
ATOM      5  H2  UNL     1       0.926   3.359  11.396  1.00  0.00     0.210 HD
HETATM    6  N3  UNL     1       0.560   5.283  12.088  1.00  0.00    -0.227 N 
ATOM      7  H3  UNL     1       1.413   5.776  11.821  1.00  0.00     0.210 HD
HETATM    8  N4  UNL     1      -0.474   5.817  12.718  1.00  0.00    -0.270 N 
ATOM      9  H4  UNL     1      -0.541   6.790  13.015  1.00  0.00     0.190 HD
ENDROOT
BRANCH   1  10
HETATM   10  C5  UNL     1      -2.750   5.014  13.568  1.00  0.00     0.255 C 
BRANCH  10  11
HETATM   11  O1  UNL     1      -2.794   4.135  14.660  1.00  0.00    -0.344 OA
BRANCH  11  12
HETATM   12  C4  UNL     1      -3.940   3.554  15.151  1.00  0.00     0.069 A 
HETATM   13  C3  UNL     1      -3.832   2.382  15.867  1.00  0.00     0.038 A 
HETATM   14  C2  UNL     1      -4.949   1.754  16.383  1.00  0.00     0.026 A 
HETATM   15  C1  UNL     1      -6.193   2.304  16.183  1.00  0.00     0.034 A 
HETATM   16 CL1  UNL     1      -7.628   1.517  16.834  1.00  0.00    -0.084 Cl
HETATM   17  C8  UNL     1      -6.303   3.493  15.457  1.00  0.00     0.026 A 
HETATM   18  C7  UNL     1      -5.179   4.104  14.951  1.00  0.00     0.038 A 
ENDBRANCH  11  12
ENDBRANCH  10  11
ENDBRANCH   1  10
TORSDOF 3
ENDMDL
