MODEL 1
REMARK VINA RESULT: -6.307629965      0.000      0.000
REMARK  3 active torsions:
REMARK  status: ('A' for Active; 'I' for Inactive)
REMARK    1  A    between atoms: C4_5  and  O1_6 
REMARK    2  A    between atoms: O1_6  and  C5_7 
REMARK    3  A    between atoms: C5_7  and  C6_8 
ROOT
HETATM    1  C6  UNL     1      -2.203   4.229  12.569  1.00  0.00     0.137 A 
HETATM    2  N1  UNL     1      -2.333   3.030  11.936  1.00  0.00    -0.270 N 
ATOM      3  H1  UNL     1      -3.218   2.570  11.726  1.00  0.00     0.190 HD
HETATM    4  N2  UNL     1      -1.131   2.553  11.635  1.00  0.00    -0.227 N 
ATOM      5  H2  UNL     1      -0.938   1.672  11.158  1.00  0.00     0.210 HD
HETATM    6  N3  UNL     1      -0.240   3.410  12.057  1.00  0.00    -0.227 N 
ATOM      7  H3  UNL     1       0.771   3.311  11.965  1.00  0.00     0.210 HD
HETATM    8  N4  UNL     1      -0.867   4.428  12.624  1.00  0.00    -0.270 N 
ATOM      9  H4  UNL     1      -0.411   5.240  13.041  1.00  0.00     0.190 HD
ENDROOT
BRANCH   1  10
HETATM   10  C5  UNL     1      -3.296   5.099  13.074  1.00  0.00     0.255 C 
BRANCH  10  11
HETATM   11  O1  UNL     1      -3.412   4.903  14.458  1.00  0.00    -0.344 OA
BRANCH  11  12
HETATM   12  C4  UNL     1      -4.308   4.047  15.055  1.00  0.00     0.069 A 
HETATM   13  C3  UNL     1      -5.643   4.386  15.060  1.00  0.00     0.038 A 
HETATM   14  C2  UNL     1      -6.587   3.565  15.646  1.00  0.00     0.026 A 
HETATM   15  C1  UNL     1      -6.193   2.387  16.234  1.00  0.00     0.034 A 
HETATM   16 CL1  UNL     1      -7.383   1.328  16.985  1.00  0.00    -0.084 Cl
HETATM   17  C8  UNL     1      -4.839   2.042  16.230  1.00  0.00     0.026 A 
HETATM   18  C7  UNL     1      -3.914   2.873  15.642  1.00  0.00     0.038 A 
ENDBRANCH  11  12
ENDBRANCH  10  11
ENDBRANCH   1  10
TORSDOF 3
ENDMDL
