MODEL 2
REMARK VINA RESULT: -7.541101766      0.083      1.117
REMARK  5 active torsions:
REMARK  status: ('A' for Active; 'I' for Inactive)
REMARK    1  A    between atoms: C1_2  and  C2_4 
REMARK    2  A    between atoms: C2_4  and  C3_5 
REMARK    3  A    between atoms: C6_8  and  O3_9 
REMARK    4  A    between atoms: O3_9  and  C7_10 
REMARK    5  A    between atoms: C7_10  and  C8_11 
ROOT
HETATM    1  C3  UNL     1      -5.686   3.481  16.189  1.00  0.00    -0.048 A 
HETATM    2  C4  UNL     1      -4.373   3.210  15.872  1.00  0.00     0.010 A 
HETATM    3  C5  UNL     1      -3.775   3.751  14.747  1.00  0.00     0.037 A 
HETATM    4  C6  UNL     1      -4.472   4.583  13.900  1.00  0.00     0.069 A 
HETATM    5  C14 UNL     1      -5.786   4.861  14.210  1.00  0.00     0.037 A 
HETATM    6  C15 UNL     1      -6.380   4.315  15.339  1.00  0.00     0.010 A 
ENDROOT
BRANCH   4   7
HETATM    7  O3  UNL     1      -3.860   5.120  12.775  1.00  0.00    -0.347 OA
BRANCH   7   8
HETATM    8  C7  UNL     1      -4.263   4.681  11.495  1.00  0.00     0.214 C 
BRANCH   8   9
HETATM    9  C8  UNL     1      -3.987   3.243  11.297  1.00  0.00    -0.034 A 
HETATM   10  C9  UNL     1      -2.686   2.799  11.217  1.00  0.00     0.009 A 
HETATM   11  C10 UNL     1      -2.360   1.473  11.033  1.00  0.00     0.001 A 
HETATM   12  C11 UNL     1      -3.370   0.519  10.920  1.00  0.00     0.000 A 
HETATM   13  C12 UNL     1      -4.678   0.949  10.998  1.00  0.00     0.001 A 
HETATM   14  C13 UNL     1      -4.982   2.281  11.182  1.00  0.00     0.009 A 
ENDBRANCH   8   9
ENDBRANCH   7   8
ENDBRANCH   4   7
BRANCH   1  15
HETATM   15  C2  UNL     1      -6.307   2.896  17.392  1.00  0.00     0.151 C 
BRANCH  15  16
HETATM   16  C1  UNL     1      -6.371   1.409  17.316  1.00  0.00     0.176 C 
HETATM   17  O1  UNL     1      -7.256   0.809  16.640  1.00  0.00    -0.648 OA
HETATM   18  O2  UNL     1      -5.461   0.605  17.986  1.00  0.00    -0.648 OA
ENDBRANCH  15  16
ENDBRANCH   1  15
TORSDOF 5
ENDMDL
