MODEL 5
REMARK VINA RESULT: -7.390286556      3.002      4.741
REMARK  5 active torsions:
REMARK  status: ('A' for Active; 'I' for Inactive)
REMARK    1  A    between atoms: C1_2  and  C2_4 
REMARK    2  A    between atoms: C2_4  and  C3_5 
REMARK    3  A    between atoms: C6_8  and  O3_9 
REMARK    4  A    between atoms: O3_9  and  C7_10 
REMARK    5  A    between atoms: C7_10  and  C8_11 
ROOT
HETATM    1  C3  UNL     1      -5.671   3.356  16.708  1.00  0.00    -0.048 A 
HETATM    2  C4  UNL     1      -4.506   3.261  15.980  1.00  0.00     0.010 A 
HETATM    3  C5  UNL     1      -4.183   4.193  15.008  1.00  0.00     0.037 A 
HETATM    4  C6  UNL     1      -5.018   5.252  14.732  1.00  0.00     0.069 A 
HETATM    5  C14 UNL     1      -6.187   5.355  15.456  1.00  0.00     0.037 A 
HETATM    6  C15 UNL     1      -6.505   4.417  16.429  1.00  0.00     0.010 A 
ENDROOT
BRANCH   4   7
HETATM    7  O3  UNL     1      -4.683   6.180  13.755  1.00  0.00    -0.347 OA
BRANCH   7   8
HETATM    8  C7  UNL     1      -3.337   6.296  13.347  1.00  0.00     0.214 C 
BRANCH   8   9
HETATM    9  C8  UNL     1      -2.756   7.597  13.739  1.00  0.00    -0.034 A 
HETATM   10  C9  UNL     1      -2.348   8.486  12.770  1.00  0.00     0.009 A 
HETATM   11  C10 UNL     1      -1.799   9.715  13.067  1.00  0.00     0.001 A 
HETATM   12  C11 UNL     1      -1.638  10.099  14.398  1.00  0.00     0.000 A 
HETATM   13  C12 UNL     1      -2.043   9.220  15.379  1.00  0.00     0.001 A 
HETATM   14  C13 UNL     1      -2.589   7.995  15.059  1.00  0.00     0.009 A 
ENDBRANCH   8   9
ENDBRANCH   7   8
ENDBRANCH   4   7
BRANCH   1  15
HETATM   15  C2  UNL     1      -5.998   2.354  17.740  1.00  0.00     0.151 C 
BRANCH  15  16
HETATM   16  C1  UNL     1      -6.502   1.085  17.141  1.00  0.00     0.176 C 
HETATM   17  O1  UNL     1      -7.604   1.025  16.523  1.00  0.00    -0.648 OA
HETATM   18  O2  UNL     1      -5.785  -0.099  17.234  1.00  0.00    -0.648 OA
ENDBRANCH  15  16
ENDBRANCH   1  15
TORSDOF 5
ENDMDL
