MODEL 3
REMARK VINA RESULT: -7.529335997      0.090      1.110
REMARK  5 active torsions:
REMARK  status: ('A' for Active; 'I' for Inactive)
REMARK    1  A    between atoms: C1_2  and  C2_4 
REMARK    2  A    between atoms: C2_4  and  C3_5 
REMARK    3  A    between atoms: C6_8  and  O3_9 
REMARK    4  A    between atoms: O3_9  and  C7_10 
REMARK    5  A    between atoms: C7_10  and  C8_11 
ROOT
HETATM    1  C3  UNL     1      -5.672   3.474  16.174  1.00  0.00    -0.048 A 
HETATM    2  C4  UNL     1      -6.375   4.286  15.311  1.00  0.00     0.010 A 
HETATM    3  C5  UNL     1      -5.781   4.831  14.186  1.00  0.00     0.037 A 
HETATM    4  C6  UNL     1      -4.461   4.581  13.885  1.00  0.00     0.069 A 
HETATM    5  C14 UNL     1      -3.750   3.769  14.742  1.00  0.00     0.037 A 
HETATM    6  C15 UNL     1      -4.351   3.226  15.869  1.00  0.00     0.010 A 
ENDROOT
BRANCH   4   7
HETATM    7  O3  UNL     1      -3.877   5.134  12.752  1.00  0.00    -0.347 OA
BRANCH   7   8
HETATM    8  C7  UNL     1      -4.270   4.669  11.479  1.00  0.00     0.214 C 
BRANCH   8   9
HETATM    9  C8  UNL     1      -3.933   3.243  11.289  1.00  0.00    -0.034 A 
HETATM   10  C9  UNL     1      -4.938   2.312  11.150  1.00  0.00     0.009 A 
HETATM   11  C10 UNL     1      -4.692   0.969  10.970  1.00  0.00     0.001 A 
HETATM   12  C11 UNL     1      -3.379   0.503  10.924  1.00  0.00     0.000 A 
HETATM   13  C12 UNL     1      -2.361   1.423  11.061  1.00  0.00     0.001 A 
HETATM   14  C13 UNL     1      -2.630   2.764  11.241  1.00  0.00     0.009 A 
ENDBRANCH   8   9
ENDBRANCH   7   8
ENDBRANCH   4   7
BRANCH   1  15
HETATM   15  C2  UNL     1      -6.321   2.902  17.368  1.00  0.00     0.151 C 
BRANCH  15  16
HETATM   16  C1  UNL     1      -6.373   1.414  17.312  1.00  0.00     0.176 C 
HETATM   17  O1  UNL     1      -7.251   0.798  16.642  1.00  0.00    -0.648 OA
HETATM   18  O2  UNL     1      -5.459   0.626  17.996  1.00  0.00    -0.648 OA
ENDBRANCH  15  16
ENDBRANCH   1  15
TORSDOF 5
ENDMDL
