MODEL 1
REMARK VINA RESULT: -7.550265586      0.000      0.000
REMARK  5 active torsions:
REMARK  status: ('A' for Active; 'I' for Inactive)
REMARK    1  A    between atoms: C1_2  and  C2_4 
REMARK    2  A    between atoms: C2_4  and  C3_5 
REMARK    3  A    between atoms: C6_8  and  O3_9 
REMARK    4  A    between atoms: O3_9  and  C7_10 
REMARK    5  A    between atoms: C7_10  and  C8_11 
ROOT
HETATM    1  C3  UNL     1      -5.712   3.485  16.219  1.00  0.00    -0.048 A 
HETATM    2  C4  UNL     1      -4.436   3.122  15.848  1.00  0.00     0.010 A 
HETATM    3  C5  UNL     1      -3.826   3.666  14.730  1.00  0.00     0.037 A 
HETATM    4  C6  UNL     1      -4.475   4.592  13.944  1.00  0.00     0.069 A 
HETATM    5  C14 UNL     1      -5.752   4.961  14.309  1.00  0.00     0.037 A 
HETATM    6  C15 UNL     1      -6.358   4.412  15.430  1.00  0.00     0.010 A 
ENDROOT
BRANCH   4   7
HETATM    7  O3  UNL     1      -3.852   5.130  12.826  1.00  0.00    -0.347 OA
BRANCH   7   8
HETATM    8  C7  UNL     1      -4.252   4.702  11.542  1.00  0.00     0.214 C 
BRANCH   8   9
HETATM    9  C8  UNL     1      -3.917   3.281  11.310  1.00  0.00    -0.034 A 
HETATM   10  C9  UNL     1      -4.923   2.360  11.124  1.00  0.00     0.009 A 
HETATM   11  C10 UNL     1      -4.680   1.022  10.903  1.00  0.00     0.001 A 
HETATM   12  C11 UNL     1      -3.368   0.553  10.863  1.00  0.00     0.000 A 
HETATM   13  C12 UNL     1      -2.349   1.464  11.047  1.00  0.00     0.001 A 
HETATM   14  C13 UNL     1      -2.616   2.799  11.267  1.00  0.00     0.009 A 
ENDBRANCH   8   9
ENDBRANCH   7   8
ENDBRANCH   4   7
BRANCH   1  15
HETATM   15  C2  UNL     1      -6.346   2.896  17.413  1.00  0.00     0.151 C 
BRANCH  15  16
HETATM   16  C1  UNL     1      -6.381   1.407  17.345  1.00  0.00     0.176 C 
HETATM   17  O1  UNL     1      -7.249   0.786  16.666  1.00  0.00    -0.648 OA
HETATM   18  O2  UNL     1      -5.461   0.625  18.026  1.00  0.00    -0.648 OA
ENDBRANCH  15  16
ENDBRANCH   1  15
TORSDOF 5
ENDMDL
