MODEL 14
REMARK VINA RESULT: -6.934269610      3.345      5.129
REMARK  5 active torsions:
REMARK  status: ('A' for Active; 'I' for Inactive)
REMARK    1  A    between atoms: C1_2  and  C2_4 
REMARK    2  A    between atoms: C2_4  and  C3_5 
REMARK    3  A    between atoms: C6_8  and  O3_9 
REMARK    4  A    between atoms: O3_9  and  C7_10 
REMARK    5  A    between atoms: C7_10  and  C8_11 
ROOT
HETATM    1  C3  UNL     1      -5.551   3.299  15.207  1.00  0.00    -0.048 A 
HETATM    2  C4  UNL     1      -6.045   4.522  15.604  1.00  0.00     0.010 A 
HETATM    3  C5  UNL     1      -5.780   5.676  14.886  1.00  0.00     0.037 A 
HETATM    4  C6  UNL     1      -5.010   5.644  13.745  1.00  0.00     0.069 A 
HETATM    5  C14 UNL     1      -4.512   4.424  13.340  1.00  0.00     0.037 A 
HETATM    6  C15 UNL     1      -4.781   3.271  14.065  1.00  0.00     0.010 A 
ENDROOT
BRANCH   4   7
HETATM    7  O3  UNL     1      -4.751   6.808  13.034  1.00  0.00    -0.347 OA
BRANCH   7   8
HETATM    8  C7  UNL     1      -3.447   7.045  12.550  1.00  0.00     0.214 C 
BRANCH   8   9
HETATM    9  C8  UNL     1      -2.739   8.057  13.362  1.00  0.00    -0.034 A 
HETATM   10  C9  UNL     1      -2.108   9.114  12.744  1.00  0.00     0.009 A 
HETATM   11  C10 UNL     1      -1.431  10.091  13.441  1.00  0.00     0.001 A 
HETATM   12  C11 UNL     1      -1.364  10.031  14.833  1.00  0.00     0.000 A 
HETATM   13  C12 UNL     1      -1.991   8.978  15.465  1.00  0.00     0.001 A 
HETATM   14  C13 UNL     1      -2.663   8.012  14.748  1.00  0.00     0.009 A 
ENDBRANCH   8   9
ENDBRANCH   7   8
ENDBRANCH   4   7
BRANCH   1  15
HETATM   15  C2  UNL     1      -5.844   2.081  15.984  1.00  0.00     0.151 C 
BRANCH  15  16
HETATM   16  C1  UNL     1      -4.749   1.075  15.875  1.00  0.00     0.176 C 
HETATM   17  O1  UNL     1      -3.629   1.238  16.440  1.00  0.00    -0.648 OA
HETATM   18  O2  UNL     1      -4.902  -0.092  15.143  1.00  0.00    -0.648 OA
ENDBRANCH  15  16
ENDBRANCH   1  15
TORSDOF 5
ENDMDL
