MODEL 7
REMARK VINA RESULT: -7.362958159      2.986      4.842
REMARK  5 active torsions:
REMARK  status: ('A' for Active; 'I' for Inactive)
REMARK    1  A    between atoms: C1_2  and  C2_4 
REMARK    2  A    between atoms: C2_4  and  C3_5 
REMARK    3  A    between atoms: C6_8  and  O3_9 
REMARK    4  A    between atoms: O3_9  and  C7_10 
REMARK    5  A    between atoms: C7_10  and  C8_11 
ROOT
HETATM    1  C3  UNL     1      -5.687   3.378  16.643  1.00  0.00    -0.048 A 
HETATM    2  C4  UNL     1      -6.493   4.454  16.342  1.00  0.00     0.010 A 
HETATM    3  C5  UNL     1      -6.148   5.362  15.355  1.00  0.00     0.037 A 
HETATM    4  C6  UNL     1      -4.982   5.222  14.635  1.00  0.00     0.069 A 
HETATM    5  C14 UNL     1      -4.171   4.148  14.929  1.00  0.00     0.037 A 
HETATM    6  C15 UNL     1      -4.522   3.242  15.920  1.00  0.00     0.010 A 
ENDROOT
BRANCH   4   7
HETATM    7  O3  UNL     1      -4.648   6.139  13.647  1.00  0.00    -0.347 OA
BRANCH   7   8
HETATM    8  C7  UNL     1      -3.296   6.280  13.266  1.00  0.00     0.214 C 
BRANCH   8   9
HETATM    9  C8  UNL     1      -2.742   7.583  13.690  1.00  0.00    -0.034 A 
HETATM   10  C9  UNL     1      -2.361   8.508  12.743  1.00  0.00     0.009 A 
HETATM   11  C10 UNL     1      -1.838   9.739  13.070  1.00  0.00     0.001 A 
HETATM   12  C11 UNL     1      -1.674  10.091  14.409  1.00  0.00     0.000 A 
HETATM   13  C12 UNL     1      -2.051   9.175  15.369  1.00  0.00     0.001 A 
HETATM   14  C13 UNL     1      -2.573   7.948  15.019  1.00  0.00     0.009 A 
ENDBRANCH   8   9
ENDBRANCH   7   8
ENDBRANCH   4   7
BRANCH   1  15
HETATM   15  C2  UNL     1      -6.071   2.421  17.697  1.00  0.00     0.151 C 
BRANCH  15  16
HETATM   16  C1  UNL     1      -6.547   1.129  17.127  1.00  0.00     0.176 C 
HETATM   17  O1  UNL     1      -7.645   1.033  16.508  1.00  0.00    -0.648 OA
HETATM   18  O2  UNL     1      -5.807  -0.038  17.250  1.00  0.00    -0.648 OA
ENDBRANCH  15  16
ENDBRANCH   1  15
TORSDOF 5
ENDMDL
