MODEL 6
REMARK VINA RESULT: -7.372015093      2.988      4.720
REMARK  5 active torsions:
REMARK  status: ('A' for Active; 'I' for Inactive)
REMARK    1  A    between atoms: C1_2  and  C2_4 
REMARK    2  A    between atoms: C2_4  and  C3_5 
REMARK    3  A    between atoms: C6_8  and  O3_9 
REMARK    4  A    between atoms: O3_9  and  C7_10 
REMARK    5  A    between atoms: C7_10  and  C8_11 
ROOT
HETATM    1  C3  UNL     1      -5.740   3.395  16.728  1.00  0.00    -0.048 A 
HETATM    2  C4  UNL     1      -4.604   3.231  15.967  1.00  0.00     0.010 A 
HETATM    3  C5  UNL     1      -4.254   4.143  14.985  1.00  0.00     0.037 A 
HETATM    4  C6  UNL     1      -5.031   5.251  14.733  1.00  0.00     0.069 A 
HETATM    5  C14 UNL     1      -6.169   5.424  15.491  1.00  0.00     0.037 A 
HETATM    6  C15 UNL     1      -6.515   4.506  16.473  1.00  0.00     0.010 A 
ENDROOT
BRANCH   4   7
HETATM    7  O3  UNL     1      -4.669   6.159  13.746  1.00  0.00    -0.347 OA
BRANCH   7   8
HETATM    8  C7  UNL     1      -3.314   6.257  13.364  1.00  0.00     0.214 C 
BRANCH   8   9
HETATM    9  C8  UNL     1      -2.745   7.578  13.702  1.00  0.00    -0.034 A 
HETATM   10  C9  UNL     1      -2.568   7.932  15.021  1.00  0.00     0.009 A 
HETATM   11  C10 UNL     1      -2.043   9.147  15.405  1.00  0.00     0.001 A 
HETATM   12  C11 UNL     1      -1.668  10.078  14.437  1.00  0.00     0.000 A 
HETATM   13  C12 UNL     1      -1.840   9.738  13.112  1.00  0.00     0.001 A 
HETATM   14  C13 UNL     1      -2.367   8.516  12.750  1.00  0.00     0.009 A 
ENDBRANCH   8   9
ENDBRANCH   7   8
ENDBRANCH   4   7
BRANCH   1  15
HETATM   15  C2  UNL     1      -6.096   2.414  17.770  1.00  0.00     0.151 C 
BRANCH  15  16
HETATM   16  C1  UNL     1      -6.536   1.116  17.182  1.00  0.00     0.176 C 
HETATM   17  O1  UNL     1      -7.582   1.018  16.479  1.00  0.00    -0.648 OA
HETATM   18  O2  UNL     1      -5.817  -0.053  17.380  1.00  0.00    -0.648 OA
ENDBRANCH  15  16
ENDBRANCH   1  15
TORSDOF 5
ENDMDL
