MODEL 12
REMARK VINA RESULT: -7.247056649      3.021      4.864
REMARK  5 active torsions:
REMARK  status: ('A' for Active; 'I' for Inactive)
REMARK    1  A    between atoms: C1_2  and  C2_4 
REMARK    2  A    between atoms: C2_4  and  C3_5 
REMARK    3  A    between atoms: C6_8  and  O3_9 
REMARK    4  A    between atoms: O3_9  and  C7_10 
REMARK    5  A    between atoms: C7_10  and  C8_11 
ROOT
HETATM    1  C3  UNL     1      -5.844   3.657  16.536  1.00  0.00    -0.048 A 
HETATM    2  C4  UNL     1      -6.527   4.777  16.114  1.00  0.00     0.010 A 
HETATM    3  C5  UNL     1      -6.042   5.578  15.095  1.00  0.00     0.037 A 
HETATM    4  C6  UNL     1      -4.854   5.286  14.463  1.00  0.00     0.069 A 
HETATM    5  C14 UNL     1      -4.164   4.167  14.878  1.00  0.00     0.037 A 
HETATM    6  C15 UNL     1      -4.656   3.368  15.901  1.00  0.00     0.010 A 
ENDROOT
BRANCH   4   7
HETATM    7  O3  UNL     1      -4.379   6.098  13.442  1.00  0.00    -0.347 OA
BRANCH   7   8
HETATM    8  C7  UNL     1      -2.985   6.255  13.278  1.00  0.00     0.214 C 
BRANCH   8   9
HETATM    9  C8  UNL     1      -2.536   7.603  13.682  1.00  0.00    -0.034 A 
HETATM   10  C9  UNL     1      -2.425   7.919  15.018  1.00  0.00     0.009 A 
HETATM   11  C10 UNL     1      -2.013   9.156  15.462  1.00  0.00     0.001 A 
HETATM   12  C11 UNL     1      -1.688  10.151  14.540  1.00  0.00     0.000 A 
HETATM   13  C12 UNL     1      -1.794   9.850  13.199  1.00  0.00     0.001 A 
HETATM   14  C13 UNL     1      -2.210   8.605  12.777  1.00  0.00     0.009 A 
ENDBRANCH   8   9
ENDBRANCH   7   8
ENDBRANCH   4   7
BRANCH   1  15
HETATM   15  C2  UNL     1      -6.376   2.815  17.623  1.00  0.00     0.151 C 
BRANCH  15  16
HETATM   16  C1  UNL     1      -6.374   1.370  17.257  1.00  0.00     0.176 C 
HETATM   17  O1  UNL     1      -7.247   0.870  16.491  1.00  0.00    -0.648 OA
HETATM   18  O2  UNL     1      -5.411   0.497  17.742  1.00  0.00    -0.648 OA
ENDBRANCH  15  16
ENDBRANCH   1  15
TORSDOF 5
ENDMDL
