MODEL 6
REMARK VINA RESULT: -6.325316107      3.332      4.043
REMARK  2 active torsions:
REMARK  status: ('A' for Active; 'I' for Inactive)
REMARK    1  A    between atoms: C2_2  and  C5_7 
REMARK    2  A    between atoms: C3_3  and  C4_4 
ROOT
HETATM    1  C5  UNL     1      -4.600   1.979  14.168  1.00  0.00    -0.030 A 
HETATM    2  C6  UNL     1      -4.398   0.645  13.969  1.00  0.00     0.013 A 
HETATM    3  C7  UNL     1      -4.379   0.095  12.677  1.00  0.00     0.024 A 
HETATM    4  C8  UNL     1      -4.563   0.870  11.565  1.00  0.00     0.034 A 
HETATM    5 CL1  UNL     1      -4.533   0.164   9.955  1.00  0.00    -0.084 Cl
HETATM    6  C9  UNL     1      -4.770   2.215  11.737  1.00  0.00     0.024 A 
HETATM    7  C10 UNL     1      -4.785   2.735  12.997  1.00  0.00     0.013 A 
ENDROOT
BRANCH   1   8
HETATM    8  C2  UNL     1      -4.549   2.642  15.439  1.00  0.00    -0.045 C 
HETATM    9  C1  UNL     1      -3.721   3.964  15.371  1.00  0.00     0.049 C 
HETATM   10  C3  UNL     1      -5.124   2.472  16.576  1.00  0.00     0.091 C 
BRANCH  10  11
HETATM   11  C4  UNL     1      -5.949   1.416  17.066  1.00  0.00     0.199 C 
HETATM   12  O1  UNL     1      -5.516   0.816  18.142  1.00  0.00    -0.644 OA
HETATM   13  O2  UNL     1      -7.122   0.909  16.604  1.00  0.00    -0.644 OA
ENDBRANCH  10  11
ENDBRANCH   1   8
TORSDOF 2
ENDMDL
