MODEL 7
REMARK VINA RESULT: -6.323748973      3.447      4.840
REMARK  2 active torsions:
REMARK  status: ('A' for Active; 'I' for Inactive)
REMARK    1  A    between atoms: C2_2  and  C5_7 
REMARK    2  A    between atoms: C3_3  and  C4_4 
ROOT
HETATM    1  C5  UNL     1      -4.517   3.694  14.483  1.00  0.00    -0.030 A 
HETATM    2  C6  UNL     1      -5.682   4.268  14.900  1.00  0.00     0.013 A 
HETATM    3  C7  UNL     1      -6.352   3.809  16.046  1.00  0.00     0.024 A 
HETATM    4  C8  UNL     1      -5.870   2.769  16.791  1.00  0.00     0.034 A 
HETATM    5 CL1  UNL     1      -6.722   2.211  18.224  1.00  0.00    -0.084 Cl
HETATM    6  C9  UNL     1      -4.701   2.172  16.394  1.00  0.00     0.024 A 
HETATM    7  C10 UNL     1      -4.060   2.629  15.279  1.00  0.00     0.013 A 
ENDROOT
BRANCH   1   8
HETATM    8  C2  UNL     1      -3.719   4.148  13.381  1.00  0.00    -0.045 C 
HETATM    9  C1  UNL     1      -2.603   5.136  13.843  1.00  0.00     0.049 C 
HETATM   10  C3  UNL     1      -3.628   3.838  12.137  1.00  0.00     0.091 C 
BRANCH  10  11
HETATM   11  C4  UNL     1      -4.433   2.994  11.315  1.00  0.00     0.199 C 
HETATM   12  O1  UNL     1      -4.047   2.884  10.072  1.00  0.00    -0.644 OA
HETATM   13  O2  UNL     1      -5.551   2.275  11.595  1.00  0.00    -0.644 OA
ENDBRANCH  10  11
ENDBRANCH   1   8
TORSDOF 2
ENDMDL
