MODEL 5
REMARK VINA RESULT: -6.338904909      3.337      4.671
REMARK  2 active torsions:
REMARK  status: ('A' for Active; 'I' for Inactive)
REMARK    1  A    between atoms: C2_2  and  C5_7 
REMARK    2  A    between atoms: C3_3  and  C4_4 
ROOT
HETATM    1  C5  UNL     1      -4.812   2.786  14.337  1.00  0.00    -0.030 A 
HETATM    2  C6  UNL     1      -5.821   3.602  14.759  1.00  0.00     0.013 A 
HETATM    3  C7  UNL     1      -6.317   3.531  16.071  1.00  0.00     0.024 A 
HETATM    4  C8  UNL     1      -5.815   2.642  16.980  1.00  0.00     0.034 A 
HETATM    5 CL1  UNL     1      -6.448   2.569  18.619  1.00  0.00    -0.084 Cl
HETATM    6  C9  UNL     1      -4.802   1.807  16.582  1.00  0.00     0.024 A 
HETATM    7  C10 UNL     1      -4.329   1.888  15.305  1.00  0.00     0.013 A 
ENDROOT
BRANCH   1   8
HETATM    8  C2  UNL     1      -4.184   2.845  13.050  1.00  0.00    -0.045 C 
HETATM    9  C1  UNL     1      -3.411   4.185  12.844  1.00  0.00     0.049 C 
HETATM   10  C3  UNL     1      -4.004   2.012  12.087  1.00  0.00     0.091 C 
BRANCH  10  11
HETATM   11  C4  UNL     1      -4.522   0.701  11.867  1.00  0.00     0.199 C 
HETATM   12  O1  UNL     1      -4.989   0.474  10.669  1.00  0.00    -0.644 OA
HETATM   13  O2  UNL     1      -4.624  -0.372  12.694  1.00  0.00    -0.644 OA
ENDBRANCH  10  11
ENDBRANCH   1   8
TORSDOF 2
ENDMDL
