MODEL 2
REMARK VINA RESULT: -7.559580970      0.168      1.189
REMARK  3 active torsions:
REMARK  status: ('A' for Active; 'I' for Inactive)
REMARK    1  A    between atoms: C1_2  and  C2_4 
REMARK    2  A    between atoms: C6_8  and  O3_9 
REMARK    3  A    between atoms: O3_9  and  C7_10 
ROOT
HETATM    1  C2  UNL     1      -5.741   2.445  16.261  1.00  0.00     0.043 A 
HETATM    2  C3  UNL     1      -6.370   3.678  16.282  1.00  0.00     0.018 A 
HETATM    3  C4  UNL     1      -6.226   4.588  15.264  1.00  0.00     0.004 A 
HETATM    4  C5  UNL     1      -5.411   4.222  14.190  1.00  0.00     0.037 A 
HETATM    5  C6  UNL     1      -4.758   3.020  14.100  1.00  0.00     0.077 A 
HETATM    6  C13 UNL     1      -4.953   2.132  15.188  1.00  0.00     0.055 A 
ENDROOT
BRANCH   5   7
HETATM    7  O3  UNL     1      -3.996   2.641  13.128  1.00  0.00    -0.311 OA
BRANCH   7   8
HETATM    8  C7  UNL     1      -3.622   1.740  12.239  1.00  0.00     0.076 A 
HETATM    9  C8  UNL     1      -2.481   2.033  11.445  1.00  0.00     0.037 A 
HETATM   10  C9  UNL     1      -2.016   1.158  10.495  1.00  0.00     0.003 A 
HETATM   11  C10 UNL     1      -2.646  -0.041  10.279  1.00  0.00     0.000 A 
HETATM   12  C11 UNL     1      -3.752  -0.370  11.018  1.00  0.00     0.003 A 
HETATM   13  C12 UNL     1      -4.214   0.524  11.978  1.00  0.00     0.037 A 
ENDBRANCH   7   8
ENDBRANCH   5   7
BRANCH   1  14
HETATM   14  C1  UNL     1      -5.939   1.521  17.384  1.00  0.00     0.209 C 
HETATM   15  O1  UNL     1      -6.111   1.984  18.536  1.00  0.00    -0.644 OA
HETATM   16  O2  UNL     1      -5.945   0.148  17.228  1.00  0.00    -0.644 OA
ENDBRANCH   1  14
TORSDOF 3
ENDMDL
