MODEL 3
REMARK VINA RESULT: -7.207509093      0.645      1.601
REMARK  3 active torsions:
REMARK  status: ('A' for Active; 'I' for Inactive)
REMARK    1  A    between atoms: C1_2  and  C2_4 
REMARK    2  A    between atoms: C6_8  and  O3_9 
REMARK    3  A    between atoms: O3_9  and  C7_10 
ROOT
HETATM    1  C2  UNL     1      -5.699   2.485  16.059  1.00  0.00     0.043 A 
HETATM    2  C3  UNL     1      -6.335   3.680  16.347  1.00  0.00     0.018 A 
HETATM    3  C4  UNL     1      -6.351   4.729  15.461  1.00  0.00     0.004 A 
HETATM    4  C5  UNL     1      -5.696   4.545  14.242  1.00  0.00     0.037 A 
HETATM    5  C6  UNL     1      -5.047   3.392  13.887  1.00  0.00     0.077 A 
HETATM    6  C13 UNL     1      -5.071   2.353  14.852  1.00  0.00     0.055 A 
ENDROOT
BRANCH   5   7
HETATM    7  O3  UNL     1      -4.429   3.179  12.773  1.00  0.00    -0.311 OA
BRANCH   7   8
HETATM    8  C7  UNL     1      -3.595   2.474  12.032  1.00  0.00     0.076 A 
HETATM    9  C8  UNL     1      -2.477   3.150  11.475  1.00  0.00     0.037 A 
HETATM   10  C9  UNL     1      -1.554   2.501  10.691  1.00  0.00     0.003 A 
HETATM   11  C10 UNL     1      -1.685   1.164  10.419  1.00  0.00     0.000 A 
HETATM   12  C11 UNL     1      -2.747   0.466  10.932  1.00  0.00     0.003 A 
HETATM   13  C12 UNL     1      -3.675   1.134  11.724  1.00  0.00     0.037 A 
ENDBRANCH   7   8
ENDBRANCH   5   7
BRANCH   1  14
HETATM   14  C1  UNL     1      -5.721   1.405  17.054  1.00  0.00     0.209 C 
HETATM   15  O1  UNL     1      -5.724   0.214  16.665  1.00  0.00    -0.644 OA
HETATM   16  O2  UNL     1      -5.738   1.645  18.414  1.00  0.00    -0.644 OA
ENDBRANCH   1  14
TORSDOF 3
ENDMDL
