MODEL 8
REMARK VINA RESULT: -6.960709731      3.792      5.284
REMARK  3 active torsions:
REMARK  status: ('A' for Active; 'I' for Inactive)
REMARK    1  A    between atoms: C1_2  and  C2_4 
REMARK    2  A    between atoms: C6_8  and  O3_9 
REMARK    3  A    between atoms: O3_9  and  C7_10 
ROOT
HETATM    1  C2  UNL     1      -4.871   3.105  15.536  1.00  0.00     0.043 A 
HETATM    2  C3  UNL     1      -6.131   3.676  15.520  1.00  0.00     0.018 A 
HETATM    3  C4  UNL     1      -6.339   4.973  15.121  1.00  0.00     0.004 A 
HETATM    4  C5  UNL     1      -5.219   5.707  14.725  1.00  0.00     0.037 A 
HETATM    5  C6  UNL     1      -3.942   5.209  14.714  1.00  0.00     0.077 A 
HETATM    6  C13 UNL     1      -3.804   3.863  15.139  1.00  0.00     0.055 A 
ENDROOT
BRANCH   5   7
HETATM    7  O3  UNL     1      -2.879   5.850  14.357  1.00  0.00    -0.311 OA
BRANCH   7   8
HETATM    8  C7  UNL     1      -2.225   6.979  14.158  1.00  0.00     0.076 A 
HETATM    9  C8  UNL     1      -1.315   7.030  13.069  1.00  0.00     0.037 A 
HETATM   10  C9  UNL     1      -0.589   8.160  12.783  1.00  0.00     0.003 A 
HETATM   11  C10 UNL     1      -0.721   9.289  13.549  1.00  0.00     0.000 A 
HETATM   12  C11 UNL     1      -1.586   9.291  14.613  1.00  0.00     0.003 A 
HETATM   13  C12 UNL     1      -2.316   8.141  14.893  1.00  0.00     0.037 A 
ENDBRANCH   7   8
ENDBRANCH   5   7
BRANCH   1  14
HETATM   14  C1  UNL     1      -4.722   1.712  15.975  1.00  0.00     0.209 C 
HETATM   15  O1  UNL     1      -3.574   1.254  16.185  1.00  0.00    -0.644 OA
HETATM   16  O2  UNL     1      -5.802   0.872  16.170  1.00  0.00    -0.644 OA
ENDBRANCH   1  14
TORSDOF 3
ENDMDL
