MODEL 6
REMARK VINA RESULT: -7.027316400      3.788      5.330
REMARK  3 active torsions:
REMARK  status: ('A' for Active; 'I' for Inactive)
REMARK    1  A    between atoms: C1_2  and  C2_4 
REMARK    2  A    between atoms: C6_8  and  O3_9 
REMARK    3  A    between atoms: O3_9  and  C7_10 
ROOT
HETATM    1  C2  UNL     1      -4.871   3.119  15.533  1.00  0.00     0.043 A 
HETATM    2  C3  UNL     1      -6.132   3.686  15.509  1.00  0.00     0.018 A 
HETATM    3  C4  UNL     1      -6.343   4.979  15.096  1.00  0.00     0.004 A 
HETATM    4  C5  UNL     1      -5.223   5.712  14.697  1.00  0.00     0.037 A 
HETATM    5  C6  UNL     1      -3.945   5.218  14.694  1.00  0.00     0.077 A 
HETATM    6  C13 UNL     1      -3.805   3.876  15.132  1.00  0.00     0.055 A 
ENDROOT
BRANCH   5   7
HETATM    7  O3  UNL     1      -2.883   5.859  14.333  1.00  0.00    -0.311 OA
BRANCH   7   8
HETATM    8  C7  UNL     1      -2.223   6.987  14.149  1.00  0.00     0.076 A 
HETATM    9  C8  UNL     1      -2.448   8.040  15.075  1.00  0.00     0.037 A 
HETATM   10  C9  UNL     1      -1.807   9.249  14.967  1.00  0.00     0.003 A 
HETATM   11  C10 UNL     1      -0.920   9.482  13.948  1.00  0.00     0.000 A 
HETATM   12  C11 UNL     1      -0.668   8.498  13.027  1.00  0.00     0.003 A 
HETATM   13  C12 UNL     1      -1.323   7.277  13.147  1.00  0.00     0.037 A 
ENDBRANCH   7   8
ENDBRANCH   5   7
BRANCH   1  14
HETATM   14  C1  UNL     1      -4.719   1.730  15.986  1.00  0.00     0.209 C 
HETATM   15  O1  UNL     1      -3.570   1.278  16.201  1.00  0.00    -0.644 OA
HETATM   16  O2  UNL     1      -5.797   0.890  16.187  1.00  0.00    -0.644 OA
ENDBRANCH   1  14
TORSDOF 3
ENDMDL
