MODEL 1
REMARK VINA RESULT: -7.664115018      0.000      0.000
REMARK  3 active torsions:
REMARK  status: ('A' for Active; 'I' for Inactive)
REMARK    1  A    between atoms: C1_2  and  C2_4 
REMARK    2  A    between atoms: C6_8  and  O3_9 
REMARK    3  A    between atoms: O3_9  and  C7_10 
ROOT
HETATM    1  C2  UNL     1      -5.664   2.413  16.214  1.00  0.00     0.043 A 
HETATM    2  C3  UNL     1      -6.343   3.616  16.280  1.00  0.00     0.018 A 
HETATM    3  C4  UNL     1      -6.249   4.562  15.289  1.00  0.00     0.004 A 
HETATM    4  C5  UNL     1      -5.432   4.263  14.196  1.00  0.00     0.037 A 
HETATM    5  C6  UNL     1      -4.731   3.094  14.062  1.00  0.00     0.077 A 
HETATM    6  C13 UNL     1      -4.877   2.165  15.124  1.00  0.00     0.055 A 
ENDROOT
BRANCH   5   7
HETATM    7  O3  UNL     1      -3.965   2.776  13.072  1.00  0.00    -0.311 OA
BRANCH   7   8
HETATM    8  C7  UNL     1      -3.553   1.913  12.162  1.00  0.00     0.076 A 
HETATM    9  C8  UNL     1      -4.334   0.744  11.962  1.00  0.00     0.037 A 
HETATM   10  C9  UNL     1      -3.987  -0.210  11.037  1.00  0.00     0.003 A 
HETATM   11  C10 UNL     1      -2.860  -0.063  10.270  1.00  0.00     0.000 A 
HETATM   12  C11 UNL     1      -2.072   1.047  10.424  1.00  0.00     0.003 A 
HETATM   13  C12 UNL     1      -2.434   2.007  11.363  1.00  0.00     0.037 A 
ENDBRANCH   7   8
ENDBRANCH   5   7
BRANCH   1  14
HETATM   14  C1  UNL     1      -5.812   1.447  17.310  1.00  0.00     0.209 C 
HETATM   15  O1  UNL     1      -5.864   1.863  18.491  1.00  0.00    -0.644 OA
HETATM   16  O2  UNL     1      -5.897   0.084  17.096  1.00  0.00    -0.644 OA
ENDBRANCH   1  14
TORSDOF 3
ENDMDL
