MODEL 5
REMARK VINA RESULT: -8.781175713      5.152      6.103
REMARK  3 active torsions:
REMARK  status: ('A' for Active; 'I' for Inactive)
REMARK    1  A    between atoms: C5_5  and  C6_6 
REMARK    2  A    between atoms: C6_6  and  N1_7 
REMARK    3  A    between atoms: N1_7  and  C7_9 
ROOT
HETATM    1  C7  UNL     1       6.018   9.360  23.199  1.00  0.00     0.106 A 
HETATM    2  C8  UNL     1       5.670   8.162  23.783  1.00  0.00     0.090 A 
HETATM    3  C9  UNL     1       4.968   7.207  23.080  1.00  0.00     0.109 A 
HETATM    4 CL1  UNL     1       4.544   5.707  23.842  1.00  0.00    -0.064 Cl
HETATM    5  N2  UNL     1       4.633   7.472  21.815  1.00  0.00    -0.321 N 
ATOM      6  H2  UNL     1       4.114   6.782  21.272  1.00  0.00     0.169 HD
HETATM    7  C10 UNL     1       4.978   8.649  21.251  1.00  0.00     0.195 A 
HETATM    8  N3  UNL     1       4.620   8.934  19.893  1.00  0.00    -0.063 NA
HETATM    9  N4  UNL     1       5.654   9.574  21.920  1.00  0.00    -0.317 N 
ATOM     10  H4  UNL     1       5.899  10.453  21.463  1.00  0.00     0.170 HD
ENDROOT
BRANCH   1  11
HETATM   11  N1  UNL     1       6.732  10.373  23.864  1.00  0.00    -0.372 N 
ATOM     12  H1  UNL     1       7.013  10.219  24.832  1.00  0.00     0.161 HD
BRANCH  11  13
HETATM   13  C6  UNL     1       7.085  11.621  23.231  1.00  0.00     0.159 C 
BRANCH  13  14
HETATM   14  C5  UNL     1       6.410  12.764  23.901  1.00  0.00    -0.041 A 
HETATM   15  C4  UNL     1       5.044  12.778  24.106  1.00  0.00     0.009 A 
HETATM   16  C3  UNL     1       4.428  13.852  24.731  1.00  0.00     0.007 A 
HETATM   17  C2  UNL     1       5.146  14.945  25.174  1.00  0.00    -0.062 A 
HETATM   18  C1  UNL     1       4.500  16.104  25.847  1.00  0.00     0.048 C 
HETATM   19  C12 UNL     1       6.512  14.921  24.964  1.00  0.00     0.007 A 
HETATM   20  C11 UNL     1       7.130  13.854  24.341  1.00  0.00     0.009 A 
ENDBRANCH  13  14
ENDBRANCH  11  13
ENDBRANCH   1  11
TORSDOF 3
ENDMDL
