MODEL 15
REMARK VINA RESULT: -8.076397850      2.233      3.132
REMARK  3 active torsions:
REMARK  status: ('A' for Active; 'I' for Inactive)
REMARK    1  A    between atoms: C5_5  and  C6_6 
REMARK    2  A    between atoms: C6_6  and  N1_7 
REMARK    3  A    between atoms: N1_7  and  C7_9 
ROOT
HETATM    1  C7  UNL     1       0.681  12.405  23.544  1.00  0.00     0.106 A 
HETATM    2  C8  UNL     1       0.315  11.758  24.704  1.00  0.00     0.090 A 
HETATM    3  C9  UNL     1      -0.996  11.404  24.936  1.00  0.00     0.109 A 
HETATM    4 CL1  UNL     1      -1.427  10.588  26.406  1.00  0.00    -0.064 Cl
HETATM    5  N2  UNL     1      -1.907  11.705  24.006  1.00  0.00    -0.321 N 
ATOM      6  H2  UNL     1      -2.884  11.454  24.154  1.00  0.00     0.169 HD
HETATM    7  C10 UNL     1      -1.540  12.340  22.873  1.00  0.00     0.195 A 
HETATM    8  N3  UNL     1      -2.515  12.663  21.875  1.00  0.00    -0.063 NA
HETATM    9  N4  UNL     1      -0.280  12.684  22.641  1.00  0.00    -0.317 N 
ATOM     10  H4  UNL     1      -0.036  13.164  21.774  1.00  0.00     0.170 HD
ENDROOT
BRANCH   1  11
HETATM   11  N1  UNL     1       2.000  12.792  23.249  1.00  0.00    -0.372 N 
ATOM     12  H1  UNL     1       2.297  12.813  22.274  1.00  0.00     0.161 HD
BRANCH  11  13
HETATM   13  C6  UNL     1       2.951  13.161  24.271  1.00  0.00     0.159 C 
BRANCH  13  14
HETATM   14  C5  UNL     1       4.259  12.491  24.044  1.00  0.00    -0.041 A 
HETATM   15  C4  UNL     1       5.455  13.146  24.266  1.00  0.00     0.009 A 
HETATM   16  C3  UNL     1       6.666  12.507  24.050  1.00  0.00     0.007 A 
HETATM   17  C2  UNL     1       6.732  11.202  23.607  1.00  0.00    -0.062 A 
HETATM   18  C1  UNL     1       8.024  10.503  23.371  1.00  0.00     0.048 C 
HETATM   19  C12 UNL     1       5.530  10.556  23.388  1.00  0.00     0.007 A 
HETATM   20  C11 UNL     1       4.320  11.187  23.601  1.00  0.00     0.009 A 
ENDBRANCH  13  14
ENDBRANCH  11  13
ENDBRANCH   1  11
TORSDOF 3
ENDMDL
