MODEL 19
REMARK VINA RESULT: -7.804984567      5.340      6.414
REMARK  3 active torsions:
REMARK  status: ('A' for Active; 'I' for Inactive)
REMARK    1  A    between atoms: C5_5  and  C6_6 
REMARK    2  A    between atoms: C6_6  and  N1_7 
REMARK    3  A    between atoms: N1_7  and  C7_9 
ROOT
HETATM    1  C7  UNL     1       5.180   8.652  22.782  1.00  0.00     0.106 A 
HETATM    2  C8  UNL     1       5.530   7.977  23.931  1.00  0.00     0.090 A 
HETATM    3  C9  UNL     1       5.344   6.616  24.039  1.00  0.00     0.109 A 
HETATM    4 CL1  UNL     1       5.796   5.793  25.498  1.00  0.00    -0.064 Cl
HETATM    5  N2  UNL     1       4.816   5.965  22.999  1.00  0.00    -0.321 N 
ATOM      6  H2  UNL     1       4.669   4.957  23.054  1.00  0.00     0.169 HD
HETATM    7  C10 UNL     1       4.476   6.634  21.877  1.00  0.00     0.195 A 
HETATM    8  N3  UNL     1       3.909   5.937  20.761  1.00  0.00    -0.063 NA
HETATM    9  N4  UNL     1       4.651   7.945  21.764  1.00  0.00    -0.317 N 
ATOM     10  H4  UNL     1       4.382   8.420  20.902  1.00  0.00     0.170 HD
ENDROOT
BRANCH   1  11
HETATM   11  N1  UNL     1       5.344  10.038  22.611  1.00  0.00    -0.372 N 
ATOM     12  H1  UNL     1       4.627  10.556  22.103  1.00  0.00     0.161 HD
BRANCH  11  13
HETATM   13  C6  UNL     1       6.484  10.758  23.124  1.00  0.00     0.159 C 
BRANCH  13  14
HETATM   14  C5  UNL     1       6.070  12.058  23.713  1.00  0.00    -0.041 A 
HETATM   15  C4  UNL     1       6.995  13.024  24.059  1.00  0.00     0.009 A 
HETATM   16  C3  UNL     1       6.592  14.232  24.607  1.00  0.00     0.007 A 
HETATM   17  C2  UNL     1       5.261  14.522  24.830  1.00  0.00    -0.062 A 
HETATM   18  C1  UNL     1       4.813  15.814  25.416  1.00  0.00     0.048 C 
HETATM   19  C12 UNL     1       4.344  13.550  24.480  1.00  0.00     0.007 A 
HETATM   20  C11 UNL     1       4.739  12.344  23.934  1.00  0.00     0.009 A 
ENDBRANCH  13  14
ENDBRANCH  11  13
ENDBRANCH   1  11
TORSDOF 3
ENDMDL
