MODEL 2
REMARK VINA RESULT: -6.584806455      2.592      3.502
REMARK  1 active torsions:
REMARK  status: ('A' for Active; 'I' for Inactive)
REMARK       I    between atoms: C2_2  and  N1_4 
REMARK    1  A    between atoms: N1_4  and  C3_6 
ROOT
HETATM    1  C3  UNL     1      33.064   9.735  23.956  1.00  0.00     0.043 A 
HETATM    2  C4  UNL     1      34.179   9.154  23.457  1.00  0.00     0.061 A 
HETATM    3  C5  UNL     1      34.194   7.774  23.143  1.00  0.00     0.053 A 
HETATM    4  N2  UNL     1      35.218   7.118  22.656  1.00  0.00    -0.338 N 
ATOM      5  H2  UNL     1      36.093   7.609  22.476  1.00  0.00     0.167 HD
HETATM    6  C6  UNL     1      35.129   5.837  22.399  1.00  0.00     0.159 A 
HETATM    7  N3  UNL     1      36.081   4.919  21.878  1.00  0.00    -0.074 NA
HETATM    8  S1  UNL     1      33.496   5.501  22.865  1.00  0.00    -0.055 SA
HETATM    9  C7  UNL     1      33.046   7.072  23.366  1.00  0.00     0.035 A 
HETATM   10  C8  UNL     1      31.903   7.671  23.879  1.00  0.00     0.030 A 
HETATM   11  C9  UNL     1      31.882   9.013  24.187  1.00  0.00    -0.034 A 
HETATM   12  C10 UNL     1      30.677   9.643  24.727  1.00  0.00     0.050 C 
ENDROOT
BRANCH   1  13
HETATM   13  N1  UNL     1      32.984  11.109  24.291  1.00  0.00    -0.327 N 
HETATM   14  C2  UNL     1      32.703  12.194  23.437  1.00  0.00     0.218 C 
HETATM   15  C1  UNL     1      32.667  13.593  24.018  1.00  0.00     0.117 C 
HETATM   16  O1  UNL     1      32.491  11.997  22.236  1.00  0.00    -0.274 OA
ATOM     17  H1  UNL     1      33.149  11.342  25.271  1.00  0.00     0.169 HD
ENDBRANCH   1  13
TORSDOF 1
ENDMDL
