MODEL 1
REMARK VINA RESULT: -6.603909961      0.000      0.000
REMARK  1 active torsions:
REMARK  status: ('A' for Active; 'I' for Inactive)
REMARK       I    between atoms: C2_2  and  N1_4 
REMARK    1  A    between atoms: N1_4  and  C3_6 
ROOT
HETATM    1  C3  UNL     1      30.998  11.305  23.752  1.00  0.00     0.043 A 
HETATM    2  C4  UNL     1      30.704   9.985  23.807  1.00  0.00     0.061 A 
HETATM    3  C5  UNL     1      31.731   9.026  23.970  1.00  0.00     0.053 A 
HETATM    4  N2  UNL     1      31.553   7.729  24.035  1.00  0.00    -0.338 N 
ATOM      5  H2  UNL     1      30.612   7.344  23.967  1.00  0.00     0.167 HD
HETATM    6  C6  UNL     1      32.575   6.923  24.188  1.00  0.00     0.159 A 
HETATM    7  N3  UNL     1      32.640   5.506  24.285  1.00  0.00    -0.074 NA
HETATM    8  S1  UNL     1      33.895   8.039  24.247  1.00  0.00    -0.055 SA
HETATM    9  C7  UNL     1      33.010   9.490  24.067  1.00  0.00     0.035 A 
HETATM   10  C8  UNL     1      33.308  10.846  24.010  1.00  0.00     0.030 A 
HETATM   11  C9  UNL     1      32.314  11.785  23.852  1.00  0.00    -0.034 A 
HETATM   12  C10 UNL     1      32.630  13.213  23.791  1.00  0.00     0.050 C 
ENDROOT
BRANCH   1  13
HETATM   13  N1  UNL     1      30.018  12.316  23.590  1.00  0.00    -0.327 N 
HETATM   14  C2  UNL     1      29.115  12.483  22.523  1.00  0.00     0.218 C 
HETATM   15  C1  UNL     1      28.145  13.647  22.560  1.00  0.00     0.117 C 
HETATM   16  O1  UNL     1      29.120  11.688  21.577  1.00  0.00    -0.274 OA
ATOM     17  H1  UNL     1      29.960  13.007  24.339  1.00  0.00     0.169 HD
ENDBRANCH   1  13
TORSDOF 1
ENDMDL
