MODEL 3
REMARK VINA RESULT: -6.506279030      1.951      1.965
REMARK  1 active torsions:
REMARK  status: ('A' for Active; 'I' for Inactive)
REMARK       I    between atoms: C2_2  and  N1_4 
REMARK    1  A    between atoms: N1_4  and  C3_6 
ROOT
HETATM    1  C3  UNL     1      31.150  11.170  24.486  1.00  0.00     0.043 A 
HETATM    2  C4  UNL     1      30.606  10.295  25.362  1.00  0.00     0.061 A 
HETATM    3  C5  UNL     1      31.398   9.283  25.955  1.00  0.00     0.053 A 
HETATM    4  N2  UNL     1      30.969   8.390  26.813  1.00  0.00    -0.338 N 
ATOM      5  H2  UNL     1      29.990   8.393  27.099  1.00  0.00     0.167 HD
HETATM    6  C6  UNL     1      31.786   7.492  27.305  1.00  0.00     0.159 A 
HETATM    7  N3  UNL     1      31.566   6.437  28.232  1.00  0.00    -0.074 NA
HETATM    8  S1  UNL     1      33.274   7.908  26.526  1.00  0.00    -0.055 SA
HETATM    9  C7  UNL     1      32.715   9.236  25.605  1.00  0.00     0.035 A 
HETATM   10  C8  UNL     1      33.271  10.136  24.705  1.00  0.00     0.030 A 
HETATM   11  C9  UNL     1      32.506  11.123  24.124  1.00  0.00    -0.034 A 
HETATM   12  C10 UNL     1      33.093  12.071  23.176  1.00  0.00     0.050 C 
ENDROOT
BRANCH   1  13
HETATM   13  N1  UNL     1      30.413  12.204  23.857  1.00  0.00    -0.327 N 
HETATM   14  C2  UNL     1      29.430  12.082  22.856  1.00  0.00     0.218 C 
HETATM   15  C1  UNL     1      28.766  13.336  22.325  1.00  0.00     0.117 C 
HETATM   16  O1  UNL     1      29.122  10.966  22.425  1.00  0.00    -0.274 OA
ATOM     17  H1  UNL     1      30.620  13.154  24.168  1.00  0.00     0.169 HD
ENDBRANCH   1  13
TORSDOF 1
ENDMDL
