MODEL 4
REMARK VINA RESULT: -7.048976148      2.092      5.516
REMARK  5 active torsions:
REMARK  status: ('A' for Active; 'I' for Inactive)
REMARK    1  A    between atoms: O1_1  and  N1_3 
REMARK    2  A    between atoms: C1_5  and  C2_6 
REMARK    3  A    between atoms: C1_5  and  C7_13 
REMARK    4  A    between atoms: C10_16  and  O2_17 
REMARK    5  A    between atoms: C12_20  and  O3_21 
ROOT
HETATM    1  N1  UNL     1       2.100  10.523  24.011  1.00  0.00    -0.268 N 
ATOM      2  H1  UNL     1       1.253  10.019  23.748  1.00  0.00     0.194 HD
HETATM    3  C1  UNL     1       2.204  11.795  23.715  1.00  0.00     0.078 C 
ENDROOT
BRANCH   3   4
HETATM    4  C2  UNL     1       3.385  12.553  24.065  1.00  0.00     0.009 A 
HETATM    5  C3  UNL     1       3.361  13.840  24.580  1.00  0.00     0.016 A 
HETATM    6  C4  UNL     1       4.517  14.582  24.807  1.00  0.00     0.018 A 
HETATM    7  C5  UNL     1       5.743  14.036  24.518  1.00  0.00     0.087 A 
HETATM    8  N2  UNL     1       5.783  12.804  24.025  1.00  0.00    -0.374 N 
HETATM    9  C6  UNL     1       4.651  12.072  23.799  1.00  0.00     0.101 A 
ATOM     10  H2  UNL     1       6.688  12.390  23.808  1.00  0.00     0.164 HD
ENDBRANCH   3   4
BRANCH   3  11
HETATM   11  C7  UNL     1       1.035  12.312  22.999  1.00  0.00     0.027 A 
HETATM   12  C8  UNL     1       1.084  12.776  21.717  1.00  0.00     0.019 A 
HETATM   13  C9  UNL     1      -0.054  13.203  21.001  1.00  0.00     0.037 A 
HETATM   14  C10 UNL     1      -1.284  13.151  21.615  1.00  0.00     0.068 A 
HETATM   15  C11 UNL     1      -1.374  12.687  22.906  1.00  0.00     0.074 A 
HETATM   16  C12 UNL     1      -0.245  12.280  23.575  1.00  0.00     0.081 A 
BRANCH  14  17
HETATM   17  O2  UNL     1      -2.399  13.574  20.900  1.00  0.00    -0.361 OA
ATOM     18  H2  UNL     1      -3.053  12.929  20.660  1.00  0.00     0.217 HD
ENDBRANCH  14  17
BRANCH  16  19
HETATM   19  O3  UNL     1      -0.334  11.806  24.893  1.00  0.00    -0.360 OA
ATOM     20  H3  UNL     1      -1.152  11.962  25.350  1.00  0.00     0.217 HD
ENDBRANCH  16  19
ENDBRANCH   3  11
BRANCH   1  21
HETATM   21  O1  UNL     1       3.079   9.870  24.652  1.00  0.00    -0.289 OA
ATOM     22  H1  UNL     1       2.898   9.313  25.400  1.00  0.00     0.244 HD
ENDBRANCH   1  21
TORSDOF 5
ENDMDL
