MODEL 2
REMARK VINA RESULT: -7.221964396      3.352      5.655
REMARK  5 active torsions:
REMARK  status: ('A' for Active; 'I' for Inactive)
REMARK    1  A    between atoms: O1_1  and  N1_3 
REMARK    2  A    between atoms: C1_5  and  C2_6 
REMARK    3  A    between atoms: C1_5  and  C7_13 
REMARK    4  A    between atoms: C10_16  and  O2_17 
REMARK    5  A    between atoms: C12_20  and  O3_21 
ROOT
HETATM    1  N1  UNL     1      -0.730  10.651  26.696  1.00  0.00    -0.268 N 
ATOM      2  H1  UNL     1      -1.197  11.553  26.602  1.00  0.00     0.194 HD
HETATM    3  C1  UNL     1       0.027  10.217  25.720  1.00  0.00     0.078 C 
ENDROOT
BRANCH   3   4
HETATM    4  C2  UNL     1       0.707   8.944  25.805  1.00  0.00     0.009 A 
HETATM    5  C3  UNL     1       1.960   8.765  26.370  1.00  0.00     0.016 A 
HETATM    6  C4  UNL     1       2.633   7.547  26.342  1.00  0.00     0.018 A 
HETATM    7  C5  UNL     1       2.049   6.462  25.735  1.00  0.00     0.087 A 
HETATM    8  N2  UNL     1       0.849   6.617  25.190  1.00  0.00    -0.374 N 
HETATM    9  C6  UNL     1       0.185   7.811  25.214  1.00  0.00     0.101 A 
ATOM     10  H2  UNL     1       0.407   5.817  24.738  1.00  0.00     0.164 HD
ENDBRANCH   3   4
BRANCH   3  11
HETATM   11  C7  UNL     1       0.071  11.137  24.580  1.00  0.00     0.027 A 
HETATM   12  C8  UNL     1       1.205  11.777  24.174  1.00  0.00     0.019 A 
HETATM   13  C9  UNL     1       1.265  12.604  23.032  1.00  0.00     0.037 A 
HETATM   14  C10 UNL     1       0.128  12.779  22.279  1.00  0.00     0.068 A 
HETATM   15  C11 UNL     1      -1.035  12.149  22.655  1.00  0.00     0.074 A 
HETATM   16  C12 UNL     1      -1.059  11.353  23.773  1.00  0.00     0.081 A 
BRANCH  14  17
HETATM   17  O2  UNL     1       0.199  13.595  21.155  1.00  0.00    -0.361 OA
ATOM     18  H2  UNL     1       0.920  14.210  21.087  1.00  0.00     0.217 HD
ENDBRANCH  14  17
BRANCH  16  19
HETATM   19  O3  UNL     1      -2.244  10.708  24.160  1.00  0.00    -0.360 OA
ATOM     20  H3  UNL     1      -2.980  10.769  23.561  1.00  0.00     0.217 HD
ENDBRANCH  16  19
ENDBRANCH   3  11
BRANCH   1  21
HETATM   21  O1  UNL     1      -0.907   9.936  27.817  1.00  0.00    -0.289 OA
ATOM     22  H1  UNL     1      -1.596   9.287  27.889  1.00  0.00     0.244 HD
ENDBRANCH   1  21
TORSDOF 5
ENDMDL
