MODEL 1
REMARK VINA RESULT: -7.324327646      0.000      0.000
REMARK  5 active torsions:
REMARK  status: ('A' for Active; 'I' for Inactive)
REMARK    1  A    between atoms: O1_1  and  N1_3 
REMARK    2  A    between atoms: C1_5  and  C2_6 
REMARK    3  A    between atoms: C1_5  and  C7_13 
REMARK    4  A    between atoms: C10_16  and  O2_17 
REMARK    5  A    between atoms: C12_20  and  O3_21 
ROOT
HETATM    1  N1  UNL     1       1.126  10.445  24.081  1.00  0.00    -0.268 N 
ATOM      2  H1  UNL     1       1.911  10.032  24.583  1.00  0.00     0.194 HD
HETATM    3  C1  UNL     1       1.279  11.609  23.500  1.00  0.00     0.078 C 
ENDROOT
BRANCH   3   4
HETATM    4  C2  UNL     1       0.194  12.236  22.778  1.00  0.00     0.009 A 
HETATM    5  C3  UNL     1       0.316  12.790  21.513  1.00  0.00     0.016 A 
HETATM    6  C4  UNL     1      -0.719  13.481  20.889  1.00  0.00     0.018 A 
HETATM    7  C5  UNL     1      -1.922  13.630  21.535  1.00  0.00     0.087 A 
HETATM    8  N2  UNL     1      -2.056  13.104  22.746  1.00  0.00    -0.374 N 
HETATM    9  C6  UNL     1      -1.042  12.427  23.363  1.00  0.00     0.101 A 
ATOM     10  H2  UNL     1      -2.945  13.210  23.233  1.00  0.00     0.164 HD
ENDBRANCH   3   4
BRANCH   3  11
HETATM   11  C7  UNL     1       2.619  12.169  23.689  1.00  0.00     0.027 A 
HETATM   12  C8  UNL     1       2.851  13.381  24.272  1.00  0.00     0.019 A 
HETATM   13  C9  UNL     1       4.144  13.887  24.523  1.00  0.00     0.037 A 
HETATM   14  C10 UNL     1       5.235  13.129  24.171  1.00  0.00     0.068 A 
HETATM   15  C11 UNL     1       5.042  11.901  23.583  1.00  0.00     0.074 A 
HETATM   16  C12 UNL     1       3.769  11.438  23.351  1.00  0.00     0.081 A 
BRANCH  14  17
HETATM   17  O2  UNL     1       6.504  13.638  24.424  1.00  0.00    -0.361 OA
ATOM     18  H2  UNL     1       7.242  13.262  23.959  1.00  0.00     0.217 HD
ENDBRANCH  14  17
BRANCH  16  19
HETATM   19  O3  UNL     1       3.569  10.185  22.751  1.00  0.00    -0.360 OA
ATOM     20  H3  UNL     1       4.166   9.490  23.001  1.00  0.00     0.217 HD
ENDBRANCH  16  19
ENDBRANCH   3  11
BRANCH   1  21
HETATM   21  O1  UNL     1      -0.039   9.784  24.031  1.00  0.00    -0.289 OA
ATOM     22  H1  UNL     1      -0.237   9.078  24.635  1.00  0.00     0.244 HD
ENDBRANCH   1  21
TORSDOF 5
ENDMDL
