MODEL 3
REMARK VINA RESULT: -7.079742419      2.355      5.609
REMARK  5 active torsions:
REMARK  status: ('A' for Active; 'I' for Inactive)
REMARK    1  A    between atoms: O1_1  and  N1_3 
REMARK    2  A    between atoms: C1_5  and  C2_6 
REMARK    3  A    between atoms: C1_5  and  C7_13 
REMARK    4  A    between atoms: C10_16  and  O2_17 
REMARK    5  A    between atoms: C12_20  and  O3_21 
ROOT
HETATM    1  N1  UNL     1       4.103  10.608  23.039  1.00  0.00    -0.268 N 
ATOM      2  H1  UNL     1       3.460   9.910  22.665  1.00  0.00     0.194 HD
HETATM    3  C1  UNL     1       3.622  11.712  23.554  1.00  0.00     0.078 C 
ENDROOT
BRANCH   3   4
HETATM    4  C2  UNL     1       4.493  12.732  24.093  1.00  0.00     0.009 A 
HETATM    5  C3  UNL     1       4.050  13.916  24.661  1.00  0.00     0.016 A 
HETATM    6  C4  UNL     1       4.915  14.924  25.075  1.00  0.00     0.018 A 
HETATM    7  C5  UNL     1       6.271  14.760  24.926  1.00  0.00     0.087 A 
HETATM    8  N2  UNL     1       6.711  13.631  24.385  1.00  0.00    -0.374 N 
HETATM    9  C6  UNL     1       5.865  12.639  23.976  1.00  0.00     0.101 A 
ATOM     10  H2  UNL     1       7.716  13.499  24.271  1.00  0.00     0.164 HD
ENDBRANCH   3   4
BRANCH   3  11
HETATM   11  C7  UNL     1       2.159  11.780  23.491  1.00  0.00     0.027 A 
HETATM   12  C8  UNL     1       1.481  12.688  22.733  1.00  0.00     0.019 A 
HETATM   13  C9  UNL     1       0.075  12.706  22.613  1.00  0.00     0.037 A 
HETATM   14  C10 UNL     1      -0.661  11.761  23.288  1.00  0.00     0.068 A 
HETATM   15  C11 UNL     1      -0.013  10.827  24.061  1.00  0.00     0.074 A 
HETATM   16  C12 UNL     1       1.357  10.839  24.157  1.00  0.00     0.081 A 
BRANCH  14  17
HETATM   17  O2  UNL     1      -2.046  11.788  23.162  1.00  0.00    -0.361 OA
ATOM     18  H2  UNL     1      -2.420  11.807  22.290  1.00  0.00     0.217 HD
ENDBRANCH  14  17
BRANCH  16  19
HETATM   19  O3  UNL     1       2.021   9.886  24.946  1.00  0.00    -0.360 OA
ATOM     20  H3  UNL     1       1.516   9.130  25.221  1.00  0.00     0.217 HD
ENDBRANCH  16  19
ENDBRANCH   3  11
BRANCH   1  21
HETATM   21  O1  UNL     1       5.422  10.374  22.991  1.00  0.00    -0.289 OA
ATOM     22  H1  UNL     1       5.769   9.492  22.925  1.00  0.00     0.244 HD
ENDBRANCH   1  21
TORSDOF 5
ENDMDL
