MODEL 10
REMARK VINA RESULT: -6.225508468      4.196      5.119
REMARK  2 active torsions:
REMARK  status: ('A' for Active; 'I' for Inactive)
REMARK    1  A    between atoms: C4_5  and  C5_6 
REMARK    2  A    between atoms: C5_6  and  C6_7 
ROOT
HETATM    1  C5  UNL     1      -3.283   5.124  14.345  1.00  0.00     0.117 C 
ENDROOT
BRANCH   1   2
HETATM    2  C4  UNL     1      -4.233   4.229  15.020  1.00  0.00    -0.051 A 
HETATM    3  C3  UNL     1      -5.568   4.540  15.033  1.00  0.00     0.009 A 
HETATM    4  C2  UNL     1      -6.459   3.674  15.681  1.00  0.00     0.024 A 
HETATM    5  C1  UNL     1      -6.031   2.532  16.299  1.00  0.00     0.034 A 
HETATM    6 CL1  UNL     1      -7.181   1.464  17.105  1.00  0.00    -0.084 Cl
HETATM    7  C8  UNL     1      -4.687   2.229  16.280  1.00  0.00     0.024 A 
HETATM    8  C7  UNL     1      -3.787   3.087  15.635  1.00  0.00     0.009 A 
ENDBRANCH   1   2
BRANCH   1   9
HETATM    9  C6  UNL     1      -2.400   4.379  13.388  1.00  0.00     0.111 A 
HETATM   10  N1  UNL     1      -1.075   4.525  13.204  1.00  0.00    -0.274 N 
HETATM   11  N2  UNL     1      -0.703   3.659  12.253  1.00  0.00    -0.007 NA
ATOM     12  H1  UNL     1      -0.465   5.177  13.699  1.00  0.00     0.185 HD
HETATM   13  N3  UNL     1      -1.763   2.974  11.836  1.00  0.00    -0.007 NA
HETATM   14  N4  UNL     1      -2.793   3.420  12.534  1.00  0.00    -0.274 N 
ATOM     15  H4  UNL     1      -3.752   3.085  12.438  1.00  0.00     0.185 HD
ENDBRANCH   1   9
TORSDOF 2
ENDMDL
