MODEL 11
REMARK VINA RESULT: -6.208986397      4.201      5.156
REMARK  2 active torsions:
REMARK  status: ('A' for Active; 'I' for Inactive)
REMARK    1  A    between atoms: C4_5  and  C5_6 
REMARK    2  A    between atoms: C5_6  and  C6_7 
ROOT
HETATM    1  C5  UNL     1      -3.268   5.135  14.336  1.00  0.00     0.117 C 
ENDROOT
BRANCH   1   2
HETATM    2  C4  UNL     1      -4.222   4.244  15.011  1.00  0.00    -0.051 A 
HETATM    3  C3  UNL     1      -3.771   3.103  15.623  1.00  0.00     0.009 A 
HETATM    4  C2  UNL     1      -4.696   2.266  16.262  1.00  0.00     0.024 A 
HETATM    5  C1  UNL     1      -6.031   2.557  16.289  1.00  0.00     0.034 A 
HETATM    6 CL1  UNL     1      -7.167   1.481  17.103  1.00  0.00    -0.084 Cl
HETATM    7  C8  UNL     1      -6.474   3.706  15.670  1.00  0.00     0.024 A 
HETATM    8  C7  UNL     1      -5.559   4.551  15.029  1.00  0.00     0.009 A 
ENDBRANCH   1   2
BRANCH   1   9
HETATM    9  C6  UNL     1      -2.387   4.385  13.381  1.00  0.00     0.111 A 
HETATM   10  N1  UNL     1      -1.062   4.530  13.194  1.00  0.00    -0.274 N 
HETATM   11  N2  UNL     1      -0.692   3.660  12.246  1.00  0.00    -0.007 NA
ATOM     12  H1  UNL     1      -0.451   5.184  13.685  1.00  0.00     0.185 HD
HETATM   13  N3  UNL     1      -1.752   2.973  11.834  1.00  0.00    -0.007 NA
HETATM   14  N4  UNL     1      -2.782   3.423  12.532  1.00  0.00    -0.274 N 
ATOM     15  H4  UNL     1      -3.740   3.087  12.439  1.00  0.00     0.185 HD
ENDBRANCH   1   9
TORSDOF 2
ENDMDL
