MODEL 8
REMARK VINA RESULT: -6.256099273      3.948      4.912
REMARK  2 active torsions:
REMARK  status: ('A' for Active; 'I' for Inactive)
REMARK    1  A    between atoms: C4_5  and  C5_6 
REMARK    2  A    between atoms: C5_6  and  C6_7 
ROOT
HETATM    1  C5  UNL     1      -3.756   3.236  13.351  1.00  0.00     0.117 C 
ENDROOT
BRANCH   1   2
HETATM    2  C4  UNL     1      -4.447   3.028  14.631  1.00  0.00    -0.051 A 
HETATM    3  C3  UNL     1      -3.959   2.111  15.526  1.00  0.00     0.009 A 
HETATM    4  C2  UNL     1      -4.631   1.927  16.742  1.00  0.00     0.024 A 
HETATM    5  C1  UNL     1      -5.757   2.635  17.056  1.00  0.00     0.034 A 
HETATM    6 CL1  UNL     1      -6.578   2.377  18.596  1.00  0.00    -0.084 Cl
HETATM    7  C8  UNL     1      -6.239   3.553  16.149  1.00  0.00     0.024 A 
HETATM    8  C7  UNL     1      -5.576   3.747  14.931  1.00  0.00     0.009 A 
ENDBRANCH   1   2
BRANCH   1   9
HETATM    9  C6  UNL     1      -4.458   2.542  12.221  1.00  0.00     0.111 A 
HETATM   10  N1  UNL     1      -4.389   1.241  11.882  1.00  0.00    -0.274 N 
HETATM   11  N2  UNL     1      -5.174   1.064  10.812  1.00  0.00    -0.007 NA
ATOM     12  H1  UNL     1      -3.840   0.523  12.354  1.00  0.00     0.185 HD
HETATM   13  N3  UNL     1      -5.733   2.220  10.472  1.00  0.00    -0.007 NA
HETATM   14  N4  UNL     1      -5.289   3.117  11.338  1.00  0.00    -0.274 N 
ATOM     15  H4  UNL     1      -5.543   4.105  11.334  1.00  0.00     0.185 HD
ENDBRANCH   1   9
TORSDOF 2
ENDMDL
