MODEL 1
REMARK VINA RESULT: -6.675819955      0.000      0.000
REMARK  2 active torsions:
REMARK  status: ('A' for Active; 'I' for Inactive)
REMARK    1  A    between atoms: C4_5  and  C5_6 
REMARK    2  A    between atoms: C5_6  and  C6_7 
ROOT
HETATM    1  C5  UNL     1      -4.384   3.005  15.643  1.00  0.00     0.117 C 
ENDROOT
BRANCH   1   2
HETATM    2  C4  UNL     1      -5.120   3.984  14.830  1.00  0.00    -0.051 A 
HETATM    3  C3  UNL     1      -5.547   5.156  15.399  1.00  0.00     0.009 A 
HETATM    4  C2  UNL     1      -6.247   6.077  14.608  1.00  0.00     0.024 A 
HETATM    5  C1  UNL     1      -6.514   5.836  13.289  1.00  0.00     0.034 A 
HETATM    6 CL1  UNL     1      -7.398   7.019  12.324  1.00  0.00    -0.084 Cl
HETATM    7  C8  UNL     1      -6.081   4.655  12.728  1.00  0.00     0.024 A 
HETATM    8  C7  UNL     1      -5.380   3.727  13.508  1.00  0.00     0.009 A 
ENDBRANCH   1   2
BRANCH   1   9
HETATM    9  C6  UNL     1      -5.299   1.977  16.240  1.00  0.00     0.111 A 
HETATM   10  N1  UNL     1      -6.633   2.056  16.406  1.00  0.00    -0.274 N 
HETATM   11  N2  UNL     1      -7.035   0.914  16.977  1.00  0.00    -0.007 NA
ATOM     12  H1  UNL     1      -7.228   2.842  16.144  1.00  0.00     0.185 HD
HETATM   13  N3  UNL     1      -5.987   0.121  17.173  1.00  0.00    -0.007 NA
HETATM   14  N4  UNL     1      -4.932   0.778  16.720  1.00  0.00    -0.274 N 
ATOM     15  H4  UNL     1      -3.975   0.425  16.735  1.00  0.00     0.185 HD
ENDBRANCH   1   9
TORSDOF 2
ENDMDL
