MODEL 1
REMARK VINA RESULT: -9.189057656      0.000      0.000
REMARK  4 active torsions:
REMARK  status: ('A' for Active; 'I' for Inactive)
REMARK    1  A    between atoms: C4_9  and  C5_10 
REMARK    2  A    between atoms: C5_10  and  C6_11 
REMARK    3  A    between atoms: C5_10  and  C8_15 
REMARK    4  A    between atoms: C6_11  and  C7_12 
ROOT
HETATM    1  C1  UNL     1      20.400  62.243  36.469  1.00  0.00     0.179 C 
HETATM    2  N1  UNL     1      20.148  63.415  35.670  1.00  0.00    -0.280 N 
HETATM    3  N2  UNL     1      20.537  64.649  35.949  1.00  0.00    -0.240 N 
ATOM      4  H2  UNL     1      21.069  64.914  36.778  1.00  0.00     0.208 HD
HETATM    5  N3  UNL     1      20.144  65.492  35.013  1.00  0.00    -0.284 N 
ATOM      6  H3  UNL     1      20.317  66.497  34.995  1.00  0.00     0.188 HD
HETATM    7  C2  UNL     1      19.472  64.780  34.082  1.00  0.00     0.078 A 
HETATM    8  C3  UNL     1      18.845  65.123  32.900  1.00  0.00     0.041 A 
HETATM    9  C4  UNL     1      18.205  64.201  32.092  1.00  0.00    -0.047 A 
HETATM   10  C14 UNL     1      18.225  62.898  32.534  1.00  0.00     0.010 A 
HETATM   11  C15 UNL     1      18.847  62.546  33.711  1.00  0.00     0.034 A 
HETATM   12  C16 UNL     1      19.480  63.478  34.505  1.00  0.00     0.080 A 
ENDROOT
BRANCH   9  13
HETATM   13  C5  UNL     1      17.580  64.670  30.873  1.00  0.00     0.061 C 
BRANCH  13  14
HETATM   14  C6  UNL     1      17.540  63.744  29.718  1.00  0.00     0.127 C 
BRANCH  14  15
HETATM   15  C7  UNL     1      18.172  64.350  28.514  1.00  0.00     0.173 C 
HETATM   16  O1  UNL     1      19.146  63.759  27.982  1.00  0.00    -0.648 OA
HETATM   17  O2  UNL     1      17.741  65.535  27.947  1.00  0.00    -0.648 OA
ENDBRANCH  14  15
ENDBRANCH  13  14
BRANCH  13  18
HETATM   18  C8  UNL     1      16.178  65.100  31.217  1.00  0.00    -0.049 A 
HETATM   19  C9  UNL     1      15.867  65.665  32.436  1.00  0.00     0.009 A 
HETATM   20  C10 UNL     1      14.554  66.053  32.726  1.00  0.00     0.024 A 
HETATM   21  C11 UNL     1      13.554  65.871  31.785  1.00  0.00     0.034 A 
HETATM   22 CL1  UNL     1      11.893  66.334  32.086  1.00  0.00    -0.084 Cl
HETATM   23  C12 UNL     1      13.850  65.310  30.572  1.00  0.00     0.024 A 
HETATM   24  C13 UNL     1      15.140  64.943  30.320  1.00  0.00     0.009 A 
ENDBRANCH  13  18
ENDBRANCH   9  13
TORSDOF 4
ENDMDL
