MODEL 11
REMARK VINA RESULT: -7.830732424      6.149      8.204
REMARK  4 active torsions:
REMARK  status: ('A' for Active; 'I' for Inactive)
REMARK    1  A    between atoms: C4_9  and  C5_10 
REMARK    2  A    between atoms: C5_10  and  C6_11 
REMARK    3  A    between atoms: C5_10  and  C8_15 
REMARK    4  A    between atoms: C6_11  and  C7_12 
ROOT
HETATM    1  C1  UNL     1      11.199  61.780  24.752  1.00  0.00     0.179 C 
HETATM    2  N1  UNL     1      12.145  62.855  24.603  1.00  0.00    -0.280 N 
HETATM    3  N2  UNL     1      12.016  63.905  23.807  1.00  0.00    -0.240 N 
ATOM      4  H2  UNL     1      11.215  64.074  23.198  1.00  0.00     0.208 HD
HETATM    5  N3  UNL     1      13.062  64.705  23.906  1.00  0.00    -0.284 N 
ATOM      6  H3  UNL     1      13.203  65.578  23.398  1.00  0.00     0.188 HD
HETATM    7  C2  UNL     1      13.909  64.156  24.804  1.00  0.00     0.078 A 
HETATM    8  C3  UNL     1      15.139  64.541  25.300  1.00  0.00     0.041 A 
HETATM    9  C4  UNL     1      15.838  63.800  26.237  1.00  0.00    -0.047 A 
HETATM   10  C14 UNL     1      15.234  62.638  26.657  1.00  0.00     0.010 A 
HETATM   11  C15 UNL     1      14.008  62.246  26.167  1.00  0.00     0.034 A 
HETATM   12  C16 UNL     1      13.325  62.995  25.234  1.00  0.00     0.080 A 
ENDROOT
BRANCH   9  13
HETATM   13  C5  UNL     1      17.120  64.297  26.690  1.00  0.00     0.061 C 
BRANCH  13  14
HETATM   14  C6  UNL     1      17.607  65.573  26.115  1.00  0.00     0.127 C 
BRANCH  14  15
HETATM   15  C7  UNL     1      18.067  65.396  24.711  1.00  0.00     0.173 C 
HETATM   16  O1  UNL     1      17.915  66.346  23.902  1.00  0.00    -0.648 OA
HETATM   17  O2  UNL     1      18.655  64.234  24.247  1.00  0.00    -0.648 OA
ENDBRANCH  14  15
ENDBRANCH  13  14
BRANCH  13  18
HETATM   18  C8  UNL     1      17.056  64.418  28.190  1.00  0.00    -0.049 A 
HETATM   19  C9  UNL     1      15.878  64.698  28.850  1.00  0.00     0.009 A 
HETATM   20  C10 UNL     1      15.852  64.804  30.245  1.00  0.00     0.024 A 
HETATM   21  C11 UNL     1      17.015  64.625  30.975  1.00  0.00     0.034 A 
HETATM   22 CL1  UNL     1      17.049  64.745  32.721  1.00  0.00    -0.084 Cl
HETATM   23  C12 UNL     1      18.191  64.347  30.332  1.00  0.00     0.024 A 
HETATM   24  C13 UNL     1      18.183  64.250  28.971  1.00  0.00     0.009 A 
ENDBRANCH  13  18
ENDBRANCH   9  13
TORSDOF 4
ENDMDL
