MODEL 6
REMARK VINA RESULT: -8.277844353      5.909      8.103
REMARK  4 active torsions:
REMARK  status: ('A' for Active; 'I' for Inactive)
REMARK    1  A    between atoms: C4_9  and  C5_10 
REMARK    2  A    between atoms: C5_10  and  C6_11 
REMARK    3  A    between atoms: C5_10  and  C8_15 
REMARK    4  A    between atoms: C6_11  and  C7_12 
ROOT
HETATM    1  C1  UNL     1      10.956  62.754  24.303  1.00  0.00     0.179 C 
HETATM    2  N1  UNL     1      12.084  62.344  25.099  1.00  0.00    -0.280 N 
HETATM    3  N2  UNL     1      12.198  61.205  25.764  1.00  0.00    -0.240 N 
ATOM      4  H2  UNL     1      11.486  60.474  25.787  1.00  0.00     0.208 HD
HETATM    5  N3  UNL     1      13.356  61.138  26.394  1.00  0.00    -0.284 N 
ATOM      6  H3  UNL     1      13.684  60.366  26.974  1.00  0.00     0.188 HD
HETATM    7  C2  UNL     1      14.028  62.280  26.130  1.00  0.00     0.078 A 
HETATM    8  C3  UNL     1      15.266  62.758  26.511  1.00  0.00     0.041 A 
HETATM    9  C4  UNL     1      15.755  63.988  26.108  1.00  0.00    -0.047 A 
HETATM   10  C14 UNL     1      14.929  64.725  25.291  1.00  0.00     0.010 A 
HETATM   11  C15 UNL     1      13.693  64.257  24.906  1.00  0.00     0.034 A 
HETATM   12  C16 UNL     1      13.220  63.030  25.318  1.00  0.00     0.080 A 
ENDROOT
BRANCH   9  13
HETATM   13  C5  UNL     1      17.069  64.390  26.566  1.00  0.00     0.061 C 
BRANCH  13  14
HETATM   14  C6  UNL     1      17.633  65.647  26.024  1.00  0.00     0.127 C 
BRANCH  14  15
HETATM   15  C7  UNL     1      18.053  65.487  24.605  1.00  0.00     0.173 C 
HETATM   16  O1  UNL     1      17.872  66.444  23.810  1.00  0.00    -0.648 OA
HETATM   17  O2  UNL     1      18.635  64.334  24.113  1.00  0.00    -0.648 OA
ENDBRANCH  14  15
ENDBRANCH  13  14
BRANCH  13  18
HETATM   18  C8  UNL     1      17.019  64.472  28.069  1.00  0.00    -0.049 A 
HETATM   19  C9  UNL     1      15.839  64.687  28.750  1.00  0.00     0.009 A 
HETATM   20  C10 UNL     1      15.826  64.759  30.147  1.00  0.00     0.024 A 
HETATM   21  C11 UNL     1      17.005  64.613  30.859  1.00  0.00     0.034 A 
HETATM   22 CL1  UNL     1      17.056  64.693  32.607  1.00  0.00    -0.084 Cl
HETATM   23  C12 UNL     1      18.183  64.400  30.195  1.00  0.00     0.024 A 
HETATM   24  C13 UNL     1      18.162  64.335  28.833  1.00  0.00     0.009 A 
ENDBRANCH  13  18
ENDBRANCH   9  13
TORSDOF 4
ENDMDL
