MODEL 3
REMARK VINA RESULT: -8.680696918      2.846      3.838
REMARK  4 active torsions:
REMARK  status: ('A' for Active; 'I' for Inactive)
REMARK    1  A    between atoms: C4_9  and  C5_10 
REMARK    2  A    between atoms: C5_10  and  C6_11 
REMARK    3  A    between atoms: C5_10  and  C8_15 
REMARK    4  A    between atoms: C6_11  and  C7_12 
ROOT
HETATM    1  C1  UNL     1      21.884  62.241  35.059  1.00  0.00     0.179 C 
HETATM    2  N1  UNL     1      20.937  63.322  34.978  1.00  0.00    -0.280 N 
HETATM    3  N2  UNL     1      20.912  64.399  35.748  1.00  0.00    -0.240 N 
ATOM      4  H2  UNL     1      21.576  64.587  36.500  1.00  0.00     0.208 HD
HETATM    5  N3  UNL     1      19.916  65.197  35.414  1.00  0.00    -0.284 N 
ATOM      6  H3  UNL     1      19.683  66.088  35.854  1.00  0.00     0.188 HD
HETATM    7  C2  UNL     1      19.261  64.620  34.382  1.00  0.00     0.078 A 
HETATM    8  C3  UNL     1      18.161  64.990  33.636  1.00  0.00     0.041 A 
HETATM    9  C4  UNL     1      17.657  64.220  32.603  1.00  0.00    -0.047 A 
HETATM   10  C14 UNL     1      18.323  63.042  32.352  1.00  0.00     0.010 A 
HETATM   11  C15 UNL     1      19.422  62.664  33.091  1.00  0.00     0.034 A 
HETATM   12  C16 UNL     1      19.910  63.444  34.117  1.00  0.00     0.080 A 
ENDROOT
BRANCH   9  13
HETATM   13  C5  UNL     1      16.497  64.704  31.885  1.00  0.00     0.061 C 
BRANCH  13  14
HETATM   14  C6  UNL     1      15.982  66.048  32.234  1.00  0.00     0.127 C 
BRANCH  14  15
HETATM   15  C7  UNL     1      14.550  65.993  32.638  1.00  0.00     0.173 C 
HETATM   16  O1  UNL     1      14.116  66.858  33.440  1.00  0.00    -0.648 OA
HETATM   17  O2  UNL     1      13.669  65.035  32.174  1.00  0.00    -0.648 OA
ENDBRANCH  14  15
ENDBRANCH  13  14
BRANCH  13  18
HETATM   18  C8  UNL     1      16.823  64.660  30.415  1.00  0.00    -0.049 A 
HETATM   19  C9  UNL     1      18.116  64.770  29.950  1.00  0.00     0.009 A 
HETATM   20  C10 UNL     1      18.386  64.726  28.578  1.00  0.00     0.024 A 
HETATM   21  C11 UNL     1      17.349  64.571  27.673  1.00  0.00     0.034 A 
HETATM   22 CL1  UNL     1      17.620  64.509  25.945  1.00  0.00    -0.084 Cl
HETATM   23  C12 UNL     1      16.060  64.462  28.121  1.00  0.00     0.024 A 
HETATM   24  C13 UNL     1      15.831  64.508  29.465  1.00  0.00     0.009 A 
ENDBRANCH  13  18
ENDBRANCH   9  13
TORSDOF 4
ENDMDL
