MODEL 2
REMARK VINA RESULT: -8.856077023      0.895      1.600
REMARK  4 active torsions:
REMARK  status: ('A' for Active; 'I' for Inactive)
REMARK    1  A    between atoms: C4_9  and  C5_10 
REMARK    2  A    between atoms: C5_10  and  C6_11 
REMARK    3  A    between atoms: C5_10  and  C8_15 
REMARK    4  A    between atoms: C6_11  and  C7_12 
ROOT
HETATM    1  C1  UNL     1      20.433  63.038  36.540  1.00  0.00     0.179 C 
HETATM    2  N1  UNL     1      19.973  62.574  35.257  1.00  0.00    -0.280 N 
HETATM    3  N2  UNL     1      20.068  61.339  34.792  1.00  0.00    -0.240 N 
ATOM      4  H2  UNL     1      20.488  60.560  35.302  1.00  0.00     0.208 HD
HETATM    5  N3  UNL     1      19.550  61.247  33.582  1.00  0.00    -0.284 N 
ATOM      6  H3  UNL     1      19.501  60.404  33.009  1.00  0.00     0.188 HD
HETATM    7  C2  UNL     1      19.095  62.472  33.241  1.00  0.00     0.078 A 
HETATM    8  C3  UNL     1      18.469  62.968  32.115  1.00  0.00     0.041 A 
HETATM    9  C4  UNL     1      18.086  64.292  31.987  1.00  0.00    -0.047 A 
HETATM   10  C14 UNL     1      18.367  65.105  33.061  1.00  0.00     0.010 A 
HETATM   11  C15 UNL     1      18.991  64.619  34.188  1.00  0.00     0.034 A 
HETATM   12  C16 UNL     1      19.366  63.298  34.299  1.00  0.00     0.080 A 
ENDROOT
BRANCH   9  13
HETATM   13  C5  UNL     1      17.436  64.705  30.762  1.00  0.00     0.061 C 
BRANCH  13  14
HETATM   14  C6  UNL     1      17.404  63.740  29.639  1.00  0.00     0.127 C 
BRANCH  14  15
HETATM   15  C7  UNL     1      18.057  64.298  28.424  1.00  0.00     0.173 C 
HETATM   16  O1  UNL     1      18.999  63.655  27.895  1.00  0.00    -0.648 OA
HETATM   17  O2  UNL     1      17.680  65.495  27.843  1.00  0.00    -0.648 OA
ENDBRANCH  14  15
ENDBRANCH  13  14
BRANCH  13  18
HETATM   18  C8  UNL     1      16.028  65.112  31.110  1.00  0.00    -0.049 A 
HETATM   19  C9  UNL     1      15.722  65.732  32.304  1.00  0.00     0.009 A 
HETATM   20  C10 UNL     1      14.404  66.097  32.599  1.00  0.00     0.024 A 
HETATM   21  C11 UNL     1      13.393  65.838  31.688  1.00  0.00     0.034 A 
HETATM   22 CL1  UNL     1      11.725  66.270  31.996  1.00  0.00    -0.084 Cl
HETATM   23  C12 UNL     1      13.684  65.224  30.500  1.00  0.00     0.024 A 
HETATM   24  C13 UNL     1      14.979  64.879  30.242  1.00  0.00     0.009 A 
ENDBRANCH  13  18
ENDBRANCH   9  13
TORSDOF 4
ENDMDL
