MODEL 2
REMARK VINA RESULT: -9.110038403      4.366      7.381
REMARK  7 active torsions:
REMARK  status: ('A' for Active; 'I' for Inactive)
REMARK    1  A    between atoms: N1_2  and  C2_3 
REMARK    2  A    between atoms: N1_2  and  S1_27 
REMARK    3  A    between atoms: C2_3  and  C3_4 
REMARK    4  A    between atoms: C5_6  and  C6_7 
REMARK    5  A    between atoms: C6_7  and  C7_8 
REMARK    6  A    between atoms: C6_7  and  C9_12 
REMARK    7  A    between atoms: C7_8  and  C8_9 
ROOT
HETATM    1  C6  UNL     1      17.459  64.767  30.973  1.00  0.00     0.061 C 
ENDROOT
BRANCH   1   2
HETATM    2  C5  UNL     1      16.156  65.396  31.231  1.00  0.00    -0.048 A 
HETATM    3  C4  UNL     1      15.196  65.613  30.214  1.00  0.00     0.022 A 
HETATM    4  C3  UNL     1      13.969  66.238  30.523  1.00  0.00     0.003 A 
HETATM    5  C18 UNL     1      13.700  66.653  31.837  1.00  0.00     0.045 A 
HETATM    6  C17 UNL     1      14.621  66.451  32.808  1.00  0.00     0.025 A 
HETATM    7 CL1  UNL     1      12.163  67.513  32.102  1.00  0.00    -0.083 Cl
HETATM    8  C16 UNL     1      15.837  65.825  32.493  1.00  0.00     0.009 A 
BRANCH   4   9
HETATM    9  C2  UNL     1      12.834  66.296  29.595  1.00  0.00     0.120 C 
BRANCH   9  10
HETATM   10  N1  UNL     1      12.333  65.250  28.867  1.00  0.00    -0.272 N 
HETATM   11  C1  UNL     1      12.646  64.840  27.599  1.00  0.00     0.140 C 
BRANCH  10  12
HETATM   12  S1  UNL     1      11.307  64.152  29.702  1.00  0.00     0.231 S 
HETATM   13  C19 UNL     1       9.922  63.580  28.763  1.00  0.00     0.186 C 
HETATM   14  O3  UNL     1      12.098  62.898  30.095  1.00  0.00    -0.206 OA
HETATM   15  O4  UNL     1      10.795  64.703  31.001  1.00  0.00    -0.206 OA
ENDBRANCH  10  12
ENDBRANCH   9  10
ENDBRANCH   4   9
ENDBRANCH   1   2
BRANCH   1  16
HETATM   16  C7  UNL     1      17.384  63.674  29.900  1.00  0.00     0.127 C 
BRANCH  16  17
HETATM   17  C8  UNL     1      18.126  64.185  28.718  1.00  0.00     0.173 C 
HETATM   18  O1  UNL     1      18.599  65.333  28.623  1.00  0.00    -0.648 OA
HETATM   19  O2  UNL     1      18.332  63.328  27.598  1.00  0.00    -0.648 OA
ENDBRANCH  16  17
ENDBRANCH   1  16
BRANCH   1  20
HETATM   20  C9  UNL     1      18.313  64.262  32.070  1.00  0.00    -0.047 A 
HETATM   21  C10 UNL     1      19.209  65.093  32.786  1.00  0.00     0.010 A 
HETATM   22  C11 UNL     1      20.122  64.582  33.693  1.00  0.00     0.034 A 
HETATM   23  C12 UNL     1      20.224  63.243  33.960  1.00  0.00     0.076 A 
HETATM   24  C13 UNL     1      19.375  62.412  33.287  1.00  0.00     0.074 A 
HETATM   25  N4  UNL     1      21.018  62.484  34.746  1.00  0.00    -0.278 N 
HETATM   26  C14 UNL     1      18.447  62.936  32.366  1.00  0.00     0.040 A 
HETATM   27  N2  UNL     1      19.673  61.167  33.683  1.00  0.00    -0.282 N 
HETATM   28  N3  UNL     1      20.679  61.213  34.583  1.00  0.00    -0.020 NA
ATOM     29  H2  UNL     1      19.212  60.318  33.356  1.00  0.00     0.184 HD
HETATM   30  C15 UNL     1      22.092  62.980  35.622  1.00  0.00     0.175 C 
ENDBRANCH   1  20
TORSDOF 7
ENDMDL
