MODEL 3
REMARK VINA RESULT: -8.984789520      4.471      7.770
REMARK  7 active torsions:
REMARK  status: ('A' for Active; 'I' for Inactive)
REMARK    1  A    between atoms: N1_2  and  C2_3 
REMARK    2  A    between atoms: N1_2  and  S1_27 
REMARK    3  A    between atoms: C2_3  and  C3_4 
REMARK    4  A    between atoms: C5_6  and  C6_7 
REMARK    5  A    between atoms: C6_7  and  C7_8 
REMARK    6  A    between atoms: C6_7  and  C9_12 
REMARK    7  A    between atoms: C7_8  and  C8_9 
ROOT
HETATM    1  C6  UNL     1      17.511  64.851  31.165  1.00  0.00     0.061 C 
ENDROOT
BRANCH   1   2
HETATM    2  C5  UNL     1      16.122  65.328  31.240  1.00  0.00    -0.048 A 
HETATM    3  C4  UNL     1      15.162  65.047  30.240  1.00  0.00     0.022 A 
HETATM    4  C3  UNL     1      13.847  65.546  30.362  1.00  0.00     0.003 A 
HETATM    5  C18 UNL     1      13.492  66.330  31.472  1.00  0.00     0.045 A 
HETATM    6  C17 UNL     1      14.413  66.603  32.425  1.00  0.00     0.025 A 
HETATM    7 CL1  UNL     1      11.836  66.987  31.485  1.00  0.00    -0.083 Cl
HETATM    8  C16 UNL     1      15.716  66.098  32.298  1.00  0.00     0.009 A 
BRANCH   4   9
HETATM    9  C2  UNL     1      12.736  65.121  29.503  1.00  0.00     0.120 C 
BRANCH   9  10
HETATM   10  N1  UNL     1      12.322  63.832  29.299  1.00  0.00    -0.272 N 
HETATM   11  C1  UNL     1      11.249  63.166  29.827  1.00  0.00     0.140 C 
BRANCH  10  12
HETATM   12  S1  UNL     1      13.122  62.954  28.057  1.00  0.00     0.231 S 
HETATM   13  C19 UNL     1      13.785  63.955  26.759  1.00  0.00     0.186 C 
HETATM   14  O3  UNL     1      14.311  62.184  28.648  1.00  0.00    -0.206 OA
HETATM   15  O4  UNL     1      12.255  61.898  27.436  1.00  0.00    -0.206 OA
ENDBRANCH  10  12
ENDBRANCH   9  10
ENDBRANCH   4   9
ENDBRANCH   1   2
BRANCH   1  16
HETATM   16  C7  UNL     1      17.683  63.687  30.182  1.00  0.00     0.127 C 
BRANCH  16  17
HETATM   17  C8  UNL     1      18.243  64.263  28.932  1.00  0.00     0.173 C 
HETATM   18  O1  UNL     1      18.604  65.446  28.798  1.00  0.00    -0.648 OA
HETATM   19  O2  UNL     1      18.394  63.430  27.785  1.00  0.00    -0.648 OA
ENDBRANCH  16  17
ENDBRANCH   1  16
BRANCH   1  20
HETATM   20  C9  UNL     1      18.295  64.536  32.378  1.00  0.00    -0.047 A 
HETATM   21  C10 UNL     1      19.679  64.814  32.489  1.00  0.00     0.010 A 
HETATM   22  C11 UNL     1      20.438  64.365  33.556  1.00  0.00     0.034 A 
HETATM   23  C12 UNL     1      19.906  63.622  34.576  1.00  0.00     0.076 A 
HETATM   24  C13 UNL     1      18.573  63.335  34.503  1.00  0.00     0.074 A 
HETATM   25  N4  UNL     1      20.399  63.041  35.692  1.00  0.00    -0.278 N 
HETATM   26  C14 UNL     1      17.805  63.795  33.415  1.00  0.00     0.040 A 
HETATM   27  N2  UNL     1      18.288  62.587  35.578  1.00  0.00    -0.282 N 
HETATM   28  N3  UNL     1      19.409  62.411  36.309  1.00  0.00    -0.020 NA
ATOM     29  H2  UNL     1      17.368  62.210  35.807  1.00  0.00     0.184 HD
HETATM   30  C15 UNL     1      21.801  63.081  36.138  1.00  0.00     0.175 C 
ENDBRANCH   1  20
TORSDOF 7
ENDMDL
