MODEL 1
REMARK VINA RESULT: -9.243082089      0.000      0.000
REMARK  7 active torsions:
REMARK  status: ('A' for Active; 'I' for Inactive)
REMARK    1  A    between atoms: N1_2  and  C2_3 
REMARK    2  A    between atoms: N1_2  and  S1_27 
REMARK    3  A    between atoms: C2_3  and  C3_4 
REMARK    4  A    between atoms: C5_6  and  C6_7 
REMARK    5  A    between atoms: C6_7  and  C7_8 
REMARK    6  A    between atoms: C6_7  and  C9_12 
REMARK    7  A    between atoms: C7_8  and  C8_9 
ROOT
HETATM    1  C6  UNL     1      16.453  64.703  26.761  1.00  0.00     0.061 C 
ENDROOT
BRANCH   1   2
HETATM    2  C5  UNL     1      16.540  64.831  28.223  1.00  0.00    -0.048 A 
HETATM    3  C4  UNL     1      15.464  65.295  29.016  1.00  0.00     0.022 A 
HETATM    4  C3  UNL     1      15.616  65.410  30.414  1.00  0.00     0.003 A 
HETATM    5  C18 UNL     1      16.837  65.074  31.021  1.00  0.00     0.045 A 
HETATM    6  C17 UNL     1      17.867  64.636  30.261  1.00  0.00     0.025 A 
HETATM    7 CL1  UNL     1      16.954  65.342  32.778  1.00  0.00    -0.083 Cl
HETATM    8  C16 UNL     1      17.707  64.519  28.871  1.00  0.00     0.009 A 
BRANCH   4   9
HETATM    9  C2  UNL     1      14.498  65.658  31.332  1.00  0.00     0.120 C 
BRANCH   9  10
HETATM   10  N1  UNL     1      13.456  66.521  31.120  1.00  0.00    -0.272 N 
HETATM   11  C1  UNL     1      12.222  66.281  30.580  1.00  0.00     0.140 C 
BRANCH  10  12
HETATM   12  S1  UNL     1      13.608  68.094  31.798  1.00  0.00     0.231 S 
HETATM   13  C19 UNL     1      14.198  69.325  30.674  1.00  0.00     0.186 C 
HETATM   14  O3  UNL     1      12.238  68.584  32.283  1.00  0.00    -0.206 OA
HETATM   15  O4  UNL     1      14.478  68.122  33.020  1.00  0.00    -0.206 OA
ENDBRANCH  10  12
ENDBRANCH   9  10
ENDBRANCH   4   9
ENDBRANCH   1   2
BRANCH   1  16
HETATM   16  C7  UNL     1      16.646  66.042  26.039  1.00  0.00     0.127 C 
BRANCH  16  17
HETATM   17  C8  UNL     1      17.762  65.852  25.076  1.00  0.00     0.173 C 
HETATM   18  O1  UNL     1      18.706  65.057  25.238  1.00  0.00    -0.648 OA
HETATM   19  O2  UNL     1      17.783  66.612  23.872  1.00  0.00    -0.648 OA
ENDBRANCH  16  17
ENDBRANCH   1  16
BRANCH   1  20
HETATM   20  C9  UNL     1      15.332  63.996  26.105  1.00  0.00    -0.047 A 
HETATM   21  C10 UNL     1      14.510  64.607  25.127  1.00  0.00     0.010 A 
HETATM   22  C11 UNL     1      13.364  63.998  24.643  1.00  0.00     0.034 A 
HETATM   23  C12 UNL     1      12.947  62.767  25.074  1.00  0.00     0.076 A 
HETATM   24  C13 UNL     1      13.716  62.148  26.017  1.00  0.00     0.074 A 
HETATM   25  N4  UNL     1      11.888  61.970  24.809  1.00  0.00    -0.278 N 
HETATM   26  C14 UNL     1      14.881  62.771  26.506  1.00  0.00     0.040 A 
HETATM   27  N2  UNL     1      13.107  60.989  26.301  1.00  0.00    -0.282 N 
HETATM   28  N3  UNL     1      11.987  60.880  25.555  1.00  0.00    -0.020 NA
ATOM     29  H2  UNL     1      13.438  60.298  26.975  1.00  0.00     0.184 HD
HETATM   30  C15 UNL     1      10.797  62.271  23.867  1.00  0.00     0.175 C 
ENDBRANCH   1  20
TORSDOF 7
ENDMDL
