MODEL 4
REMARK VINA RESULT: -8.887021970      4.199      7.510
REMARK  7 active torsions:
REMARK  status: ('A' for Active; 'I' for Inactive)
REMARK    1  A    between atoms: N1_2  and  C2_3 
REMARK    2  A    between atoms: N1_2  and  S1_27 
REMARK    3  A    between atoms: C2_3  and  C3_4 
REMARK    4  A    between atoms: C5_6  and  C6_7 
REMARK    5  A    between atoms: C6_7  and  C7_8 
REMARK    6  A    between atoms: C6_7  and  C9_12 
REMARK    7  A    between atoms: C7_8  and  C8_9 
ROOT
HETATM    1  C6  UNL     1      17.415  64.791  30.857  1.00  0.00     0.061 C 
ENDROOT
BRANCH   1   2
HETATM    2  C5  UNL     1      16.125  65.424  31.165  1.00  0.00    -0.048 A 
HETATM    3  C4  UNL     1      15.151  65.698  30.176  1.00  0.00     0.022 A 
HETATM    4  C3  UNL     1      13.937  66.324  30.534  1.00  0.00     0.003 A 
HETATM    5  C18 UNL     1      13.697  66.683  31.870  1.00  0.00     0.045 A 
HETATM    6  C17 UNL     1      14.632  66.426  32.814  1.00  0.00     0.025 A 
HETATM    7 CL1  UNL     1      12.176  67.549  32.200  1.00  0.00    -0.083 Cl
HETATM    8  C16 UNL     1      15.834  65.800  32.451  1.00  0.00     0.009 A 
BRANCH   4   9
HETATM    9  C2  UNL     1      12.788  66.437  29.629  1.00  0.00     0.120 C 
BRANCH   9  10
HETATM   10  N1  UNL     1      12.246  65.425  28.882  1.00  0.00    -0.272 N 
HETATM   11  C1  UNL     1      12.467  65.095  27.572  1.00  0.00     0.140 C 
BRANCH  10  12
HETATM   12  S1  UNL     1      11.303  64.263  29.727  1.00  0.00     0.231 S 
HETATM   13  C19 UNL     1       9.973  63.573  28.790  1.00  0.00     0.186 C 
HETATM   14  O3  UNL     1      12.187  63.080  30.142  1.00  0.00    -0.206 OA
HETATM   15  O4  UNL     1      10.743  64.791  31.016  1.00  0.00    -0.206 OA
ENDBRANCH  10  12
ENDBRANCH   9  10
ENDBRANCH   4   9
ENDBRANCH   1   2
BRANCH   1  16
HETATM   16  C7  UNL     1      17.295  63.699  29.787  1.00  0.00     0.127 C 
BRANCH  16  17
HETATM   17  C8  UNL     1      18.070  64.168  28.609  1.00  0.00     0.173 C 
HETATM   18  O1  UNL     1      18.565  65.305  28.496  1.00  0.00    -0.648 OA
HETATM   19  O2  UNL     1      18.285  63.281  27.515  1.00  0.00    -0.648 OA
ENDBRANCH  16  17
ENDBRANCH   1  16
BRANCH   1  20
HETATM   20  C9  UNL     1      18.310  64.283  31.919  1.00  0.00    -0.047 A 
HETATM   21  C10 UNL     1      18.533  62.902  32.136  1.00  0.00     0.010 A 
HETATM   22  C11 UNL     1      19.235  62.432  33.234  1.00  0.00     0.034 A 
HETATM   23  C12 UNL     1      19.760  63.268  34.183  1.00  0.00     0.076 A 
HETATM   24  C13 UNL     1      19.565  64.607  34.006  1.00  0.00     0.074 A 
HETATM   25  N4  UNL     1      20.441  63.093  35.337  1.00  0.00    -0.278 N 
HETATM   26  C14 UNL     1      18.851  65.080  32.887  1.00  0.00     0.040 A 
HETATM   27  N2  UNL     1      20.134  65.215  35.056  1.00  0.00    -0.282 N 
HETATM   28  N3  UNL     1      20.675  64.283  35.870  1.00  0.00    -0.020 NA
ATOM     29  H2  UNL     1      20.155  66.222  35.215  1.00  0.00     0.184 HD
HETATM   30  C15 UNL     1      20.839  61.799  35.917  1.00  0.00     0.175 C 
ENDBRANCH   1  20
TORSDOF 7
ENDMDL
