MODEL 15
REMARK VINA RESULT: -9.402288448      3.786      7.605
REMARK  8 active torsions:
REMARK  status: ('A' for Active; 'I' for Inactive)
REMARK    1  A    between atoms: N1_2  and  C2_3 
REMARK    2  A    between atoms: N1_2  and  S1_28 
REMARK    3  A    between atoms: C2_3  and  C3_4 
REMARK    4  A    between atoms: C5_6  and  C6_7 
REMARK    5  A    between atoms: C6_7  and  C7_8 
REMARK    6  A    between atoms: C6_7  and  C9_12 
REMARK    7  A    between atoms: C7_8  and  C8_9 
REMARK    8  A    between atoms: S1_28  and  C19_31 
ROOT
HETATM    1  C3  UNL     1      15.801  64.646  30.309  1.00  0.00     0.002 A 
HETATM    2  C4  UNL     1      15.727  64.546  28.913  1.00  0.00     0.022 A 
HETATM    3  C5  UNL     1      16.829  64.428  28.113  1.00  0.00    -0.048 A 
HETATM    4  C16 UNL     1      18.072  64.414  28.748  1.00  0.00     0.009 A 
HETATM    5  C17 UNL     1      18.147  64.514  30.121  1.00  0.00     0.025 A 
HETATM    6  C18 UNL     1      17.025  64.628  30.914  1.00  0.00     0.045 A 
HETATM    7 CL1  UNL     1      17.211  64.753  32.671  1.00  0.00    -0.083 Cl
ENDROOT
BRANCH   3   8
HETATM    8  C6  UNL     1      16.725  64.266  26.646  1.00  0.00     0.061 C 
BRANCH   8   9
HETATM    9  C7  UNL     1      17.049  65.546  25.900  1.00  0.00     0.127 C 
BRANCH   9  10
HETATM   10  C8  UNL     1      17.733  65.269  24.612  1.00  0.00     0.173 C 
HETATM   11  O1  UNL     1      17.700  66.119  23.691  1.00  0.00    -0.648 OA
HETATM   12  O2  UNL     1      18.417  64.088  24.383  1.00  0.00    -0.648 OA
ENDBRANCH   9  10
ENDBRANCH   8   9
BRANCH   8  13
HETATM   13  C9  UNL     1      15.445  63.722  26.159  1.00  0.00    -0.047 A 
HETATM   14  C10 UNL     1      14.707  64.383  25.176  1.00  0.00     0.010 A 
HETATM   15  C11 UNL     1      13.529  63.869  24.696  1.00  0.00     0.034 A 
HETATM   16  C12 UNL     1      13.040  62.656  25.188  1.00  0.00     0.080 A 
HETATM   17  C13 UNL     1      13.739  61.984  26.148  1.00  0.00     0.078 A 
HETATM   18  N4  UNL     1      11.945  61.927  24.912  1.00  0.00    -0.280 N 
HETATM   19  C14 UNL     1      14.919  62.509  26.624  1.00  0.00     0.041 A 
HETATM   20  N2  UNL     1      13.022  60.854  26.418  1.00  0.00    -0.284 N 
HETATM   21  N3  UNL     1      11.937  60.848  25.652  1.00  0.00    -0.240 N 
ATOM     22  H2  UNL     1      13.278  60.135  27.095  1.00  0.00     0.188 HD
ATOM     23  H3  UNL     1      11.218  60.124  25.642  1.00  0.00     0.208 HD
HETATM   24  C15 UNL     1      10.937  62.325  23.946  1.00  0.00     0.179 C 
ENDBRANCH   8  13
ENDBRANCH   3   8
BRANCH   1  25
HETATM   25  C2  UNL     1      14.557  64.641  31.053  1.00  0.00     0.116 C 
BRANCH  25  26
HETATM   26  N1  UNL     1      13.937  65.863  31.371  1.00  0.00    -0.286 N 
HETATM   27  C1  UNL     1      14.613  67.069  31.362  1.00  0.00     0.169 C 
BRANCH  26  28
HETATM   28  S1  UNL     1      12.413  65.719  32.092  1.00  0.00     0.264 S 
HETATM   29  O3  UNL     1      12.444  66.182  33.519  1.00  0.00    -0.200 OA
HETATM   30  O4  UNL     1      12.122  64.217  32.190  1.00  0.00    -0.200 OA
BRANCH  28  31
HETATM   31  C19 UNL     1      11.131  66.504  31.215  1.00  0.00     0.080 A 
HETATM   32  C20 UNL     1      10.162  65.770  30.579  1.00  0.00     0.025 A 
HETATM   33  C21 UNL     1       9.131  66.421  29.885  1.00  0.00     0.002 A 
HETATM   34  C22 UNL     1       9.076  67.800  29.831  1.00  0.00     0.000 A 
HETATM   35  C23 UNL     1      10.051  68.521  30.470  1.00  0.00     0.002 A 
HETATM   36  C24 UNL     1      11.056  67.880  31.145  1.00  0.00     0.025 A 
ENDBRANCH  28  31
ENDBRANCH  26  28
ENDBRANCH  25  26
ENDBRANCH   1  25
TORSDOF 8
ENDMDL
