MODEL 3
REMARK VINA RESULT: -10.176077672      1.683      2.638
REMARK  8 active torsions:
REMARK  status: ('A' for Active; 'I' for Inactive)
REMARK    1  A    between atoms: N1_2  and  C2_3 
REMARK    2  A    between atoms: N1_2  and  S1_28 
REMARK    3  A    between atoms: C2_3  and  C3_4 
REMARK    4  A    between atoms: C5_6  and  C6_7 
REMARK    5  A    between atoms: C6_7  and  C7_8 
REMARK    6  A    between atoms: C6_7  and  C9_12 
REMARK    7  A    between atoms: C7_8  and  C8_9 
REMARK    8  A    between atoms: S1_28  and  C19_31 
ROOT
HETATM    1  C3  UNL     1      13.867  65.420  30.516  1.00  0.00     0.002 A 
HETATM    2  C4  UNL     1      15.184  64.993  30.296  1.00  0.00     0.022 A 
HETATM    3  C5  UNL     1      16.144  64.999  31.270  1.00  0.00    -0.048 A 
HETATM    4  C16 UNL     1      15.763  65.463  32.530  1.00  0.00     0.009 A 
HETATM    5  C17 UNL     1      14.468  65.885  32.748  1.00  0.00     0.025 A 
HETATM    6  C18 UNL     1      13.510  65.868  31.756  1.00  0.00     0.045 A 
HETATM    7 CL1  UNL     1      11.870  66.430  32.121  1.00  0.00    -0.083 Cl
ENDROOT
BRANCH   3   8
HETATM    8  C6  UNL     1      17.512  64.490  31.031  1.00  0.00     0.061 C 
BRANCH   8   9
HETATM    9  C7  UNL     1      17.540  63.363  30.016  1.00  0.00     0.127 C 
BRANCH   9  10
HETATM   10  C8  UNL     1      18.014  63.833  28.691  1.00  0.00     0.173 C 
HETATM   11  O1  UNL     1      18.112  63.024  27.738  1.00  0.00    -0.648 OA
HETATM   12  O2  UNL     1      18.360  65.154  28.460  1.00  0.00    -0.648 OA
ENDBRANCH   9  10
ENDBRANCH   8   9
BRANCH   8  13
HETATM   13  C9  UNL     1      18.256  64.086  32.237  1.00  0.00    -0.047 A 
HETATM   14  C10 UNL     1      18.491  62.741  32.523  1.00  0.00     0.010 A 
HETATM   15  C11 UNL     1      19.207  62.358  33.628  1.00  0.00     0.034 A 
HETATM   16  C12 UNL     1      19.725  63.320  34.500  1.00  0.00     0.080 A 
HETATM   17  C13 UNL     1      19.514  64.644  34.246  1.00  0.00     0.078 A 
HETATM   18  N4  UNL     1      20.448  63.242  35.629  1.00  0.00    -0.280 N 
HETATM   19  C14 UNL     1      18.793  65.019  33.136  1.00  0.00     0.041 A 
HETATM   20  N2  UNL     1      20.131  65.326  35.255  1.00  0.00    -0.284 N 
HETATM   21  N3  UNL     1      20.689  64.447  36.081  1.00  0.00    -0.240 N 
ATOM     22  H2  UNL     1      20.159  66.341  35.357  1.00  0.00     0.188 HD
ATOM     23  H3  UNL     1      21.217  64.673  36.924  1.00  0.00     0.208 HD
HETATM   24  C15 UNL     1      20.860  61.990  36.236  1.00  0.00     0.179 C 
ENDBRANCH   8  13
ENDBRANCH   3   8
BRANCH   1  25
HETATM   25  C2  UNL     1      12.913  65.248  29.439  1.00  0.00     0.116 C 
BRANCH  25  26
HETATM   26  N1  UNL     1      12.955  64.077  28.660  1.00  0.00    -0.286 N 
HETATM   27  C1  UNL     1      13.752  63.953  27.539  1.00  0.00     0.169 C 
BRANCH  26  28
HETATM   28  S1  UNL     1      11.720  62.965  28.984  1.00  0.00     0.264 S 
HETATM   29  O3  UNL     1      11.398  62.925  30.448  1.00  0.00    -0.200 OA
HETATM   30  O4  UNL     1      12.300  61.577  28.687  1.00  0.00    -0.200 OA
BRANCH  28  31
HETATM   31  C19 UNL     1      10.278  63.207  28.039  1.00  0.00     0.080 A 
HETATM   32  C20 UNL     1      10.329  63.219  26.668  1.00  0.00     0.025 A 
HETATM   33  C21 UNL     1       9.155  63.405  25.924  1.00  0.00     0.002 A 
HETATM   34  C22 UNL     1       7.938  63.577  26.555  1.00  0.00     0.000 A 
HETATM   35  C23 UNL     1       7.901  63.563  27.924  1.00  0.00     0.002 A 
HETATM   36  C24 UNL     1       9.052  63.382  28.646  1.00  0.00     0.025 A 
ENDBRANCH  28  31
ENDBRANCH  26  28
ENDBRANCH  25  26
ENDBRANCH   1  25
TORSDOF 8
ENDMDL
