MODEL 1
REMARK VINA RESULT: -10.244066986      0.000      0.000
REMARK  8 active torsions:
REMARK  status: ('A' for Active; 'I' for Inactive)
REMARK    1  A    between atoms: N1_2  and  C2_3 
REMARK    2  A    between atoms: N1_2  and  S1_28 
REMARK    3  A    between atoms: C2_3  and  C3_4 
REMARK    4  A    between atoms: C5_6  and  C6_7 
REMARK    5  A    between atoms: C6_7  and  C7_8 
REMARK    6  A    between atoms: C6_7  and  C9_12 
REMARK    7  A    between atoms: C7_8  and  C8_9 
REMARK    8  A    between atoms: S1_28  and  C19_31 
ROOT
HETATM    1  C3  UNL     1      13.673  65.138  30.319  1.00  0.00     0.002 A 
HETATM    2  C4  UNL     1      15.018  64.787  30.134  1.00  0.00     0.022 A 
HETATM    3  C5  UNL     1      15.971  64.947  31.099  1.00  0.00    -0.048 A 
HETATM    4  C16 UNL     1      15.554  65.493  32.315  1.00  0.00     0.009 A 
HETATM    5  C17 UNL     1      14.233  65.840  32.499  1.00  0.00     0.025 A 
HETATM    6  C18 UNL     1      13.282  65.667  31.515  1.00  0.00     0.045 A 
HETATM    7 CL1  UNL     1      11.605  66.142  31.834  1.00  0.00    -0.083 Cl
ENDROOT
BRANCH   3   8
HETATM    8  C6  UNL     1      17.373  64.518  30.902  1.00  0.00     0.061 C 
BRANCH   8   9
HETATM    9  C7  UNL     1      17.498  63.416  29.867  1.00  0.00     0.127 C 
BRANCH   9  10
HETATM   10  C8  UNL     1      18.105  63.916  28.608  1.00  0.00     0.173 C 
HETATM   11  O1  UNL     1      18.428  63.109  27.705  1.00  0.00    -0.648 OA
HETATM   12  O2  UNL     1      18.334  65.264  28.388  1.00  0.00    -0.648 OA
ENDBRANCH   9  10
ENDBRANCH   8   9
BRANCH   8  13
HETATM   13  C9  UNL     1      18.093  64.127  32.128  1.00  0.00    -0.047 A 
HETATM   14  C10 UNL     1      18.248  62.785  32.477  1.00  0.00     0.010 A 
HETATM   15  C11 UNL     1      18.942  62.412  33.600  1.00  0.00     0.034 A 
HETATM   16  C12 UNL     1      19.516  63.382  34.426  1.00  0.00     0.080 A 
HETATM   17  C13 UNL     1      19.384  64.703  34.110  1.00  0.00     0.078 A 
HETATM   18  N4  UNL     1      20.235  63.315  35.559  1.00  0.00    -0.280 N 
HETATM   19  C14 UNL     1      18.685  65.067  32.982  1.00  0.00     0.041 A 
HETATM   20  N2  UNL     1      20.041  65.394  35.087  1.00  0.00    -0.284 N 
HETATM   21  N3  UNL     1      20.547  64.523  35.954  1.00  0.00    -0.240 N 
ATOM     22  H2  UNL     1      20.129  66.408  35.142  1.00  0.00     0.188 HD
ATOM     23  H3  UNL     1      21.088  64.757  36.787  1.00  0.00     0.208 HD
HETATM   24  C15 UNL     1      20.572  62.070  36.225  1.00  0.00     0.179 C 
ENDBRANCH   8  13
ENDBRANCH   3   8
BRANCH   1  25
HETATM   25  C2  UNL     1      12.737  64.803  29.265  1.00  0.00     0.116 C 
BRANCH  25  26
HETATM   26  N1  UNL     1      12.226  63.494  29.185  1.00  0.00    -0.286 N 
HETATM   27  C1  UNL     1      11.348  62.975  30.118  1.00  0.00     0.169 C 
BRANCH  26  28
HETATM   28  S1  UNL     1      13.018  62.490  28.075  1.00  0.00     0.264 S 
HETATM   29  O3  UNL     1      12.118  61.385  27.608  1.00  0.00    -0.200 OA
HETATM   30  O4  UNL     1      14.124  61.771  28.856  1.00  0.00    -0.200 OA
BRANCH  28  31
HETATM   31  C19 UNL     1      13.716  63.334  26.722  1.00  0.00     0.080 A 
HETATM   32  C20 UNL     1      12.923  63.836  25.721  1.00  0.00     0.025 A 
HETATM   33  C21 UNL     1      13.503  64.522  24.644  1.00  0.00     0.002 A 
HETATM   34  C22 UNL     1      14.871  64.703  24.575  1.00  0.00     0.000 A 
HETATM   35  C23 UNL     1      15.651  64.196  25.581  1.00  0.00     0.002 A 
HETATM   36  C24 UNL     1      15.079  63.525  26.631  1.00  0.00     0.025 A 
ENDBRANCH  28  31
ENDBRANCH  26  28
ENDBRANCH  25  26
ENDBRANCH   1  25
TORSDOF 8
ENDMDL
