MODEL 10
REMARK VINA RESULT: -9.617019726      3.847      7.323
REMARK  8 active torsions:
REMARK  status: ('A' for Active; 'I' for Inactive)
REMARK    1  A    between atoms: N1_2  and  C2_3 
REMARK    2  A    between atoms: N1_2  and  S1_28 
REMARK    3  A    between atoms: C2_3  and  C3_4 
REMARK    4  A    between atoms: C5_6  and  C6_7 
REMARK    5  A    between atoms: C6_7  and  C7_8 
REMARK    6  A    between atoms: C6_7  and  C9_12 
REMARK    7  A    between atoms: C7_8  and  C8_9 
REMARK    8  A    between atoms: S1_28  and  C19_31 
ROOT
HETATM    1  C3  UNL     1      15.760  64.748  30.335  1.00  0.00     0.002 A 
HETATM    2  C4  UNL     1      15.648  64.623  28.943  1.00  0.00     0.022 A 
HETATM    3  C5  UNL     1      16.725  64.453  28.119  1.00  0.00    -0.048 A 
HETATM    4  C16 UNL     1      17.982  64.412  28.724  1.00  0.00     0.009 A 
HETATM    5  C17 UNL     1      18.095  64.536  30.093  1.00  0.00     0.025 A 
HETATM    6  C18 UNL     1      16.997  64.702  30.910  1.00  0.00     0.045 A 
HETATM    7 CL1  UNL     1      17.231  64.855  32.660  1.00  0.00    -0.083 Cl
ENDROOT
BRANCH   3   8
HETATM    8  C6  UNL     1      16.579  64.266  26.659  1.00  0.00     0.061 C 
BRANCH   8   9
HETATM    9  C7  UNL     1      16.865  65.538  25.883  1.00  0.00     0.127 C 
BRANCH   9  10
HETATM   10  C8  UNL     1      17.645  65.262  24.651  1.00  0.00     0.173 C 
HETATM   11  O1  UNL     1      17.771  66.152  23.777  1.00  0.00    -0.648 OA
HETATM   12  O2  UNL     1      18.249  64.037  24.423  1.00  0.00    -0.648 OA
ENDBRANCH   9  10
ENDBRANCH   8   9
BRANCH   8  13
HETATM   13  C9  UNL     1      15.291  63.699  26.220  1.00  0.00    -0.047 A 
HETATM   14  C10 UNL     1      14.460  64.394  25.339  1.00  0.00     0.010 A 
HETATM   15  C11 UNL     1      13.274  63.860  24.902  1.00  0.00     0.034 A 
HETATM   16  C12 UNL     1      12.870  62.594  25.335  1.00  0.00     0.080 A 
HETATM   17  C13 UNL     1      13.663  61.890  26.194  1.00  0.00     0.078 A 
HETATM   18  N4  UNL     1      11.791  61.838  25.079  1.00  0.00    -0.280 N 
HETATM   19  C14 UNL     1      14.850  62.434  26.628  1.00  0.00     0.041 A 
HETATM   20  N2  UNL     1      13.013  60.712  26.428  1.00  0.00    -0.284 N 
HETATM   21  N3  UNL     1      11.878  60.710  25.737  1.00  0.00    -0.240 N 
ATOM     22  H2  UNL     1      13.345  59.959  27.032  1.00  0.00     0.188 HD
ATOM     23  H3  UNL     1      11.191  59.955  25.722  1.00  0.00     0.208 HD
HETATM   24  C15 UNL     1      10.701  62.255  24.215  1.00  0.00     0.179 C 
ENDBRANCH   8  13
ENDBRANCH   3   8
BRANCH   1  25
HETATM   25  C2  UNL     1      14.536  64.798  31.109  1.00  0.00     0.116 C 
BRANCH  25  26
HETATM   26  N1  UNL     1      13.642  65.868  30.920  1.00  0.00    -0.286 N 
HETATM   27  C1  UNL     1      14.064  67.157  30.654  1.00  0.00     0.169 C 
BRANCH  26  28
HETATM   28  S1  UNL     1      12.043  65.547  31.377  1.00  0.00     0.264 S 
HETATM   29  O3  UNL     1      11.352  66.796  31.837  1.00  0.00    -0.200 OA
HETATM   30  O4  UNL     1      12.121  64.673  32.634  1.00  0.00    -0.200 OA
BRANCH  28  31
HETATM   31  C19 UNL     1      11.104  64.731  30.160  1.00  0.00     0.080 A 
HETATM   32  C20 UNL     1      11.659  63.741  29.389  1.00  0.00     0.025 A 
HETATM   33  C21 UNL     1      10.883  63.089  28.420  1.00  0.00     0.002 A 
HETATM   34  C22 UNL     1       9.558  63.429  28.228  1.00  0.00     0.000 A 
HETATM   35  C23 UNL     1       9.016  64.420  29.004  1.00  0.00     0.002 A 
HETATM   36  C24 UNL     1       9.780  65.055  29.949  1.00  0.00     0.025 A 
ENDBRANCH  28  31
ENDBRANCH  26  28
ENDBRANCH  25  26
ENDBRANCH   1  25
TORSDOF 8
ENDMDL
