MODEL 2
REMARK VINA RESULT: -10.204750662      0.601      1.032
REMARK  8 active torsions:
REMARK  status: ('A' for Active; 'I' for Inactive)
REMARK    1  A    between atoms: N1_2  and  C2_3 
REMARK    2  A    between atoms: N1_2  and  S1_28 
REMARK    3  A    between atoms: C2_3  and  C3_4 
REMARK    4  A    between atoms: C5_6  and  C6_7 
REMARK    5  A    between atoms: C6_7  and  C7_8 
REMARK    6  A    between atoms: C6_7  and  C9_12 
REMARK    7  A    between atoms: C7_8  and  C8_9 
REMARK    8  A    between atoms: S1_28  and  C19_31 
ROOT
HETATM    1  C3  UNL     1      13.585  65.189  30.471  1.00  0.00     0.002 A 
HETATM    2  C4  UNL     1      14.933  64.876  30.249  1.00  0.00     0.022 A 
HETATM    3  C5  UNL     1      15.906  65.053  31.192  1.00  0.00    -0.048 A 
HETATM    4  C16 UNL     1      15.506  65.576  32.423  1.00  0.00     0.009 A 
HETATM    5  C17 UNL     1      14.180  65.885  32.644  1.00  0.00     0.025 A 
HETATM    6  C18 UNL     1      13.209  65.696  31.682  1.00  0.00     0.045 A 
HETATM    7 CL1  UNL     1      11.529  66.121  32.047  1.00  0.00    -0.083 Cl
ENDROOT
BRANCH   3   8
HETATM    8  C6  UNL     1      17.314  64.664  30.956  1.00  0.00     0.061 C 
BRANCH   8   9
HETATM    9  C7  UNL     1      17.448  63.625  29.859  1.00  0.00     0.127 C 
BRANCH   9  10
HETATM   10  C8  UNL     1      18.105  64.187  28.652  1.00  0.00     0.173 C 
HETATM   11  O1  UNL     1      19.001  63.535  28.066  1.00  0.00    -0.648 OA
HETATM   12  O2  UNL     1      17.762  65.427  28.139  1.00  0.00    -0.648 OA
ENDBRANCH   9  10
ENDBRANCH   8   9
BRANCH   8  13
HETATM   13  C9  UNL     1      18.056  64.220  32.149  1.00  0.00    -0.047 A 
HETATM   14  C10 UNL     1      18.260  62.864  32.409  1.00  0.00     0.010 A 
HETATM   15  C11 UNL     1      18.974  62.443  33.502  1.00  0.00     0.034 A 
HETATM   16  C12 UNL     1      19.521  63.377  34.387  1.00  0.00     0.080 A 
HETATM   17  C13 UNL     1      19.341  64.710  34.159  1.00  0.00     0.078 A 
HETATM   18  N4  UNL     1      20.250  63.261  35.509  1.00  0.00    -0.280 N 
HETATM   19  C14 UNL     1      18.621  65.122  33.061  1.00  0.00     0.041 A 
HETATM   20  N2  UNL     1      19.981  65.358  35.175  1.00  0.00    -0.284 N 
HETATM   21  N3  UNL     1      20.523  64.451  35.981  1.00  0.00    -0.240 N 
ATOM     22  H2  UNL     1      20.034  66.370  35.296  1.00  0.00     0.188 HD
ATOM     23  H3  UNL     1      21.062  64.649  36.825  1.00  0.00     0.208 HD
HETATM   24  C15 UNL     1      20.635  61.988  36.091  1.00  0.00     0.179 C 
ENDBRANCH   8  13
ENDBRANCH   3   8
BRANCH   1  25
HETATM   25  C2  UNL     1      12.632  64.839  29.437  1.00  0.00     0.116 C 
BRANCH  25  26
HETATM   26  N1  UNL     1      12.151  63.519  29.359  1.00  0.00    -0.286 N 
HETATM   27  C1  UNL     1      11.864  62.760  30.478  1.00  0.00     0.169 C 
BRANCH  26  28
HETATM   28  S1  UNL     1      12.275  62.807  27.828  1.00  0.00     0.264 S 
HETATM   29  O3  UNL     1      11.032  63.041  27.021  1.00  0.00    -0.200 OA
HETATM   30  O4  UNL     1      12.297  61.292  28.056  1.00  0.00    -0.200 OA
BRANCH  28  31
HETATM   31  C19 UNL     1      13.692  63.281  26.934  1.00  0.00     0.080 A 
HETATM   32  C20 UNL     1      14.860  62.570  27.040  1.00  0.00     0.025 A 
HETATM   33  C21 UNL     1      15.988  62.962  26.304  1.00  0.00     0.002 A 
HETATM   34  C22 UNL     1      15.941  64.060  25.468  1.00  0.00     0.000 A 
HETATM   35  C23 UNL     1      14.768  64.762  25.372  1.00  0.00     0.002 A 
HETATM   36  C24 UNL     1      13.669  64.375  26.094  1.00  0.00     0.025 A 
ENDBRANCH  28  31
ENDBRANCH  26  28
ENDBRANCH  25  26
ENDBRANCH   1  25
TORSDOF 8
ENDMDL
