MODEL 2
REMARK VINA RESULT: -10.665864041      1.175      1.664
REMARK  7 active torsions:
REMARK  status: ('A' for Active; 'I' for Inactive)
REMARK    1  A    between atoms: O1_2  and  C2_3 
REMARK    2  A    between atoms: C4_5  and  C5_6 
REMARK    3  A    between atoms: C5_6  and  C6_7 
REMARK    4  A    between atoms: C5_6  and  C8_11 
REMARK    5  A    between atoms: C6_7  and  C7_8 
REMARK    6  A    between atoms: C13_16  and  C14_17 
REMARK    7  A    between atoms: C14_17  and  N1_18 
ROOT
HETATM    1  C8  UNL     1      16.088  64.990  31.330  1.00  0.00    -0.048 A 
HETATM    2  C9  UNL     1      15.914  65.968  32.303  1.00  0.00     0.008 A 
HETATM    3  C10 UNL     1      14.631  66.402  32.643  1.00  0.00     0.008 A 
HETATM    4  C11 UNL     1      13.546  65.877  32.034  1.00  0.00    -0.050 A 
HETATM    5  C12 UNL     1      12.166  66.383  32.332  1.00  0.00     0.049 C 
HETATM    6  C13 UNL     1      13.647  64.893  31.059  1.00  0.00    -0.013 A 
HETATM    7  C24 UNL     1      14.916  64.482  30.735  1.00  0.00     0.021 A 
ENDROOT
BRANCH   1   8
HETATM    8  C5  UNL     1      17.394  64.512  30.979  1.00  0.00     0.061 C 
BRANCH   8   9
HETATM    9  C4  UNL     1      18.244  63.870  32.011  1.00  0.00    -0.044 A 
HETATM   10  C3  UNL     1      17.666  63.525  33.244  1.00  0.00     0.047 A 
HETATM   11  C2  UNL     1      18.512  63.253  34.303  1.00  0.00     0.099 A 
HETATM   12  C28 UNL     1      19.938  63.313  34.153  1.00  0.00     0.113 A 
HETATM   13  C26 UNL     1      20.423  63.631  32.943  1.00  0.00     0.081 A 
HETATM   14  N4  UNL     1      20.937  63.114  35.025  1.00  0.00    -0.277 N 
HETATM   15  C25 UNL     1      19.632  63.913  31.858  1.00  0.00     0.041 A 
HETATM   16  N2  UNL     1      21.809  63.614  33.073  1.00  0.00    -0.284 N 
HETATM   17  N3  UNL     1      22.049  63.294  34.355  1.00  0.00    -0.240 N 
ATOM     18  H2  UNL     1      22.499  63.806  32.346  1.00  0.00     0.188 HD
ATOM     19  H3  UNL     1      22.982  63.202  34.757  1.00  0.00     0.208 HD
HETATM   20  C27 UNL     1      20.851  62.804  36.456  1.00  0.00     0.179 C 
BRANCH  11  21
HETATM   21  O1  UNL     1      18.161  62.937  35.578  1.00  0.00    -0.353 OA
HETATM   22  C1  UNL     1      17.440  61.836  36.033  1.00  0.00     0.210 C 
ENDBRANCH  11  21
ENDBRANCH   8   9
BRANCH   8  23
HETATM   23  C6  UNL     1      17.362  63.569  29.777  1.00  0.00     0.127 C 
BRANCH  23  24
HETATM   24  C7  UNL     1      18.056  64.165  28.628  1.00  0.00     0.173 C 
HETATM   25  O2  UNL     1      18.837  63.401  27.937  1.00  0.00    -0.648 OA
HETATM   26  O3  UNL     1      17.968  65.451  28.191  1.00  0.00    -0.648 OA
ENDBRANCH  23  24
ENDBRANCH   8  23
ENDBRANCH   1   8
BRANCH   6  27
HETATM   27  C14 UNL     1      12.446  64.191  30.677  1.00  0.00     0.120 C 
BRANCH  27  28
HETATM   28  N1  UNL     1      11.807  64.230  29.424  1.00  0.00    -0.258 N 
HETATM   29  C15 UNL     1      11.680  65.572  28.933  1.00  0.00     0.113 C 
HETATM   30  C16 UNL     1      11.747  65.870  27.521  1.00  0.00     0.164 C 
HETATM   31  C17 UNL     1      11.386  67.390  27.369  1.00  0.00     0.046 C 
HETATM   32  O4  UNL     1      12.980  65.727  26.846  1.00  0.00    -0.340 OA
HETATM   33  C18 UNL     1      13.769  64.580  26.825  1.00  0.00     0.093 A 
HETATM   34  C19 UNL     1      14.963  64.748  26.153  1.00  0.00     0.038 A 
HETATM   35  C23 UNL     1      13.458  63.367  27.402  1.00  0.00     0.113 A 
HETATM   36  C20 UNL     1      15.845  63.671  26.066  1.00  0.00     0.003 A 
HETATM   37  C21 UNL     1      15.539  62.443  26.643  1.00  0.00     0.002 A 
HETATM   38  C22 UNL     1      14.344  62.310  27.305  1.00  0.00     0.028 A 
HETATM   39  S1  UNL     1      11.998  63.022  28.310  1.00  0.00     0.270 S 
HETATM   40  O5  UNL     1      12.058  61.682  28.919  1.00  0.00    -0.200 OA
HETATM   41  O6  UNL     1      10.815  63.003  27.339  1.00  0.00    -0.200 OA
ENDBRANCH  27  28
ENDBRANCH   6  27
TORSDOF 7
ENDMDL
