MODEL 4
REMARK VINA RESULT: -10.507683860      1.065      1.466
REMARK  7 active torsions:
REMARK  status: ('A' for Active; 'I' for Inactive)
REMARK    1  A    between atoms: O1_2  and  C2_3 
REMARK    2  A    between atoms: C4_5  and  C5_6 
REMARK    3  A    between atoms: C5_6  and  C6_7 
REMARK    4  A    between atoms: C5_6  and  C8_11 
REMARK    5  A    between atoms: C6_7  and  C7_8 
REMARK    6  A    between atoms: C13_16  and  C14_17 
REMARK    7  A    between atoms: C14_17  and  N1_18 
ROOT
HETATM    1  C8  UNL     1      15.847  64.991  31.154  1.00  0.00    -0.048 A 
HETATM    2  C9  UNL     1      15.503  66.169  31.809  1.00  0.00     0.008 A 
HETATM    3  C10 UNL     1      14.160  66.490  32.021  1.00  0.00     0.008 A 
HETATM    4  C11 UNL     1      13.182  65.661  31.595  1.00  0.00    -0.050 A 
HETATM    5  C12 UNL     1      11.735  66.024  31.748  1.00  0.00     0.049 C 
HETATM    6  C13 UNL     1      13.455  64.466  30.942  1.00  0.00    -0.013 A 
HETATM    7  C24 UNL     1      14.780  64.170  30.738  1.00  0.00     0.021 A 
ENDROOT
BRANCH   1   8
HETATM    8  C5  UNL     1      17.218  64.629  30.944  1.00  0.00     0.061 C 
BRANCH   8   9
HETATM    9  C4  UNL     1      18.074  64.283  32.106  1.00  0.00    -0.044 A 
HETATM   10  C3  UNL     1      19.031  63.265  31.962  1.00  0.00     0.047 A 
HETATM   11  C2  UNL     1      19.574  62.719  33.109  1.00  0.00     0.099 A 
HETATM   12  C28 UNL     1      19.184  63.178  34.411  1.00  0.00     0.113 A 
HETATM   13  C26 UNL     1      18.280  64.167  34.476  1.00  0.00     0.081 A 
HETATM   14  N4  UNL     1      19.553  62.793  35.642  1.00  0.00    -0.277 N 
HETATM   15  C25 UNL     1      17.705  64.744  33.372  1.00  0.00     0.041 A 
HETATM   16  N2  UNL     1      18.087  64.418  35.832  1.00  0.00    -0.284 N 
HETATM   17  N3  UNL     1      18.888  63.554  36.477  1.00  0.00    -0.240 N 
ATOM     18  H2  UNL     1      17.467  65.112  36.248  1.00  0.00     0.188 HD
ATOM     19  H3  UNL     1      18.968  63.497  37.492  1.00  0.00     0.208 HD
HETATM   20  C27 UNL     1      20.472  61.717  36.024  1.00  0.00     0.179 C 
BRANCH  11  21
HETATM   21  O1  UNL     1      20.481  61.708  33.191  1.00  0.00    -0.353 OA
HETATM   22  C1  UNL     1      21.794  61.679  32.728  1.00  0.00     0.210 C 
ENDBRANCH  11  21
ENDBRANCH   8   9
BRANCH   8  23
HETATM   23  C6  UNL     1      17.370  63.500  29.926  1.00  0.00     0.127 C 
BRANCH  23  24
HETATM   24  C7  UNL     1      17.940  64.003  28.670  1.00  0.00     0.173 C 
HETATM   25  O2  UNL     1      18.171  63.146  27.730  1.00  0.00    -0.648 OA
HETATM   26  O3  UNL     1      18.257  65.292  28.370  1.00  0.00    -0.648 OA
ENDBRANCH  23  24
ENDBRANCH   8  23
ENDBRANCH   1   8
BRANCH   6  27
HETATM   27  C14 UNL     1      12.379  63.518  30.784  1.00  0.00     0.120 C 
BRANCH  27  28
HETATM   28  N1  UNL     1      11.931  62.940  29.582  1.00  0.00    -0.258 N 
HETATM   29  C15 UNL     1      10.636  63.429  29.208  1.00  0.00     0.113 C 
HETATM   30  C16 UNL     1      10.263  63.594  27.822  1.00  0.00     0.164 C 
HETATM   31  C17 UNL     1       8.737  63.964  27.813  1.00  0.00     0.046 C 
HETATM   32  O4  UNL     1      10.880  64.610  27.059  1.00  0.00    -0.340 OA
HETATM   33  C18 UNL     1      12.251  64.788  26.898  1.00  0.00     0.093 A 
HETATM   34  C19 UNL     1      12.577  65.911  26.164  1.00  0.00     0.038 A 
HETATM   35  C23 UNL     1      13.242  63.969  27.397  1.00  0.00     0.113 A 
HETATM   36  C20 UNL     1      13.921  66.201  25.936  1.00  0.00     0.003 A 
HETATM   37  C21 UNL     1      14.928  65.381  26.434  1.00  0.00     0.002 A 
HETATM   38  C22 UNL     1      14.571  64.272  27.160  1.00  0.00     0.028 A 
HETATM   39  S1  UNL     1      12.977  62.533  28.368  1.00  0.00     0.270 S 
HETATM   40  O5  UNL     1      14.253  61.988  28.864  1.00  0.00    -0.200 OA
HETATM   41  O6  UNL     1      12.362  61.451  27.477  1.00  0.00    -0.200 OA
ENDBRANCH  27  28
ENDBRANCH   6  27
TORSDOF 7
ENDMDL
