MODEL 1
REMARK VINA RESULT: -11.068395309      0.000      0.000
REMARK  7 active torsions:
REMARK  status: ('A' for Active; 'I' for Inactive)
REMARK    1  A    between atoms: O1_2  and  C2_3 
REMARK    2  A    between atoms: C4_5  and  C5_6 
REMARK    3  A    between atoms: C5_6  and  C6_7 
REMARK    4  A    between atoms: C5_6  and  C8_11 
REMARK    5  A    between atoms: C6_7  and  C7_8 
REMARK    6  A    between atoms: C13_16  and  C14_17 
REMARK    7  A    between atoms: C14_17  and  N1_18 
ROOT
HETATM    1  C8  UNL     1      15.792  65.183  31.258  1.00  0.00    -0.048 A 
HETATM    2  C9  UNL     1      15.483  66.164  32.194  1.00  0.00     0.008 A 
HETATM    3  C10 UNL     1      14.152  66.510  32.437  1.00  0.00     0.008 A 
HETATM    4  C11 UNL     1      13.151  65.896  31.769  1.00  0.00    -0.050 A 
HETATM    5  C12 UNL     1      11.721  66.306  31.963  1.00  0.00     0.049 C 
HETATM    6  C13 UNL     1      13.388  64.904  30.827  1.00  0.00    -0.013 A 
HETATM    7  C24 UNL     1      14.703  64.581  30.597  1.00  0.00     0.021 A 
ENDROOT
BRANCH   1   8
HETATM    8  C5  UNL     1      17.149  64.796  31.006  1.00  0.00     0.061 C 
BRANCH   8   9
HETATM    9  C4  UNL     1      18.018  64.384  32.136  1.00  0.00    -0.044 A 
HETATM   10  C3  UNL     1      18.947  63.350  31.932  1.00  0.00     0.047 A 
HETATM   11  C2  UNL     1      19.499  62.746  33.046  1.00  0.00     0.099 A 
HETATM   12  C28 UNL     1      19.145  63.162  34.373  1.00  0.00     0.113 A 
HETATM   13  C26 UNL     1      18.266  64.169  34.494  1.00  0.00     0.081 A 
HETATM   14  N4  UNL     1      19.527  62.720  35.580  1.00  0.00    -0.277 N 
HETATM   15  C25 UNL     1      17.685  64.802  33.426  1.00  0.00     0.041 A 
HETATM   16  N2  UNL     1      18.106  64.370  35.863  1.00  0.00    -0.284 N 
HETATM   17  N3  UNL     1      18.897  63.462  36.458  1.00  0.00    -0.240 N 
ATOM     18  H2  UNL     1      17.511  65.062  36.319  1.00  0.00     0.188 HD
ATOM     19  H3  UNL     1      18.995  63.363  37.468  1.00  0.00     0.208 HD
HETATM   20  C27 UNL     1      20.427  61.607  35.901  1.00  0.00     0.179 C 
BRANCH  11  21
HETATM   21  O1  UNL     1      20.382  61.712  33.070  1.00  0.00    -0.353 OA
HETATM   22  C1  UNL     1      21.716  61.699  32.673  1.00  0.00     0.210 C 
ENDBRANCH  11  21
ENDBRANCH   8   9
BRANCH   8  23
HETATM   23  C6  UNL     1      17.252  63.703  29.942  1.00  0.00     0.127 C 
BRANCH  23  24
HETATM   24  C7  UNL     1      17.948  64.201  28.748  1.00  0.00     0.173 C 
HETATM   25  O2  UNL     1      18.764  63.397  28.151  1.00  0.00    -0.648 OA
HETATM   26  O3  UNL     1      17.828  65.432  28.181  1.00  0.00    -0.648 OA
ENDBRANCH  23  24
ENDBRANCH   8  23
ENDBRANCH   1   8
BRANCH   6  27
HETATM   27  C14 UNL     1      12.269  64.110  30.381  1.00  0.00     0.120 C 
BRANCH  27  28
HETATM   28  N1  UNL     1      11.705  64.092  29.092  1.00  0.00    -0.258 N 
HETATM   29  C15 UNL     1      11.541  65.416  28.565  1.00  0.00     0.113 C 
HETATM   30  C16 UNL     1      11.679  65.689  27.154  1.00  0.00     0.164 C 
HETATM   31  C17 UNL     1      11.252  67.185  26.946  1.00  0.00     0.046 C 
HETATM   32  O4  UNL     1      12.955  65.596  26.555  1.00  0.00    -0.340 OA
HETATM   33  C18 UNL     1      13.800  64.491  26.607  1.00  0.00     0.093 A 
HETATM   34  C19 UNL     1      15.023  64.706  26.002  1.00  0.00     0.038 A 
HETATM   35  C23 UNL     1      13.516  63.275  27.191  1.00  0.00     0.113 A 
HETATM   36  C20 UNL     1      15.960  63.674  25.992  1.00  0.00     0.003 A 
HETATM   37  C21 UNL     1      15.682  62.444  26.577  1.00  0.00     0.002 A 
HETATM   38  C22 UNL     1      14.458  62.262  27.171  1.00  0.00     0.028 A 
HETATM   39  S1  UNL     1      12.023  62.874  28.019  1.00  0.00     0.270 S 
HETATM   40  O5  UNL     1      12.113  61.550  28.661  1.00  0.00    -0.200 OA
HETATM   41  O6  UNL     1      10.902  62.776  26.981  1.00  0.00    -0.200 OA
ENDBRANCH  27  28
ENDBRANCH   6  27
TORSDOF 7
ENDMDL
