MODEL 1
REMARK VINA RESULT: -7.337479131      0.000      0.000
REMARK  10 active torsions:
REMARK  status: ('A' for Active; 'I' for Inactive)
REMARK    1  A    between atoms: C2_2  and  C3_3 
REMARK    2  A    between atoms: C3_3  and  C4_4 
REMARK    3  A    between atoms: C4_4  and  N1_5 
REMARK    4  A    between atoms: C4_4  and  C5_9 
REMARK       I    between atoms: C5_9  and  N2_11 
REMARK    5  A    between atoms: N2_11  and  C6_13 
REMARK    6  A    between atoms: C7_14  and  O2_15 
REMARK    7  A    between atoms: C8_17  and  C9_18 
REMARK    8  A    between atoms: C9_18  and  O3_19 
REMARK    9  A    between atoms: C10_22  and  N3_23 
REMARK   10  A    between atoms: C13_28  and  N5_29 
ROOT
HETATM    1  C6  UNL     1     -21.319   7.424  26.981  1.00  0.00     0.165 C 
HETATM    2  C7  UNL     1     -20.493   8.651  26.658  1.00  0.00     0.176 C 
HETATM    3  C8  UNL     1     -20.901   9.479  27.859  1.00  0.00     0.178 C 
HETATM    4  O4  UNL     1     -21.232   8.618  28.880  1.00  0.00    -0.354 OA
HETATM    5  C10 UNL     1     -20.972   7.321  28.451  1.00  0.00     0.256 C 
ENDROOT
BRANCH   5   6
HETATM    6  N3  UNL     1     -21.707   6.319  29.138  1.00  0.00    -0.298 N 
HETATM    7  C11 UNL     1     -21.182   5.263  29.781  1.00  0.00     0.188 A 
HETATM    8  N4  UNL     1     -22.200   4.530  30.311  1.00  0.00    -0.346 N 
HETATM    9  C12 UNL     1     -23.360   5.103  30.019  1.00  0.00     0.122 A 
ATOM     10  H4  UNL     1     -22.087   3.672  30.851  1.00  0.00     0.167 HD
HETATM   11  C13 UNL     1     -24.676   4.804  30.293  1.00  0.00     0.131 A 
HETATM   12  C15 UNL     1     -23.044   6.232  29.278  1.00  0.00     0.142 A 
HETATM   13  N6  UNL     1     -25.676   5.586  29.856  1.00  0.00    -0.337 N 
HETATM   14  C14 UNL     1     -25.369   6.686  29.133  1.00  0.00     0.183 A 
ATOM     15  H6  UNL     1     -26.648   5.355  30.064  1.00  0.00     0.168 HD
HETATM   16  N7  UNL     1     -24.088   6.984  28.862  1.00  0.00    -0.336 N 
ATOM     17  H7  UNL     1     -23.892   7.822  28.316  1.00  0.00     0.168 HD
BRANCH  11  18
HETATM   18  N5  UNL     1     -25.011   3.753  30.985  1.00  0.00    -0.383 N 
ATOM     19  H52 UNL     1     -25.535   3.027  30.496  1.00  0.00     0.157 HD
ATOM     20  H51 UNL     1     -24.763   3.656  31.970  1.00  0.00     0.157 HD
ENDBRANCH  11  18
ENDBRANCH   5   6
BRANCH   1  21
HETATM   21  N2  UNL     1     -20.985   6.275  26.232  1.00  0.00    -0.348 N 
HETATM   22  C5  UNL     1     -21.961   5.434  25.669  1.00  0.00     0.248 C 
HETATM   23  O1  UNL     1     -23.176   5.774  25.877  1.00  0.00    -0.271 OA
ATOM     24  H2  UNL     1     -20.000   6.047  26.094  1.00  0.00     0.163 HD
BRANCH  22  25
HETATM   25  C4  UNL     1     -21.662   4.219  24.876  1.00  0.00     0.274 C 
BRANCH  25  26
HETATM   26  C3  UNL     1     -20.786   3.242  25.622  1.00  0.00     0.042 C 
BRANCH  26  27
HETATM   27  C2  UNL     1     -21.488   2.835  26.901  1.00  0.00    -0.002 C 
HETATM   28  C1  UNL     1     -20.418   2.266  27.829  1.00  0.00     0.005 C 
ENDBRANCH  26  27
ENDBRANCH  25  26
BRANCH  25  29
HETATM   29  N1  UNL     1     -20.987   4.605  23.653  1.00  0.00    -0.067 N 
ATOM     30  H13 UNL     1     -20.700   5.584  23.658  1.00  0.00     0.275 HD
ATOM     31  H12 UNL     1     -20.061   4.186  23.569  1.00  0.00     0.275 HD
ATOM     32  H11 UNL     1     -21.592   4.378  22.863  1.00  0.00     0.275 HD
ENDBRANCH  25  29
ENDBRANCH  22  25
ENDBRANCH   1  21
BRANCH   2  33
HETATM   33  O2  UNL     1     -19.130   8.403  26.778  1.00  0.00    -0.391 OA
ATOM     34  H2  UNL     1     -18.680   9.113  27.220  1.00  0.00     0.210 HD
ENDBRANCH   2  33
BRANCH   3  35
HETATM   35  C9  UNL     1     -22.121  10.298  27.445  1.00  0.00     0.198 C 
BRANCH  35  36
HETATM   36  O3  UNL     1     -23.283   9.750  28.030  1.00  0.00    -0.398 OA
ATOM     37  H3  UNL     1     -24.031   9.904  27.464  1.00  0.00     0.209 HD
ENDBRANCH  35  36
ENDBRANCH   3  35
TORSDOF 10
ENDMDL
