MODEL 3
REMARK VINA RESULT: -7.199398891      0.960      1.349
REMARK  10 active torsions:
REMARK  status: ('A' for Active; 'I' for Inactive)
REMARK    1  A    between atoms: C2_2  and  C3_3 
REMARK    2  A    between atoms: C3_3  and  C4_4 
REMARK    3  A    between atoms: C4_4  and  N1_5 
REMARK    4  A    between atoms: C4_4  and  C5_9 
REMARK       I    between atoms: C5_9  and  N2_11 
REMARK    5  A    between atoms: N2_11  and  C6_13 
REMARK    6  A    between atoms: C7_14  and  O2_15 
REMARK    7  A    between atoms: C8_17  and  C9_18 
REMARK    8  A    between atoms: C9_18  and  O3_19 
REMARK    9  A    between atoms: C10_22  and  N3_23 
REMARK   10  A    between atoms: C13_28  and  N5_29 
ROOT
HETATM    1  C6  UNL     1     -21.478   7.355  26.928  1.00  0.00     0.165 C 
HETATM    2  C7  UNL     1     -20.640   8.552  26.531  1.00  0.00     0.176 C 
HETATM    3  C8  UNL     1     -20.874   9.373  27.782  1.00  0.00     0.178 C 
HETATM    4  O4  UNL     1     -21.126   8.508  28.823  1.00  0.00    -0.354 OA
HETATM    5  C10 UNL     1     -20.975   7.210  28.349  1.00  0.00     0.256 C 
ENDROOT
BRANCH   5   6
HETATM    6  N3  UNL     1     -21.672   6.227  29.100  1.00  0.00    -0.298 N 
HETATM    7  C11 UNL     1     -21.116   5.176  29.723  1.00  0.00     0.188 A 
HETATM    8  N4  UNL     1     -22.104   4.464  30.333  1.00  0.00    -0.346 N 
HETATM    9  C12 UNL     1     -23.275   5.045  30.110  1.00  0.00     0.122 A 
ATOM     10  H4  UNL     1     -21.964   3.613  30.878  1.00  0.00     0.167 HD
HETATM   11  C13 UNL     1     -24.573   4.765  30.476  1.00  0.00     0.131 A 
HETATM   12  C15 UNL     1     -22.998   6.158  29.330  1.00  0.00     0.142 A 
HETATM   13  N6  UNL     1     -25.592   5.551  30.094  1.00  0.00    -0.337 N 
HETATM   14  C14 UNL     1     -25.322   6.636  29.333  1.00  0.00     0.183 A 
ATOM     15  H6  UNL     1     -26.550   5.335  30.370  1.00  0.00     0.168 HD
HETATM   16  N7  UNL     1     -24.059   6.916  28.973  1.00  0.00    -0.336 N 
ATOM     17  H7  UNL     1     -23.891   7.742  28.400  1.00  0.00     0.168 HD
BRANCH  11  18
HETATM   18  N5  UNL     1     -24.872   3.729  31.206  1.00  0.00    -0.383 N 
ATOM     19  H52 UNL     1     -24.246   3.518  31.983  1.00  0.00     0.157 HD
ATOM     20  H51 UNL     1     -25.692   3.153  31.013  1.00  0.00     0.157 HD
ENDBRANCH  11  18
ENDBRANCH   5   6
BRANCH   1  21
HETATM   21  N2  UNL     1     -21.282   6.207  26.130  1.00  0.00    -0.348 N 
HETATM   22  C5  UNL     1     -22.352   5.425  25.661  1.00  0.00     0.248 C 
HETATM   23  O1  UNL     1     -23.521   5.817  26.003  1.00  0.00    -0.271 OA
ATOM     24  H2  UNL     1     -20.329   5.936  25.885  1.00  0.00     0.163 HD
BRANCH  22  25
HETATM   25  C4  UNL     1     -22.198   4.213  24.823  1.00  0.00     0.274 C 
BRANCH  25  26
HETATM   26  C3  UNL     1     -20.759   3.776  24.696  1.00  0.00     0.042 C 
BRANCH  26  27
HETATM   27  C2  UNL     1     -20.248   4.172  23.326  1.00  0.00    -0.002 C 
HETATM   28  C1  UNL     1     -18.841   3.595  23.197  1.00  0.00     0.005 C 
ENDBRANCH  26  27
ENDBRANCH  25  26
BRANCH  25  29
HETATM   29  N1  UNL     1     -22.718   4.485  23.498  1.00  0.00    -0.067 N 
ATOM     30  H13 UNL     1     -22.606   5.462  23.227  1.00  0.00     0.275 HD
ATOM     31  H12 UNL     1     -22.148   4.068  22.762  1.00  0.00     0.275 HD
ATOM     32  H11 UNL     1     -23.690   4.177  23.461  1.00  0.00     0.275 HD
ENDBRANCH  25  29
ENDBRANCH  22  25
ENDBRANCH   1  21
BRANCH   2  33
HETATM   33  O2  UNL     1     -19.285   8.244  26.495  1.00  0.00    -0.391 OA
ATOM     34  H2  UNL     1     -18.749   9.020  26.388  1.00  0.00     0.210 HD
ENDBRANCH   2  33
BRANCH   3  35
HETATM   35  C9  UNL     1     -22.094  10.252  27.520  1.00  0.00     0.198 C 
BRANCH  35  36
HETATM   36  O3  UNL     1     -23.244   9.648  28.075  1.00  0.00    -0.398 OA
ATOM     37  H3  UNL     1     -23.774  10.307  28.509  1.00  0.00     0.209 HD
ENDBRANCH  35  36
ENDBRANCH   3  35
TORSDOF 10
ENDMDL
