MODEL 2
REMARK VINA RESULT: -7.200001155      1.916      4.896
REMARK  10 active torsions:
REMARK  status: ('A' for Active; 'I' for Inactive)
REMARK    1  A    between atoms: C2_2  and  C3_3 
REMARK    2  A    between atoms: C3_3  and  C4_4 
REMARK    3  A    between atoms: C4_4  and  N1_5 
REMARK    4  A    between atoms: C4_4  and  C5_9 
REMARK       I    between atoms: C5_9  and  N2_11 
REMARK    5  A    between atoms: N2_11  and  C6_13 
REMARK    6  A    between atoms: C7_14  and  O2_15 
REMARK    7  A    between atoms: C8_17  and  C9_18 
REMARK    8  A    between atoms: C9_18  and  O3_19 
REMARK    9  A    between atoms: C10_22  and  N3_23 
REMARK   10  A    between atoms: C13_28  and  N5_29 
ROOT
HETATM    1  C6  UNL     1     -21.748   5.867  25.760  1.00  0.00     0.165 C 
HETATM    2  C7  UNL     1     -21.858   5.647  24.266  1.00  0.00     0.176 C 
HETATM    3  C8  UNL     1     -21.740   4.137  24.286  1.00  0.00     0.178 C 
HETATM    4  O4  UNL     1     -22.212   3.686  25.498  1.00  0.00    -0.354 OA
HETATM    5  C10 UNL     1     -22.704   4.780  26.202  1.00  0.00     0.256 C 
ENDROOT
BRANCH   5   6
HETATM    6  N3  UNL     1     -22.746   4.600  27.610  1.00  0.00    -0.298 N 
HETATM    7  C11 UNL     1     -21.704   4.262  28.388  1.00  0.00     0.188 A 
HETATM    8  N4  UNL     1     -22.137   4.185  29.677  1.00  0.00    -0.346 N 
HETATM    9  C12 UNL     1     -23.431   4.468  29.731  1.00  0.00     0.122 A 
ATOM     10  H4  UNL     1     -21.554   3.945  30.479  1.00  0.00     0.167 HD
HETATM   11  C13 UNL     1     -24.359   4.539  30.747  1.00  0.00     0.131 A 
HETATM   12  C15 UNL     1     -23.812   4.729  28.423  1.00  0.00     0.142 A 
HETATM   13  N6  UNL     1     -25.640   4.859  30.502  1.00  0.00    -0.337 N 
HETATM   14  C14 UNL     1     -26.011   5.113  29.227  1.00  0.00     0.183 A 
ATOM     15  H6  UNL     1     -26.319   4.908  31.262  1.00  0.00     0.168 HD
HETATM   16  N7  UNL     1     -25.112   5.046  28.232  1.00  0.00    -0.336 N 
ATOM     17  H7  UNL     1     -25.426   5.245  27.283  1.00  0.00     0.168 HD
BRANCH  11  18
HETATM   18  N5  UNL     1     -24.039   4.300  31.986  1.00  0.00    -0.383 N 
ATOM     19  H52 UNL     1     -23.623   5.069  32.510  1.00  0.00     0.157 HD
ATOM     20  H51 UNL     1     -24.195   3.388  32.416  1.00  0.00     0.157 HD
ENDBRANCH  11  18
ENDBRANCH   5   6
BRANCH   1  21
HETATM   21  N2  UNL     1     -22.112   7.161  26.193  1.00  0.00    -0.348 N 
HETATM   22  C5  UNL     1     -21.275   7.946  27.005  1.00  0.00     0.248 C 
HETATM   23  O1  UNL     1     -20.157   7.415  27.331  1.00  0.00    -0.271 OA
ATOM     24  H2  UNL     1     -23.015   7.540  25.906  1.00  0.00     0.163 HD
BRANCH  22  25
HETATM   25  C4  UNL     1     -21.611   9.306  27.485  1.00  0.00     0.274 C 
BRANCH  25  26
HETATM   26  C3  UNL     1     -20.586  10.335  27.076  1.00  0.00     0.042 C 
BRANCH  26  27
HETATM   27  C2  UNL     1     -20.901  10.805  25.670  1.00  0.00    -0.002 C 
HETATM   28  C1  UNL     1     -19.905  11.915  25.344  1.00  0.00     0.005 C 
ENDBRANCH  26  27
ENDBRANCH  25  26
BRANCH  25  29
HETATM   29  N1  UNL     1     -21.698   9.290  28.931  1.00  0.00    -0.067 N 
ATOM     30  H13 UNL     1     -20.797   9.458  29.379  1.00  0.00     0.275 HD
ATOM     31  H12 UNL     1     -22.193  10.101  29.302  1.00  0.00     0.275 HD
ATOM     32  H11 UNL     1     -22.121   8.408  29.222  1.00  0.00     0.275 HD
ENDBRANCH  25  29
ENDBRANCH  22  25
ENDBRANCH   1  21
BRANCH   2  33
HETATM   33  O2  UNL     1     -23.128   5.950  23.791  1.00  0.00    -0.391 OA
ATOM     34  H2  UNL     1     -23.167   6.822  23.418  1.00  0.00     0.210 HD
ENDBRANCH   2  33
BRANCH   3  35
HETATM   35  C9  UNL     1     -20.259   3.800  24.139  1.00  0.00     0.198 C 
BRANCH  35  36
HETATM   36  O3  UNL     1     -19.831   4.096  22.827  1.00  0.00    -0.398 OA
ATOM     37  H3  UNL     1     -20.345   3.598  22.201  1.00  0.00     0.209 HD
ENDBRANCH  35  36
ENDBRANCH   3  35
TORSDOF 10
ENDMDL
