MODEL 5
REMARK VINA RESULT: -9.341428264      1.440      2.064
REMARK  6 active torsions:
REMARK  status: ('A' for Active; 'I' for Inactive)
REMARK    1  A    between atoms: C2_2  and  C3_3 
REMARK    2  A    between atoms: C9_11  and  O3_12 
REMARK    3  A    between atoms: O3_12  and  C10_13 
REMARK    4  A    between atoms: C14_18  and  N1_19 
REMARK    5  A    between atoms: C17_22  and  O5_23 
REMARK    6  A    between atoms: C23_30  and  O6_31 
ROOT
HETATM    1  C3  UNL     1       6.254  -1.932  -2.074  1.00  0.00     0.139 C 
HETATM    2  O1  UNL     1       7.460  -1.233  -2.191  1.00  0.00    -0.312 OA
HETATM    3  C4  UNL     1       8.047  -0.696  -3.289  1.00  0.00     0.283 C 
HETATM    4  O2  UNL     1       8.546   0.475  -3.162  1.00  0.00    -0.260 OA
HETATM    5  C5  UNL     1       8.176  -1.308  -4.615  1.00  0.00     0.078 C 
HETATM    6  C6  UNL     1       8.718  -2.492  -4.844  1.00  0.00    -0.014 C 
HETATM    7  C7  UNL     1       9.282  -3.380  -3.778  1.00  0.00     0.034 C 
HETATM    8  C8  UNL     1      10.744  -2.995  -3.503  1.00  0.00     0.017 C 
HETATM    9  C9  UNL     1       9.311  -4.799  -4.299  1.00  0.00     0.135 C 
HETATM   10  C18 UNL     1       9.226  -5.831  -3.205  1.00  0.00     0.012 C 
HETATM   11  C19 UNL     1      10.427  -5.857  -2.305  1.00  0.00     0.012 C 
HETATM   12  C20 UNL     1       8.008  -5.531  -2.357  1.00  0.00     0.014 C 
HETATM   13  C21 UNL     1       7.071  -6.713  -2.238  1.00  0.00     0.014 C 
HETATM   14  C22 UNL     1       7.690  -7.890  -1.555  1.00  0.00     0.012 C 
HETATM   15  C23 UNL     1       5.860  -6.243  -1.461  1.00  0.00     0.144 C 
HETATM   16  C24 UNL     1       4.970  -5.513  -2.392  1.00  0.00     0.005 C 
HETATM   17  C25 UNL     1       4.219  -4.479  -2.107  1.00  0.00    -0.002 C 
HETATM   18  C26 UNL     1       4.070  -3.797  -0.836  1.00  0.00    -0.004 C 
HETATM   19  C27 UNL     1       4.935  -2.993  -0.243  1.00  0.00    -0.020 C 
HETATM   20  C28 UNL     1       6.251  -2.582  -0.708  1.00  0.00     0.034 C 
HETATM   21  C29 UNL     1       6.789  -1.501   0.243  1.00  0.00     0.017 C 
ENDROOT
BRANCH   9  22
HETATM   22  O3  UNL     1      10.436  -4.934  -5.086  1.00  0.00    -0.352 OA
BRANCH  22  23
HETATM   23  C10 UNL     1      10.879  -6.233  -5.232  1.00  0.00     0.291 C 
HETATM   24  O4  UNL     1      12.270  -6.188  -5.317  1.00  0.00    -0.354 OA
HETATM   25  C11 UNL     1      12.760  -5.450  -6.363  1.00  0.00     0.122 C 
HETATM   26  C12 UNL     1      12.870  -3.985  -6.108  1.00  0.00     0.040 C 
HETATM   27  C13 UNL     1      12.020  -5.672  -7.664  1.00  0.00     0.070 C 
HETATM   28  C14 UNL     1      11.352  -7.024  -7.553  1.00  0.00     0.257 C 
HETATM   29  C17 UNL     1      10.341  -6.939  -6.448  1.00  0.00     0.206 C 
BRANCH  28  30
HETATM   30  N1  UNL     1      10.803  -7.463  -8.799  1.00  0.00     0.087 N 
HETATM   31  C15 UNL     1      11.512  -8.694  -9.170  1.00  0.00     0.310 C 
HETATM   32  C16 UNL     1      11.038  -6.525  -9.870  1.00  0.00     0.310 C 
ENDBRANCH  28  30
BRANCH  29  33
HETATM   33  O5  UNL     1       9.996  -8.272  -6.124  1.00  0.00    -0.388 OA
ATOM     34  H5  UNL     1       9.086  -8.436  -6.342  1.00  0.00     0.210 HD
ENDBRANCH  29  33
ENDBRANCH  22  23
ENDBRANCH   9  22
BRANCH  15  35
HETATM   35  O6  UNL     1       5.205  -7.341  -0.888  1.00  0.00    -0.391 OA
ATOM     36  H6  UNL     1       4.277  -7.159  -0.810  1.00  0.00     0.210 HD
ENDBRANCH  15  35
BRANCH   1  37
HETATM   37  C2  UNL     1       5.129  -0.895  -2.169  1.00  0.00     0.029 C 
HETATM   38  C1  UNL     1       5.098  -0.200  -3.508  1.00  0.00     0.007 C 
ENDBRANCH   1  37
TORSDOF 6
ENDMDL
