MODEL 1
REMARK VINA RESULT: -10.025010142      0.000      0.000
REMARK  6 active torsions:
REMARK  status: ('A' for Active; 'I' for Inactive)
REMARK    1  A    between atoms: C2_2  and  C3_3 
REMARK    2  A    between atoms: C9_11  and  O3_12 
REMARK    3  A    between atoms: O3_12  and  C10_13 
REMARK    4  A    between atoms: C14_18  and  N1_19 
REMARK    5  A    between atoms: C17_22  and  O5_23 
REMARK    6  A    between atoms: C23_30  and  O6_31 
ROOT
HETATM    1  C3  UNL     1       6.135  -1.944  -2.204  1.00  0.00     0.139 C 
HETATM    2  O1  UNL     1       7.521  -1.760  -2.264  1.00  0.00    -0.312 OA
HETATM    3  C4  UNL     1       8.319  -1.532  -3.336  1.00  0.00     0.283 C 
HETATM    4  O2  UNL     1       9.219  -0.634  -3.204  1.00  0.00    -0.260 OA
HETATM    5  C5  UNL     1       8.267  -2.203  -4.639  1.00  0.00     0.078 C 
HETATM    6  C6  UNL     1       8.327  -3.512  -4.810  1.00  0.00    -0.014 C 
HETATM    7  C7  UNL     1       8.459  -4.503  -3.695  1.00  0.00     0.034 C 
HETATM    8  C8  UNL     1       9.943  -4.690  -3.340  1.00  0.00     0.017 C 
HETATM    9  C9  UNL     1       7.970  -5.847  -4.183  1.00  0.00     0.135 C 
HETATM   10  C18 UNL     1       7.446  -6.723  -3.075  1.00  0.00     0.012 C 
HETATM   11  C19 UNL     1       8.502  -7.165  -2.104  1.00  0.00     0.012 C 
HETATM   12  C20 UNL     1       6.396  -5.948  -2.308  1.00  0.00     0.014 C 
HETATM   13  C21 UNL     1       5.074  -6.680  -2.220  1.00  0.00     0.014 C 
HETATM   14  C22 UNL     1       5.165  -7.974  -1.477  1.00  0.00     0.012 C 
HETATM   15  C23 UNL     1       4.099  -5.754  -1.526  1.00  0.00     0.144 C 
HETATM   16  C24 UNL     1       3.599  -4.780  -2.524  1.00  0.00     0.005 C 
HETATM   17  C25 UNL     1       3.287  -3.527  -2.306  1.00  0.00    -0.002 C 
HETATM   18  C26 UNL     1       3.348  -2.787  -1.061  1.00  0.00    -0.004 C 
HETATM   19  C27 UNL     1       4.426  -2.348  -0.434  1.00  0.00    -0.020 C 
HETATM   20  C28 UNL     1       5.820  -2.487  -0.827  1.00  0.00     0.034 C 
HETATM   21  C29 UNL     1       6.683  -1.652   0.131  1.00  0.00     0.017 C 
ENDROOT
BRANCH   9  22
HETATM   22  O3  UNL     1       8.995  -6.431  -4.899  1.00  0.00    -0.352 OA
BRANCH  22  23
HETATM   23  C10 UNL     1       8.632  -6.879  -6.152  1.00  0.00     0.291 C 
HETATM   24  O4  UNL     1       8.992  -8.224  -6.231  1.00  0.00    -0.354 OA
HETATM   25  C11 UNL     1      10.328  -8.474  -6.057  1.00  0.00     0.122 C 
HETATM   26  C12 UNL     1      10.775  -8.584  -4.639  1.00  0.00     0.040 C 
HETATM   27  C13 UNL     1      11.229  -7.500  -6.786  1.00  0.00     0.070 C 
HETATM   28  C14 UNL     1      10.407  -6.912  -7.911  1.00  0.00     0.257 C 
HETATM   29  C17 UNL     1       9.283  -6.136  -7.289  1.00  0.00     0.206 C 
BRANCH  28  30
HETATM   30  N1  UNL     1      11.200  -6.144  -8.819  1.00  0.00     0.087 N 
HETATM   31  C15 UNL     1      11.256  -6.895 -10.080  1.00  0.00     0.310 C 
HETATM   32  C16 UNL     1      12.565  -5.996  -8.376  1.00  0.00     0.310 C 
ENDBRANCH  28  30
BRANCH  29  33
HETATM   33  O5  UNL     1       8.344  -5.905  -8.321  1.00  0.00    -0.388 OA
ATOM     34  H5  UNL     1       8.598  -5.145  -8.831  1.00  0.00     0.210 HD
ENDBRANCH  29  33
ENDBRANCH  22  23
ENDBRANCH   9  22
BRANCH  15  35
HETATM   35  O6  UNL     1       3.049  -6.496  -0.972  1.00  0.00    -0.391 OA
ATOM     36  H6  UNL     1       3.044  -6.394  -0.027  1.00  0.00     0.210 HD
ENDBRANCH  15  35
BRANCH   1  37
HETATM   37  C2  UNL     1       5.496  -0.563  -2.388  1.00  0.00     0.029 C 
HETATM   38  C1  UNL     1       5.439  -0.142  -3.836  1.00  0.00     0.007 C 
ENDBRANCH   1  37
TORSDOF 6
ENDMDL
