MODEL 3
REMARK VINA RESULT: -9.496499242      2.809      5.724
REMARK  6 active torsions:
REMARK  status: ('A' for Active; 'I' for Inactive)
REMARK    1  A    between atoms: C2_2  and  C3_3 
REMARK    2  A    between atoms: C9_11  and  O3_12 
REMARK    3  A    between atoms: O3_12  and  C10_13 
REMARK    4  A    between atoms: C14_18  and  N1_19 
REMARK    5  A    between atoms: C17_22  and  O5_23 
REMARK    6  A    between atoms: C23_30  and  O6_31 
ROOT
HETATM    1  C3  UNL     1       7.427  -8.590  -2.451  1.00  0.00     0.139 C 
HETATM    2  O1  UNL     1       8.008  -9.424  -3.412  1.00  0.00    -0.312 OA
HETATM    3  C4  UNL     1       9.316  -9.664  -3.673  1.00  0.00     0.283 C 
HETATM    4  O2  UNL     1       9.650 -10.882  -3.877  1.00  0.00    -0.260 OA
HETATM    5  C5  UNL     1      10.401  -8.680  -3.749  1.00  0.00     0.078 C 
HETATM    6  C6  UNL     1      10.390  -7.612  -4.528  1.00  0.00    -0.014 C 
HETATM    7  C7  UNL     1       9.266  -7.254  -5.451  1.00  0.00     0.034 C 
HETATM    8  C8  UNL     1       9.447  -7.976  -6.795  1.00  0.00     0.017 C 
HETATM    9  C9  UNL     1       9.345  -5.775  -5.754  1.00  0.00     0.135 C 
HETATM   10  C18 UNL     1       8.007  -5.171  -6.095  1.00  0.00     0.012 C 
HETATM   11  C19 UNL     1       7.430  -5.673  -7.386  1.00  0.00     0.012 C 
HETATM   12  C20 UNL     1       7.035  -5.501  -4.983  1.00  0.00     0.014 C 
HETATM   13  C21 UNL     1       6.371  -4.273  -4.400  1.00  0.00     0.014 C 
HETATM   14  C22 UNL     1       5.532  -3.531  -5.389  1.00  0.00     0.012 C 
HETATM   15  C23 UNL     1       5.515  -4.738  -3.242  1.00  0.00     0.144 C 
HETATM   16  C24 UNL     1       6.396  -4.934  -2.068  1.00  0.00     0.005 C 
HETATM   17  C25 UNL     1       6.264  -5.843  -1.134  1.00  0.00    -0.002 C 
HETATM   18  C26 UNL     1       5.246  -6.869  -1.013  1.00  0.00    -0.004 C 
HETATM   19  C27 UNL     1       5.121  -7.972  -1.730  1.00  0.00    -0.020 C 
HETATM   20  C28 UNL     1       5.966  -8.445  -2.816  1.00  0.00     0.034 C 
HETATM   21  C29 UNL     1       5.515  -9.861  -3.205  1.00  0.00     0.017 C 
ENDROOT
BRANCH   9  22
HETATM   22  O3  UNL     1      10.289  -5.600  -6.745  1.00  0.00    -0.352 OA
BRANCH  22  23
HETATM   23  C10 UNL     1      10.577  -4.281  -7.032  1.00  0.00     0.291 C 
HETATM   24  O4  UNL     1      11.918  -4.224  -7.410  1.00  0.00    -0.354 OA
HETATM   25  C11 UNL     1      12.804  -4.659  -6.459  1.00  0.00     0.122 C 
HETATM   26  C12 UNL     1      13.024  -6.133  -6.422  1.00  0.00     0.040 C 
HETATM   27  C13 UNL     1      12.485  -4.170  -5.062  1.00  0.00     0.070 C 
HETATM   28  C14 UNL     1      11.642  -2.925  -5.224  1.00  0.00     0.257 C 
HETATM   29  C17 UNL     1      10.357  -3.333  -5.882  1.00  0.00     0.206 C 
BRANCH  28  30
HETATM   30  N1  UNL     1      11.457  -2.231  -3.988  1.00  0.00     0.087 N 
HETATM   31  C15 UNL     1      12.138  -0.936  -4.117  1.00  0.00     0.310 C 
HETATM   32  C16 UNL     1      12.080  -2.904  -2.873  1.00  0.00     0.310 C 
ENDBRANCH  28  30
BRANCH  29  33
HETATM   33  O5  UNL     1       9.753  -2.140  -6.344  1.00  0.00    -0.388 OA
ATOM     34  H5  UNL     1       8.863  -2.076  -6.016  1.00  0.00     0.210 HD
ENDBRANCH  29  33
ENDBRANCH  22  23
ENDBRANCH   9  22
BRANCH  15  35
HETATM   35  O6  UNL     1       4.517  -3.792  -2.976  1.00  0.00    -0.391 OA
ATOM     36  H6  UNL     1       3.672  -4.220  -2.918  1.00  0.00     0.210 HD
ENDBRANCH  15  35
BRANCH   1  37
HETATM   37  C2  UNL     1       7.566  -9.304  -1.102  1.00  0.00     0.029 C 
HETATM   38  C1  UNL     1       8.620  -8.676  -0.223  1.00  0.00     0.007 C 
ENDBRANCH   1  37
TORSDOF 6
ENDMDL
