MODEL 3
REMARK VINA RESULT: -8.418802398      3.135      5.190
REMARK  9 active torsions:
REMARK  status: ('A' for Active; 'I' for Inactive)
REMARK    1  A    between atoms: C2_2  and  C3_3 
REMARK    2  A    between atoms: C3_3  and  C5_5 
REMARK    3  A    between atoms: C5_5  and  N1_6 
REMARK    4  A    between atoms: C5_5  and  C6_10 
REMARK       I    between atoms: C6_10  and  N2_12 
REMARK    5  A    between atoms: N2_12  and  C7_14 
REMARK    6  A    between atoms: C8_15  and  O2_16 
REMARK    7  A    between atoms: C9_18  and  C10_19 
REMARK    8  A    between atoms: C10_19  and  O3_20 
REMARK    9  A    between atoms: C11_23  and  N3_24 
ROOT
HETATM    1  C7  UNL     1      16.900   4.000  19.484  1.00  0.00     0.165 C 
HETATM    2  C8  UNL     1      18.413   4.079  19.239  1.00  0.00     0.176 C 
HETATM    3  C9  UNL     1      18.950   3.637  20.559  1.00  0.00     0.178 C 
HETATM    4  O4  UNL     1      17.920   3.138  21.311  1.00  0.00    -0.354 OA
HETATM    5  C11 UNL     1      16.836   2.895  20.505  1.00  0.00     0.256 C 
ENDROOT
BRANCH   1   6
HETATM    6  N2  UNL     1      16.329   3.586  18.197  1.00  0.00    -0.348 N 
HETATM    7  C6  UNL     1      15.061   4.078  17.791  1.00  0.00     0.249 C 
HETATM    8  O1  UNL     1      14.384   4.868  18.488  1.00  0.00    -0.271 OA
ATOM      9  H2  UNL     1      16.844   2.944  17.595  1.00  0.00     0.163 HD
BRANCH   7  10
HETATM   10  C5  UNL     1      14.473   3.658  16.475  1.00  0.00     0.278 C 
BRANCH  10  11
HETATM   11  C3  UNL     1      15.051   2.373  15.999  1.00  0.00     0.021 C 
HETATM   12  C4  UNL     1      14.141   1.199  16.324  1.00  0.00     0.012 C 
BRANCH  11  13
HETATM   13  C2  UNL     1      15.430   2.302  14.559  1.00  0.00     0.002 C 
HETATM   14  C1  UNL     1      14.548   1.439  13.698  1.00  0.00     0.005 C 
ENDBRANCH  11  13
ENDBRANCH  10  11
BRANCH  10  15
HETATM   15  N1  UNL     1      14.538   4.725  15.530  1.00  0.00    -0.066 N 
ATOM     16  H13 UNL     1      15.221   4.513  14.803  1.00  0.00     0.275 HD
ATOM     17  H12 UNL     1      13.687   4.754  14.969  1.00  0.00     0.275 HD
ATOM     18  H11 UNL     1      14.726   5.641  15.937  1.00  0.00     0.275 HD
ENDBRANCH  10  15
ENDBRANCH   7  10
ENDBRANCH   1   6
BRANCH   2  19
HETATM   19  O2  UNL     1      18.793   3.146  18.281  1.00  0.00    -0.391 OA
ATOM     20  H2  UNL     1      19.022   2.323  18.697  1.00  0.00     0.210 HD
ENDBRANCH   2  19
BRANCH   5  21
HETATM   21  N3  UNL     1      15.604   2.925  21.267  1.00  0.00    -0.298 N 
HETATM   22  C12 UNL     1      14.454   2.295  20.968  1.00  0.00     0.188 A 
HETATM   23  N4  UNL     1      13.524   2.559  21.912  1.00  0.00    -0.346 N 
HETATM   24  C13 UNL     1      14.088   3.362  22.815  1.00  0.00     0.119 A 
ATOM     25  H4  UNL     1      12.567   2.209  21.930  1.00  0.00     0.167 HD
HETATM   26  C14 UNL     1      13.563   3.923  23.979  1.00  0.00     0.148 A 
HETATM   27  C16 UNL     1      15.386   3.592  22.416  1.00  0.00     0.142 A 
HETATM   28  N5  UNL     1      12.217   3.652  24.346  1.00  0.00    -0.080 NA
HETATM   29  N6  UNL     1      14.349   4.705  24.722  1.00  0.00    -0.339 N 
HETATM   30  C15 UNL     1      15.625   4.931  24.327  1.00  0.00     0.183 A 
ATOM     31  H6  UNL     1      13.993   5.128  25.578  1.00  0.00     0.167 HD
HETATM   32  N7  UNL     1      16.138   4.391  23.203  1.00  0.00    -0.336 N 
ATOM     33  H7  UNL     1      17.105   4.588  22.944  1.00  0.00     0.168 HD
ENDBRANCH   5  21
BRANCH   3  34
HETATM   34  C10 UNL     1      19.648   4.794  21.277  1.00  0.00     0.198 C 
BRANCH  34  35
HETATM   35  O3  UNL     1      18.733   5.699  21.778  1.00  0.00    -0.398 OA
ATOM     36  H3  UNL     1      19.126   6.256  22.440  1.00  0.00     0.209 HD
ENDBRANCH  34  35
ENDBRANCH   3  34
TORSDOF 9
ENDMDL
