MODEL 2
REMARK VINA RESULT: -8.526448273      1.679      2.653
REMARK  9 active torsions:
REMARK  status: ('A' for Active; 'I' for Inactive)
REMARK    1  A    between atoms: C2_2  and  C3_3 
REMARK    2  A    between atoms: C3_3  and  C5_5 
REMARK    3  A    between atoms: C5_5  and  N1_6 
REMARK    4  A    between atoms: C5_5  and  C6_10 
REMARK       I    between atoms: C6_10  and  N2_12 
REMARK    5  A    between atoms: N2_12  and  C7_14 
REMARK    6  A    between atoms: C8_15  and  O2_16 
REMARK    7  A    between atoms: C9_18  and  C10_19 
REMARK    8  A    between atoms: C10_19  and  O3_20 
REMARK    9  A    between atoms: C11_23  and  N3_24 
ROOT
HETATM    1  C7  UNL     1      13.316   3.460  22.139  1.00  0.00     0.165 C 
HETATM    2  C8  UNL     1      12.040   3.993  22.806  1.00  0.00     0.176 C 
HETATM    3  C9  UNL     1      12.446   5.387  23.149  1.00  0.00     0.178 C 
HETATM    4  O4  UNL     1      13.638   5.664  22.535  1.00  0.00    -0.354 OA
HETATM    5  C11 UNL     1      13.884   4.729  21.562  1.00  0.00     0.256 C 
ENDROOT
BRANCH   1   6
HETATM    6  N2  UNL     1      12.843   2.549  21.090  1.00  0.00    -0.348 N 
HETATM    7  C6  UNL     1      13.563   1.359  20.805  1.00  0.00     0.249 C 
HETATM    8  O1  UNL     1      14.608   1.035  21.414  1.00  0.00    -0.271 OA
ATOM      9  H2  UNL     1      11.996   2.771  20.567  1.00  0.00     0.163 HD
BRANCH   7  10
HETATM   10  C5  UNL     1      13.083   0.423  19.734  1.00  0.00     0.278 C 
BRANCH  10  11
HETATM   11  C3  UNL     1      14.152   0.126  18.743  1.00  0.00     0.021 C 
HETATM   12  C4  UNL     1      14.446  -1.365  18.673  1.00  0.00     0.012 C 
BRANCH  11  13
HETATM   13  C2  UNL     1      13.946   0.639  17.360  1.00  0.00     0.002 C 
HETATM   14  C1  UNL     1      14.626   1.943  17.043  1.00  0.00     0.005 C 
ENDBRANCH  11  13
ENDBRANCH  10  11
BRANCH  10  15
HETATM   15  N1  UNL     1      11.862   0.892  19.165  1.00  0.00    -0.066 N 
ATOM     16  H13 UNL     1      11.749   1.891  19.341  1.00  0.00     0.275 HD
ATOM     17  H12 UNL     1      11.923   0.899  18.147  1.00  0.00     0.275 HD
ATOM     18  H11 UNL     1      11.031   0.384  19.467  1.00  0.00     0.275 HD
ENDBRANCH  10  15
ENDBRANCH   7  10
ENDBRANCH   1   6
BRANCH   2  19
HETATM   19  O2  UNL     1      11.006   4.057  21.879  1.00  0.00    -0.391 OA
ATOM     20  H2  UNL     1      10.377   3.363  22.041  1.00  0.00     0.210 HD
ENDBRANCH   2  19
BRANCH   5  21
HETATM   21  N3  UNL     1      15.304   4.619  21.293  1.00  0.00    -0.298 N 
HETATM   22  C12 UNL     1      15.884   4.374  20.104  1.00  0.00     0.188 A 
HETATM   23  N4  UNL     1      17.227   4.342  20.244  1.00  0.00    -0.346 N 
HETATM   24  C13 UNL     1      17.501   4.570  21.530  1.00  0.00     0.119 A 
ATOM     25  H4  UNL     1      17.907   4.175  19.503  1.00  0.00     0.167 HD
HETATM   26  C14 UNL     1      18.725   4.641  22.194  1.00  0.00     0.148 A 
HETATM   27  C16 UNL     1      16.303   4.743  22.186  1.00  0.00     0.142 A 
HETATM   28  N5  UNL     1      19.932   4.455  21.468  1.00  0.00    -0.080 NA
HETATM   29  N6  UNL     1      18.725   4.886  23.506  1.00  0.00    -0.339 N 
HETATM   30  C15 UNL     1      17.546   5.055  24.151  1.00  0.00     0.183 A 
ATOM     31  H6  UNL     1      19.604   4.944  24.019  1.00  0.00     0.167 HD
HETATM   32  N7  UNL     1      16.360   4.987  23.513  1.00  0.00    -0.336 N 
ATOM     33  H7  UNL     1      15.496   5.122  24.039  1.00  0.00     0.168 HD
ENDBRANCH   5  21
BRANCH   3  34
HETATM   34  C10 UNL     1      12.551   5.566  24.665  1.00  0.00     0.198 C 
BRANCH  34  35
HETATM   35  O3  UNL     1      13.792   5.178  25.131  1.00  0.00    -0.398 OA
ATOM     36  H3  UNL     1      13.991   5.588  25.965  1.00  0.00     0.209 HD
ENDBRANCH  34  35
ENDBRANCH   3  34
TORSDOF 9
ENDMDL
