MODEL 1
REMARK VINA RESULT: -8.619792129      0.000      0.000
REMARK  9 active torsions:
REMARK  status: ('A' for Active; 'I' for Inactive)
REMARK    1  A    between atoms: C2_2  and  C3_3 
REMARK    2  A    between atoms: C3_3  and  C5_5 
REMARK    3  A    between atoms: C5_5  and  N1_6 
REMARK    4  A    between atoms: C5_5  and  C6_10 
REMARK       I    between atoms: C6_10  and  N2_12 
REMARK    5  A    between atoms: N2_12  and  C7_14 
REMARK    6  A    between atoms: C8_15  and  O2_16 
REMARK    7  A    between atoms: C9_18  and  C10_19 
REMARK    8  A    between atoms: C10_19  and  O3_20 
REMARK    9  A    between atoms: C11_23  and  N3_24 
ROOT
HETATM    1  C7  UNL     1      12.903   3.586  21.222  1.00  0.00     0.165 C 
HETATM    2  C8  UNL     1      11.672   4.031  20.420  1.00  0.00     0.176 C 
HETATM    3  C9  UNL     1      11.450   5.405  20.957  1.00  0.00     0.178 C 
HETATM    4  O4  UNL     1      12.530   5.761  21.720  1.00  0.00    -0.354 OA
HETATM    5  C11 UNL     1      13.576   4.911  21.465  1.00  0.00     0.256 C 
ENDROOT
BRANCH   1   6
HETATM    6  N2  UNL     1      13.673   2.746  20.298  1.00  0.00    -0.348 N 
HETATM    7  C6  UNL     1      14.177   1.490  20.731  1.00  0.00     0.249 C 
HETATM    8  O1  UNL     1      13.995   1.048  21.889  1.00  0.00    -0.271 OA
ATOM      9  H2  UNL     1      13.847   3.064  19.345  1.00  0.00     0.163 HD
BRANCH   7  10
HETATM   10  C5  UNL     1      14.965   0.627  19.790  1.00  0.00     0.278 C 
BRANCH  10  11
HETATM   11  C3  UNL     1      14.089  -0.036  18.786  1.00  0.00     0.021 C 
HETATM   12  C4  UNL     1      14.265   0.576  17.405  1.00  0.00     0.012 C 
BRANCH  11  13
HETATM   13  C2  UNL     1      14.202  -1.517  18.672  1.00  0.00     0.002 C 
HETATM   14  C1  UNL     1      14.427  -2.045  17.281  1.00  0.00     0.005 C 
ENDBRANCH  11  13
ENDBRANCH  10  11
BRANCH  10  15
HETATM   15  N1  UNL     1      15.815  -0.262  20.514  1.00  0.00    -0.066 N 
ATOM     16  H13 UNL     1      15.543  -1.230  20.343  1.00  0.00     0.275 HD
ATOM     17  H12 UNL     1      16.750  -0.268  20.107  1.00  0.00     0.275 HD
ATOM     18  H11 UNL     1      15.865  -0.078  21.516  1.00  0.00     0.275 HD
ENDBRANCH  10  15
ENDBRANCH   7  10
ENDBRANCH   1   6
BRANCH   2  19
HETATM   19  O2  UNL     1      11.992   4.138  19.071  1.00  0.00    -0.391 OA
ATOM     20  H2  UNL     1      11.393   3.615  18.550  1.00  0.00     0.210 HD
ENDBRANCH   2  19
BRANCH   5  21
HETATM   21  N3  UNL     1      14.492   4.861  22.588  1.00  0.00    -0.298 N 
HETATM   22  C12 UNL     1      14.173   4.674  23.881  1.00  0.00     0.188 A 
HETATM   23  N4  UNL     1      15.292   4.689  24.638  1.00  0.00    -0.346 N 
HETATM   24  C13 UNL     1      16.327   4.888  23.820  1.00  0.00     0.119 A 
ATOM     25  H4  UNL     1      15.338   4.571  25.650  1.00  0.00     0.167 HD
HETATM   26  C14 UNL     1      17.691   4.985  24.093  1.00  0.00     0.148 A 
HETATM   27  C16 UNL     1      15.830   4.995  22.539  1.00  0.00     0.142 A 
HETATM   28  N5  UNL     1      18.150   4.866  25.433  1.00  0.00    -0.080 NA
HETATM   29  N6  UNL     1      18.532   5.189  23.078  1.00  0.00    -0.339 N 
HETATM   30  C15 UNL     1      18.042   5.295  21.819  1.00  0.00     0.183 A 
ATOM     31  H6  UNL     1      19.535   5.263  23.247  1.00  0.00     0.167 HD
HETATM   32  N7  UNL     1      16.724   5.201  21.549  1.00  0.00    -0.336 N 
ATOM     33  H7  UNL     1      16.399   5.287  20.586  1.00  0.00     0.168 HD
ENDBRANCH   5  21
BRANCH   3  34
HETATM   34  C10 UNL     1      10.155   5.469  21.768  1.00  0.00     0.198 C 
BRANCH  34  35
HETATM   35  O3  UNL     1      10.377   5.154  23.095  1.00  0.00    -0.398 OA
ATOM     36  H3  UNL     1       9.629   5.383  23.634  1.00  0.00     0.209 HD
ENDBRANCH  34  35
ENDBRANCH   3  34
TORSDOF 9
ENDMDL
