MODEL 3
REMARK VINA RESULT: -8.759769707      2.643      6.136
REMARK  1 active torsions:
REMARK  status: ('A' for Active; 'I' for Inactive)
REMARK    1  A    between atoms: N2_9  and  C8_10 
ROOT
HETATM    1  N1  UNL     1      47.396 129.885  15.799  1.00  0.00    -0.102 NA
HETATM    2  C1  UNL     1      46.113 130.449  15.561  1.00  0.00     0.055 A 
HETATM    3  C2  UNL     1      45.582 130.572  14.301  1.00  0.00     0.027 A 
HETATM    4  C3  UNL     1      44.337 131.119  14.072  1.00  0.00     0.003 A 
HETATM    5  C4  UNL     1      43.594 131.562  15.145  1.00  0.00     0.018 A 
HETATM    6  C5  UNL     1      44.080 131.465  16.450  1.00  0.00     0.042 A 
HETATM    7  C6  UNL     1      45.322 130.912  16.627  1.00  0.00    -0.000 A 
HETATM    8  C7  UNL     1      45.622 130.908  18.057  1.00  0.00     0.168 A 
HETATM    9  N2  UNL     1      44.496 131.496  18.710  1.00  0.00    -0.330 N 
HETATM   10  C13 UNL     1      43.532 131.843  17.744  1.00  0.00     0.255 A 
HETATM   11  O3  UNL     1      42.406 132.375  17.920  1.00  0.00    -0.267 OA
ENDROOT
BRANCH   9  12
HETATM   12  C8  UNL     1      44.365 131.707  20.156  1.00  0.00     0.180 C 
HETATM   13  C9  UNL     1      42.907 131.657  20.489  1.00  0.00     0.044 C 
HETATM   14  C10 UNL     1      42.647 131.707  21.976  1.00  0.00     0.106 C 
HETATM   15  C11 UNL     1      43.831 131.433  22.801  1.00  0.00     0.224 C 
HETATM   16  O1  UNL     1      43.934 131.938  23.969  1.00  0.00    -0.273 OA
HETATM   17  N3  UNL     1      44.871 130.604  22.305  1.00  0.00    -0.296 N 
HETATM   18  C12 UNL     1      45.126 130.656  20.901  1.00  0.00     0.247 C 
ATOM     19  H3  UNL     1      45.411 129.998  22.923  1.00  0.00     0.171 HD
HETATM   20  O2  UNL     1      45.928 129.870  20.380  1.00  0.00    -0.271 OA
ENDBRANCH   9  12
TORSDOF 1
ENDMDL
