MODEL 1
REMARK VINA RESULT: -9.781463000      0.000      0.000
REMARK  1 active torsions:
REMARK  status: ('A' for Active; 'I' for Inactive)
REMARK    1  A    between atoms: N2_9  and  C8_10 
ROOT
HETATM    1  N1  UNL     1      44.821 131.411  21.745  1.00  0.00    -0.102 NA
HETATM    2  C1  UNL     1      43.861 131.728  20.744  1.00  0.00     0.055 A 
HETATM    3  C2  UNL     1      42.618 132.227  21.044  1.00  0.00     0.027 A 
HETATM    4  C3  UNL     1      41.689 132.534  20.072  1.00  0.00     0.003 A 
HETATM    5  C4  UNL     1      42.015 132.334  18.748  1.00  0.00     0.018 A 
HETATM    6  C5  UNL     1      43.264 131.829  18.380  1.00  0.00     0.042 A 
HETATM    7  C6  UNL     1      44.155 131.540  19.382  1.00  0.00    -0.000 A 
HETATM    8  C7  UNL     1      45.382 131.034  18.772  1.00  0.00     0.168 A 
HETATM    9  N2  UNL     1      45.163 131.032  17.361  1.00  0.00    -0.330 N 
HETATM   10  C13 UNL     1      43.870 131.520  17.094  1.00  0.00     0.255 A 
HETATM   11  O3  UNL     1      43.309 131.676  15.979  1.00  0.00    -0.267 OA
ENDROOT
BRANCH   9  12
HETATM   12  C8  UNL     1      46.130 130.588  16.351  1.00  0.00     0.180 C 
HETATM   13  C9  UNL     1      45.549 129.393  15.663  1.00  0.00     0.044 C 
HETATM   14  C10 UNL     1      46.382 128.932  14.491  1.00  0.00     0.106 C 
HETATM   15  C11 UNL     1      47.369 129.919  14.032  1.00  0.00     0.224 C 
HETATM   16  O1  UNL     1      48.450 129.537  13.471  1.00  0.00    -0.273 OA
HETATM   17  N3  UNL     1      47.127 131.306  14.210  1.00  0.00    -0.296 N 
HETATM   18  C12 UNL     1      46.402 131.692  15.378  1.00  0.00     0.247 C 
ATOM     19  H3  UNL     1      47.456 131.996  13.534  1.00  0.00     0.171 HD
HETATM   20  O2  UNL     1      46.044 132.867  15.533  1.00  0.00    -0.271 OA
ENDBRANCH   9  12
TORSDOF 1
ENDMDL
