MODEL 7
REMARK VINA RESULT: -7.536465618     10.150     11.442
REMARK  1 active torsions:
REMARK  status: ('A' for Active; 'I' for Inactive)
REMARK    1  A    between atoms: N2_9  and  C8_10 
ROOT
HETATM    1  N1  UNL     1      38.973 127.373  25.788  1.00  0.00    -0.102 NA
HETATM    2  C1  UNL     1      38.265 126.141  25.860  1.00  0.00     0.055 A 
HETATM    3  C2  UNL     1      37.148 125.975  26.642  1.00  0.00     0.027 A 
HETATM    4  C3  UNL     1      36.463 124.780  26.710  1.00  0.00     0.003 A 
HETATM    5  C4  UNL     1      36.913 123.708  25.970  1.00  0.00     0.018 A 
HETATM    6  C5  UNL     1      38.043 123.815  25.157  1.00  0.00     0.042 A 
HETATM    7  C6  UNL     1      38.690 125.023  25.120  1.00  0.00    -0.000 A 
HETATM    8  C7  UNL     1      39.828 124.907  24.213  1.00  0.00     0.168 A 
HETATM    9  N2  UNL     1      39.823 123.564  23.725  1.00  0.00    -0.330 N 
HETATM   10  C13 UNL     1      38.732 122.873  24.288  1.00  0.00     0.255 A 
HETATM   11  O3  UNL     1      38.385 121.679  24.102  1.00  0.00    -0.267 OA
ENDROOT
BRANCH   9  12
HETATM   12  C8  UNL     1      40.799 122.995  22.790  1.00  0.00     0.180 C 
HETATM   13  C9  UNL     1      41.357 124.122  21.979  1.00  0.00     0.044 C 
HETATM   14  C10 UNL     1      42.491 123.687  21.081  1.00  0.00     0.106 C 
HETATM   15  C11 UNL     1      43.059 122.377  21.423  1.00  0.00     0.224 C 
HETATM   16  O1  UNL     1      43.597 121.651  20.521  1.00  0.00    -0.273 OA
HETATM   17  N3  UNL     1      43.015 121.907  22.762  1.00  0.00    -0.296 N 
HETATM   18  C12 UNL     1      41.879 122.283  23.542  1.00  0.00     0.247 C 
ATOM     19  H3  UNL     1      43.759 121.327  23.149  1.00  0.00     0.171 HD
HETATM   20  O2  UNL     1      41.834 122.018  24.751  1.00  0.00    -0.271 OA
ENDBRANCH   9  12
TORSDOF 1
ENDMDL
