MODEL 6
REMARK VINA RESULT: -7.684249125      2.583      6.463
REMARK  1 active torsions:
REMARK  status: ('A' for Active; 'I' for Inactive)
REMARK    1  A    between atoms: N2_9  and  C8_10 
ROOT
HETATM    1  N1  UNL     1      43.082 131.830  14.075  1.00  0.00    -0.102 NA
HETATM    2  C1  UNL     1      44.307 131.378  14.640  1.00  0.00     0.055 A 
HETATM    3  C2  UNL     1      45.403 131.066  13.875  1.00  0.00     0.027 A 
HETATM    4  C3  UNL     1      46.590 130.629  14.425  1.00  0.00     0.003 A 
HETATM    5  C4  UNL     1      46.684 130.498  15.794  1.00  0.00     0.018 A 
HETATM    6  C5  UNL     1      45.604 130.801  16.625  1.00  0.00     0.042 A 
HETATM    7  C6  UNL     1      44.445 131.233  16.032  1.00  0.00    -0.000 A 
HETATM    8  C7  UNL     1      43.462 131.491  17.080  1.00  0.00     0.168 A 
HETATM    9  N2  UNL     1      44.099 131.178  18.320  1.00  0.00    -0.330 N 
HETATM   10  C13 UNL     1      45.418 130.756  18.067  1.00  0.00     0.255 A 
HETATM   11  O3  UNL     1      46.297 130.402  18.895  1.00  0.00    -0.267 OA
ENDROOT
BRANCH   9  12
HETATM   12  C8  UNL     1      43.478 131.279  19.645  1.00  0.00     0.180 C 
HETATM   13  C9  UNL     1      44.562 131.589  20.629  1.00  0.00     0.044 C 
HETATM   14  C10 UNL     1      44.028 131.872  22.014  1.00  0.00     0.106 C 
HETATM   15  C11 UNL     1      42.585 132.144  22.057  1.00  0.00     0.224 C 
HETATM   16  O1  UNL     1      41.908 131.874  23.105  1.00  0.00    -0.273 OA
HETATM   17  N3  UNL     1      41.933 132.712  20.931  1.00  0.00    -0.296 N 
HETATM   18  C12 UNL     1      42.429 132.347  19.643  1.00  0.00     0.247 C 
ATOM     19  H3  UNL     1      41.145 133.351  21.038  1.00  0.00     0.171 HD
HETATM   20  O2  UNL     1      41.994 132.899  18.624  1.00  0.00    -0.271 OA
ENDBRANCH   9  12
TORSDOF 1
ENDMDL
