MODEL 1
REMARK VINA RESULT: -5.364607713      0.000      0.000
REMARK  16 active torsions:
REMARK  status: ('A' for Active; 'I' for Inactive)
REMARK       I    between atoms: C2_2  and  N1_4 
REMARK    1  A    between atoms: N1_4  and  C3_6 
REMARK    2  A    between atoms: C4_7  and  O2_8 
REMARK    3  A    between atoms: C6_11  and  O3_12 
REMARK    4  A    between atoms: C6_11  and  C13_28 
REMARK    5  A    between atoms: O3_12  and  C7_13 
REMARK    6  A    between atoms: C8_14  and  O4_15 
REMARK    7  A    between atoms: C9_17  and  O5_18 
REMARK    8  A    between atoms: C10_21  and  C11_22 
REMARK    9  A    between atoms: C11_22  and  O7_23 
REMARK   10  A    between atoms: C12_25  and  O8_26 
REMARK   11  A    between atoms: C14_32  and  C15_33 
REMARK   12  A    between atoms: C15_33  and  O12_34 
REMARK   13  A    between atoms: C15_33  and  C16_36 
REMARK   14  A    between atoms: C16_36  and  O13_37 
REMARK   15  A    between atoms: C16_36  and  C17_39 
REMARK   16  A    between atoms: C17_39  and  O14_40 
ROOT
HETATM    1  C3  UNL     1     -16.374  70.006  30.101  1.00  0.00     0.145 C 
HETATM    2  C4  UNL     1     -15.140  69.910  29.221  1.00  0.00     0.149 C 
HETATM    3  C5  UNL     1     -15.199  70.747  27.995  1.00  0.00     0.114 C 
HETATM    4  C6  UNL     1     -15.868  72.119  28.230  1.00  0.00     0.259 C 
HETATM    5  O11 UNL     1     -17.011  71.911  28.928  1.00  0.00    -0.336 OA
HETATM    6  C14 UNL     1     -16.868  71.419  30.177  1.00  0.00     0.182 C 
ENDROOT
BRANCH   4   7
HETATM    7  O3  UNL     1     -16.300  72.457  26.944  1.00  0.00    -0.336 OA
BRANCH   7   8
HETATM    8  C7  UNL     1     -17.571  72.839  26.761  1.00  0.00     0.190 C 
HETATM    9  C8  UNL     1     -17.897  72.422  25.278  1.00  0.00     0.204 C 
HETATM   10  C9  UNL     1     -16.930  73.213  24.432  1.00  0.00     0.288 C 
HETATM   11  O6  UNL     1     -15.890  73.782  25.115  1.00  0.00    -0.349 OA
HETATM   12  C10 UNL     1     -16.292  74.745  26.039  1.00  0.00     0.179 C 
HETATM   13  C12 UNL     1     -17.638  74.342  26.669  1.00  0.00     0.181 C 
BRANCH   9  14
HETATM   14  O4  UNL     1     -19.203  72.859  25.068  1.00  0.00    -0.388 OA
ATOM     15  H4  UNL     1     -19.127  73.533  24.403  1.00  0.00     0.210 HD
ENDBRANCH   9  14
BRANCH  10  16
HETATM   16  O5  UNL     1     -16.372  72.305  23.513  1.00  0.00    -0.369 OA
ATOM     17  H5  UNL     1     -15.753  72.800  22.989  1.00  0.00     0.212 HD
ENDBRANCH  10  16
BRANCH  12  18
HETATM   18  C11 UNL     1     -16.428  76.109  25.454  1.00  0.00     0.198 C 
BRANCH  18  19
HETATM   19  O7  UNL     1     -16.478  77.033  26.495  1.00  0.00    -0.398 OA
ATOM     20  H7  UNL     1     -17.346  77.420  26.515  1.00  0.00     0.209 HD
ENDBRANCH  18  19
ENDBRANCH  12  18
BRANCH  13  21
HETATM   21  O8  UNL     1     -17.823  74.876  27.923  1.00  0.00    -0.390 OA
ATOM     22  H8  UNL     1     -18.585  75.444  27.920  1.00  0.00     0.210 HD
ENDBRANCH  13  21
ENDBRANCH   7   8
ENDBRANCH   4   7
BRANCH   4  23
HETATM   23  C13 UNL     1     -14.852  72.989  28.789  1.00  0.00     0.239 C 
HETATM   24  O9  UNL     1     -15.085  74.187  29.157  1.00  0.00    -0.644 OA
HETATM   25  O10 UNL     1     -13.499  72.653  29.003  1.00  0.00    -0.644 OA
ENDBRANCH   4  23
BRANCH   2  26
HETATM   26  O2  UNL     1     -13.997  70.187  29.971  1.00  0.00    -0.393 OA
ATOM     27  H2  UNL     1     -13.225  69.888  29.507  1.00  0.00     0.210 HD
ENDBRANCH   2  26
BRANCH   6  28
HETATM   28  C15 UNL     1     -18.231  71.541  30.836  1.00  0.00     0.180 C 
BRANCH  28  29
HETATM   29  O12 UNL     1     -19.118  71.111  29.800  1.00  0.00    -0.390 OA
ATOM     30  H12 UNL     1     -19.750  71.819  29.761  1.00  0.00     0.210 HD
ENDBRANCH  28  29
BRANCH  28  31
HETATM   31  C16 UNL     1     -18.630  72.972  31.065  1.00  0.00     0.173 C 
BRANCH  31  32
HETATM   32  O13 UNL     1     -19.126  73.631  29.977  1.00  0.00    -0.391 OA
ATOM     33  H13 UNL     1     -19.896  74.164  30.133  1.00  0.00     0.210 HD
ENDBRANCH  31  32
BRANCH  31  34
HETATM   34  C17 UNL     1     -17.412  73.679  31.664  1.00  0.00     0.198 C 
BRANCH  34  35
HETATM   35  O14 UNL     1     -17.152  74.858  30.984  1.00  0.00    -0.398 OA
ATOM     36  H14 UNL     1     -16.331  75.236  31.277  1.00  0.00     0.209 HD
ENDBRANCH  34  35
ENDBRANCH  31  34
ENDBRANCH  28  31
ENDBRANCH   6  28
BRANCH   1  37
HETATM   37  N1  UNL     1     -17.337  69.045  29.628  1.00  0.00    -0.352 N 
HETATM   38  C2  UNL     1     -17.817  68.052  30.512  1.00  0.00     0.214 C 
HETATM   39  C1  UNL     1     -18.828  67.056  30.003  1.00  0.00     0.117 C 
HETATM   40  O1  UNL     1     -17.467  67.921  31.714  1.00  0.00    -0.274 OA
ATOM     41  H1  UNL     1     -17.669  69.080  28.664  1.00  0.00     0.163 HD
ENDBRANCH   1  37
TORSDOF 16
ENDMDL
