MODEL 2
REMARK VINA RESULT: -5.310566870      5.863      9.218
REMARK  16 active torsions:
REMARK  status: ('A' for Active; 'I' for Inactive)
REMARK       I    between atoms: C2_2  and  N1_4 
REMARK    1  A    between atoms: N1_4  and  C3_6 
REMARK    2  A    between atoms: C4_7  and  O2_8 
REMARK    3  A    between atoms: C6_11  and  O3_12 
REMARK    4  A    between atoms: C6_11  and  C13_28 
REMARK    5  A    between atoms: O3_12  and  C7_13 
REMARK    6  A    between atoms: C8_14  and  O4_15 
REMARK    7  A    between atoms: C9_17  and  O5_18 
REMARK    8  A    between atoms: C10_21  and  C11_22 
REMARK    9  A    between atoms: C11_22  and  O7_23 
REMARK   10  A    between atoms: C12_25  and  O8_26 
REMARK   11  A    between atoms: C14_32  and  C15_33 
REMARK   12  A    between atoms: C15_33  and  O12_34 
REMARK   13  A    between atoms: C15_33  and  C16_36 
REMARK   14  A    between atoms: C16_36  and  O13_37 
REMARK   15  A    between atoms: C16_36  and  C17_39 
REMARK   16  A    between atoms: C17_39  and  O14_40 
ROOT
HETATM    1  C3  UNL     1     -10.822  74.908  21.668  1.00  0.00     0.145 C 
HETATM    2  C4  UNL     1     -12.273  74.630  21.320  1.00  0.00     0.149 C 
HETATM    3  C5  UNL     1     -13.020  73.891  22.370  1.00  0.00     0.114 C 
HETATM    4  C6  UNL     1     -12.645  74.330  23.802  1.00  0.00     0.259 C 
HETATM    5  O11 UNL     1     -11.293  74.379  23.882  1.00  0.00    -0.336 OA
HETATM    6  C14 UNL     1     -10.681  75.299  23.107  1.00  0.00     0.182 C 
ENDROOT
BRANCH   4   7
HETATM    7  O3  UNL     1     -13.000  73.206  24.554  1.00  0.00    -0.336 OA
BRANCH   7   8
HETATM    8  C7  UNL     1     -12.034  72.438  25.076  1.00  0.00     0.190 C 
HETATM    9  C8  UNL     1     -12.423  70.973  24.650  1.00  0.00     0.204 C 
HETATM   10  C9  UNL     1     -13.767  70.726  25.293  1.00  0.00     0.288 C 
HETATM   11  O6  UNL     1     -14.402  71.845  25.759  1.00  0.00    -0.349 OA
HETATM   12  C10 UNL     1     -13.719  72.482  26.793  1.00  0.00     0.179 C 
HETATM   13  C12 UNL     1     -12.200  72.366  26.573  1.00  0.00     0.181 C 
BRANCH   9  14
HETATM   14  O4  UNL     1     -11.447  70.165  25.230  1.00  0.00    -0.388 OA
ATOM     15  H4  UNL     1     -11.639  69.290  24.913  1.00  0.00     0.210 HD
ENDBRANCH   9  14
BRANCH  10  16
HETATM   16  O5  UNL     1     -14.588  70.171  24.295  1.00  0.00    -0.369 OA
ATOM     17  H5  UNL     1     -14.461  69.230  24.336  1.00  0.00     0.212 HD
ENDBRANCH  10  16
BRANCH  12  18
HETATM   18  C11 UNL     1     -14.049  71.943  28.143  1.00  0.00     0.198 C 
BRANCH  18  19
HETATM   19  O7  UNL     1     -13.244  72.583  29.083  1.00  0.00    -0.398 OA
ATOM     20  H7  UNL     1     -12.496  72.026  29.267  1.00  0.00     0.209 HD
ENDBRANCH  18  19
ENDBRANCH  12  18
BRANCH  13  21
HETATM   21  O8  UNL     1     -11.494  73.386  27.167  1.00  0.00    -0.390 OA
ATOM     22  H8  UNL     1     -10.666  73.054  27.494  1.00  0.00     0.210 HD
ENDBRANCH  13  21
ENDBRANCH   7   8
ENDBRANCH   4   7
BRANCH   4  23
HETATM   23  C13 UNL     1     -13.410  75.529  24.085  1.00  0.00     0.239 C 
HETATM   24  O9  UNL     1     -12.986  76.464  24.842  1.00  0.00    -0.644 OA
HETATM   25  O10 UNL     1     -14.694  75.831  23.585  1.00  0.00    -0.644 OA
ENDBRANCH   4  23
BRANCH   2  26
HETATM   26  O2  UNL     1     -12.917  75.819  20.979  1.00  0.00    -0.393 OA
ATOM     27  H2  UNL     1     -13.833  75.650  20.795  1.00  0.00     0.210 HD
ENDBRANCH   2  26
BRANCH   6  28
HETATM   28  C15 UNL     1      -9.237  75.350  23.575  1.00  0.00     0.180 C 
BRANCH  28  29
HETATM   29  O12 UNL     1      -9.067  74.076  24.201  1.00  0.00    -0.390 OA
ATOM     30  H12 UNL     1      -8.851  74.312  25.096  1.00  0.00     0.210 HD
ENDBRANCH  28  29
BRANCH  28  31
HETATM   31  C16 UNL     1      -9.035  76.323  24.704  1.00  0.00     0.173 C 
BRANCH  31  32
HETATM   32  O13 UNL     1     -10.173  76.830  25.261  1.00  0.00    -0.391 OA
ATOM     33  H13 UNL     1     -10.218  76.798  26.209  1.00  0.00     0.210 HD
ENDBRANCH  31  32
BRANCH  31  34
HETATM   34  C17 UNL     1      -8.108  77.421  24.178  1.00  0.00     0.198 C 
BRANCH  34  35
HETATM   35  O14 UNL     1      -7.570  78.147  25.229  1.00  0.00    -0.398 OA
ATOM     36  H14 UNL     1      -7.165  78.944  24.908  1.00  0.00     0.209 HD
ENDBRANCH  34  35
ENDBRANCH  31  34
ENDBRANCH  28  31
ENDBRANCH   6  28
BRANCH   1  37
HETATM   37  N1  UNL     1     -10.038  73.768  21.263  1.00  0.00    -0.352 N 
HETATM   38  C2  UNL     1      -9.576  73.683  19.929  1.00  0.00     0.214 C 
HETATM   39  C1  UNL     1      -8.753  72.487  19.524  1.00  0.00     0.117 C 
HETATM   40  O1  UNL     1      -9.795  74.535  19.030  1.00  0.00    -0.274 OA
ATOM     41  H1  UNL     1      -9.819  73.031  21.932  1.00  0.00     0.163 HD
ENDBRANCH   1  37
TORSDOF 16
ENDMDL
