MODEL 3
REMARK VINA RESULT: -5.256052284      4.997      8.549
REMARK  16 active torsions:
REMARK  status: ('A' for Active; 'I' for Inactive)
REMARK       I    between atoms: C2_2  and  N1_4 
REMARK    1  A    between atoms: N1_4  and  C3_6 
REMARK    2  A    between atoms: C4_7  and  O2_8 
REMARK    3  A    between atoms: C6_11  and  O3_12 
REMARK    4  A    between atoms: C6_11  and  C13_28 
REMARK    5  A    between atoms: O3_12  and  C7_13 
REMARK    6  A    between atoms: C8_14  and  O4_15 
REMARK    7  A    between atoms: C9_17  and  O5_18 
REMARK    8  A    between atoms: C10_21  and  C11_22 
REMARK    9  A    between atoms: C11_22  and  O7_23 
REMARK   10  A    between atoms: C12_25  and  O8_26 
REMARK   11  A    between atoms: C14_32  and  C15_33 
REMARK   12  A    between atoms: C15_33  and  O12_34 
REMARK   13  A    between atoms: C15_33  and  C16_36 
REMARK   14  A    between atoms: C16_36  and  O13_37 
REMARK   15  A    between atoms: C16_36  and  C17_39 
REMARK   16  A    between atoms: C17_39  and  O14_40 
ROOT
HETATM    1  C3  UNL     1     -10.801  74.573  23.092  1.00  0.00     0.145 C 
HETATM    2  C4  UNL     1     -10.140  73.273  22.671  1.00  0.00     0.149 C 
HETATM    3  C5  UNL     1     -10.580  72.086  23.448  1.00  0.00     0.114 C 
HETATM    4  C6  UNL     1     -12.087  72.107  23.785  1.00  0.00     0.259 C 
HETATM    5  O11 UNL     1     -12.391  73.340  24.257  1.00  0.00    -0.336 OA
HETATM    6  C14 UNL     1     -12.255  74.364  23.389  1.00  0.00     0.182 C 
ENDROOT
BRANCH   4   7
HETATM    7  O3  UNL     1     -12.147  71.277  24.908  1.00  0.00    -0.336 OA
BRANCH   7   8
HETATM    8  C7  UNL     1     -11.206  71.390  25.854  1.00  0.00     0.190 C 
HETATM    9  C8  UNL     1     -10.930  69.909  26.314  1.00  0.00     0.204 C 
HETATM   10  C9  UNL     1     -12.248  69.424  26.867  1.00  0.00     0.288 C 
HETATM   11  O6  UNL     1     -13.331  70.199  26.553  1.00  0.00    -0.349 OA
HETATM   12  C10 UNL     1     -13.270  71.484  27.088  1.00  0.00     0.179 C 
HETATM   13  C12 UNL     1     -11.812  71.981  27.101  1.00  0.00     0.181 C 
BRANCH   9  14
HETATM   14  O4  UNL     1      -9.985  70.025  27.331  1.00  0.00    -0.388 OA
ATOM     15  H4  UNL     1     -10.419  70.535  28.005  1.00  0.00     0.210 HD
ENDBRANCH   9  14
BRANCH  10  16
HETATM   16  O5  UNL     1     -12.471  68.154  26.303  1.00  0.00    -0.369 OA
ATOM     17  H5  UNL     1     -12.798  68.306  25.424  1.00  0.00     0.212 HD
ENDBRANCH  10  16
BRANCH  12  18
HETATM   18  C11 UNL     1     -13.820  71.579  28.470  1.00  0.00     0.198 C 
BRANCH  18  19
HETATM   19  O7  UNL     1     -13.179  72.625  29.130  1.00  0.00    -0.398 OA
ATOM     20  H7  UNL     1     -12.249  72.576  28.941  1.00  0.00     0.209 HD
ENDBRANCH  18  19
ENDBRANCH  12  18
BRANCH  13  21
HETATM   21  O8  UNL     1     -11.714  73.351  27.061  1.00  0.00    -0.390 OA
ATOM     22  H8  UNL     1     -12.583  73.734  27.043  1.00  0.00     0.210 HD
ENDBRANCH  13  21
ENDBRANCH   7   8
ENDBRANCH   4   7
BRANCH   4  23
HETATM   23  C13 UNL     1     -12.784  71.612  22.613  1.00  0.00     0.239 C 
HETATM   24  O9  UNL     1     -12.236  70.856  21.744  1.00  0.00    -0.644 OA
HETATM   25  O10 UNL     1     -14.125  71.882  22.269  1.00  0.00    -0.644 OA
ENDBRANCH   4  23
BRANCH   2  26
HETATM   26  O2  UNL     1     -10.311  73.075  21.300  1.00  0.00    -0.393 OA
ATOM     27  H2  UNL     1     -10.498  72.160  21.126  1.00  0.00     0.210 HD
ENDBRANCH   2  26
BRANCH   6  28
HETATM   28  C15 UNL     1     -12.910  75.565  24.047  1.00  0.00     0.180 C 
BRANCH  28  29
HETATM   29  O12 UNL     1     -12.526  75.418  25.417  1.00  0.00    -0.390 OA
ATOM     30  H12 UNL     1     -13.318  75.660  25.882  1.00  0.00     0.210 HD
ENDBRANCH  28  29
BRANCH  28  31
HETATM   31  C16 UNL     1     -14.408  75.448  24.091  1.00  0.00     0.173 C 
BRANCH  31  32
HETATM   32  O13 UNL     1     -14.961  74.573  23.202  1.00  0.00    -0.391 OA
ATOM     33  H13 UNL     1     -15.162  73.711  23.543  1.00  0.00     0.210 HD
ENDBRANCH  31  32
BRANCH  31  34
HETATM   34  C17 UNL     1     -14.965  76.865  23.931  1.00  0.00     0.198 C 
BRANCH  34  35
HETATM   35  O14 UNL     1     -14.623  77.647  25.024  1.00  0.00    -0.398 OA
ATOM     36  H14 UNL     1     -13.713  77.913  24.970  1.00  0.00     0.209 HD
ENDBRANCH  34  35
ENDBRANCH  31  34
ENDBRANCH  28  31
ENDBRANCH   6  28
BRANCH   1  37
HETATM   37  N1  UNL     1     -10.030  75.137  24.172  1.00  0.00    -0.352 N 
HETATM   38  C2  UNL     1      -9.145  76.207  23.907  1.00  0.00     0.214 C 
HETATM   39  C1  UNL     1      -8.351  76.788  25.049  1.00  0.00     0.117 C 
HETATM   40  O1  UNL     1      -8.957  76.729  22.778  1.00  0.00    -0.274 OA
ATOM     41  H1  UNL     1     -10.123  74.767  25.118  1.00  0.00     0.163 HD
ENDBRANCH   1  37
TORSDOF 16
ENDMDL
