MODEL 11
REMARK VINA RESULT: -3.268732878      1.005      1.005
REMARK  1 active torsions:
REMARK  status: ('A' for Active; 'I' for Inactive)
REMARK    1  A    between atoms: O1_1  and  C1_3 
ROOT
HETATM    1  C1  UNL     1     -12.806  -6.042   0.924  1.00  0.00     0.087 A 
HETATM    2  C2  UNL     1     -12.966  -5.044   1.864  1.00  0.00     0.040 A 
HETATM    3  C3  UNL     1     -13.291  -5.316   3.182  1.00  0.00     0.026 A 
HETATM    4  C4  UNL     1     -13.456  -6.654   3.546  1.00  0.00     0.035 A 
HETATM    5 CL1  UNL     1     -13.871  -7.090   5.205  1.00  0.00    -0.084 Cl
HETATM    6  C5  UNL     1     -13.292  -7.628   2.593  1.00  0.00     0.050 A 
HETATM    7  C6  UNL     1     -12.969  -7.370   1.279  1.00  0.00     0.068 A 
HETATM    8 CL2  UNL     1     -12.772  -8.651   0.098  1.00  0.00    -0.081 Cl
ENDROOT
BRANCH   1   9
HETATM    9  O1  UNL     1     -12.479  -5.687  -0.380  1.00  0.00    -0.359 OA
ATOM     10  H1  UNL     1     -11.644  -5.264  -0.544  1.00  0.00     0.217 HD
ENDBRANCH   1   9
TORSDOF 1
ENDMDL
