MODEL 9
REMARK VINA RESULT: -4.198579590      1.641      1.882
REMARK  1 active torsions:
REMARK  status: ('A' for Active; 'I' for Inactive)
REMARK    1  A    between atoms: O1_1  and  C1_3 
ROOT
HETATM    1  C1  UNL     1     -13.130  -7.909   0.823  1.00  0.00     0.087 A 
HETATM    2  C2  UNL     1     -14.077  -6.967   0.473  1.00  0.00     0.040 A 
HETATM    3  C3  UNL     1     -14.233  -5.783   1.171  1.00  0.00     0.026 A 
HETATM    4  C4  UNL     1     -13.393  -5.557   2.262  1.00  0.00     0.035 A 
HETATM    5 CL1  UNL     1     -13.525  -4.073   3.208  1.00  0.00    -0.084 Cl
HETATM    6  C5  UNL     1     -12.460  -6.509   2.591  1.00  0.00     0.050 A 
HETATM    7  C6  UNL     1     -12.295  -7.692   1.904  1.00  0.00     0.068 A 
HETATM    8 CL2  UNL     1     -11.088  -8.876   2.365  1.00  0.00    -0.081 Cl
ENDROOT
BRANCH   1   9
HETATM    9  O1  UNL     1     -13.035  -9.075   0.071  1.00  0.00    -0.359 OA
ATOM     10  H1  UNL     1     -12.213  -9.276  -0.360  1.00  0.00     0.217 HD
ENDBRANCH   1   9
TORSDOF 1
ENDMDL
