MODEL 1
REMARK VINA RESULT: -6.958834001      0.000      0.000
REMARK  1 active torsions:
REMARK  status: ('A' for Active; 'I' for Inactive)
REMARK    1  A    between atoms: O1_1  and  C1_3 
ROOT
HETATM    1  C1  UNL     1     -13.135  -6.800   0.657  1.00  0.00     0.087 A 
HETATM    2  C2  UNL     1     -13.668  -5.735   1.355  1.00  0.00     0.040 A 
HETATM    3  C3  UNL     1     -13.563  -5.626   2.731  1.00  0.00     0.026 A 
HETATM    4  C4  UNL     1     -12.889  -6.642   3.411  1.00  0.00     0.035 A 
HETATM    5 CL1  UNL     1     -12.708  -6.583   5.166  1.00  0.00    -0.084 Cl
HETATM    6  C5  UNL     1     -12.368  -7.690   2.695  1.00  0.00     0.050 A 
HETATM    7  C6  UNL     1     -12.466  -7.810   1.326  1.00  0.00     0.068 A 
HETATM    8 CL2  UNL     1     -11.783  -9.170   0.457  1.00  0.00    -0.081 Cl
ENDROOT
BRANCH   1   9
HETATM    9  O1  UNL     1     -13.283  -6.836  -0.725  1.00  0.00    -0.359 OA
ATOM     10  H1  UNL     1     -13.771  -7.553  -1.115  1.00  0.00     0.217 HD
ENDBRANCH   1   9
TORSDOF 1
ENDMDL
