MODEL 7
REMARK VINA RESULT: -5.688501267      0.802      1.109
REMARK  12 active torsions:
REMARK  status: ('A' for Active; 'I' for Inactive)
REMARK    1  A    between atoms: C2_2  and  C3_3 
REMARK    2  A    between atoms: C3_3  and  C4_4 
REMARK    3  A    between atoms: C4_4  and  C5_5 
REMARK    4  A    between atoms: C5_5  and  C6_6 
REMARK    5  A    between atoms: C6_6  and  C7_7 
REMARK    6  A    between atoms: C7_7  and  O1_8 
REMARK    7  A    between atoms: O1_8  and  C8_9 
REMARK    8  A    between atoms: C9_11  and  C10_12 
REMARK    9  A    between atoms: C10_12  and  O3_13 
REMARK   10  A    between atoms: C11_15  and  O4_16 
REMARK   11  A    between atoms: C12_18  and  O5_19 
REMARK   12  A    between atoms: C13_21  and  O6_22 
ROOT
HETATM    1  C8  UNL     1      -7.643   3.518  -1.089  1.00  0.00     0.291 C 
HETATM    2  O2  UNL     1      -7.129   3.554   0.174  1.00  0.00    -0.348 OA
HETATM    3  C9  UNL     1      -6.252   4.516   0.484  1.00  0.00     0.179 C 
HETATM    4  C11 UNL     1      -6.169   5.727  -0.356  1.00  0.00     0.180 C 
HETATM    5  C12 UNL     1      -6.602   5.553  -1.783  1.00  0.00     0.183 C 
HETATM    6  C13 UNL     1      -6.588   4.040  -2.043  1.00  0.00     0.204 C 
ENDROOT
BRANCH   1   7
HETATM    7  O1  UNL     1      -8.060   2.250  -1.395  1.00  0.00    -0.359 OA
BRANCH   7   8
HETATM    8  C7  UNL     1      -7.186   1.300  -0.914  1.00  0.00     0.171 C 
BRANCH   8   9
HETATM    9  C6  UNL     1      -7.819   0.290  -0.017  1.00  0.00     0.026 C 
BRANCH   9  10
HETATM   10  C5  UNL     1      -9.203   0.696   0.441  1.00  0.00     0.002 C 
BRANCH  10  11
HETATM   11  C4  UNL     1      -9.755  -0.230   1.484  1.00  0.00     0.000 C 
BRANCH  11  12
HETATM   12  C3  UNL     1      -9.833  -1.661   1.014  1.00  0.00    -0.000 C 
BRANCH  12  13
HETATM   13  C2  UNL     1      -9.220  -2.621   1.982  1.00  0.00    -0.005 C 
HETATM   14  C1  UNL     1      -8.076  -3.325   1.288  1.00  0.00     0.005 C 
ENDBRANCH  12  13
ENDBRANCH  11  12
ENDBRANCH  10  11
ENDBRANCH   9  10
ENDBRANCH   8   9
ENDBRANCH   7   8
ENDBRANCH   1   7
BRANCH   6  15
HETATM   15  O6  UNL     1      -6.838   3.743  -3.356  1.00  0.00    -0.388 OA
ATOM     16  H6  UNL     1      -6.121   3.959  -3.941  1.00  0.00     0.210 HD
ENDBRANCH   6  15
BRANCH   3  17
HETATM   17  C10 UNL     1      -6.496   4.967   1.932  1.00  0.00     0.198 C 
BRANCH  17  18
HETATM   18  O3  UNL     1      -7.273   6.134   1.868  1.00  0.00    -0.398 OA
ATOM     19  H3  UNL     1      -8.172   5.875   2.034  1.00  0.00     0.209 HD
ENDBRANCH  17  18
ENDBRANCH   3  17
BRANCH   5  20
HETATM   20  O5  UNL     1      -7.958   5.931  -1.913  1.00  0.00    -0.390 OA
ATOM     21  H5  UNL     1      -8.209   6.467  -1.169  1.00  0.00     0.210 HD
ENDBRANCH   5  20
BRANCH   4  22
HETATM   22  O4  UNL     1      -4.837   6.203  -0.397  1.00  0.00    -0.390 OA
ATOM     23  H4  UNL     1      -4.809   7.122  -0.158  1.00  0.00     0.210 HD
ENDBRANCH   4  22
TORSDOF 12
ENDMDL
