MODEL 17
REMARK VINA RESULT: -5.126458472      3.696      6.152
REMARK  12 active torsions:
REMARK  status: ('A' for Active; 'I' for Inactive)
REMARK    1  A    between atoms: C2_2  and  C3_3 
REMARK    2  A    between atoms: C3_3  and  C4_4 
REMARK    3  A    between atoms: C4_4  and  C5_5 
REMARK    4  A    between atoms: C5_5  and  C6_6 
REMARK    5  A    between atoms: C6_6  and  C7_7 
REMARK    6  A    between atoms: C7_7  and  O1_8 
REMARK    7  A    between atoms: O1_8  and  C8_9 
REMARK    8  A    between atoms: C9_11  and  C10_12 
REMARK    9  A    between atoms: C10_12  and  O3_13 
REMARK   10  A    between atoms: C11_15  and  O4_16 
REMARK   11  A    between atoms: C12_18  and  O5_19 
REMARK   12  A    between atoms: C13_21  and  O6_22 
ROOT
HETATM    1  C8  UNL     1      -7.096   3.417  -2.713  1.00  0.00     0.291 C 
HETATM    2  O2  UNL     1      -7.660   4.637  -2.941  1.00  0.00    -0.348 OA
HETATM    3  C9  UNL     1      -7.311   5.664  -2.157  1.00  0.00     0.179 C 
HETATM    4  C11 UNL     1      -6.068   5.588  -1.366  1.00  0.00     0.180 C 
HETATM    5  C12 UNL     1      -5.607   4.201  -1.018  1.00  0.00     0.183 C 
HETATM    6  C13 UNL     1      -6.826   3.292  -1.228  1.00  0.00     0.204 C 
ENDROOT
BRANCH   1   7
HETATM    7  O1  UNL     1      -7.906   2.422  -3.195  1.00  0.00    -0.359 OA
BRANCH   7   8
HETATM    8  C7  UNL     1      -9.229   2.808  -3.206  1.00  0.00     0.171 C 
BRANCH   8   9
HETATM    9  C6  UNL     1      -9.969   2.404  -4.436  1.00  0.00     0.026 C 
BRANCH   9  10
HETATM   10  C5  UNL     1      -9.052   1.987  -5.565  1.00  0.00     0.002 C 
BRANCH  10  11
HETATM   11  C4  UNL     1      -8.878   3.069  -6.589  1.00  0.00     0.000 C 
BRANCH  11  12
HETATM   12  C3  UNL     1      -7.560   3.792  -6.459  1.00  0.00    -0.000 C 
BRANCH  12  13
HETATM   13  C2  UNL     1      -6.818   3.880  -7.753  1.00  0.00    -0.005 C 
HETATM   14  C1  UNL     1      -6.046   2.594  -7.941  1.00  0.00     0.005 C 
ENDBRANCH  12  13
ENDBRANCH  11  12
ENDBRANCH  10  11
ENDBRANCH   9  10
ENDBRANCH   8   9
ENDBRANCH   7   8
ENDBRANCH   1   7
BRANCH   6  15
HETATM   15  O6  UNL     1      -6.584   2.007  -0.819  1.00  0.00    -0.388 OA
ATOM     16  H6  UNL     1      -6.184   1.949   0.041  1.00  0.00     0.210 HD
ENDBRANCH   6  15
BRANCH   3  17
HETATM   17  C10 UNL     1      -7.248   6.943  -3.005  1.00  0.00     0.198 C 
BRANCH  17  18
HETATM   18  O3  UNL     1      -5.893   7.286  -3.123  1.00  0.00    -0.398 OA
ATOM     19  H3  UNL     1      -5.541   6.773  -3.841  1.00  0.00     0.209 HD
ENDBRANCH  17  18
ENDBRANCH   3  17
BRANCH   5  20
HETATM   20  O5  UNL     1      -4.661   3.767  -1.973  1.00  0.00    -0.390 OA
ATOM     21  H5  UNL     1      -4.974   3.976  -2.846  1.00  0.00     0.210 HD
ENDBRANCH   5  20
BRANCH   4  22
HETATM   22  O4  UNL     1      -6.226   6.276  -0.139  1.00  0.00    -0.390 OA
ATOM     23  H4  UNL     1      -5.579   6.969  -0.066  1.00  0.00     0.210 HD
ENDBRANCH   4  22
TORSDOF 12
ENDMDL
