MODEL 11
REMARK VINA RESULT: -5.483530329      2.004      2.705
REMARK  12 active torsions:
REMARK  status: ('A' for Active; 'I' for Inactive)
REMARK    1  A    between atoms: C2_2  and  C3_3 
REMARK    2  A    between atoms: C3_3  and  C4_4 
REMARK    3  A    between atoms: C4_4  and  C5_5 
REMARK    4  A    between atoms: C5_5  and  C6_6 
REMARK    5  A    between atoms: C6_6  and  C7_7 
REMARK    6  A    between atoms: C7_7  and  O1_8 
REMARK    7  A    between atoms: O1_8  and  C8_9 
REMARK    8  A    between atoms: C9_11  and  C10_12 
REMARK    9  A    between atoms: C10_12  and  O3_13 
REMARK   10  A    between atoms: C11_15  and  O4_16 
REMARK   11  A    between atoms: C12_18  and  O5_19 
REMARK   12  A    between atoms: C13_21  and  O6_22 
ROOT
HETATM    1  C8  UNL     1      -7.540   3.460  -1.048  1.00  0.00     0.291 C 
HETATM    2  O2  UNL     1      -6.979   3.549   0.192  1.00  0.00    -0.348 OA
HETATM    3  C9  UNL     1      -6.159   4.573   0.455  1.00  0.00     0.179 C 
HETATM    4  C11 UNL     1      -6.196   5.775  -0.401  1.00  0.00     0.180 C 
HETATM    5  C12 UNL     1      -6.673   5.552  -1.807  1.00  0.00     0.183 C 
HETATM    6  C13 UNL     1      -6.565   4.040  -2.051  1.00  0.00     0.204 C 
ENDROOT
BRANCH   1   7
HETATM    7  O1  UNL     1      -7.881   2.161  -1.322  1.00  0.00    -0.359 OA
BRANCH   7   8
HETATM    8  C7  UNL     1      -7.971   1.408  -0.172  1.00  0.00     0.171 C 
BRANCH   8   9
HETATM    9  C6  UNL     1      -7.454   0.017  -0.314  1.00  0.00     0.026 C 
BRANCH   9  10
HETATM   10  C5  UNL     1      -6.079  -0.038  -0.943  1.00  0.00     0.002 C 
BRANCH  10  11
HETATM   11  C4  UNL     1      -5.184  -1.040  -0.275  1.00  0.00     0.000 C 
BRANCH  11  12
HETATM   12  C3  UNL     1      -5.296  -2.419  -0.877  1.00  0.00    -0.000 C 
BRANCH  12  13
HETATM   13  C2  UNL     1      -5.450  -3.489   0.154  1.00  0.00    -0.005 C 
HETATM   14  C1  UNL     1      -6.913  -3.582   0.522  1.00  0.00     0.005 C 
ENDBRANCH  12  13
ENDBRANCH  11  12
ENDBRANCH  10  11
ENDBRANCH   9  10
ENDBRANCH   8   9
ENDBRANCH   7   8
ENDBRANCH   1   7
BRANCH   6  15
HETATM   15  O6  UNL     1      -6.847   3.707  -3.349  1.00  0.00    -0.388 OA
ATOM     16  H6  UNL     1      -6.708   4.418  -3.964  1.00  0.00     0.210 HD
ENDBRANCH   6  15
BRANCH   3  17
HETATM   17  C10 UNL     1      -6.375   5.027   1.906  1.00  0.00     0.198 C 
BRANCH  17  18
HETATM   18  O3  UNL     1      -7.258   6.117   1.865  1.00  0.00    -0.398 OA
ATOM     19  H3  UNL     1      -7.794   6.067   2.648  1.00  0.00     0.209 HD
ENDBRANCH  17  18
ENDBRANCH   3  17
BRANCH   5  20
HETATM   20  O5  UNL     1      -8.056   5.833  -1.885  1.00  0.00    -0.390 OA
ATOM     21  H5  UNL     1      -8.502   5.430  -1.148  1.00  0.00     0.210 HD
ENDBRANCH   5  20
BRANCH   4  22
HETATM   22  O4  UNL     1      -4.903   6.341  -0.503  1.00  0.00    -0.390 OA
ATOM     23  H4  UNL     1      -4.938   7.274  -0.324  1.00  0.00     0.210 HD
ENDBRANCH   4  22
TORSDOF 12
ENDMDL
