MODEL 3
REMARK VINA RESULT: -4.546014525      1.482      2.606
REMARK  8 active torsions:
REMARK  status: ('A' for Active; 'I' for Inactive)
REMARK    1  A    between atoms: C2_2  and  C3_3 
REMARK    2  A    between atoms: C3_3  and  O1_4 
REMARK    3  A    between atoms: O1_4  and  C4_5 
REMARK    4  A    between atoms: C5_7  and  C6_8 
REMARK    5  A    between atoms: C6_8  and  O3_9 
REMARK    6  A    between atoms: C7_11  and  O4_12 
REMARK    7  A    between atoms: C9_14  and  O5_15 
REMARK    8  A    between atoms: C10_17  and  O6_18 
ROOT
HETATM    1  C4  UNL     1     -24.853 -13.381  22.977  1.00  0.00     0.291 C 
HETATM    2  O2  UNL     1     -25.500 -14.320  22.243  1.00  0.00    -0.348 OA
HETATM    3  C5  UNL     1     -25.535 -14.234  20.906  1.00  0.00     0.179 C 
HETATM    4  C7  UNL     1     -25.744 -12.849  20.336  1.00  0.00     0.183 C 
HETATM    5  C9  UNL     1     -26.157 -11.975  21.520  1.00  0.00     0.183 C 
HETATM    6  C10 UNL     1     -24.925 -11.972  22.402  1.00  0.00     0.204 C 
ENDROOT
BRANCH   1   7
HETATM    7  O1  UNL     1     -25.495 -13.295  24.212  1.00  0.00    -0.355 OA
BRANCH   7   8
HETATM    8  C3  UNL     1     -25.301 -14.385  25.034  1.00  0.00     0.197 C 
BRANCH   8   9
HETATM    9  C2  UNL     1     -25.786 -14.070  26.399  1.00  0.00    -0.011 C 
HETATM   10  C1  UNL     1     -24.940 -14.145  27.414  1.00  0.00     0.009 C 
ENDBRANCH   8   9
ENDBRANCH   7   8
ENDBRANCH   1   7
BRANCH   6  11
HETATM   11  O6  UNL     1     -23.781 -11.681  21.646  1.00  0.00    -0.388 OA
ATOM     12  H6  UNL     1     -23.866 -10.841  21.210  1.00  0.00     0.210 HD
ENDBRANCH   6  11
BRANCH   3  13
HETATM   13  C6  UNL     1     -24.401 -14.972  20.214  1.00  0.00     0.198 C 
BRANCH  13  14
HETATM   14  O3  UNL     1     -23.324 -14.179  19.933  1.00  0.00    -0.398 OA
ATOM     15  H3  UNL     1     -22.749 -14.042  20.675  1.00  0.00     0.209 HD
ENDBRANCH  13  14
ENDBRANCH   3  13
BRANCH   5  16
HETATM   16  O5  UNL     1     -26.440 -10.683  21.147  1.00  0.00    -0.390 OA
ATOM     17  H5  UNL     1     -25.809 -10.060  21.486  1.00  0.00     0.210 HD
ENDBRANCH   5  16
BRANCH   4  18
HETATM   18  O4  UNL     1     -26.677 -12.808  19.319  1.00  0.00    -0.385 OA
HETATM   19  C8  UNL     1     -26.070 -12.448  18.108  1.00  0.00     0.202 C 
ENDBRANCH   4  18
TORSDOF 8
ENDMDL
