MODEL 2
REMARK VINA RESULT: -4.558032485      1.572      3.247
REMARK  8 active torsions:
REMARK  status: ('A' for Active; 'I' for Inactive)
REMARK    1  A    between atoms: C2_2  and  C3_3 
REMARK    2  A    between atoms: C3_3  and  O1_4 
REMARK    3  A    between atoms: O1_4  and  C4_5 
REMARK    4  A    between atoms: C5_7  and  C6_8 
REMARK    5  A    between atoms: C6_8  and  O3_9 
REMARK    6  A    between atoms: C7_11  and  O4_12 
REMARK    7  A    between atoms: C9_14  and  O5_15 
REMARK    8  A    between atoms: C10_17  and  O6_18 
ROOT
HETATM    1  C4  UNL     1     -26.524 -13.121  24.427  1.00  0.00     0.291 C 
HETATM    2  O2  UNL     1     -25.281 -13.287  23.909  1.00  0.00    -0.348 OA
HETATM    3  C5  UNL     1     -25.075 -13.182  22.589  1.00  0.00     0.179 C 
HETATM    4  C7  UNL     1     -26.130 -13.803  21.701  1.00  0.00     0.183 C 
HETATM    5  C9  UNL     1     -27.002 -14.649  22.629  1.00  0.00     0.183 C 
HETATM    6  C10 UNL     1     -27.652 -13.622  23.535  1.00  0.00     0.204 C 
ENDROOT
BRANCH   1   7
HETATM    7  O1  UNL     1     -26.607 -13.901  25.581  1.00  0.00    -0.355 OA
BRANCH   7   8
HETATM    8  C3  UNL     1     -25.405 -14.426  26.004  1.00  0.00     0.197 C 
BRANCH   8   9
HETATM    9  C2  UNL     1     -25.367 -14.448  27.486  1.00  0.00    -0.011 C 
HETATM   10  C1  UNL     1     -24.525 -13.647  28.118  1.00  0.00     0.009 C 
ENDBRANCH   8   9
ENDBRANCH   7   8
ENDBRANCH   1   7
BRANCH   6  11
HETATM   11  O6  UNL     1     -28.195 -12.574  22.779  1.00  0.00    -0.388 OA
ATOM     12  H6  UNL     1     -27.577 -12.273  22.123  1.00  0.00     0.210 HD
ENDBRANCH   6  11
BRANCH   3  13
HETATM   13  C6  UNL     1     -24.699 -11.780  22.137  1.00  0.00     0.198 C 
BRANCH  13  14
HETATM   14  O3  UNL     1     -23.594 -11.742  21.335  1.00  0.00    -0.398 OA
ATOM     15  H3  UNL     1     -23.646 -12.325  20.588  1.00  0.00     0.209 HD
ENDBRANCH  13  14
ENDBRANCH   3  13
BRANCH   5  16
HETATM   16  O5  UNL     1     -27.985 -15.329  21.951  1.00  0.00    -0.390 OA
ATOM     17  H5  UNL     1     -28.855 -15.002  22.148  1.00  0.00     0.210 HD
ENDBRANCH   5  16
BRANCH   4  18
HETATM   18  O4  UNL     1     -25.607 -14.551  20.667  1.00  0.00    -0.385 OA
HETATM   19  C8  UNL     1     -24.537 -15.335  21.118  1.00  0.00     0.202 C 
ENDBRANCH   4  18
TORSDOF 8
ENDMDL
