MODEL 1
REMARK VINA RESULT: -4.749922748      0.000      0.000
REMARK  8 active torsions:
REMARK  status: ('A' for Active; 'I' for Inactive)
REMARK    1  A    between atoms: C2_2  and  C3_3 
REMARK    2  A    between atoms: C3_3  and  O1_4 
REMARK    3  A    between atoms: O1_4  and  C4_5 
REMARK    4  A    between atoms: C5_7  and  C6_8 
REMARK    5  A    between atoms: C6_8  and  O3_9 
REMARK    6  A    between atoms: C7_11  and  O4_12 
REMARK    7  A    between atoms: C9_14  and  O5_15 
REMARK    8  A    between atoms: C10_17  and  O6_18 
ROOT
HETATM    1  C4  UNL     1     -25.849 -13.962  23.543  1.00  0.00     0.291 C 
HETATM    2  O2  UNL     1     -26.812 -13.016  23.681  1.00  0.00    -0.348 OA
HETATM    3  C5  UNL     1     -27.230 -12.311  22.621  1.00  0.00     0.179 C 
HETATM    4  C7  UNL     1     -26.154 -11.865  21.655  1.00  0.00     0.183 C 
HETATM    5  C9  UNL     1     -24.828 -12.124  22.370  1.00  0.00     0.183 C 
HETATM    6  C10 UNL     1     -24.787 -13.633  22.502  1.00  0.00     0.204 C 
ENDROOT
BRANCH   1   7
HETATM    7  O1  UNL     1     -25.155 -14.035  24.750  1.00  0.00    -0.355 OA
BRANCH   7   8
HETATM    8  C3  UNL     1     -25.931 -13.823  25.870  1.00  0.00     0.197 C 
BRANCH   8   9
HETATM    9  C2  UNL     1     -25.310 -14.492  27.038  1.00  0.00    -0.011 C 
HETATM   10  C1  UNL     1     -24.734 -13.751  27.971  1.00  0.00     0.009 C 
ENDBRANCH   8   9
ENDBRANCH   7   8
ENDBRANCH   1   7
BRANCH   6  11
HETATM   11  O6  UNL     1     -25.085 -14.241  21.275  1.00  0.00    -0.388 OA
ATOM     12  H6  UNL     1     -25.413 -15.123  21.404  1.00  0.00     0.210 HD
ENDBRANCH   6  11
BRANCH   3  13
HETATM   13  C6  UNL     1     -28.422 -12.926  21.905  1.00  0.00     0.198 C 
BRANCH  13  14
HETATM   14  O3  UNL     1     -28.081 -13.638  20.790  1.00  0.00    -0.398 OA
ATOM     15  H3  UNL     1     -28.197 -13.155  19.981  1.00  0.00     0.209 HD
ENDBRANCH  13  14
ENDBRANCH   3  13
BRANCH   5  16
HETATM   16  O5  UNL     1     -23.744 -11.713  21.632  1.00  0.00    -0.390 OA
ATOM     17  H5  UNL     1     -23.626 -12.226  20.841  1.00  0.00     0.210 HD
ENDBRANCH   5  16
BRANCH   4  18
HETATM   18  O4  UNL     1     -26.278 -10.547  21.265  1.00  0.00    -0.385 OA
HETATM   19  C8  UNL     1     -26.451 -10.459  19.877  1.00  0.00     0.202 C 
ENDBRANCH   4  18
TORSDOF 8
ENDMDL
