MODEL 4
REMARK VINA RESULT: -5.995793255      3.023      4.035
REMARK  5 active torsions:
REMARK  status: ('A' for Active; 'I' for Inactive)
REMARK    1  A    between atoms: C4_4  and  O1_5 
REMARK    2  A    between atoms: O1_5  and  C5_6 
REMARK    3  A    between atoms: C5_6  and  C6_7 
REMARK    4  A    between atoms: C6_7  and  C7_8 
REMARK    5  A    between atoms: C7_8  and  O2_9 
ROOT
HETATM    1  C1  UNL     1      17.359  23.230   2.125  1.00  0.00     0.068 C 
HETATM    2  C2  UNL     1      16.551  22.712   3.265  1.00  0.00     0.012 A 
HETATM    3  C3  UNL     1      17.067  21.746   4.098  1.00  0.00     0.080 A 
HETATM    4  C4  UNL     1      16.250  21.314   5.140  1.00  0.00     0.146 A 
HETATM    5  N1  UNL     1      15.050  21.833   5.280  1.00  0.00    -0.311 N 
ATOM      6  H1  UNL     1      14.469  21.500   6.050  1.00  0.00     0.170 HD
HETATM    7  C8  UNL     1      14.554  22.760   4.480  1.00  0.00     0.194 A 
HETATM    8  N2  UNL     1      13.235  23.258   4.721  1.00  0.00    -0.063 NA
HETATM    9  N3  UNL     1      15.311  23.201   3.465  1.00  0.00    -0.334 N 
ATOM     10  H3  UNL     1      14.944  23.916   2.837  1.00  0.00     0.168 HD
ENDROOT
BRANCH   4  11
HETATM   11  O1  UNL     1      16.766  20.359   5.956  1.00  0.00    -0.336 OA
BRANCH  11  12
HETATM   12  C5  UNL     1      16.729  19.004   5.640  1.00  0.00     0.179 C 
BRANCH  12  13
HETATM   13  C6  UNL     1      15.803  18.288   6.587  1.00  0.00     0.053 C 
BRANCH  13  14
HETATM   14  C7  UNL     1      16.540  17.940   7.877  1.00  0.00     0.166 C 
BRANCH  14  15
HETATM   15  O2  UNL     1      16.658  16.556   7.907  1.00  0.00    -0.401 OA
ATOM     16  H2  UNL     1      17.577  16.365   8.050  1.00  0.00     0.209 HD
ENDBRANCH  14  15
ENDBRANCH  13  14
ENDBRANCH  12  13
ENDBRANCH  11  12
ENDBRANCH   4  11
TORSDOF 5
ENDMDL
