MODEL 3
REMARK VINA RESULT: -6.078076154      3.012      5.428
REMARK  5 active torsions:
REMARK  status: ('A' for Active; 'I' for Inactive)
REMARK    1  A    between atoms: C4_4  and  O1_5 
REMARK    2  A    between atoms: O1_5  and  C5_6 
REMARK    3  A    between atoms: C5_6  and  C6_7 
REMARK    4  A    between atoms: C6_7  and  C7_8 
REMARK    5  A    between atoms: C7_8  and  O2_9 
ROOT
HETATM    1  C1  UNL     1      10.625  22.664   5.095  1.00  0.00     0.068 C 
HETATM    2  C2  UNL     1      11.487  21.668   4.397  1.00  0.00     0.012 A 
HETATM    3  C3  UNL     1      12.852  21.839   4.359  1.00  0.00     0.080 A 
HETATM    4  C4  UNL     1      13.587  20.865   3.687  1.00  0.00     0.146 A 
HETATM    5  N1  UNL     1      12.963  19.850   3.132  1.00  0.00    -0.311 N 
ATOM      6  H1  UNL     1      13.522  19.150   2.644  1.00  0.00     0.170 HD
HETATM    7  C8  UNL     1      11.652  19.686   3.169  1.00  0.00     0.194 A 
HETATM    8  N2  UNL     1      11.074  18.544   2.531  1.00  0.00    -0.063 NA
HETATM    9  N3  UNL     1      10.911  20.603   3.806  1.00  0.00    -0.334 N 
ATOM     10  H3  UNL     1       9.897  20.493   3.844  1.00  0.00     0.168 HD
ENDROOT
BRANCH   4  11
HETATM   11  O1  UNL     1      14.933  21.043   3.652  1.00  0.00    -0.336 OA
BRANCH  11  12
HETATM   12  C5  UNL     1      15.526  22.297   3.776  1.00  0.00     0.179 C 
BRANCH  12  13
HETATM   13  C6  UNL     1      16.988  22.202   3.427  1.00  0.00     0.053 C 
BRANCH  13  14
HETATM   14  C7  UNL     1      17.296  23.079   2.217  1.00  0.00     0.166 C 
BRANCH  14  15
HETATM   15  O2  UNL     1      18.679  23.111   2.091  1.00  0.00    -0.401 OA
ATOM     16  H2  UNL     1      18.879  23.796   1.464  1.00  0.00     0.209 HD
ENDBRANCH  14  15
ENDBRANCH  13  14
ENDBRANCH  12  13
ENDBRANCH  11  12
ENDBRANCH   4  11
TORSDOF 5
ENDMDL
