MODEL 5
REMARK VINA RESULT: -5.987865157      2.905      5.224
REMARK  5 active torsions:
REMARK  status: ('A' for Active; 'I' for Inactive)
REMARK    1  A    between atoms: C4_4  and  O1_5 
REMARK    2  A    between atoms: O1_5  and  C5_6 
REMARK    3  A    between atoms: C5_6  and  C6_7 
REMARK    4  A    between atoms: C6_7  and  C7_8 
REMARK    5  A    between atoms: C7_8  and  O2_9 
ROOT
HETATM    1  C1  UNL     1      10.803  22.798   5.067  1.00  0.00     0.068 C 
HETATM    2  C2  UNL     1      11.595  21.720   4.409  1.00  0.00     0.012 A 
HETATM    3  C3  UNL     1      12.970  21.770   4.412  1.00  0.00     0.080 A 
HETATM    4  C4  UNL     1      13.637  20.725   3.777  1.00  0.00     0.146 A 
HETATM    5  N1  UNL     1      12.943  19.761   3.214  1.00  0.00    -0.311 N 
ATOM      6  H1  UNL     1      13.453  19.007   2.754  1.00  0.00     0.170 HD
HETATM    7  C8  UNL     1      11.623  19.713   3.211  1.00  0.00     0.194 A 
HETATM    8  N2  UNL     1      10.965  18.616   2.570  1.00  0.00    -0.063 NA
HETATM    9  N3  UNL     1      10.945  20.701   3.813  1.00  0.00    -0.334 N 
ATOM     10  H3  UNL     1       9.925  20.680   3.820  1.00  0.00     0.168 HD
ENDROOT
BRANCH   4  11
HETATM   11  O1  UNL     1      14.994  20.784   3.782  1.00  0.00    -0.336 OA
BRANCH  11  12
HETATM   12  C5  UNL     1      15.694  21.953   3.496  1.00  0.00     0.179 C 
BRANCH  12  13
HETATM   13  C6  UNL     1      17.058  21.894   4.130  1.00  0.00     0.053 C 
BRANCH  13  14
HETATM   14  C7  UNL     1      16.950  21.376   5.561  1.00  0.00     0.166 C 
BRANCH  14  15
HETATM   15  O2  UNL     1      17.362  20.050   5.537  1.00  0.00    -0.401 OA
ATOM     16  H2  UNL     1      18.098  20.004   4.939  1.00  0.00     0.209 HD
ENDBRANCH  14  15
ENDBRANCH  13  14
ENDBRANCH  12  13
ENDBRANCH  11  12
ENDBRANCH   4  11
TORSDOF 5
ENDMDL
