MODEL 1
REMARK VINA RESULT: -6.642754275      0.000      0.000
REMARK  5 active torsions:
REMARK  status: ('A' for Active; 'I' for Inactive)
REMARK    1  A    between atoms: C4_4  and  O1_5 
REMARK    2  A    between atoms: O1_5  and  C5_6 
REMARK    3  A    between atoms: C5_6  and  C6_7 
REMARK    4  A    between atoms: C6_7  and  C7_8 
REMARK    5  A    between atoms: C7_8  and  O2_9 
ROOT
HETATM    1  C1  UNL     1      18.147  23.335   1.844  1.00  0.00     0.068 C 
HETATM    2  C2  UNL     1      17.232  22.826   2.905  1.00  0.00     0.012 A 
HETATM    3  C3  UNL     1      15.921  23.240   2.947  1.00  0.00     0.080 A 
HETATM    4  C4  UNL     1      15.130  22.720   3.969  1.00  0.00     0.146 A 
HETATM    5  N1  UNL     1      15.657  21.876   4.829  1.00  0.00    -0.311 N 
ATOM      6  H1  UNL     1      15.059  21.508   5.570  1.00  0.00     0.170 HD
HETATM    7  C8  UNL     1      16.916  21.478   4.789  1.00  0.00     0.194 A 
HETATM    8  N2  UNL     1      17.388  20.555   5.774  1.00  0.00    -0.063 NA
HETATM    9  N3  UNL     1      17.708  21.958   3.819  1.00  0.00    -0.334 N 
ATOM     10  H3  UNL     1      18.683  21.661   3.773  1.00  0.00     0.168 HD
ENDROOT
BRANCH   4  11
HETATM   11  O1  UNL     1      13.838  23.137   4.004  1.00  0.00    -0.336 OA
BRANCH  11  12
HETATM   12  C5  UNL     1      12.853  22.462   4.720  1.00  0.00     0.179 C 
BRANCH  12  13
HETATM   13  C6  UNL     1      12.063  21.583   3.787  1.00  0.00     0.053 C 
BRANCH  13  14
HETATM   14  C7  UNL     1      12.497  20.129   3.943  1.00  0.00     0.166 C 
BRANCH  14  15
HETATM   15  O2  UNL     1      13.671  19.984   3.215  1.00  0.00    -0.401 OA
ATOM     16  H2  UNL     1      14.074  19.175   3.507  1.00  0.00     0.209 HD
ENDBRANCH  14  15
ENDBRANCH  13  14
ENDBRANCH  12  13
ENDBRANCH  11  12
ENDBRANCH   4  11
TORSDOF 5
ENDMDL
