MODEL 2
REMARK VINA RESULT: -6.565210950      1.388      1.708
REMARK  5 active torsions:
REMARK  status: ('A' for Active; 'I' for Inactive)
REMARK    1  A    between atoms: C4_4  and  O1_5 
REMARK    2  A    between atoms: O1_5  and  C5_6 
REMARK    3  A    between atoms: C5_6  and  C6_7 
REMARK    4  A    between atoms: C6_7  and  C7_8 
REMARK    5  A    between atoms: C7_8  and  O2_9 
ROOT
HETATM    1  C1  UNL     1      18.009  23.331   1.857  1.00  0.00     0.068 C 
HETATM    2  C2  UNL     1      17.144  22.812   2.955  1.00  0.00     0.012 A 
HETATM    3  C3  UNL     1      15.834  23.221   3.056  1.00  0.00     0.080 A 
HETATM    4  C4  UNL     1      15.091  22.691   4.109  1.00  0.00     0.146 A 
HETATM    5  N1  UNL     1      15.658  21.845   4.940  1.00  0.00    -0.311 N 
ATOM      6  H1  UNL     1      15.095  21.470   5.704  1.00  0.00     0.170 HD
HETATM    7  C8  UNL     1      16.916  21.453   4.843  1.00  0.00     0.194 A 
HETATM    8  N2  UNL     1      17.435  20.527   5.802  1.00  0.00    -0.063 NA
HETATM    9  N3  UNL     1      17.663  21.942   3.842  1.00  0.00    -0.334 N 
ATOM     10  H3  UNL     1      18.636  21.650   3.753  1.00  0.00     0.168 HD
ENDROOT
BRANCH   4  11
HETATM   11  O1  UNL     1      13.800  23.102   4.202  1.00  0.00    -0.336 OA
BRANCH  11  12
HETATM   12  C5  UNL     1      12.983  22.764   5.278  1.00  0.00     0.179 C 
BRANCH  12  13
HETATM   13  C6  UNL     1      11.696  23.541   5.199  1.00  0.00     0.053 C 
BRANCH  13  14
HETATM   14  C7  UNL     1      10.535  22.603   4.882  1.00  0.00     0.166 C 
BRANCH  14  15
HETATM   15  O2  UNL     1      10.464  21.690   5.927  1.00  0.00    -0.401 OA
ATOM     16  H2  UNL     1       9.789  22.004   6.517  1.00  0.00     0.209 HD
ENDBRANCH  14  15
ENDBRANCH  13  14
ENDBRANCH  12  13
ENDBRANCH  11  12
ENDBRANCH   4  11
TORSDOF 5
ENDMDL
