MODEL 9
REMARK VINA RESULT: -4.872312552      4.670      5.970
REMARK  0 active torsions:
REMARK  status: ('A' for Active; 'I' for Inactive)
ROOT
HETATM    1  C1  UNL     1      14.005  22.339   5.540  1.00  0.00     0.147 C 
HETATM    2  N1  UNL     1      13.020  22.770   4.598  1.00  0.00    -0.384 N 
ATOM      3  H1  UNL     1      13.275  23.492   3.924  1.00  0.00     0.160 HD
HETATM    4  C2  UNL     1      11.837  22.295   4.559  1.00  0.00     0.089 C 
HETATM    5  C3  UNL     1      11.496  21.243   5.556  1.00  0.00     0.179 C 
HETATM    6  C4  UNL     1      10.612  20.231   4.929  1.00  0.00     0.232 C 
HETATM    7  O1  UNL     1      10.727  18.997   5.197  1.00  0.00    -0.273 OA
HETATM    8  N2  UNL     1       9.613  20.634   4.009  1.00  0.00    -0.279 N 
ATOM      9  H2  UNL     1       8.817  20.024   3.822  1.00  0.00     0.173 HD
HETATM   10  C5  UNL     1       9.715  21.884   3.348  1.00  0.00     0.328 C 
HETATM   11  O2  UNL     1       8.822  22.266   2.513  1.00  0.00    -0.247 OA
HETATM   12  N3  UNL     1      10.838  22.701   3.638  1.00  0.00    -0.298 N 
ATOM     13  H3  UNL     1      10.930  23.603   3.172  1.00  0.00     0.172 HD
ENDROOT
TORSDOF 0
ENDMDL
