MODEL 8
REMARK VINA RESULT: -4.934119486      3.675      5.140
REMARK  0 active torsions:
REMARK  status: ('A' for Active; 'I' for Inactive)
ROOT
HETATM    1  C1  UNL     1       9.263  21.906   3.258  1.00  0.00     0.147 C 
HETATM    2  N1  UNL     1      10.213  22.350   4.231  1.00  0.00    -0.384 N 
ATOM      3  H1  UNL     1       9.869  22.648   5.144  1.00  0.00     0.160 HD
HETATM    4  C2  UNL     1      11.468  22.392   4.011  1.00  0.00     0.089 C 
HETATM    5  C3  UNL     1      11.935  21.950   2.668  1.00  0.00     0.179 C 
HETATM    6  C4  UNL     1      13.219  21.219   2.803  1.00  0.00     0.232 C 
HETATM    7  O1  UNL     1      13.478  20.202   2.092  1.00  0.00    -0.273 OA
HETATM    8  N2  UNL     1      14.186  21.652   3.744  1.00  0.00    -0.279 N 
ATOM      9  H2  UNL     1      15.162  21.377   3.633  1.00  0.00     0.173 HD
HETATM   10  C5  UNL     1      13.802  22.467   4.838  1.00  0.00     0.328 C 
HETATM   11  O2  UNL     1      14.663  22.869   5.698  1.00  0.00    -0.247 OA
HETATM   12  N3  UNL     1      12.434  22.826   4.953  1.00  0.00    -0.298 N 
ATOM     13  H3  UNL     1      12.139  23.412   5.733  1.00  0.00     0.172 HD
ENDROOT
TORSDOF 0
ENDMDL
