MODEL 3
REMARK VINA RESULT: -5.574030838      2.078      3.467
REMARK  0 active torsions:
REMARK  status: ('A' for Active; 'I' for Inactive)
ROOT
HETATM    1  C1  UNL     1      16.780  23.751   1.717  1.00  0.00     0.147 C 
HETATM    2  N1  UNL     1      17.392  23.020   2.783  1.00  0.00    -0.384 N 
ATOM      3  H1  UNL     1      18.350  23.253   3.044  1.00  0.00     0.160 HD
HETATM    4  C2  UNL     1      16.796  22.092   3.423  1.00  0.00     0.089 C 
HETATM    5  C3  UNL     1      15.399  21.777   3.016  1.00  0.00     0.179 C 
HETATM    6  C4  UNL     1      14.592  21.452   4.217  1.00  0.00     0.232 C 
HETATM    7  O1  UNL     1      13.386  21.826   4.324  1.00  0.00    -0.273 OA
HETATM    8  N2  UNL     1      15.167  20.710   5.279  1.00  0.00    -0.279 N 
ATOM      9  H2  UNL     1      14.566  20.217   5.939  1.00  0.00     0.173 HD
HETATM   10  C5  UNL     1      16.576  20.649   5.425  1.00  0.00     0.328 C 
HETATM   11  O2  UNL     1      17.114  19.983   6.378  1.00  0.00    -0.247 OA
HETATM   12  N3  UNL     1      17.374  21.350   4.484  1.00  0.00    -0.298 N 
ATOM     13  H3  UNL     1      18.389  21.318   4.573  1.00  0.00     0.172 HD
ENDROOT
TORSDOF 0
ENDMDL
