MODEL 7
REMARK VINA RESULT: -4.953805972      4.677      5.982
REMARK  0 active torsions:
REMARK  status: ('A' for Active; 'I' for Inactive)
ROOT
HETATM    1  C1  UNL     1       9.507  17.985   3.603  1.00  0.00     0.147 C 
HETATM    2  N1  UNL     1       9.677  19.190   4.355  1.00  0.00    -0.384 N 
ATOM      3  H1  UNL     1       9.235  19.257   5.271  1.00  0.00     0.160 HD
HETATM    4  C2  UNL     1      10.356  20.184   3.934  1.00  0.00     0.089 C 
HETATM    5  C3  UNL     1      10.988  20.053   2.592  1.00  0.00     0.179 C 
HETATM    6  C4  UNL     1      12.318  20.710   2.603  1.00  0.00     0.232 C 
HETATM    7  O1  UNL     1      13.304  20.215   1.979  1.00  0.00    -0.273 OA
HETATM    8  N2  UNL     1      12.508  21.917   3.322  1.00  0.00    -0.279 N 
ATOM      9  H2  UNL     1      13.288  22.530   3.088  1.00  0.00     0.173 HD
HETATM   10  C5  UNL     1      11.616  22.273   4.364  1.00  0.00     0.328 C 
HETATM   11  O2  UNL     1      11.770  23.360   5.025  1.00  0.00    -0.247 OA
HETATM   12  N3  UNL     1      10.544  21.390   4.655  1.00  0.00    -0.298 N 
ATOM     13  H3  UNL     1       9.891  21.630   5.401  1.00  0.00     0.172 HD
ENDROOT
TORSDOF 0
ENDMDL
