MODEL 4
REMARK VINA RESULT: -8.677082480      5.224      7.868
REMARK  8 active torsions:
REMARK  status: ('A' for Active; 'I' for Inactive)
REMARK    1  A    between atoms: N5_13  and  C6_14 
REMARK    2  A    between atoms: C7_16  and  C8_17 
REMARK    3  A    between atoms: C8_17  and  O2_18 
REMARK    4  A    between atoms: O2_18  and  P1_19 
REMARK    5  A    between atoms: P1_19  and  O5_22 
REMARK    6  A    between atoms: O5_22  and  P2_23 
REMARK    7  A    between atoms: C9_27  and  O9_28 
REMARK    8  A    between atoms: C10_30  and  O10_31 
ROOT
HETATM    1  C6  UNL     1      63.938   6.393  84.468  1.00  0.00     0.262 C 
HETATM    2  O1  UNL     1      64.332   6.287  83.134  1.00  0.00    -0.353 OA
HETATM    3  C7  UNL     1      63.569   7.302  82.557  1.00  0.00     0.180 C 
HETATM    4  C9  UNL     1      63.711   8.498  83.458  1.00  0.00     0.182 C 
HETATM    5  C10 UNL     1      64.226   7.850  84.751  1.00  0.00     0.198 C 
ENDROOT
BRANCH   1   6
HETATM    6  N5  UNL     1      64.653   5.499  85.334  1.00  0.00    -0.297 N 
HETATM    7  C3  UNL     1      64.770   4.175  85.100  1.00  0.00     0.142 A 
HETATM    8  N3  UNL     1      64.300   3.396  84.095  1.00  0.00    -0.336 N 
HETATM    9  C4  UNL     1      65.510   3.595  86.107  1.00  0.00     0.119 A 
HETATM   10  C2  UNL     1      64.529   2.070  84.041  1.00  0.00     0.183 A 
ATOM     11  H3  UNL     1      63.753   3.830  83.352  1.00  0.00     0.168 HD
HETATM   12  N2  UNL     1      65.242   1.513  85.014  1.00  0.00    -0.339 N 
HETATM   13  C1  UNL     1      65.737   2.244  86.041  1.00  0.00     0.148 A 
ATOM     14  H2  UNL     1      65.423   0.509  84.986  1.00  0.00     0.167 HD
HETATM   15  N1  UNL     1      66.484   1.614  87.042  1.00  0.00    -0.080 NA
HETATM   16  N4  UNL     1      65.829   4.602  86.940  1.00  0.00    -0.346 N 
HETATM   17  C5  UNL     1      65.305   5.746  86.463  1.00  0.00     0.188 A 
ATOM     18  H4  UNL     1      66.378   4.512  87.795  1.00  0.00     0.167 HD
ENDBRANCH   1   6
BRANCH   5  19
HETATM   19  O10 UNL     1      63.565   8.335  85.854  1.00  0.00    -0.388 OA
ATOM     20  H10 UNL     1      62.672   8.603  85.674  1.00  0.00     0.210 HD
ENDBRANCH   5  19
BRANCH   3  21
HETATM   21  C8  UNL     1      63.996   7.594  81.137  1.00  0.00     0.216 C 
BRANCH  21  22
HETATM   22  O2  UNL     1      64.792   8.696  81.153  1.00  0.00    -0.287 OA
BRANCH  22  23
HETATM   23  P1  UNL     1      64.578   9.826  79.989  1.00  0.00     0.418 P 
HETATM   24  O3  UNL     1      63.059   9.670  79.963  1.00  0.00    -0.624 OA
HETATM   25  O4  UNL     1      64.342  11.447  80.508  1.00  0.00    -0.624 OA
BRANCH  23  26
HETATM   26  O5  UNL     1      64.782   9.508  78.425  1.00  0.00    -0.173 OA
BRANCH  26  27
HETATM   27  P2  UNL     1      65.976  10.276  77.595  1.00  0.00     0.431 P 
HETATM   28  O6  UNL     1      65.956  11.882  77.419  1.00  0.00    -0.616 OA
HETATM   29  O7  UNL     1      67.088   9.339  76.732  1.00  0.00    -0.616 OA
HETATM   30  O8  UNL     1      66.909  10.203  78.804  1.00  0.00    -0.616 OA
ENDBRANCH  26  27
ENDBRANCH  23  26
ENDBRANCH  22  23
ENDBRANCH  21  22
ENDBRANCH   3  21
BRANCH   4  31
HETATM   31  O9  UNL     1      62.453   9.029  83.779  1.00  0.00    -0.390 OA
ATOM     32  H9  UNL     1      62.456   9.975  83.692  1.00  0.00     0.210 HD
ENDBRANCH   4  31
TORSDOF 8
ENDMDL
