MODEL 6
REMARK VINA RESULT: -8.510995708      5.097      7.391
REMARK  8 active torsions:
REMARK  status: ('A' for Active; 'I' for Inactive)
REMARK    1  A    between atoms: N5_13  and  C6_14 
REMARK    2  A    between atoms: C7_16  and  C8_17 
REMARK    3  A    between atoms: C8_17  and  O2_18 
REMARK    4  A    between atoms: O2_18  and  P1_19 
REMARK    5  A    between atoms: P1_19  and  O5_22 
REMARK    6  A    between atoms: O5_22  and  P2_23 
REMARK    7  A    between atoms: C9_27  and  O9_28 
REMARK    8  A    between atoms: C10_30  and  O10_31 
ROOT
HETATM    1  C6  UNL     1      63.811   6.170  84.943  1.00  0.00     0.262 C 
HETATM    2  O1  UNL     1      63.406   5.578  83.747  1.00  0.00    -0.353 OA
HETATM    3  C7  UNL     1      62.696   6.627  83.165  1.00  0.00     0.180 C 
HETATM    4  C9  UNL     1      63.548   7.856  83.333  1.00  0.00     0.182 C 
HETATM    5  C10 UNL     1      64.513   7.411  84.442  1.00  0.00     0.198 C 
ENDROOT
BRANCH   1   6
HETATM    6  N5  UNL     1      64.660   5.320  85.729  1.00  0.00    -0.297 N 
HETATM    7  C3  UNL     1      64.892   4.024  85.432  1.00  0.00     0.142 A 
HETATM    8  N3  UNL     1      64.440   3.239  84.424  1.00  0.00    -0.336 N 
HETATM    9  C4  UNL     1      65.745   3.485  86.370  1.00  0.00     0.119 A 
HETATM   10  C2  UNL     1      64.794   1.946  84.300  1.00  0.00     0.183 A 
ATOM     11  H3  UNL     1      63.809   3.644  83.732  1.00  0.00     0.168 HD
HETATM   12  N2  UNL     1      65.616   1.428  85.205  1.00  0.00    -0.339 N 
HETATM   13  C1  UNL     1      66.099   2.166  86.233  1.00  0.00     0.148 A 
ATOM     14  H2  UNL     1      65.891   0.449  85.125  1.00  0.00     0.167 HD
HETATM   15  N1  UNL     1      66.963   1.578  87.162  1.00  0.00    -0.080 NA
HETATM   16  N4  UNL     1      66.014   4.487  87.225  1.00  0.00    -0.346 N 
HETATM   17  C5  UNL     1      65.354   5.590  86.828  1.00  0.00     0.188 A 
ATOM     18  H4  UNL     1      66.621   4.421  88.043  1.00  0.00     0.167 HD
ENDBRANCH   1   6
BRANCH   5  19
HETATM   19  O10 UNL     1      64.658   8.385  85.401  1.00  0.00    -0.388 OA
ATOM     20  H10 UNL     1      64.862   9.241  85.044  1.00  0.00     0.210 HD
ENDBRANCH   5  19
BRANCH   3  21
HETATM   21  C8  UNL     1      62.359   6.349  81.718  1.00  0.00     0.216 C 
BRANCH  21  22
HETATM   22  O2  UNL     1      62.874   7.357  80.964  1.00  0.00    -0.287 OA
BRANCH  22  23
HETATM   23  P1  UNL     1      61.989   8.722  80.783  1.00  0.00     0.418 P 
HETATM   24  O3  UNL     1      61.176   8.170  79.614  1.00  0.00    -0.624 OA
HETATM   25  O4  UNL     1      60.524   8.826  81.675  1.00  0.00    -0.624 OA
BRANCH  23  26
HETATM   26  O5  UNL     1      62.535  10.007  79.985  1.00  0.00    -0.173 OA
BRANCH  26  27
HETATM   27  P2  UNL     1      64.011  10.626  80.365  1.00  0.00     0.431 P 
HETATM   28  O6  UNL     1      64.371  12.166  80.031  1.00  0.00    -0.616 OA
HETATM   29  O7  UNL     1      65.217   9.565  80.891  1.00  0.00    -0.616 OA
HETATM   30  O8  UNL     1      63.593  10.815  81.824  1.00  0.00    -0.616 OA
ENDBRANCH  26  27
ENDBRANCH  23  26
ENDBRANCH  22  23
ENDBRANCH  21  22
ENDBRANCH   3  21
BRANCH   4  31
HETATM   31  O9  UNL     1      62.800   8.906  83.884  1.00  0.00    -0.390 OA
ATOM     32  H9  UNL     1      62.470   9.477  83.201  1.00  0.00     0.210 HD
ENDBRANCH   4  31
TORSDOF 8
ENDMDL
