MODEL 5
REMARK VINA RESULT: -8.572720269      5.346      7.719
REMARK  8 active torsions:
REMARK  status: ('A' for Active; 'I' for Inactive)
REMARK    1  A    between atoms: N5_13  and  C6_14 
REMARK    2  A    between atoms: C7_16  and  C8_17 
REMARK    3  A    between atoms: C8_17  and  O2_18 
REMARK    4  A    between atoms: O2_18  and  P1_19 
REMARK    5  A    between atoms: P1_19  and  O5_22 
REMARK    6  A    between atoms: O5_22  and  P2_23 
REMARK    7  A    between atoms: C9_27  and  O9_28 
REMARK    8  A    between atoms: C10_30  and  O10_31 
ROOT
HETATM    1  C6  UNL     1      64.274   5.243  85.209  1.00  0.00     0.262 C 
HETATM    2  O1  UNL     1      64.317   5.339  83.818  1.00  0.00    -0.353 OA
HETATM    3  C7  UNL     1      63.743   6.595  83.626  1.00  0.00     0.180 C 
HETATM    4  C9  UNL     1      64.394   7.512  84.625  1.00  0.00     0.182 C 
HETATM    5  C10 UNL     1      64.993   6.507  85.619  1.00  0.00     0.198 C 
ENDROOT
BRANCH   1   6
HETATM    6  N5  UNL     1      64.900   4.051  85.707  1.00  0.00    -0.297 N 
HETATM    7  C3  UNL     1      64.685   2.826  85.183  1.00  0.00     0.142 A 
HETATM    8  N3  UNL     1      63.907   2.413  84.154  1.00  0.00    -0.336 N 
HETATM    9  C4  UNL     1      65.427   1.895  85.877  1.00  0.00     0.119 A 
HETATM   10  C2  UNL     1      63.828   1.122  83.779  1.00  0.00     0.183 A 
ATOM     11  H3  UNL     1      63.360   3.107  83.643  1.00  0.00     0.168 HD
HETATM   12  N2  UNL     1      64.543   0.227  84.450  1.00  0.00    -0.339 N 
HETATM   13  C1  UNL     1      65.339   0.583  85.486  1.00  0.00     0.148 A 
ATOM     14  H2  UNL     1      64.492  -0.756  84.178  1.00  0.00     0.167 HD
HETATM   15  N1  UNL     1      66.075  -0.395  86.162  1.00  0.00    -0.080 NA
HETATM   16  N4  UNL     1      66.084   2.593  86.820  1.00  0.00    -0.346 N 
HETATM   17  C5  UNL     1      65.757   3.894  86.707  1.00  0.00     0.188 A 
ATOM     18  H4  UNL     1      66.726   2.200  87.509  1.00  0.00     0.167 HD
ENDBRANCH   1   6
BRANCH   5  19
HETATM   19  O10 UNL     1      64.747   6.881  86.920  1.00  0.00    -0.388 OA
ATOM     20  H10 UNL     1      65.064   6.255  87.560  1.00  0.00     0.210 HD
ENDBRANCH   5  19
BRANCH   3  21
HETATM   21  C8  UNL     1      63.904   7.080  82.204  1.00  0.00     0.216 C 
BRANCH  21  22
HETATM   22  O2  UNL     1      62.681   7.456  81.745  1.00  0.00    -0.287 OA
BRANCH  22  23
HETATM   23  P1  UNL     1      62.299   9.047  81.766  1.00  0.00     0.418 P 
HETATM   24  O3  UNL     1      60.839   8.814  81.382  1.00  0.00    -0.624 OA
HETATM   25  O4  UNL     1      61.741   9.696  83.256  1.00  0.00    -0.624 OA
BRANCH  23  26
HETATM   26  O5  UNL     1      62.617  10.030  80.533  1.00  0.00    -0.173 OA
BRANCH  26  27
HETATM   27  P2  UNL     1      64.136  10.636  80.356  1.00  0.00     0.431 P 
HETATM   28  O6  UNL     1      64.380  12.230  80.240  1.00  0.00    -0.616 OA
HETATM   29  O7  UNL     1      65.404   9.558  80.060  1.00  0.00    -0.616 OA
HETATM   30  O8  UNL     1      64.407  10.486  81.854  1.00  0.00    -0.616 OA
ENDBRANCH  26  27
ENDBRANCH  23  26
ENDBRANCH  22  23
ENDBRANCH  21  22
ENDBRANCH   3  21
BRANCH   4  31
HETATM   31  O9  UNL     1      63.426   8.225  85.347  1.00  0.00    -0.390 OA
ATOM     32  H9  UNL     1      62.553   7.922  85.129  1.00  0.00     0.210 HD
ENDBRANCH   4  31
TORSDOF 8
ENDMDL
