MODEL 5
REMARK VINA RESULT: -9.014700746      3.237      5.224
REMARK  14 active torsions:
REMARK  status: ('A' for Active; 'I' for Inactive)
REMARK    1  A    between atoms: N5_13  and  C6_14 
REMARK    2  A    between atoms: C7_16  and  C8_17 
REMARK    3  A    between atoms: C8_17  and  O2_18 
REMARK    4  A    between atoms: O2_18  and  P1_19 
REMARK    5  A    between atoms: P1_19  and  O5_22 
REMARK    6  A    between atoms: O5_22  and  P2_23 
REMARK    7  A    between atoms: P2_23  and  O8_26 
REMARK    8  A    between atoms: O8_26  and  C9_27 
REMARK    9  A    between atoms: C9_27  and  C10_28 
REMARK   10  A    between atoms: C11_30  and  O10_31 
REMARK   11  A    between atoms: C12_33  and  O11_34 
REMARK   12  A    between atoms: C13_36  and  O12_37 
REMARK   13  A    between atoms: C14_39  and  O13_40 
REMARK   14  A    between atoms: C15_42  and  O14_43 
ROOT
HETATM    1  C6  UNL     1      27.941   3.996  14.787  1.00  0.00     0.262 C 
HETATM    2  O1  UNL     1      27.040   3.808  13.693  1.00  0.00    -0.353 OA
HETATM    3  C7  UNL     1      25.988   4.536  14.187  1.00  0.00     0.180 C 
HETATM    4  C14 UNL     1      26.712   5.916  14.518  1.00  0.00     0.182 C 
HETATM    5  C15 UNL     1      28.152   5.493  14.520  1.00  0.00     0.198 C 
ENDROOT
BRANCH   3   6
HETATM    6  C8  UNL     1      24.872   4.925  13.280  1.00  0.00     0.216 C 
BRANCH   6   7
HETATM    7  O2  UNL     1      25.108   6.256  12.889  1.00  0.00    -0.287 OA
BRANCH   7   8
HETATM    8  P1  UNL     1      24.645   6.356  11.294  1.00  0.00     0.417 P 
HETATM    9  O3  UNL     1      23.900   7.752  10.788  1.00  0.00    -0.624 OA
HETATM   10  O4  UNL     1      23.381   5.627  11.437  1.00  0.00    -0.624 OA
BRANCH   8  11
HETATM   11  O5  UNL     1      25.349   5.329  10.248  1.00  0.00    -0.180 OA
BRANCH  11  12
HETATM   12  P2  UNL     1      26.566   5.657   9.412  1.00  0.00     0.417 P 
HETATM   13  O6  UNL     1      25.629   6.445   8.343  1.00  0.00    -0.624 OA
HETATM   14  O7  UNL     1      26.818   3.992   9.106  1.00  0.00    -0.624 OA
BRANCH  12  15
HETATM   15  O8  UNL     1      27.400   6.238  10.648  1.00  0.00    -0.287 OA
BRANCH  15  16
HETATM   16  C9  UNL     1      27.948   7.480  10.583  1.00  0.00     0.216 C 
BRANCH  16  17
HETATM   17  C10 UNL     1      29.302   7.497  11.253  1.00  0.00     0.180 C 
HETATM   18  O9  UNL     1      30.225   8.100  10.461  1.00  0.00    -0.349 OA
HETATM   19  C11 UNL     1      30.050   9.463  10.663  1.00  0.00     0.288 C 
HETATM   20  C12 UNL     1      29.605   9.639  12.101  1.00  0.00     0.204 C 
HETATM   21  C13 UNL     1      29.339   8.221  12.554  1.00  0.00     0.182 C 
BRANCH  19  22
HETATM   22  O10 UNL     1      31.296  10.060  10.481  1.00  0.00    -0.369 OA
ATOM     23  H10 UNL     1      31.206  10.968  10.748  1.00  0.00     0.212 HD
ENDBRANCH  19  22
BRANCH  20  24
HETATM   24  O11 UNL     1      30.582  10.223  12.858  1.00  0.00    -0.388 OA
ATOM     25  H11 UNL     1      30.263  10.450  13.723  1.00  0.00     0.210 HD
ENDBRANCH  20  24
BRANCH  21  26
HETATM   26  O12 UNL     1      30.426   7.673  13.267  1.00  0.00    -0.390 OA
ATOM     27  H12 UNL     1      30.076   6.927  13.739  1.00  0.00     0.210 HD
ENDBRANCH  21  26
ENDBRANCH  16  17
ENDBRANCH  15  16
ENDBRANCH  12  15
ENDBRANCH  11  12
ENDBRANCH   8  11
ENDBRANCH   7   8
ENDBRANCH   6   7
ENDBRANCH   3   6
BRANCH   4  28
HETATM   28  O13 UNL     1      26.369   6.391  15.737  1.00  0.00    -0.390 OA
ATOM     29  H13 UNL     1      26.452   7.337  15.789  1.00  0.00     0.210 HD
ENDBRANCH   4  28
BRANCH   1  30
HETATM   30  N5  UNL     1      29.160   3.309  14.644  1.00  0.00    -0.297 N 
HETATM   31  C3  UNL     1      30.230   3.625  13.864  1.00  0.00     0.142 A 
HETATM   32  N3  UNL     1      30.437   4.521  12.934  1.00  0.00    -0.336 N 
HETATM   33  C4  UNL     1      31.173   2.648  14.103  1.00  0.00     0.119 A 
HETATM   34  C2  UNL     1      31.606   4.499  12.211  1.00  0.00     0.183 A 
ATOM     35  H3  UNL     1      29.733   5.236  12.747  1.00  0.00     0.168 HD
HETATM   36  N2  UNL     1      32.517   3.517  12.450  1.00  0.00    -0.339 N 
HETATM   37  C1  UNL     1      32.358   2.566  13.378  1.00  0.00     0.148 A 
ATOM     38  H2  UNL     1      33.370   3.506  11.891  1.00  0.00     0.167 HD
HETATM   39  N1  UNL     1      33.216   1.456  13.585  1.00  0.00    -0.080 NA
HETATM   40  N4  UNL     1      30.670   1.800  15.000  1.00  0.00    -0.346 N 
HETATM   41  C5  UNL     1      29.445   2.169  15.327  1.00  0.00     0.188 A 
ATOM     42  H4  UNL     1      31.157   0.988  15.378  1.00  0.00     0.167 HD
ENDBRANCH   1  30
BRANCH   5  43
HETATM   43  O14 UNL     1      28.905   6.132  15.455  1.00  0.00    -0.388 OA
ATOM     44  H14 UNL     1      28.418   6.724  16.016  1.00  0.00     0.210 HD
ENDBRANCH   5  43
TORSDOF 14
ENDMDL
