MODEL 11
REMARK VINA RESULT: -8.640414040      5.160     10.259
REMARK  14 active torsions:
REMARK  status: ('A' for Active; 'I' for Inactive)
REMARK    1  A    between atoms: N5_13  and  C6_14 
REMARK    2  A    between atoms: C7_16  and  C8_17 
REMARK    3  A    between atoms: C8_17  and  O2_18 
REMARK    4  A    between atoms: O2_18  and  P1_19 
REMARK    5  A    between atoms: P1_19  and  O5_22 
REMARK    6  A    between atoms: O5_22  and  P2_23 
REMARK    7  A    between atoms: P2_23  and  O8_26 
REMARK    8  A    between atoms: O8_26  and  C9_27 
REMARK    9  A    between atoms: C9_27  and  C10_28 
REMARK   10  A    between atoms: C11_30  and  O10_31 
REMARK   11  A    between atoms: C12_33  and  O11_34 
REMARK   12  A    between atoms: C13_36  and  O12_37 
REMARK   13  A    between atoms: C14_39  and  O13_40 
REMARK   14  A    between atoms: C15_42  and  O14_43 
ROOT
HETATM    1  C6  UNL     1      24.687   6.146   4.656  1.00  0.00     0.262 C 
HETATM    2  O1  UNL     1      23.768   6.593   5.655  1.00  0.00    -0.353 OA
HETATM    3  C7  UNL     1      23.899   5.536   6.519  1.00  0.00     0.180 C 
HETATM    4  C14 UNL     1      25.479   5.504   6.712  1.00  0.00     0.182 C 
HETATM    5  C15 UNL     1      25.930   6.325   5.539  1.00  0.00     0.198 C 
ENDROOT
BRANCH   3   6
HETATM    6  C8  UNL     1      23.370   5.650   7.907  1.00  0.00     0.216 C 
BRANCH   6   7
HETATM    7  O2  UNL     1      23.852   6.864   8.430  1.00  0.00    -0.287 OA
BRANCH   7   8
HETATM    8  P1  UNL     1      24.129   6.589  10.047  1.00  0.00     0.417 P 
HETATM    9  O3  UNL     1      22.992   5.723  10.894  1.00  0.00    -0.624 OA
HETATM   10  O4  UNL     1      23.633   7.882  10.528  1.00  0.00    -0.624 OA
BRANCH   8  11
HETATM   11  O5  UNL     1      25.657   6.753  10.579  1.00  0.00    -0.180 OA
BRANCH  11  12
HETATM   12  P2  UNL     1      26.522   5.613  11.068  1.00  0.00     0.417 P 
HETATM   13  O6  UNL     1      27.851   6.532  10.886  1.00  0.00    -0.624 OA
HETATM   14  O7  UNL     1      26.067   4.673   9.712  1.00  0.00    -0.624 OA
BRANCH  12  15
HETATM   15  O8  UNL     1      25.641   5.356  12.379  1.00  0.00    -0.287 OA
BRANCH  15  16
HETATM   16  C9  UNL     1      26.147   4.636  13.415  1.00  0.00     0.216 C 
BRANCH  16  17
HETATM   17  C10 UNL     1      26.336   5.517  14.628  1.00  0.00     0.180 C 
HETATM   18  O9  UNL     1      26.709   4.780  15.706  1.00  0.00    -0.349 OA
HETATM   19  C11 UNL     1      28.077   4.590  15.566  1.00  0.00     0.288 C 
HETATM   20  C12 UNL     1      28.625   5.826  14.884  1.00  0.00     0.204 C 
HETATM   21  C13 UNL     1      27.376   6.571  14.470  1.00  0.00     0.182 C 
BRANCH  19  22
HETATM   22  O10 UNL     1      28.603   4.493  16.854  1.00  0.00    -0.369 OA
ATOM     23  H10 UNL     1      29.538   4.643  16.780  1.00  0.00     0.212 HD
ENDBRANCH  19  22
BRANCH  20  24
HETATM   24  O11 UNL     1      29.385   6.574  15.739  1.00  0.00    -0.388 OA
ATOM     25  H11 UNL     1      30.296   6.593  15.469  1.00  0.00     0.210 HD
ENDBRANCH  20  24
BRANCH  21  26
HETATM   26  O12 UNL     1      27.032   7.590  15.384  1.00  0.00    -0.390 OA
ATOM     27  H12 UNL     1      27.142   8.407  14.914  1.00  0.00     0.210 HD
ENDBRANCH  21  26
ENDBRANCH  16  17
ENDBRANCH  15  16
ENDBRANCH  12  15
ENDBRANCH  11  12
ENDBRANCH   8  11
ENDBRANCH   7   8
ENDBRANCH   6   7
ENDBRANCH   3   6
BRANCH   4  28
HETATM   28  O13 UNL     1      25.979   4.250   6.618  1.00  0.00    -0.390 OA
ATOM     29  H13 UNL     1      26.411   4.099   5.786  1.00  0.00     0.210 HD
ENDBRANCH   4  28
BRANCH   1  30
HETATM   30  N5  UNL     1      24.770   6.996   3.539  1.00  0.00    -0.297 N 
HETATM   31  C3  UNL     1      25.473   6.822   2.386  1.00  0.00     0.142 A 
HETATM   32  N3  UNL     1      26.365   5.949   1.995  1.00  0.00    -0.336 N 
HETATM   33  C4  UNL     1      25.200   7.926   1.606  1.00  0.00     0.119 A 
HETATM   34  C2  UNL     1      27.013   6.125   0.795  1.00  0.00     0.183 A 
ATOM     35  H3  UNL     1      26.579   5.140   2.578  1.00  0.00     0.168 HD
HETATM   36  N2  UNL     1      26.742   7.229   0.048  1.00  0.00    -0.339 N 
HETATM   37  C1  UNL     1      25.850   8.163   0.400  1.00  0.00     0.148 A 
ATOM     38  H2  UNL     1      27.247   7.352  -0.830  1.00  0.00     0.167 HD
HETATM   39  N1  UNL     1      25.617   9.387  -0.280  1.00  0.00    -0.080 NA
HETATM   40  N4  UNL     1      24.357   8.708   2.281  1.00  0.00    -0.346 N 
HETATM   41  C5  UNL     1      24.099   8.176   3.461  1.00  0.00     0.188 A 
ATOM     42  H4  UNL     1      23.970   9.587   1.938  1.00  0.00     0.167 HD
ENDBRANCH   1  30
BRANCH   5  43
HETATM   43  O14 UNL     1      27.088   5.882   4.980  1.00  0.00    -0.388 OA
ATOM     44  H14 UNL     1      27.870   6.082   5.481  1.00  0.00     0.210 HD
ENDBRANCH   5  43
TORSDOF 14
ENDMDL
