MODEL 8
REMARK VINA RESULT: -8.835668196      5.307     10.838
REMARK  14 active torsions:
REMARK  status: ('A' for Active; 'I' for Inactive)
REMARK    1  A    between atoms: N5_13  and  C6_14 
REMARK    2  A    between atoms: C7_16  and  C8_17 
REMARK    3  A    between atoms: C8_17  and  O2_18 
REMARK    4  A    between atoms: O2_18  and  P1_19 
REMARK    5  A    between atoms: P1_19  and  O5_22 
REMARK    6  A    between atoms: O5_22  and  P2_23 
REMARK    7  A    between atoms: P2_23  and  O8_26 
REMARK    8  A    between atoms: O8_26  and  C9_27 
REMARK    9  A    between atoms: C9_27  and  C10_28 
REMARK   10  A    between atoms: C11_30  and  O10_31 
REMARK   11  A    between atoms: C12_33  and  O11_34 
REMARK   12  A    between atoms: C13_36  and  O12_37 
REMARK   13  A    between atoms: C14_39  and  O13_40 
REMARK   14  A    between atoms: C15_42  and  O14_43 
ROOT
HETATM    1  C6  UNL     1      24.074   6.356   4.616  1.00  0.00     0.262 C 
HETATM    2  O1  UNL     1      24.069   6.789   5.977  1.00  0.00    -0.353 OA
HETATM    3  C7  UNL     1      23.774   5.582   6.559  1.00  0.00     0.180 C 
HETATM    4  C14 UNL     1      24.906   4.661   5.922  1.00  0.00     0.182 C 
HETATM    5  C15 UNL     1      25.343   5.504   4.760  1.00  0.00     0.198 C 
ENDROOT
BRANCH   3   6
HETATM    6  C8  UNL     1      23.955   5.410   8.028  1.00  0.00     0.216 C 
BRANCH   6   7
HETATM    7  O2  UNL     1      23.459   6.575   8.641  1.00  0.00    -0.287 OA
BRANCH   7   8
HETATM    8  P1  UNL     1      24.220   6.678  10.117  1.00  0.00     0.417 P 
HETATM    9  O3  UNL     1      23.589   5.802  11.379  1.00  0.00    -0.624 OA
HETATM   10  O4  UNL     1      23.587   7.927  10.549  1.00  0.00    -0.624 OA
BRANCH   8  11
HETATM   11  O5  UNL     1      25.754   7.219  10.127  1.00  0.00    -0.180 OA
BRANCH  11  12
HETATM   12  P2  UNL     1      26.882   6.586  10.911  1.00  0.00     0.417 P 
HETATM   13  O6  UNL     1      27.911   7.716  10.359  1.00  0.00    -0.624 OA
HETATM   14  O7  UNL     1      26.751   5.163   9.967  1.00  0.00    -0.624 OA
BRANCH  12  15
HETATM   15  O8  UNL     1      26.060   6.549  12.283  1.00  0.00    -0.287 OA
BRANCH  15  16
HETATM   16  C9  UNL     1      26.405   5.676  13.266  1.00  0.00     0.216 C 
BRANCH  16  17
HETATM   17  C10 UNL     1      26.806   6.422  14.518  1.00  0.00     0.180 C 
HETATM   18  O9  UNL     1      26.824   5.589  15.590  1.00  0.00    -0.349 OA
HETATM   19  C11 UNL     1      28.046   4.933  15.526  1.00  0.00     0.288 C 
HETATM   20  C12 UNL     1      29.036   5.906  14.920  1.00  0.00     0.204 C 
HETATM   21  C13 UNL     1      28.156   7.047  14.458  1.00  0.00     0.182 C 
BRANCH  19  22
HETATM   22  O10 UNL     1      28.416   4.644  16.839  1.00  0.00    -0.369 OA
ATOM     23  H10 UNL     1      29.235   4.163  16.793  1.00  0.00     0.212 HD
ENDBRANCH  19  22
BRANCH  20  24
HETATM   24  O11 UNL     1      29.949   6.331  15.845  1.00  0.00    -0.388 OA
ATOM     25  H11 UNL     1      30.028   7.278  15.846  1.00  0.00     0.210 HD
ENDBRANCH  20  24
BRANCH  21  26
HETATM   26  O12 UNL     1      28.128   8.111  15.385  1.00  0.00    -0.390 OA
ATOM     27  H12 UNL     1      28.864   8.667  15.162  1.00  0.00     0.210 HD
ENDBRANCH  21  26
ENDBRANCH  16  17
ENDBRANCH  15  16
ENDBRANCH  12  15
ENDBRANCH  11  12
ENDBRANCH   8  11
ENDBRANCH   7   8
ENDBRANCH   6   7
ENDBRANCH   3   6
BRANCH   4  28
HETATM   28  O13 UNL     1      24.413   3.482   5.478  1.00  0.00    -0.390 OA
ATOM     29  H13 UNL     1      25.024   2.767   5.609  1.00  0.00     0.210 HD
ENDBRANCH   4  28
BRANCH   1  30
HETATM   30  N5  UNL     1      24.296   7.391   3.690  1.00  0.00    -0.297 N 
HETATM   31  C3  UNL     1      23.489   7.818   2.680  1.00  0.00     0.142 A 
HETATM   32  N3  UNL     1      22.380   7.364   2.156  1.00  0.00    -0.336 N 
HETATM   33  C4  UNL     1      24.154   8.870   2.085  1.00  0.00     0.119 A 
HETATM   34  C2  UNL     1      21.868   7.953   1.024  1.00  0.00     0.183 A 
ATOM     35  H3  UNL     1      21.896   6.577   2.587  1.00  0.00     0.168 HD
HETATM   36  N2  UNL     1      22.547   8.979   0.442  1.00  0.00    -0.339 N 
HETATM   37  C1  UNL     1      23.692   9.479   0.923  1.00  0.00     0.148 A 
ATOM     38  H2  UNL     1      22.162   9.390  -0.408  1.00  0.00     0.167 HD
HETATM   39  N1  UNL     1      24.498  10.462   0.293  1.00  0.00    -0.080 NA
HETATM   40  N4  UNL     1      25.302   9.052   2.737  1.00  0.00    -0.346 N 
HETATM   41  C5  UNL     1      25.419   8.156   3.699  1.00  0.00     0.188 A 
ATOM     42  H4  UNL     1      25.989   9.776   2.525  1.00  0.00     0.167 HD
ENDBRANCH   1  30
BRANCH   5  43
HETATM   43  O14 UNL     1      25.666   4.780   3.654  1.00  0.00    -0.388 OA
ATOM     44  H14 UNL     1      25.654   5.273   2.842  1.00  0.00     0.210 HD
ENDBRANCH   5  43
TORSDOF 14
ENDMDL
