MODEL 4
REMARK VINA RESULT: -9.088079047      0.998      1.716
REMARK  14 active torsions:
REMARK  status: ('A' for Active; 'I' for Inactive)
REMARK    1  A    between atoms: N5_13  and  C6_14 
REMARK    2  A    between atoms: C7_16  and  C8_17 
REMARK    3  A    between atoms: C8_17  and  O2_18 
REMARK    4  A    between atoms: O2_18  and  P1_19 
REMARK    5  A    between atoms: P1_19  and  O5_22 
REMARK    6  A    between atoms: O5_22  and  P2_23 
REMARK    7  A    between atoms: P2_23  and  O8_26 
REMARK    8  A    between atoms: O8_26  and  C9_27 
REMARK    9  A    between atoms: C9_27  and  C10_28 
REMARK   10  A    between atoms: C11_30  and  O10_31 
REMARK   11  A    between atoms: C12_33  and  O11_34 
REMARK   12  A    between atoms: C13_36  and  O12_37 
REMARK   13  A    between atoms: C14_39  and  O13_40 
REMARK   14  A    between atoms: C15_42  and  O14_43 
ROOT
HETATM    1  C6  UNL     1      29.520   4.710  13.517  1.00  0.00     0.262 C 
HETATM    2  O1  UNL     1      28.430   4.808  12.598  1.00  0.00    -0.353 OA
HETATM    3  C7  UNL     1      27.414   4.884  13.516  1.00  0.00     0.180 C 
HETATM    4  C14 UNL     1      27.924   6.089  14.424  1.00  0.00     0.182 C 
HETATM    5  C15 UNL     1      29.373   6.147  14.038  1.00  0.00     0.198 C 
ENDROOT
BRANCH   3   6
HETATM    6  C8  UNL     1      26.057   5.315  13.077  1.00  0.00     0.216 C 
BRANCH   6   7
HETATM    7  O2  UNL     1      26.238   6.363  12.156  1.00  0.00    -0.287 OA
BRANCH   7   8
HETATM    8  P1  UNL     1      25.755   5.767  10.680  1.00  0.00     0.417 P 
HETATM    9  O3  UNL     1      26.859   4.893   9.798  1.00  0.00    -0.624 OA
HETATM   10  O4  UNL     1      25.983   6.997   9.916  1.00  0.00    -0.624 OA
BRANCH   8  11
HETATM   11  O5  UNL     1      24.156   5.657  10.408  1.00  0.00    -0.180 OA
BRANCH  11  12
HETATM   12  P2  UNL     1      23.398   6.493   9.400  1.00  0.00     0.417 P 
HETATM   13  O6  UNL     1      23.756   7.840  10.237  1.00  0.00    -0.624 OA
HETATM   14  O7  UNL     1      21.939   5.707   9.830  1.00  0.00    -0.624 OA
BRANCH  12  15
HETATM   15  O8  UNL     1      24.147   5.857   8.138  1.00  0.00    -0.287 OA
BRANCH  15  16
HETATM   16  C9  UNL     1      23.473   5.643   6.977  1.00  0.00     0.216 C 
BRANCH  16  17
HETATM   17  C10 UNL     1      24.344   4.903   5.989  1.00  0.00     0.180 C 
HETATM   18  O9  UNL     1      23.907   5.101   4.718  1.00  0.00    -0.349 OA
HETATM   19  C11 UNL     1      24.429   6.330   4.337  1.00  0.00     0.288 C 
HETATM   20  C12 UNL     1      25.764   6.476   5.036  1.00  0.00     0.204 C 
HETATM   21  C13 UNL     1      25.776   5.311   6.001  1.00  0.00     0.182 C 
BRANCH  19  22
HETATM   22  O10 UNL     1      24.625   6.273   2.958  1.00  0.00    -0.369 OA
ATOM     23  H10 UNL     1      25.253   6.953   2.743  1.00  0.00     0.212 HD
ENDBRANCH  19  22
BRANCH  20  24
HETATM   24  O11 UNL     1      26.803   6.394   4.152  1.00  0.00    -0.388 OA
ATOM     25  H11 UNL     1      27.632   6.268   4.599  1.00  0.00     0.210 HD
ENDBRANCH  20  24
BRANCH  21  26
HETATM   26  O12 UNL     1      26.494   4.206   5.497  1.00  0.00    -0.390 OA
ATOM     27  H12 UNL     1      27.227   4.083   6.089  1.00  0.00     0.210 HD
ENDBRANCH  21  26
ENDBRANCH  16  17
ENDBRANCH  15  16
ENDBRANCH  12  15
ENDBRANCH  11  12
ENDBRANCH   8  11
ENDBRANCH   7   8
ENDBRANCH   6   7
ENDBRANCH   3   6
BRANCH   4  28
HETATM   28  O13 UNL     1      27.807   5.817  15.743  1.00  0.00    -0.390 OA
ATOM     29  H13 UNL     1      27.184   6.392  16.174  1.00  0.00     0.210 HD
ENDBRANCH   4  28
BRANCH   1  30
HETATM   30  N5  UNL     1      30.773   4.552  12.899  1.00  0.00    -0.297 N 
HETATM   31  C3  UNL     1      31.611   3.479  12.934  1.00  0.00     0.142 A 
HETATM   32  N3  UNL     1      31.621   2.363  13.615  1.00  0.00    -0.336 N 
HETATM   33  C4  UNL     1      32.693   3.820  12.149  1.00  0.00     0.119 A 
HETATM   34  C2  UNL     1      32.704   1.520  13.530  1.00  0.00     0.183 A 
ATOM     35  H3  UNL     1      30.827   2.117  14.207  1.00  0.00     0.168 HD
HETATM   36  N2  UNL     1      33.770   1.881  12.764  1.00  0.00    -0.339 N 
HETATM   37  C1  UNL     1      33.823   3.015  12.054  1.00  0.00     0.148 A 
ATOM     38  H2  UNL     1      34.572   1.253  12.729  1.00  0.00     0.167 HD
HETATM   39  N1  UNL     1      34.951   3.494  11.339  1.00  0.00    -0.080 NA
HETATM   40  N4  UNL     1      32.483   5.045  11.668  1.00  0.00    -0.346 N 
HETATM   41  C5  UNL     1      31.337   5.516  12.125  1.00  0.00     0.188 A 
ATOM     42  H4  UNL     1      33.113   5.545  11.041  1.00  0.00     0.167 HD
ENDBRANCH   1  30
BRANCH   5  43
HETATM   43  O14 UNL     1      30.198   6.459  15.074  1.00  0.00    -0.388 OA
ATOM     44  H14 UNL     1      29.787   6.960  15.769  1.00  0.00     0.210 HD
ENDBRANCH   5  43
TORSDOF 14
ENDMDL
