MODEL 6
REMARK VINA RESULT: -8.992446029      1.499      2.494
REMARK  14 active torsions:
REMARK  status: ('A' for Active; 'I' for Inactive)
REMARK    1  A    between atoms: N5_13  and  C6_14 
REMARK    2  A    between atoms: C7_16  and  C8_17 
REMARK    3  A    between atoms: C8_17  and  O2_18 
REMARK    4  A    between atoms: O2_18  and  P1_19 
REMARK    5  A    between atoms: P1_19  and  O5_22 
REMARK    6  A    between atoms: O5_22  and  P2_23 
REMARK    7  A    between atoms: P2_23  and  O8_26 
REMARK    8  A    between atoms: O8_26  and  C9_27 
REMARK    9  A    between atoms: C9_27  and  C10_28 
REMARK   10  A    between atoms: C11_30  and  O10_31 
REMARK   11  A    between atoms: C12_33  and  O11_34 
REMARK   12  A    between atoms: C13_36  and  O12_37 
REMARK   13  A    between atoms: C14_39  and  O13_40 
REMARK   14  A    between atoms: C15_42  and  O14_43 
ROOT
HETATM    1  C6  UNL     1      28.451   3.436  14.995  1.00  0.00     0.262 C 
HETATM    2  O1  UNL     1      27.600   3.534  13.851  1.00  0.00    -0.353 OA
HETATM    3  C7  UNL     1      26.502   4.066  14.478  1.00  0.00     0.180 C 
HETATM    4  C14 UNL     1      27.156   5.319  15.211  1.00  0.00     0.182 C 
HETATM    5  C15 UNL     1      28.612   4.953  15.163  1.00  0.00     0.198 C 
ENDROOT
BRANCH   3   6
HETATM    6  C8  UNL     1      25.405   4.660  13.663  1.00  0.00     0.216 C 
BRANCH   6   7
HETATM    7  O2  UNL     1      25.800   4.566  12.316  1.00  0.00    -0.287 OA
BRANCH   7   8
HETATM    8  P1  UNL     1      25.195   5.921  11.563  1.00  0.00     0.417 P 
HETATM    9  O3  UNL     1      26.232   7.192  11.302  1.00  0.00    -0.624 OA
HETATM   10  O4  UNL     1      24.605   6.531  12.759  1.00  0.00    -0.624 OA
BRANCH   8  11
HETATM   11  O5  UNL     1      23.812   5.752  10.724  1.00  0.00    -0.180 OA
BRANCH  11  12
HETATM   12  P2  UNL     1      23.634   6.150   9.276  1.00  0.00     0.417 P 
HETATM   13  O6  UNL     1      23.553   7.715   9.707  1.00  0.00    -0.624 OA
HETATM   14  O7  UNL     1      22.145   5.309   9.217  1.00  0.00    -0.624 OA
BRANCH  12  15
HETATM   15  O8  UNL     1      24.894   5.304   8.770  1.00  0.00    -0.287 OA
BRANCH  15  16
HETATM   16  C9  UNL     1      25.693   5.787   7.782  1.00  0.00     0.216 C 
BRANCH  16  17
HETATM   17  C10 UNL     1      24.923   5.902   6.487  1.00  0.00     0.180 C 
HETATM   18  O9  UNL     1      25.611   6.643   5.581  1.00  0.00    -0.349 OA
HETATM   19  C11 UNL     1      26.534   5.771   5.016  1.00  0.00     0.288 C 
HETATM   20  C12 UNL     1      25.888   4.401   4.998  1.00  0.00     0.204 C 
HETATM   21  C13 UNL     1      24.635   4.601   5.823  1.00  0.00     0.182 C 
BRANCH  19  22
HETATM   22  O10 UNL     1      26.749   6.205   3.709  1.00  0.00    -0.369 OA
ATOM     23  H10 UNL     1      27.481   5.702   3.371  1.00  0.00     0.212 HD
ENDBRANCH  19  22
BRANCH  20  24
HETATM   24  O11 UNL     1      25.582   4.010   3.724  1.00  0.00    -0.388 OA
ATOM     25  H11 UNL     1      25.632   3.066   3.629  1.00  0.00     0.210 HD
ENDBRANCH  20  24
BRANCH  21  26
HETATM   26  O12 UNL     1      23.496   4.823   5.021  1.00  0.00    -0.390 OA
ATOM     27  H12 UNL     1      23.503   4.137   4.365  1.00  0.00     0.210 HD
ENDBRANCH  21  26
ENDBRANCH  16  17
ENDBRANCH  15  16
ENDBRANCH  12  15
ENDBRANCH  11  12
ENDBRANCH   8  11
ENDBRANCH   7   8
ENDBRANCH   6   7
ENDBRANCH   3   6
BRANCH   4  28
HETATM   28  O13 UNL     1      26.750   5.427  16.496  1.00  0.00    -0.390 OA
ATOM     29  H13 UNL     1      27.165   6.155  16.944  1.00  0.00     0.210 HD
ENDBRANCH   4  28
BRANCH   1  30
HETATM   30  N5  UNL     1      29.701   2.851  14.725  1.00  0.00    -0.297 N 
HETATM   31  C3  UNL     1      30.666   3.265  13.858  1.00  0.00     0.142 A 
HETATM   32  N3  UNL     1      30.716   4.191  12.936  1.00  0.00    -0.336 N 
HETATM   33  C4  UNL     1      31.701   2.363  13.986  1.00  0.00     0.119 A 
HETATM   34  C2  UNL     1      31.811   4.275  12.109  1.00  0.00     0.183 A 
ATOM     35  H3  UNL     1      29.944   4.850  12.831  1.00  0.00     0.168 HD
HETATM   36  N2  UNL     1      32.814   3.365  12.240  1.00  0.00    -0.339 N 
HETATM   37  C1  UNL     1      32.816   2.388  13.155  1.00  0.00     0.148 A 
ATOM     38  H2  UNL     1      33.610   3.431  11.605  1.00  0.00     0.167 HD
HETATM   39  N1  UNL     1      33.774   1.346  13.255  1.00  0.00    -0.080 NA
HETATM   40  N4  UNL     1      31.350   1.462  14.904  1.00  0.00    -0.346 N 
HETATM   41  C5  UNL     1      30.136   1.725  15.350  1.00  0.00     0.188 A 
ATOM     42  H4  UNL     1      31.933   0.685  15.216  1.00  0.00     0.167 HD
ENDBRANCH   1  30
BRANCH   5  43
HETATM   43  O14 UNL     1      29.303   5.329  16.273  1.00  0.00    -0.388 OA
ATOM     44  H14 UNL     1      30.236   5.443  16.136  1.00  0.00     0.210 HD
ENDBRANCH   5  43
TORSDOF 14
ENDMDL
