MODEL 4
REMARK VINA RESULT: -11.153551547      3.524      5.184
REMARK  7 active torsions:
REMARK  status: ('A' for Active; 'I' for Inactive)
REMARK    1  A    between atoms: N2_5  and  C4_6 
REMARK    2  A    between atoms: C7_9  and  C8_10 
REMARK       I    between atoms: C8_10  and  N3_12 
REMARK    3  A    between atoms: N3_12  and  C9_14 
REMARK    4  A    between atoms: C13_22  and  C14_23 
REMARK    5  A    between atoms: C14_23  and  C15_24 
REMARK    6  A    between atoms: C23_34  and  N6_35 
REMARK    7  A    between atoms: N6_35  and  C24_37 
ROOT
HETATM    1  C8  UNL     1       2.189  18.006   7.730  1.00  0.00     0.259 C 
HETATM    2  O1  UNL     1       2.249  17.031   6.923  1.00  0.00    -0.267 OA
HETATM    3  N3  UNL     1       2.425  17.791   9.100  1.00  0.00    -0.307 N 
ATOM      4  H3  UNL     1       2.373  18.573   9.752  1.00  0.00     0.170 HD
ENDROOT
BRANCH   1   5
HETATM    5  C7  UNL     1       1.876  19.333   7.199  1.00  0.00     0.058 A 
HETATM    6  C6  UNL     1       0.738  19.995   7.678  1.00  0.00     0.022 A 
HETATM    7  C5  UNL     1       0.444  21.245   7.226  1.00  0.00     0.030 A 
HETATM    8  C4  UNL     1       1.239  21.910   6.291  1.00  0.00     0.032 A 
HETATM    9  C29 UNL     1       2.330  21.233   5.853  1.00  0.00     0.059 A 
HETATM   10  C23 UNL     1       2.690  19.938   6.279  1.00  0.00     0.046 A 
BRANCH   8  11
HETATM   11  N2  UNL     1       0.848  23.206   5.897  1.00  0.00    -0.377 N 
HETATM   12  C3  UNL     1       0.651  23.543   4.481  1.00  0.00     0.153 C 
HETATM   13  C2  UNL     1      -0.083  24.889   4.511  1.00  0.00     0.291 C 
HETATM   14  N1  UNL     1       0.867  25.840   5.032  1.00  0.00     0.087 N 
HETATM   15  C1  UNL     1       0.429  27.191   4.730  1.00  0.00     0.310 C 
HETATM   16  C31 UNL     1       1.038  25.622   6.435  1.00  0.00     0.291 C 
HETATM   17  C30 UNL     1       0.627  24.240   6.864  1.00  0.00     0.153 C 
ENDBRANCH   8  11
BRANCH  10  18
HETATM   18  N6  UNL     1       3.822  19.369   5.699  1.00  0.00    -0.384 N 
ATOM     19  H6  UNL     1       3.784  19.063   4.726  1.00  0.00     0.160 HD
BRANCH  18  20
HETATM   20  C24 UNL     1       5.071  19.200   6.457  1.00  0.00     0.085 C 
HETATM   21  C25 UNL     1       6.214  19.097   5.494  1.00  0.00     0.051 C 
HETATM   22  C26 UNL     1       6.984  20.407   5.424  1.00  0.00     0.169 C 
HETATM   23  O2  UNL     1       6.055  21.451   5.401  1.00  0.00    -0.391 OA
HETATM   24  C27 UNL     1       5.456  21.637   6.631  1.00  0.00     0.169 C 
HETATM   25  C28 UNL     1       5.322  20.346   7.402  1.00  0.00     0.051 C 
ENDBRANCH  18  20
ENDBRANCH  10  18
ENDBRANCH   1   5
BRANCH   3  26
HETATM   26  C9  UNL     1       2.736  16.485   9.584  1.00  0.00     0.135 A 
HETATM   27  N4  UNL     1       2.031  15.596  10.272  1.00  0.00    -0.284 N 
HETATM   28  N5  UNL     1       2.754  14.485  10.499  1.00  0.00    -0.298 N 
ATOM     29  H4  UNL     1       1.071  15.736  10.586  1.00  0.00     0.188 HD
HETATM   30  C10 UNL     1       3.969  14.631   9.954  1.00  0.00     0.062 A 
ATOM     31  H5  UNL     1       2.429  13.662  11.007  1.00  0.00     0.187 HD
HETATM   32  C11 UNL     1       5.090  13.796   9.897  1.00  0.00     0.032 A 
HETATM   33  C22 UNL     1       3.986  15.872   9.376  1.00  0.00     0.038 A 
HETATM   34  C12 UNL     1       6.211  14.262   9.240  1.00  0.00     0.010 A 
HETATM   35  C13 UNL     1       6.257  15.503   8.650  1.00  0.00    -0.053 A 
HETATM   36  C21 UNL     1       5.143  16.298   8.723  1.00  0.00     0.025 A 
BRANCH  35  37
HETATM   37  C14 UNL     1       7.478  15.966   7.956  1.00  0.00     0.077 C 
BRANCH  37  38
HETATM   38  C15 UNL     1       8.150  17.068   8.696  1.00  0.00    -0.048 A 
HETATM   39  C16 UNL     1       8.358  18.292   8.109  1.00  0.00     0.049 A 
HETATM   40  C17 UNL     1       8.988  19.334   8.792  1.00  0.00     0.119 A 
HETATM   41  F1  UNL     1       9.201  20.544   8.229  1.00  0.00    -0.206 F 
HETATM   42  C18 UNL     1       9.414  19.139  10.088  1.00  0.00     0.084 A 
HETATM   43  C19 UNL     1       9.205  17.910  10.679  1.00  0.00     0.119 A 
HETATM   44  F2  UNL     1       9.636  17.750  11.953  1.00  0.00    -0.206 F 
HETATM   45  C20 UNL     1       8.575  16.865   9.993  1.00  0.00     0.049 A 
ENDBRANCH  37  38
ENDBRANCH  35  37
ENDBRANCH   3  26
TORSDOF 7
ENDMDL
