MODEL 2
REMARK VINA RESULT: -11.292153409      0.016      1.271
REMARK  7 active torsions:
REMARK  status: ('A' for Active; 'I' for Inactive)
REMARK    1  A    between atoms: N2_5  and  C4_6 
REMARK    2  A    between atoms: C7_9  and  C8_10 
REMARK       I    between atoms: C8_10  and  N3_12 
REMARK    3  A    between atoms: N3_12  and  C9_14 
REMARK    4  A    between atoms: C13_22  and  C14_23 
REMARK    5  A    between atoms: C14_23  and  C15_24 
REMARK    6  A    between atoms: C23_34  and  N6_35 
REMARK    7  A    between atoms: N6_35  and  C24_37 
ROOT
HETATM    1  C8  UNL     1       6.200  20.678   7.069  1.00  0.00     0.259 C 
HETATM    2  O1  UNL     1       5.818  20.582   8.273  1.00  0.00    -0.267 OA
HETATM    3  N3  UNL     1       7.483  20.228   6.707  1.00  0.00    -0.307 N 
ATOM      4  H3  UNL     1       7.794  20.308   5.739  1.00  0.00     0.170 HD
ENDROOT
BRANCH   1   5
HETATM    5  C7  UNL     1       5.280  21.258   6.089  1.00  0.00     0.058 A 
HETATM    6  C6  UNL     1       4.006  20.693   5.948  1.00  0.00     0.022 A 
HETATM    7  C5  UNL     1       3.121  21.237   5.069  1.00  0.00     0.030 A 
HETATM    8  C4  UNL     1       3.428  22.352   4.288  1.00  0.00     0.032 A 
HETATM    9  C29 UNL     1       4.672  22.868   4.456  1.00  0.00     0.059 A 
HETATM   10  C23 UNL     1       5.636  22.353   5.347  1.00  0.00     0.046 A 
BRANCH   8  11
HETATM   11  N2  UNL     1       2.435  22.840   3.415  1.00  0.00    -0.377 N 
HETATM   12  C3  UNL     1       1.108  22.214   3.348  1.00  0.00     0.153 C 
HETATM   13  C2  UNL     1       0.252  23.223   2.573  1.00  0.00     0.291 C 
HETATM   14  N1  UNL     1       0.773  23.227   1.229  1.00  0.00     0.087 N 
HETATM   15  C1  UNL     1      -0.193  23.825   0.327  1.00  0.00     0.310 C 
HETATM   16  C31 UNL     1       2.032  23.906   1.209  1.00  0.00     0.291 C 
HETATM   17  C30 UNL     1       2.682  23.967   2.564  1.00  0.00     0.153 C 
ENDBRANCH   8  11
BRANCH  10  18
HETATM   18  N6  UNL     1       6.882  22.978   5.368  1.00  0.00    -0.384 N 
ATOM     19  H6  UNL     1       7.219  23.388   6.238  1.00  0.00     0.160 HD
BRANCH  18  20
HETATM   20  C24 UNL     1       7.720  23.058   4.162  1.00  0.00     0.085 C 
HETATM   21  C25 UNL     1       7.954  24.499   3.827  1.00  0.00     0.051 C 
HETATM   22  C26 UNL     1       9.347  24.935   4.255  1.00  0.00     0.169 C 
HETATM   23  O2  UNL     1       9.600  24.391   5.517  1.00  0.00    -0.391 OA
HETATM   24  C27 UNL     1       9.826  23.031   5.457  1.00  0.00     0.169 C 
HETATM   25  C28 UNL     1       9.048  22.371   4.346  1.00  0.00     0.051 C 
ENDBRANCH  18  20
ENDBRANCH  10  18
ENDBRANCH   1   5
BRANCH   3  26
HETATM   26  C9  UNL     1       8.352  19.659   7.685  1.00  0.00     0.135 A 
HETATM   27  N4  UNL     1       9.391  20.149   8.350  1.00  0.00    -0.284 N 
HETATM   28  N5  UNL     1       9.902  19.228   9.185  1.00  0.00    -0.298 N 
ATOM     29  H4  UNL     1       9.753  21.097   8.241  1.00  0.00     0.188 HD
HETATM   30  C10 UNL     1       9.192  18.096   9.080  1.00  0.00     0.062 A 
ATOM     31  H5  UNL     1      10.703  19.368   9.801  1.00  0.00     0.187 HD
HETATM   32  C11 UNL     1       9.294  16.851   9.710  1.00  0.00     0.032 A 
HETATM   33  C22 UNL     1       8.218  18.337   8.149  1.00  0.00     0.038 A 
HETATM   34  C12 UNL     1       8.380  15.876   9.365  1.00  0.00     0.010 A 
HETATM   35  C13 UNL     1       7.390  16.088   8.435  1.00  0.00    -0.053 A 
HETATM   36  C21 UNL     1       7.318  17.319   7.834  1.00  0.00     0.025 A 
BRANCH  35  37
HETATM   37  C14 UNL     1       6.431  15.017   8.092  1.00  0.00     0.077 C 
BRANCH  37  38
HETATM   38  C15 UNL     1       5.241  15.034   8.984  1.00  0.00    -0.048 A 
HETATM   39  C16 UNL     1       5.142  14.178  10.053  1.00  0.00     0.049 A 
HETATM   40  C17 UNL     1       4.030  14.185  10.896  1.00  0.00     0.119 A 
HETATM   41  F1  UNL     1       3.917  13.349  11.952  1.00  0.00    -0.206 F 
HETATM   42  C18 UNL     1       3.000  15.069  10.658  1.00  0.00     0.084 A 
HETATM   43  C19 UNL     1       3.097  15.930   9.584  1.00  0.00     0.119 A 
HETATM   44  F2  UNL     1       2.069  16.786   9.377  1.00  0.00    -0.206 F 
HETATM   45  C20 UNL     1       4.213  15.922   8.739  1.00  0.00     0.049 A 
ENDBRANCH  37  38
ENDBRANCH  35  37
ENDBRANCH   3  26
TORSDOF 7
ENDMDL
