MODEL 8
REMARK VINA RESULT: -11.043597531      3.460      5.170
REMARK  7 active torsions:
REMARK  status: ('A' for Active; 'I' for Inactive)
REMARK    1  A    between atoms: N2_5  and  C4_6 
REMARK    2  A    between atoms: C7_9  and  C8_10 
REMARK       I    between atoms: C8_10  and  N3_12 
REMARK    3  A    between atoms: N3_12  and  C9_14 
REMARK    4  A    between atoms: C13_22  and  C14_23 
REMARK    5  A    between atoms: C14_23  and  C15_24 
REMARK    6  A    between atoms: C23_34  and  N6_35 
REMARK    7  A    between atoms: N6_35  and  C24_37 
ROOT
HETATM    1  C8  UNL     1       1.370  19.129   7.499  1.00  0.00     0.259 C 
HETATM    2  O1  UNL     1       0.309  18.438   7.507  1.00  0.00    -0.267 OA
HETATM    3  N3  UNL     1       2.526  18.638   8.135  1.00  0.00    -0.307 N 
ATOM      4  H3  UNL     1       3.380  19.195   8.133  1.00  0.00     0.170 HD
ENDROOT
BRANCH   1   5
HETATM    5  C7  UNL     1       1.354  20.424   6.819  1.00  0.00     0.058 A 
HETATM    6  C6  UNL     1       0.427  21.389   7.235  1.00  0.00     0.022 A 
HETATM    7  C5  UNL     1       0.416  22.614   6.642  1.00  0.00     0.030 A 
HETATM    8  C4  UNL     1       1.302  22.961   5.621  1.00  0.00     0.032 A 
HETATM    9  C29 UNL     1       2.182  21.998   5.248  1.00  0.00     0.059 A 
HETATM   10  C23 UNL     1       2.246  20.710   5.820  1.00  0.00     0.046 A 
BRANCH   8  11
HETATM   11  N2  UNL     1       1.210  24.260   5.082  1.00  0.00    -0.377 N 
HETATM   12  C3  UNL     1       0.649  24.491   3.744  1.00  0.00     0.153 C 
HETATM   13  C2  UNL     1       0.414  26.004   3.688  1.00  0.00     0.291 C 
HETATM   14  N1  UNL     1       1.725  26.605   3.693  1.00  0.00     0.087 N 
HETATM   15  C1  UNL     1       1.639  27.981   3.242  1.00  0.00     0.310 C 
HETATM   16  C31 UNL     1       2.294  26.492   5.000  1.00  0.00     0.291 C 
HETATM   17  C30 UNL     1       1.659  25.403   5.821  1.00  0.00     0.153 C 
ENDBRANCH   8  11
BRANCH  10  18
HETATM   18  N6  UNL     1       3.185  19.826   5.291  1.00  0.00    -0.384 N 
ATOM     19  H6  UNL     1       2.975  19.337   4.421  1.00  0.00     0.160 HD
BRANCH  18  20
HETATM   20  C24 UNL     1       4.471  19.582   5.961  1.00  0.00     0.085 C 
HETATM   21  C25 UNL     1       5.280  18.634   5.130  1.00  0.00     0.051 C 
HETATM   22  C26 UNL     1       6.358  19.375   4.355  1.00  0.00     0.169 C 
HETATM   23  O2  UNL     1       5.792  20.548   3.847  1.00  0.00    -0.391 OA
HETATM   24  C27 UNL     1       5.575  21.487   4.835  1.00  0.00     0.169 C 
HETATM   25  C28 UNL     1       5.255  20.852   6.166  1.00  0.00     0.051 C 
ENDBRANCH  18  20
ENDBRANCH  10  18
ENDBRANCH   1   5
BRANCH   3  26
HETATM   26  C9  UNL     1       2.510  17.367   8.782  1.00  0.00     0.135 A 
HETATM   27  N4  UNL     1       1.556  16.702   9.421  1.00  0.00    -0.284 N 
HETATM   28  N5  UNL     1       2.013  15.519   9.868  1.00  0.00    -0.298 N 
ATOM     29  H4  UNL     1       0.603  17.042   9.556  1.00  0.00     0.188 HD
HETATM   30  C10 UNL     1       3.301  15.387   9.522  1.00  0.00     0.062 A 
ATOM     31  H5  UNL     1       1.467  14.832  10.388  1.00  0.00     0.187 HD
HETATM   32  C11 UNL     1       4.240  14.370   9.732  1.00  0.00     0.032 A 
HETATM   33  C22 UNL     1       3.638  16.527   8.844  1.00  0.00     0.038 A 
HETATM   34  C12 UNL     1       5.513  14.554   9.231  1.00  0.00     0.010 A 
HETATM   35  C13 UNL     1       5.880  15.687   8.545  1.00  0.00    -0.053 A 
HETATM   36  C21 UNL     1       4.937  16.665   8.357  1.00  0.00     0.025 A 
BRANCH  35  37
HETATM   37  C14 UNL     1       7.255  15.845   8.026  1.00  0.00     0.077 C 
BRANCH  37  38
HETATM   38  C15 UNL     1       7.879  17.114   8.490  1.00  0.00    -0.048 A 
HETATM   39  C16 UNL     1       7.869  18.239   7.703  1.00  0.00     0.049 A 
HETATM   40  C17 UNL     1       8.452  19.434   8.128  1.00  0.00     0.119 A 
HETATM   41  F1  UNL     1       8.451  20.550   7.366  1.00  0.00    -0.206 F 
HETATM   42  C18 UNL     1       9.054  19.496   9.366  1.00  0.00     0.084 A 
HETATM   43  C19 UNL     1       9.065  18.366  10.158  1.00  0.00     0.119 A 
HETATM   44  F2  UNL     1       9.665  18.459  11.368  1.00  0.00    -0.206 F 
HETATM   45  C20 UNL     1       8.481  17.168   9.730  1.00  0.00     0.049 A 
ENDBRANCH  37  38
ENDBRANCH  35  37
ENDBRANCH   3  26
TORSDOF 7
ENDMDL
