MODEL 10
REMARK VINA RESULT: -10.973465428      3.331      5.036
REMARK  7 active torsions:
REMARK  status: ('A' for Active; 'I' for Inactive)
REMARK    1  A    between atoms: N2_5  and  C4_6 
REMARK    2  A    between atoms: C7_9  and  C8_10 
REMARK       I    between atoms: C8_10  and  N3_12 
REMARK    3  A    between atoms: N3_12  and  C9_14 
REMARK    4  A    between atoms: C13_22  and  C14_23 
REMARK    5  A    between atoms: C14_23  and  C15_24 
REMARK    6  A    between atoms: C23_34  and  N6_35 
REMARK    7  A    between atoms: N6_35  and  C24_37 
ROOT
HETATM    1  C8  UNL     1       2.614  18.326   7.586  1.00  0.00     0.259 C 
HETATM    2  O1  UNL     1       2.819  17.382   6.768  1.00  0.00    -0.267 OA
HETATM    3  N3  UNL     1       2.562  18.054   8.966  1.00  0.00    -0.307 N 
ATOM      4  H3  UNL     1       2.392  18.813   9.626  1.00  0.00     0.170 HD
ENDROOT
BRANCH   1   5
HETATM    5  C7  UNL     1       2.437  19.680   7.059  1.00  0.00     0.058 A 
HETATM    6  C6  UNL     1       1.136  20.146   6.828  1.00  0.00     0.022 A 
HETATM    7  C5  UNL     1       0.945  21.413   6.371  1.00  0.00     0.030 A 
HETATM    8  C4  UNL     1       2.004  22.287   6.118  1.00  0.00     0.032 A 
HETATM    9  C29 UNL     1       3.246  21.797   6.356  1.00  0.00     0.059 A 
HETATM   10  C23 UNL     1       3.513  20.494   6.827  1.00  0.00     0.046 A 
BRANCH   8  11
HETATM   11  N2  UNL     1       1.693  23.582   5.655  1.00  0.00    -0.377 N 
HETATM   12  C3  UNL     1       0.725  23.790   4.571  1.00  0.00     0.153 C 
HETATM   13  C2  UNL     1       0.425  25.293   4.614  1.00  0.00     0.291 C 
HETATM   14  N1  UNL     1       1.644  25.947   4.208  1.00  0.00     0.087 N 
HETATM   15  C1  UNL     1       1.364  27.320   3.828  1.00  0.00     0.310 C 
HETATM   16  C31 UNL     1       2.605  25.858   5.263  1.00  0.00     0.291 C 
HETATM   17  C30 UNL     1       2.310  24.742   6.228  1.00  0.00     0.153 C 
ENDBRANCH   8  11
BRANCH  10  18
HETATM   18  N6  UNL     1       4.852  20.135   6.979  1.00  0.00    -0.384 N 
ATOM     19  H6  UNL     1       5.326  20.339   7.858  1.00  0.00     0.160 HD
BRANCH  18  20
HETATM   20  C24 UNL     1       5.595  19.468   5.899  1.00  0.00     0.085 C 
HETATM   21  C25 UNL     1       4.993  19.857   4.583  1.00  0.00     0.051 C 
HETATM   22  C26 UNL     1       5.846  20.905   3.886  1.00  0.00     0.169 C 
HETATM   23  O2  UNL     1       6.255  21.835   4.846  1.00  0.00    -0.391 OA
HETATM   24  C27 UNL     1       7.220  21.320   5.687  1.00  0.00     0.169 C 
HETATM   25  C28 UNL     1       7.055  19.835   5.902  1.00  0.00     0.051 C 
ENDBRANCH  18  20
ENDBRANCH  10  18
ENDBRANCH   1   5
BRANCH   3  26
HETATM   26  C9  UNL     1       2.746  16.724   9.447  1.00  0.00     0.135 A 
HETATM   27  N4  UNL     1       1.938  15.884  10.081  1.00  0.00    -0.284 N 
HETATM   28  N5  UNL     1       2.560  14.719  10.333  1.00  0.00    -0.298 N 
ATOM     29  H4  UNL     1       0.974  16.093  10.343  1.00  0.00     0.188 HD
HETATM   30  C10 UNL     1       3.813  14.778   9.858  1.00  0.00     0.062 A 
ATOM     31  H5  UNL     1       2.146  13.918  10.809  1.00  0.00     0.187 HD
HETATM   32  C11 UNL     1       4.869  13.859   9.853  1.00  0.00     0.032 A 
HETATM   33  C22 UNL     1       3.956  16.019   9.301  1.00  0.00     0.038 A 
HETATM   34  C12 UNL     1       6.057  14.246   9.266  1.00  0.00     0.010 A 
HETATM   35  C13 UNL     1       6.230  15.485   8.698  1.00  0.00    -0.053 A 
HETATM   36  C21 UNL     1       5.176  16.362   8.720  1.00  0.00     0.025 A 
BRANCH  35  37
HETATM   37  C14 UNL     1       7.520  15.861   8.080  1.00  0.00     0.077 C 
BRANCH  37  38
HETATM   38  C15 UNL     1       8.195  16.954   8.831  1.00  0.00    -0.048 A 
HETATM   39  C16 UNL     1       8.573  16.788  10.140  1.00  0.00     0.049 A 
HETATM   40  C17 UNL     1       9.205  17.807  10.855  1.00  0.00     0.119 A 
HETATM   41  F1  UNL     1       9.583  17.659  12.144  1.00  0.00    -0.206 F 
HETATM   42  C18 UNL     1       9.461  19.013  10.239  1.00  0.00     0.084 A 
HETATM   43  C19 UNL     1       9.082  19.182   8.923  1.00  0.00     0.119 A 
HETATM   44  F2  UNL     1       9.348  20.377   8.347  1.00  0.00    -0.206 F 
HETATM   45  C20 UNL     1       8.447  18.159   8.208  1.00  0.00     0.049 A 
ENDBRANCH  37  38
ENDBRANCH  35  37
ENDBRANCH   3  26
TORSDOF 7
ENDMDL
