MODEL 5
REMARK VINA RESULT: -11.144339056      3.530      6.309
REMARK  7 active torsions:
REMARK  status: ('A' for Active; 'I' for Inactive)
REMARK    1  A    between atoms: N2_5  and  C4_6 
REMARK    2  A    between atoms: C7_9  and  C8_10 
REMARK       I    between atoms: C8_10  and  N3_12 
REMARK    3  A    between atoms: N3_12  and  C9_14 
REMARK    4  A    between atoms: C13_22  and  C14_23 
REMARK    5  A    between atoms: C14_23  and  C15_24 
REMARK    6  A    between atoms: C23_34  and  N6_35 
REMARK    7  A    between atoms: N6_35  and  C24_37 
ROOT
HETATM    1  C8  UNL     1      10.861  21.157   7.662  1.00  0.00     0.259 C 
HETATM    2  O1  UNL     1      11.886  20.417   7.582  1.00  0.00    -0.267 OA
HETATM    3  N3  UNL     1       9.687  20.659   8.257  1.00  0.00    -0.307 N 
ATOM      4  H3  UNL     1       8.859  21.252   8.318  1.00  0.00     0.170 HD
ENDROOT
BRANCH   1   5
HETATM    5  C7  UNL     1      10.939  22.517   7.127  1.00  0.00     0.058 A 
HETATM    6  C6  UNL     1      11.796  23.434   7.750  1.00  0.00     0.022 A 
HETATM    7  C5  UNL     1      11.913  24.695   7.251  1.00  0.00     0.030 A 
HETATM    8  C4  UNL     1      11.206  25.124   6.126  1.00  0.00     0.032 A 
HETATM    9  C29 UNL     1      10.389  24.205   5.554  1.00  0.00     0.059 A 
HETATM   10  C23 UNL     1      10.221  22.885   6.021  1.00  0.00     0.046 A 
BRANCH   8  11
HETATM   11  N2  UNL     1      11.408  26.448   5.687  1.00  0.00    -0.377 N 
HETATM   12  C3  UNL     1      11.942  27.476   6.590  1.00  0.00     0.153 C 
HETATM   13  C2  UNL     1      12.325  28.634   5.661  1.00  0.00     0.291 C 
HETATM   14  N1  UNL     1      11.081  29.148   5.144  1.00  0.00     0.087 N 
HETATM   15  C1  UNL     1      11.287  30.472   4.587  1.00  0.00     0.310 C 
HETATM   16  C31 UNL     1      10.549  28.229   4.185  1.00  0.00     0.291 C 
HETATM   17  C30 UNL     1      11.101  26.839   4.342  1.00  0.00     0.153 C 
ENDBRANCH   8  11
BRANCH  10  18
HETATM   18  N6  UNL     1       9.309  22.080   5.340  1.00  0.00    -0.384 N 
ATOM     19  H6  UNL     1       9.252  21.088   5.569  1.00  0.00     0.160 HD
BRANCH  18  20
HETATM   20  C24 UNL     1       8.426  22.631   4.301  1.00  0.00     0.085 C 
HETATM   21  C25 UNL     1       8.365  21.668   3.155  1.00  0.00     0.051 C 
HETATM   22  C26 UNL     1       7.066  20.878   3.180  1.00  0.00     0.169 C 
HETATM   23  O2  UNL     1       6.810  20.510   4.504  1.00  0.00    -0.391 OA
HETATM   24  C27 UNL     1       6.405  21.585   5.269  1.00  0.00     0.169 C 
HETATM   25  C28 UNL     1       7.032  22.880   4.812  1.00  0.00     0.051 C 
ENDBRANCH  18  20
ENDBRANCH  10  18
ENDBRANCH   1   5
BRANCH   3  26
HETATM   26  C9  UNL     1       9.647  19.331   8.775  1.00  0.00     0.135 A 
HETATM   27  N4  UNL     1      10.434  18.678   9.620  1.00  0.00    -0.284 N 
HETATM   28  N5  UNL     1       9.989  17.424   9.817  1.00  0.00    -0.298 N 
ATOM     29  H4  UNL     1      11.264  19.073  10.061  1.00  0.00     0.188 HD
HETATM   30  C10 UNL     1       8.881  17.231   9.088  1.00  0.00     0.062 A 
ATOM     31  H5  UNL     1      10.426  16.730  10.424  1.00  0.00     0.187 HD
HETATM   32  C11 UNL     1       8.032  16.130   8.927  1.00  0.00     0.032 A 
HETATM   33  C22 UNL     1       8.645  18.405   8.427  1.00  0.00     0.038 A 
HETATM   34  C12 UNL     1       6.950  16.268   8.081  1.00  0.00     0.010 A 
HETATM   35  C13 UNL     1       6.687  17.434   7.404  1.00  0.00    -0.053 A 
HETATM   36  C21 UNL     1       7.537  18.495   7.583  1.00  0.00     0.025 A 
BRANCH  35  37
HETATM   37  C14 UNL     1       5.517  17.541   6.506  1.00  0.00     0.077 C 
BRANCH  37  38
HETATM   38  C15 UNL     1       4.236  17.519   7.262  1.00  0.00    -0.048 A 
HETATM   39  C16 UNL     1       4.031  16.629   8.287  1.00  0.00     0.049 A 
HETATM   40  C17 UNL     1       2.833  16.598   9.003  1.00  0.00     0.119 A 
HETATM   41  F1  UNL     1       2.616  15.728  10.013  1.00  0.00    -0.206 F 
HETATM   42  C18 UNL     1       1.825  17.481   8.680  1.00  0.00     0.084 A 
HETATM   43  C19 UNL     1       2.029  18.377   7.651  1.00  0.00     0.119 A 
HETATM   44  F2  UNL     1       1.020  19.231   7.359  1.00  0.00    -0.206 F 
HETATM   45  C20 UNL     1       3.230  18.406   6.933  1.00  0.00     0.049 A 
ENDBRANCH  37  38
ENDBRANCH  35  37
ENDBRANCH   3  26
TORSDOF 7
ENDMDL
