MODEL 1
REMARK VINA RESULT: -11.305117381      0.000      0.000
REMARK  7 active torsions:
REMARK  status: ('A' for Active; 'I' for Inactive)
REMARK    1  A    between atoms: N2_5  and  C4_6 
REMARK    2  A    between atoms: C7_9  and  C8_10 
REMARK       I    between atoms: C8_10  and  N3_12 
REMARK    3  A    between atoms: N3_12  and  C9_14 
REMARK    4  A    between atoms: C13_22  and  C14_23 
REMARK    5  A    between atoms: C14_23  and  C15_24 
REMARK    6  A    between atoms: C23_34  and  N6_35 
REMARK    7  A    between atoms: N6_35  and  C24_37 
ROOT
HETATM    1  C8  UNL     1       6.201  20.682   7.068  1.00  0.00     0.259 C 
HETATM    2  O1  UNL     1       5.818  20.584   8.271  1.00  0.00    -0.267 OA
HETATM    3  N3  UNL     1       7.485  20.234   6.707  1.00  0.00    -0.307 N 
ATOM      4  H3  UNL     1       7.797  20.316   5.740  1.00  0.00     0.170 HD
ENDROOT
BRANCH   1   5
HETATM    5  C7  UNL     1       5.283  21.263   6.088  1.00  0.00     0.058 A 
HETATM    6  C6  UNL     1       4.008  20.699   5.947  1.00  0.00     0.022 A 
HETATM    7  C5  UNL     1       3.123  21.243   5.067  1.00  0.00     0.030 A 
HETATM    8  C4  UNL     1       3.432  22.359   4.287  1.00  0.00     0.032 A 
HETATM    9  C29 UNL     1       4.676  22.874   4.455  1.00  0.00     0.059 A 
HETATM   10  C23 UNL     1       5.639  22.357   5.347  1.00  0.00     0.046 A 
BRANCH   8  11
HETATM   11  N2  UNL     1       2.439  22.848   3.414  1.00  0.00    -0.377 N 
HETATM   12  C3  UNL     1       1.118  22.210   3.332  1.00  0.00     0.153 C 
HETATM   13  C2  UNL     1       0.258  23.220   2.564  1.00  0.00     0.291 C 
HETATM   14  N1  UNL     1       0.787  23.245   1.222  1.00  0.00     0.087 N 
HETATM   15  C1  UNL     1      -0.180  23.845   0.321  1.00  0.00     0.310 C 
HETATM   16  C31 UNL     1       2.039  23.935   1.218  1.00  0.00     0.291 C 
HETATM   17  C30 UNL     1       2.681  23.986   2.577  1.00  0.00     0.153 C 
ENDBRANCH   8  11
BRANCH  10  18
HETATM   18  N6  UNL     1       6.885  22.982   5.367  1.00  0.00    -0.384 N 
ATOM     19  H6  UNL     1       7.224  23.391   6.238  1.00  0.00     0.160 HD
BRANCH  18  20
HETATM   20  C24 UNL     1       7.723  23.063   4.162  1.00  0.00     0.085 C 
HETATM   21  C25 UNL     1       7.956  24.505   3.828  1.00  0.00     0.051 C 
HETATM   22  C26 UNL     1       9.349  24.942   4.256  1.00  0.00     0.169 C 
HETATM   23  O2  UNL     1       9.603  24.396   5.517  1.00  0.00    -0.391 OA
HETATM   24  C27 UNL     1       9.830  23.036   5.456  1.00  0.00     0.169 C 
HETATM   25  C28 UNL     1       9.051  22.377   4.344  1.00  0.00     0.051 C 
ENDBRANCH  18  20
ENDBRANCH  10  18
ENDBRANCH   1   5
BRANCH   3  26
HETATM   26  C9  UNL     1       8.353  19.664   7.686  1.00  0.00     0.135 A 
HETATM   27  N4  UNL     1       9.392  20.153   8.351  1.00  0.00    -0.284 N 
HETATM   28  N5  UNL     1       9.903  19.232   9.186  1.00  0.00    -0.298 N 
ATOM     29  H4  UNL     1       9.755  21.101   8.243  1.00  0.00     0.188 HD
HETATM   30  C10 UNL     1       9.193  18.100   9.079  1.00  0.00     0.062 A 
ATOM     31  H5  UNL     1      10.704  19.371   9.802  1.00  0.00     0.187 HD
HETATM   32  C11 UNL     1       9.294  16.854   9.709  1.00  0.00     0.032 A 
HETATM   33  C22 UNL     1       8.219  18.342   8.148  1.00  0.00     0.038 A 
HETATM   34  C12 UNL     1       8.380  15.880   9.362  1.00  0.00     0.010 A 
HETATM   35  C13 UNL     1       7.391  16.093   8.431  1.00  0.00    -0.053 A 
HETATM   36  C21 UNL     1       7.319  17.324   7.832  1.00  0.00     0.025 A 
BRANCH  35  37
HETATM   37  C14 UNL     1       6.432  15.022   8.087  1.00  0.00     0.077 C 
BRANCH  37  38
HETATM   38  C15 UNL     1       5.236  15.045   8.972  1.00  0.00    -0.048 A 
HETATM   39  C16 UNL     1       4.205  15.923   8.748  1.00  0.00     0.049 A 
HETATM   40  C17 UNL     1       3.078  15.955   9.572  1.00  0.00     0.119 A 
HETATM   41  F1  UNL     1       2.055  16.813   9.365  1.00  0.00    -0.206 F 
HETATM   42  C18 UNL     1       2.991  15.087  10.639  1.00  0.00     0.084 A 
HETATM   43  C19 UNL     1       4.026  14.204  10.866  1.00  0.00     0.119 A 
HETATM   44  F2  UNL     1       3.910  13.365  11.922  1.00  0.00    -0.206 F 
HETATM   45  C20 UNL     1       5.156  14.174  10.039  1.00  0.00     0.049 A 
ENDBRANCH  37  38
ENDBRANCH  35  37
ENDBRANCH   3  26
TORSDOF 7
ENDMDL
