MODEL 3
REMARK VINA RESULT: -11.240274914      3.828      5.725
REMARK  7 active torsions:
REMARK  status: ('A' for Active; 'I' for Inactive)
REMARK    1  A    between atoms: N2_5  and  C4_6 
REMARK    2  A    between atoms: C7_9  and  C8_10 
REMARK       I    between atoms: C8_10  and  N3_12 
REMARK    3  A    between atoms: N3_12  and  C9_14 
REMARK    4  A    between atoms: C13_22  and  C14_23 
REMARK    5  A    between atoms: C14_23  and  C15_24 
REMARK    6  A    between atoms: C23_34  and  N6_35 
REMARK    7  A    between atoms: N6_35  and  C24_37 
ROOT
HETATM    1  C8  UNL     1       1.681  17.502   8.081  1.00  0.00     0.259 C 
HETATM    2  O1  UNL     1       1.474  16.462   7.389  1.00  0.00    -0.267 OA
HETATM    3  N3  UNL     1       2.352  17.397   9.313  1.00  0.00    -0.307 N 
ATOM      4  H3  UNL     1       2.516  18.233   9.874  1.00  0.00     0.170 HD
ENDROOT
BRANCH   1   5
HETATM    5  C7  UNL     1       1.209  18.788   7.566  1.00  0.00     0.058 A 
HETATM    6  C6  UNL     1      -0.166  19.055   7.585  1.00  0.00     0.022 A 
HETATM    7  C5  UNL     1      -0.626  20.258   7.144  1.00  0.00     0.030 A 
HETATM    8  C4  UNL     1       0.224  21.256   6.665  1.00  0.00     0.032 A 
HETATM    9  C29 UNL     1       1.547  20.956   6.663  1.00  0.00     0.059 A 
HETATM   10  C23 UNL     1       2.089  19.731   7.104  1.00  0.00     0.046 A 
BRANCH   8  11
HETATM   11  N2  UNL     1      -0.357  22.468   6.240  1.00  0.00    -0.377 N 
HETATM   12  C3  UNL     1       0.365  23.741   6.364  1.00  0.00     0.153 C 
HETATM   13  C2  UNL     1      -0.439  24.718   5.499  1.00  0.00     0.291 C 
HETATM   14  N1  UNL     1      -1.701  24.893   6.175  1.00  0.00     0.087 N 
HETATM   15  C1  UNL     1      -2.368  26.081   5.675  1.00  0.00     0.310 C 
HETATM   16  C31 UNL     1      -2.493  23.713   6.016  1.00  0.00     0.291 C 
HETATM   17  C30 UNL     1      -1.671  22.502   5.670  1.00  0.00     0.153 C 
ENDBRANCH   8  11
BRANCH  10  18
HETATM   18  N6  UNL     1       3.469  19.570   6.997  1.00  0.00    -0.384 N 
ATOM     19  H6  UNL     1       3.915  18.773   7.449  1.00  0.00     0.160 HD
BRANCH  18  20
HETATM   20  C24 UNL     1       4.297  20.525   6.244  1.00  0.00     0.085 C 
HETATM   21  C25 UNL     1       5.649  20.605   6.883  1.00  0.00     0.051 C 
HETATM   22  C26 UNL     1       6.673  19.810   6.087  1.00  0.00     0.169 C 
HETATM   23  O2  UNL     1       6.077  18.606   5.702  1.00  0.00    -0.391 OA
HETATM   24  C27 UNL     1       5.143  18.788   4.702  1.00  0.00     0.169 C 
HETATM   25  C28 UNL     1       4.455  20.127   4.800  1.00  0.00     0.051 C 
ENDBRANCH  18  20
ENDBRANCH  10  18
ENDBRANCH   1   5
BRANCH   3  26
HETATM   26  C9  UNL     1       2.806  16.129   9.783  1.00  0.00     0.135 A 
HETATM   27  N4  UNL     1       2.218  15.180  10.501  1.00  0.00    -0.284 N 
HETATM   28  N5  UNL     1       3.051  14.143  10.697  1.00  0.00    -0.298 N 
ATOM     29  H4  UNL     1       1.263  15.230  10.855  1.00  0.00     0.188 HD
HETATM   30  C10 UNL     1       4.223  14.401  10.100  1.00  0.00     0.062 A 
ATOM     31  H5  UNL     1       2.828  13.295  11.218  1.00  0.00     0.187 HD
HETATM   32  C11 UNL     1       5.415  13.675   9.996  1.00  0.00     0.032 A 
HETATM   33  C22 UNL     1       4.098  15.636   9.522  1.00  0.00     0.038 A 
HETATM   34  C12 UNL     1       6.457  14.243   9.291  1.00  0.00     0.010 A 
HETATM   35  C13 UNL     1       6.361  15.480   8.700  1.00  0.00    -0.053 A 
HETATM   36  C21 UNL     1       5.180  16.166   8.820  1.00  0.00     0.025 A 
BRANCH  35  37
HETATM   37  C14 UNL     1       7.502  16.053   7.954  1.00  0.00     0.077 C 
BRANCH  37  38
HETATM   38  C15 UNL     1       8.207  17.099   8.742  1.00  0.00    -0.048 A 
HETATM   39  C16 UNL     1       8.573  16.879  10.047  1.00  0.00     0.049 A 
HETATM   40  C17 UNL     1       9.234  17.854  10.796  1.00  0.00     0.119 A 
HETATM   41  F1  UNL     1       9.600  17.653  12.081  1.00  0.00    -0.206 F 
HETATM   42  C18 UNL     1       9.532  19.070  10.220  1.00  0.00     0.084 A 
HETATM   43  C19 UNL     1       9.165  19.293   8.909  1.00  0.00     0.119 A 
HETATM   44  F2  UNL     1       9.472  20.497   8.372  1.00  0.00    -0.206 F 
HETATM   45  C20 UNL     1       8.501  18.315   8.159  1.00  0.00     0.049 A 
ENDBRANCH  37  38
ENDBRANCH  35  37
ENDBRANCH   3  26
TORSDOF 7
ENDMDL
