MODEL 3
REMARK VINA RESULT: -5.740927113      1.457      2.674
REMARK  18 active torsions:
REMARK  status: ('A' for Active; 'I' for Inactive)
REMARK    1  A    between atoms: O1_1  and  C1_3 
REMARK    2  A    between atoms: C1_3  and  C2_4 
REMARK    3  A    between atoms: C3_6  and  O3_7 
REMARK    4  A    between atoms: O3_7  and  C4_8 
REMARK    5  A    between atoms: C5_9  and  C6_10 
REMARK    6  A    between atoms: C6_10  and  O4_11 
REMARK    7  A    between atoms: C7_14  and  O6_15 
REMARK    8  A    between atoms: O6_15  and  C8_16 
REMARK    9  A    between atoms: C9_17  and  C10_18 
REMARK   10  A    between atoms: C10_18  and  O7_19 
REMARK   11  A    between atoms: C11_22  and  O9_23 
REMARK   12  A    between atoms: C12_25  and  O10_26 
REMARK   13  A    between atoms: C13_28  and  O11_29 
REMARK   14  A    between atoms: C14_31  and  O12_32 
REMARK   15  A    between atoms: C15_34  and  O13_35 
REMARK   16  A    between atoms: C16_37  and  O14_38 
REMARK   17  A    between atoms: C17_40  and  O15_41 
REMARK   18  A    between atoms: C18_43  and  O16_44 
ROOT
HETATM    1  C4  UNL     1      17.611  -2.223  16.628  1.00  0.00     0.187 C 
HETATM    2  C5  UNL     1      18.735  -3.173  16.365  1.00  0.00     0.180 C 
HETATM    3  O5  UNL     1      19.061  -3.125  15.040  1.00  0.00    -0.348 OA
HETATM    4  C7  UNL     1      19.355  -1.915  14.485  1.00  0.00     0.292 C 
HETATM    5  C14 UNL     1      18.725  -0.709  15.069  1.00  0.00     0.204 C 
HETATM    6  C15 UNL     1      18.182  -0.834  16.450  1.00  0.00     0.183 C 
ENDROOT
BRANCH   1   7
HETATM    7  O3  UNL     1      16.895  -2.407  17.744  1.00  0.00    -0.348 OA
BRANCH   7   8
HETATM    8  C3  UNL     1      16.489  -3.678  18.068  1.00  0.00     0.292 C 
HETATM    9  O2  UNL     1      16.728  -3.821  19.428  1.00  0.00    -0.348 OA
HETATM   10  C2  UNL     1      16.179  -4.901  20.037  1.00  0.00     0.179 C 
HETATM   11  C18 UNL     1      15.258  -5.723  19.214  1.00  0.00     0.180 C 
HETATM   12  C17 UNL     1      14.306  -4.893  18.397  1.00  0.00     0.183 C 
HETATM   13  C16 UNL     1      15.021  -3.765  17.710  1.00  0.00     0.204 C 
BRANCH  10  14
HETATM   14  C1  UNL     1      15.384  -4.391  21.246  1.00  0.00     0.198 C 
BRANCH  14  15
HETATM   15  O1  UNL     1      15.104  -3.051  21.155  1.00  0.00    -0.398 OA
ATOM     16  H1  UNL     1      15.882  -2.514  21.250  1.00  0.00     0.209 HD
ENDBRANCH  14  15
ENDBRANCH  10  14
BRANCH  11  17
HETATM   17  O16 UNL     1      14.456  -6.511  20.066  1.00  0.00    -0.390 OA
ATOM     18  H16 UNL     1      14.712  -7.422  19.980  1.00  0.00     0.210 HD
ENDBRANCH  11  17
BRANCH  12  19
HETATM   19  O15 UNL     1      13.290  -4.428  19.220  1.00  0.00    -0.390 OA
ATOM     20  H15 UNL     1      12.896  -5.132  19.722  1.00  0.00     0.210 HD
ENDBRANCH  12  19
BRANCH  13  21
HETATM   21  O14 UNL     1      14.341  -2.590  17.968  1.00  0.00    -0.388 OA
ATOM     22  H14 UNL     1      13.885  -2.257  17.204  1.00  0.00     0.210 HD
ENDBRANCH  13  21
ENDBRANCH   7   8
ENDBRANCH   1   7
BRANCH   2  23
HETATM   23  C6  UNL     1      19.994  -2.840  17.151  1.00  0.00     0.198 C 
BRANCH  23  24
HETATM   24  O4  UNL     1      19.756  -3.186  18.502  1.00  0.00    -0.398 OA
ATOM     25  H4  UNL     1      20.600  -3.332  18.912  1.00  0.00     0.209 HD
ENDBRANCH  23  24
ENDBRANCH   2  23
BRANCH   6  26
HETATM   26  O13 UNL     1      17.121   0.067  16.683  1.00  0.00    -0.390 OA
ATOM     27  H13 UNL     1      17.400   0.907  16.336  1.00  0.00     0.210 HD
ENDBRANCH   6  26
BRANCH   5  28
HETATM   28  O12 UNL     1      17.632  -0.331  14.251  1.00  0.00    -0.388 OA
ATOM     29  H12 UNL     1      17.084   0.272  14.740  1.00  0.00     0.210 HD
ENDBRANCH   5  28
BRANCH   4  30
HETATM   30  O6  UNL     1      20.743  -1.809  14.470  1.00  0.00    -0.348 OA
BRANCH  30  31
HETATM   31  C8  UNL     1      21.347  -2.466  13.420  1.00  0.00     0.187 C 
HETATM   32  C9  UNL     1      22.810  -2.219  13.308  1.00  0.00     0.180 C 
HETATM   33  O8  UNL     1      23.054  -0.879  13.186  1.00  0.00    -0.349 OA
HETATM   34  C11 UNL     1      22.566  -0.279  12.058  1.00  0.00     0.288 C 
HETATM   35  C12 UNL     1      21.241  -0.723  11.589  1.00  0.00     0.204 C 
HETATM   36  C13 UNL     1      20.688  -1.970  12.157  1.00  0.00     0.183 C 
BRANCH  32  37
HETATM   37  C10 UNL     1      23.466  -3.095  12.298  1.00  0.00     0.198 C 
BRANCH  37  38
HETATM   38  O7  UNL     1      23.125  -4.416  12.306  1.00  0.00    -0.398 OA
ATOM     39  H7  UNL     1      22.473  -4.698  11.675  1.00  0.00     0.209 HD
ENDBRANCH  37  38
ENDBRANCH  32  37
BRANCH  34  40
HETATM   40  O9  UNL     1      22.520   1.100  12.316  1.00  0.00    -0.369 OA
ATOM     41  H9  UNL     1      22.789   1.539  11.518  1.00  0.00     0.212 HD
ENDBRANCH  34  40
BRANCH  35  42
HETATM   42  O10 UNL     1      20.300   0.335  11.668  1.00  0.00    -0.388 OA
ATOM     43  H10 UNL     1      19.462   0.068  11.309  1.00  0.00     0.210 HD
ENDBRANCH  35  42
BRANCH  36  44
HETATM   44  O11 UNL     1      20.566  -3.001  11.208  1.00  0.00    -0.390 OA
ATOM     45  H11 UNL     1      21.403  -3.195  10.802  1.00  0.00     0.210 HD
ENDBRANCH  36  44
ENDBRANCH  30  31
ENDBRANCH   4  30
TORSDOF 18
ENDMDL
