MODEL 2
REMARK VINA RESULT: -5.837746834      1.037      2.431
REMARK  18 active torsions:
REMARK  status: ('A' for Active; 'I' for Inactive)
REMARK    1  A    between atoms: O1_1  and  C1_3 
REMARK    2  A    between atoms: C1_3  and  C2_4 
REMARK    3  A    between atoms: C3_6  and  O3_7 
REMARK    4  A    between atoms: O3_7  and  C4_8 
REMARK    5  A    between atoms: C5_9  and  C6_10 
REMARK    6  A    between atoms: C6_10  and  O4_11 
REMARK    7  A    between atoms: C7_14  and  O6_15 
REMARK    8  A    between atoms: O6_15  and  C8_16 
REMARK    9  A    between atoms: C9_17  and  C10_18 
REMARK   10  A    between atoms: C10_18  and  O7_19 
REMARK   11  A    between atoms: C11_22  and  O9_23 
REMARK   12  A    between atoms: C12_25  and  O10_26 
REMARK   13  A    between atoms: C13_28  and  O11_29 
REMARK   14  A    between atoms: C14_31  and  O12_32 
REMARK   15  A    between atoms: C15_34  and  O13_35 
REMARK   16  A    between atoms: C16_37  and  O14_38 
REMARK   17  A    between atoms: C17_40  and  O15_41 
REMARK   18  A    between atoms: C18_43  and  O16_44 
ROOT
HETATM    1  C4  UNL     1      16.892  -1.288  16.350  1.00  0.00     0.187 C 
HETATM    2  C5  UNL     1      17.493  -2.377  15.521  1.00  0.00     0.180 C 
HETATM    3  O5  UNL     1      18.003  -1.837  14.375  1.00  0.00    -0.348 OA
HETATM    4  C7  UNL     1      18.891  -0.806  14.479  1.00  0.00     0.292 C 
HETATM    5  C14 UNL     1      18.790   0.083  15.657  1.00  0.00     0.204 C 
HETATM    6  C15 UNL     1      18.045  -0.440  16.837  1.00  0.00     0.183 C 
ENDROOT
BRANCH   1   7
HETATM    7  O3  UNL     1      16.009  -1.644  17.292  1.00  0.00    -0.348 OA
BRANCH   7   8
HETATM    8  C3  UNL     1      16.169  -2.851  17.926  1.00  0.00     0.292 C 
HETATM    9  O2  UNL     1      16.500  -2.550  19.241  1.00  0.00    -0.348 OA
HETATM   10  C2  UNL     1      16.463  -3.573  20.132  1.00  0.00     0.179 C 
HETATM   11  C18 UNL     1      15.926  -4.862  19.632  1.00  0.00     0.180 C 
HETATM   12  C17 UNL     1      14.687  -4.694  18.795  1.00  0.00     0.183 C 
HETATM   13  C16 UNL     1      14.852  -3.584  17.797  1.00  0.00     0.204 C 
BRANCH  10  14
HETATM   14  C1  UNL     1      15.577  -3.129  21.303  1.00  0.00     0.198 C 
BRANCH  14  15
HETATM   15  O1  UNL     1      15.572  -1.767  21.463  1.00  0.00    -0.398 OA
ATOM     16  H1  UNL     1      15.294  -1.314  20.676  1.00  0.00     0.209 HD
ENDBRANCH  14  15
ENDBRANCH  10  14
BRANCH  11  17
HETATM   17  O16 UNL     1      15.549  -5.663  20.730  1.00  0.00    -0.390 OA
ATOM     18  H16 UNL     1      16.140  -6.405  20.792  1.00  0.00     0.210 HD
ENDBRANCH  11  17
BRANCH  12  19
HETATM   19  O15 UNL     1      13.603  -4.471  19.632  1.00  0.00    -0.390 OA
ATOM     20  H15 UNL     1      13.560  -3.565  19.917  1.00  0.00     0.210 HD
ENDBRANCH  12  19
BRANCH  13  21
HETATM   21  O14 UNL     1      13.763  -2.740  17.892  1.00  0.00    -0.388 OA
ATOM     22  H14 UNL     1      12.940  -3.186  17.729  1.00  0.00     0.210 HD
ENDBRANCH  13  21
ENDBRANCH   7   8
ENDBRANCH   1   7
BRANCH   2  23
HETATM   23  C6  UNL     1      18.632  -3.101  16.223  1.00  0.00     0.198 C 
BRANCH  23  24
HETATM   24  O4  UNL     1      19.124  -4.085  15.334  1.00  0.00    -0.398 OA
ATOM     25  H4  UNL     1      18.953  -4.934  15.723  1.00  0.00     0.209 HD
ENDBRANCH  23  24
ENDBRANCH   2  23
BRANCH   6  26
HETATM   26  O13 UNL     1      17.482   0.598  17.608  1.00  0.00    -0.390 OA
ATOM     27  H13 UNL     1      17.916   1.399  17.340  1.00  0.00     0.210 HD
ENDBRANCH   6  26
BRANCH   5  28
HETATM   28  O12 UNL     1      18.122   1.271  15.269  1.00  0.00    -0.388 OA
ATOM     29  H12 UNL     1      17.187   1.100  15.254  1.00  0.00     0.210 HD
ENDBRANCH   5  28
BRANCH   4  30
HETATM   30  O6  UNL     1      20.162  -1.362  14.367  1.00  0.00    -0.348 OA
BRANCH  30  31
HETATM   31  C8  UNL     1      20.631  -1.439  13.073  1.00  0.00     0.187 C 
HETATM   32  C9  UNL     1      22.104  -1.620  12.969  1.00  0.00     0.180 C 
HETATM   33  O8  UNL     1      22.751  -0.600  13.610  1.00  0.00    -0.349 OA
HETATM   34  C11 UNL     1      22.569   0.651  13.087  1.00  0.00     0.288 C 
HETATM   35  C12 UNL     1      21.219   0.975  12.592  1.00  0.00     0.204 C 
HETATM   36  C13 UNL     1      20.268  -0.140  12.399  1.00  0.00     0.183 C 
BRANCH  32  37
HETATM   37  C10 UNL     1      22.554  -1.902  11.578  1.00  0.00     0.198 C 
BRANCH  37  38
HETATM   38  O7  UNL     1      21.733  -2.670  10.805  1.00  0.00    -0.398 OA
ATOM     39  H7  UNL     1      21.243  -2.226  10.122  1.00  0.00     0.209 HD
ENDBRANCH  37  38
ENDBRANCH  32  37
BRANCH  34  40
HETATM   40  O9  UNL     1      22.918   1.568  14.091  1.00  0.00    -0.369 OA
ATOM     41  H9  UNL     1      22.264   2.257  14.076  1.00  0.00     0.212 HD
ENDBRANCH  34  40
BRANCH  35  42
HETATM   42  O10 UNL     1      20.638   2.015  13.360  1.00  0.00    -0.388 OA
ATOM     43  H10 UNL     1      19.859   1.707  13.808  1.00  0.00     0.210 HD
ENDBRANCH  35  42
BRANCH  36  44
HETATM   44  O11 UNL     1      19.926  -0.346  11.050  1.00  0.00    -0.390 OA
ATOM     45  H11 UNL     1      18.986  -0.436  10.943  1.00  0.00     0.210 HD
ENDBRANCH  36  44
ENDBRANCH  30  31
ENDBRANCH   4  30
TORSDOF 18
ENDMDL
