MODEL 1
REMARK VINA RESULT: -6.004262863      0.000      0.000
REMARK  18 active torsions:
REMARK  status: ('A' for Active; 'I' for Inactive)
REMARK    1  A    between atoms: O1_1  and  C1_3 
REMARK    2  A    between atoms: C1_3  and  C2_4 
REMARK    3  A    between atoms: C3_6  and  O3_7 
REMARK    4  A    between atoms: O3_7  and  C4_8 
REMARK    5  A    between atoms: C5_9  and  C6_10 
REMARK    6  A    between atoms: C6_10  and  O4_11 
REMARK    7  A    between atoms: C7_14  and  O6_15 
REMARK    8  A    between atoms: O6_15  and  C8_16 
REMARK    9  A    between atoms: C9_17  and  C10_18 
REMARK   10  A    between atoms: C10_18  and  O7_19 
REMARK   11  A    between atoms: C11_22  and  O9_23 
REMARK   12  A    between atoms: C12_25  and  O10_26 
REMARK   13  A    between atoms: C13_28  and  O11_29 
REMARK   14  A    between atoms: C14_31  and  O12_32 
REMARK   15  A    between atoms: C15_34  and  O13_35 
REMARK   16  A    between atoms: C16_37  and  O14_38 
REMARK   17  A    between atoms: C17_40  and  O15_41 
REMARK   18  A    between atoms: C18_43  and  O16_44 
ROOT
HETATM    1  C4  UNL     1      16.402  -1.762  16.622  1.00  0.00     0.187 C 
HETATM    2  C5  UNL     1      16.974  -2.742  15.649  1.00  0.00     0.180 C 
HETATM    3  O5  UNL     1      17.526  -2.063  14.602  1.00  0.00    -0.348 OA
HETATM    4  C7  UNL     1      18.453  -1.097  14.868  1.00  0.00     0.292 C 
HETATM    5  C14 UNL     1      18.367  -0.387  16.163  1.00  0.00     0.204 C 
HETATM    6  C15 UNL     1      17.580  -1.046  17.243  1.00  0.00     0.183 C 
ENDROOT
BRANCH   1   7
HETATM    7  O3  UNL     1      15.488  -2.214  17.490  1.00  0.00    -0.348 OA
BRANCH   7   8
HETATM    8  C3  UNL     1      15.834  -3.231  18.345  1.00  0.00     0.292 C 
HETATM    9  O2  UNL     1      16.095  -2.630  19.569  1.00  0.00    -0.348 OA
HETATM   10  C2  UNL     1      16.213  -3.451  20.643  1.00  0.00     0.179 C 
HETATM   11  C18 UNL     1      15.898  -4.882  20.415  1.00  0.00     0.180 C 
HETATM   12  C17 UNL     1      14.658  -5.082  19.587  1.00  0.00     0.183 C 
HETATM   13  C16 UNL     1      14.654  -4.178  18.387  1.00  0.00     0.204 C 
BRANCH  10  14
HETATM   14  C1  UNL     1      15.253  -2.935  21.722  1.00  0.00     0.198 C 
BRANCH  14  15
HETATM   15  O1  UNL     1      15.246  -1.565  21.799  1.00  0.00    -0.398 OA
ATOM     16  H1  UNL     1      16.123  -1.202  21.825  1.00  0.00     0.209 HD
ENDBRANCH  14  15
ENDBRANCH  10  14
BRANCH  11  17
HETATM   17  O16 UNL     1      15.643  -5.502  21.656  1.00  0.00    -0.390 OA
ATOM     18  H16 UNL     1      16.435  -5.931  21.958  1.00  0.00     0.210 HD
ENDBRANCH  11  17
BRANCH  12  19
HETATM   19  O15 UNL     1      13.542  -4.878  20.385  1.00  0.00    -0.390 OA
ATOM     20  H15 UNL     1      13.632  -4.097  20.919  1.00  0.00     0.210 HD
ENDBRANCH  12  19
BRANCH  13  21
HETATM   21  O14 UNL     1      13.442  -3.518  18.338  1.00  0.00    -0.388 OA
ATOM     22  H14 UNL     1      13.050  -3.536  17.472  1.00  0.00     0.210 HD
ENDBRANCH  13  21
ENDBRANCH   7   8
ENDBRANCH   1   7
BRANCH   2  23
HETATM   23  C6  UNL     1      18.069  -3.610  16.251  1.00  0.00     0.198 C 
BRANCH  23  24
HETATM   24  O4  UNL     1      18.553  -4.457  15.226  1.00  0.00    -0.398 OA
ATOM     25  H4  UNL     1      18.669  -5.321  15.600  1.00  0.00     0.209 HD
ENDBRANCH  23  24
ENDBRANCH   2  23
BRANCH   6  26
HETATM   26  O13 UNL     1      17.045  -0.108  18.152  1.00  0.00    -0.390 OA
ATOM     27  H13 UNL     1      17.786   0.333  18.551  1.00  0.00     0.210 HD
ENDBRANCH   6  26
BRANCH   5  28
HETATM   28  O12 UNL     1      17.755   0.873  15.946  1.00  0.00    -0.388 OA
ATOM     29  H12 UNL     1      16.812   0.757  15.965  1.00  0.00     0.210 HD
ENDBRANCH   5  28
BRANCH   4  30
HETATM   30  O6  UNL     1      19.703  -1.685  14.690  1.00  0.00    -0.348 OA
BRANCH  30  31
HETATM   31  C8  UNL     1      20.582  -0.925  13.949  1.00  0.00     0.187 C 
HETATM   32  C9  UNL     1      20.006  -0.385  12.688  1.00  0.00     0.180 C 
HETATM   33  O8  UNL     1      19.542  -1.407  11.906  1.00  0.00    -0.349 OA
HETATM   34  C11 UNL     1      20.481  -2.289  11.448  1.00  0.00     0.288 C 
HETATM   35  C12 UNL     1      21.563  -2.652  12.381  1.00  0.00     0.204 C 
HETATM   36  C13 UNL     1      21.740  -1.823  13.591  1.00  0.00     0.183 C 
BRANCH  32  37
HETATM   37  C10 UNL     1      20.907   0.591  12.015  1.00  0.00     0.198 C 
BRANCH  37  38
HETATM   38  O7  UNL     1      20.714   1.911  12.299  1.00  0.00    -0.398 OA
ATOM     39  H7  UNL     1      20.074   2.377  11.773  1.00  0.00     0.209 HD
ENDBRANCH  37  38
ENDBRANCH  32  37
BRANCH  34  40
HETATM   40  O9  UNL     1      19.797  -3.454  11.069  1.00  0.00    -0.369 OA
ATOM     41  H9  UNL     1      19.348  -3.258  10.255  1.00  0.00     0.212 HD
ENDBRANCH  34  40
BRANCH  35  42
HETATM   42  O10 UNL     1      21.500  -4.030  12.712  1.00  0.00    -0.388 OA
ATOM     43  H10 UNL     1      20.871  -4.180  13.407  1.00  0.00     0.210 HD
ENDBRANCH  35  42
BRANCH  36  44
HETATM   44  O11 UNL     1      22.955  -1.112  13.600  1.00  0.00    -0.390 OA
ATOM     45  H11 UNL     1      23.097  -0.684  14.436  1.00  0.00     0.210 HD
ENDBRANCH  36  44
ENDBRANCH  30  31
ENDBRANCH   4  30
TORSDOF 18
ENDMDL
