MODEL 2
REMARK VINA RESULT: -8.934047195      0.723      9.679
REMARK  11 active torsions:
REMARK  status: ('A' for Active; 'I' for Inactive)
REMARK    1  A    between atoms: N1_2  and  C3_4 
REMARK    2  A    between atoms: N2_7  and  C6_8 
REMARK    3  A    between atoms: C6_8  and  C7_9 
REMARK    4  A    between atoms: C10_12  and  C11_13 
REMARK    5  A    between atoms: C11_13  and  C12_14 
REMARK    6  A    between atoms: C12_14  and  C13_15 
REMARK    7  A    between atoms: C13_15  and  C14_16 
REMARK    8  A    between atoms: C14_16  and  C15_17 
REMARK    9  A    between atoms: C18_20  and  C19_21 
REMARK   10  A    between atoms: C19_21  and  N3_22 
REMARK   11  A    between atoms: C22_25  and  N4_26 
ROOT
HETATM    1  C13 UNL     1      14.170 -21.946   8.152  1.00  0.00     0.005 C 
ENDROOT
BRANCH   1   2
HETATM    2  C12 UNL     1      14.695 -23.224   7.553  1.00  0.00     0.005 C 
BRANCH   2   3
HETATM    3  C11 UNL     1      13.622 -24.249   7.285  1.00  0.00     0.038 C 
BRANCH   3   4
HETATM    4  C10 UNL     1      13.495 -24.475   5.802  1.00  0.00    -0.058 A 
HETATM    5  C9  UNL     1      14.576 -24.356   4.952  1.00  0.00     0.007 A 
HETATM    6  C8  UNL     1      14.439 -24.566   3.584  1.00  0.00     0.009 A 
HETATM    7  C7  UNL     1      13.232 -24.899   3.034  1.00  0.00    -0.040 A 
HETATM    8  C32 UNL     1      12.144 -25.020   3.880  1.00  0.00     0.009 A 
HETATM    9  C31 UNL     1      12.286 -24.808   5.243  1.00  0.00     0.007 A 
BRANCH   7  10
HETATM   10  C6  UNL     1      13.052 -25.130   1.574  1.00  0.00     0.161 C 
BRANCH  10  11
HETATM   11  N2  UNL     1      14.151 -25.828   0.970  1.00  0.00    -0.382 N 
HETATM   12  C5  UNL     1      15.143 -25.075   0.236  1.00  0.00     0.152 A 
HETATM   13  C4  UNL     1      16.206 -25.927  -0.327  1.00  0.00     0.022 A 
HETATM   14  C3  UNL     1      16.274 -27.224  -0.195  1.00  0.00     0.028 A 
HETATM   15  C34 UNL     1      15.254 -27.916   0.550  1.00  0.00     0.046 A 
HETATM   16  C33 UNL     1      14.246 -27.223   1.099  1.00  0.00     0.088 A 
BRANCH  14  17
HETATM   17  N1  UNL     1      17.352 -27.927  -0.787  1.00  0.00    -0.390 N 
HETATM   18  C1  UNL     1      17.028 -28.985  -1.727  1.00  0.00     0.149 C 
HETATM   19  C2  UNL     1      18.705 -27.571  -0.436  1.00  0.00     0.149 C 
ENDBRANCH  14  17
ENDBRANCH  10  11
ENDBRANCH   7  10
ENDBRANCH   3   4
ENDBRANCH   2   3
ENDBRANCH   1   2
BRANCH   1  20
HETATM   20  C14 UNL     1      14.430 -20.821   7.199  1.00  0.00     0.038 C 
BRANCH  20  21
HETATM   21  C15 UNL     1      13.619 -20.973   5.939  1.00  0.00    -0.058 A 
HETATM   22  C16 UNL     1      12.248 -21.101   6.005  1.00  0.00     0.007 A 
HETATM   23  C17 UNL     1      11.469 -21.244   4.871  1.00  0.00     0.009 A 
HETATM   24  C18 UNL     1      12.041 -21.264   3.617  1.00  0.00    -0.040 A 
HETATM   25  C29 UNL     1      13.412 -21.136   3.541  1.00  0.00     0.009 A 
HETATM   26  C30 UNL     1      14.195 -20.993   4.687  1.00  0.00     0.007 A 
BRANCH  24  27
HETATM   27  C19 UNL     1      11.226 -21.415   2.381  1.00  0.00     0.161 C 
BRANCH  27  28
HETATM   28  N3  UNL     1      10.558 -20.144   2.059  1.00  0.00    -0.382 N 
HETATM   29  C20 UNL     1      11.295 -19.057   1.528  1.00  0.00     0.088 A 
HETATM   30  C21 UNL     1      10.754 -17.893   1.221  1.00  0.00     0.046 A 
HETATM   31  C22 UNL     1       9.313 -17.666   1.425  1.00  0.00     0.029 A 
HETATM   32  C27 UNL     1       8.610 -18.673   1.921  1.00  0.00     0.022 A 
HETATM   33  C28 UNL     1       9.143 -19.999   2.285  1.00  0.00     0.152 A 
BRANCH  31  34
HETATM   34  N4  UNL     1       8.706 -16.431   1.107  1.00  0.00    -0.381 N 
HETATM   35  C23 UNL     1       8.945 -15.642  -0.065  1.00  0.00     0.123 C 
HETATM   36  C24 UNL     1       7.638 -14.865  -0.275  1.00  0.00     0.021 C 
HETATM   37  C25 UNL     1       6.726 -15.292   0.851  1.00  0.00     0.021 C 
HETATM   38  C26 UNL     1       7.736 -15.742   1.907  1.00  0.00     0.123 C 
ENDBRANCH  31  34
ENDBRANCH  27  28
ENDBRANCH  24  27
ENDBRANCH  20  21
ENDBRANCH   1  20
TORSDOF 11
ENDMDL
