MODEL 1
REMARK VINA RESULT: -9.058336986      0.000      0.000
REMARK  11 active torsions:
REMARK  status: ('A' for Active; 'I' for Inactive)
REMARK    1  A    between atoms: N1_2  and  C3_4 
REMARK    2  A    between atoms: N2_7  and  C6_8 
REMARK    3  A    between atoms: C6_8  and  C7_9 
REMARK    4  A    between atoms: C10_12  and  C11_13 
REMARK    5  A    between atoms: C11_13  and  C12_14 
REMARK    6  A    between atoms: C12_14  and  C13_15 
REMARK    7  A    between atoms: C13_15  and  C14_16 
REMARK    8  A    between atoms: C14_16  and  C15_17 
REMARK    9  A    between atoms: C18_20  and  C19_21 
REMARK   10  A    between atoms: C19_21  and  N3_22 
REMARK   11  A    between atoms: C22_25  and  N4_26 
ROOT
HETATM    1  C13 UNL     1      14.599 -23.661   7.533  1.00  0.00     0.005 C 
ENDROOT
BRANCH   1   2
HETATM    2  C12 UNL     1      14.190 -22.371   8.196  1.00  0.00     0.005 C 
BRANCH   2   3
HETATM    3  C11 UNL     1      14.569 -21.143   7.408  1.00  0.00     0.038 C 
BRANCH   3   4
HETATM    4  C10 UNL     1      13.742 -21.071   6.151  1.00  0.00    -0.058 A 
HETATM    5  C9  UNL     1      12.362 -21.046   6.188  1.00  0.00     0.007 A 
HETATM    6  C8  UNL     1      11.615 -20.982   5.017  1.00  0.00     0.009 A 
HETATM    7  C7  UNL     1      12.219 -20.939   3.791  1.00  0.00    -0.040 A 
HETATM    8  C32 UNL     1      13.602 -20.963   3.746  1.00  0.00     0.009 A 
HETATM    9  C31 UNL     1      14.342 -21.029   4.917  1.00  0.00     0.007 A 
BRANCH   7  10
HETATM   10  C6  UNL     1      11.448 -20.870   2.519  1.00  0.00     0.161 C 
BRANCH  10  11
HETATM   11  N2  UNL     1      10.896 -19.572   2.259  1.00  0.00    -0.382 N 
HETATM   12  C5  UNL     1       9.474 -19.368   2.421  1.00  0.00     0.152 A 
HETATM   13  C4  UNL     1       9.055 -17.988   2.117  1.00  0.00     0.022 A 
HETATM   14  C3  UNL     1       9.857 -17.029   1.741  1.00  0.00     0.028 A 
HETATM   15  C34 UNL     1      11.265 -17.295   1.599  1.00  0.00     0.046 A 
HETATM   16  C33 UNL     1      11.738 -18.523   1.854  1.00  0.00     0.088 A 
BRANCH  14  17
HETATM   17  N1  UNL     1       9.326 -15.742   1.480  1.00  0.00    -0.390 N 
HETATM   18  C1  UNL     1      10.040 -14.899   0.537  1.00  0.00     0.149 C 
HETATM   19  C2  UNL     1       8.118 -15.327   2.150  1.00  0.00     0.149 C 
ENDBRANCH  14  17
ENDBRANCH  10  11
ENDBRANCH   7  10
ENDBRANCH   3   4
ENDBRANCH   2   3
ENDBRANCH   1   2
BRANCH   1  20
HETATM   20  C14 UNL     1      13.368 -24.411   7.130  1.00  0.00     0.038 C 
BRANCH  20  21
HETATM   21  C15 UNL     1      13.265 -24.527   5.632  1.00  0.00    -0.058 A 
HETATM   22  C16 UNL     1      14.393 -24.416   4.847  1.00  0.00     0.007 A 
HETATM   23  C17 UNL     1      14.339 -24.516   3.468  1.00  0.00     0.009 A 
HETATM   24  C18 UNL     1      13.142 -24.733   2.820  1.00  0.00    -0.040 A 
HETATM   25  C29 UNL     1      12.009 -24.846   3.597  1.00  0.00     0.009 A 
HETATM   26  C30 UNL     1      12.066 -24.744   4.988  1.00  0.00     0.007 A 
BRANCH  24  27
HETATM   27  C19 UNL     1      13.057 -24.845   1.338  1.00  0.00     0.161 C 
BRANCH  27  28
HETATM   28  N3  UNL     1      14.147 -25.695   0.833  1.00  0.00    -0.382 N 
HETATM   29  C20 UNL     1      15.247 -25.123   0.148  1.00  0.00     0.088 A 
HETATM   30  C21 UNL     1      16.253 -25.831  -0.330  1.00  0.00     0.046 A 
HETATM   31  C22 UNL     1      16.276 -27.295  -0.167  1.00  0.00     0.029 A 
HETATM   32  C27 UNL     1      15.254 -27.844   0.471  1.00  0.00     0.022 A 
HETATM   33  C28 UNL     1      14.099 -27.120   1.032  1.00  0.00     0.152 A 
BRANCH  31  34
HETATM   34  N4  UNL     1      17.339 -28.079  -0.669  1.00  0.00    -0.381 N 
HETATM   35  C23 UNL     1      17.259 -29.045  -1.724  1.00  0.00     0.123 C 
HETATM   36  C24 UNL     1      18.670 -29.067  -2.329  1.00  0.00     0.021 C 
HETATM   37  C25 UNL     1      19.472 -28.071  -1.524  1.00  0.00     0.021 C 
HETATM   38  C26 UNL     1      18.695 -28.046  -0.208  1.00  0.00     0.123 C 
ENDBRANCH  31  34
ENDBRANCH  27  28
ENDBRANCH  24  27
ENDBRANCH  20  21
ENDBRANCH   1  20
TORSDOF 11
ENDMDL
