MODEL 3
REMARK VINA RESULT: -8.933566712      2.437      3.607
REMARK  11 active torsions:
REMARK  status: ('A' for Active; 'I' for Inactive)
REMARK    1  A    between atoms: N1_2  and  C3_4 
REMARK    2  A    between atoms: N2_7  and  C6_8 
REMARK    3  A    between atoms: C6_8  and  C7_9 
REMARK    4  A    between atoms: C10_12  and  C11_13 
REMARK    5  A    between atoms: C11_13  and  C12_14 
REMARK    6  A    between atoms: C12_14  and  C13_15 
REMARK    7  A    between atoms: C13_15  and  C14_16 
REMARK    8  A    between atoms: C14_16  and  C15_17 
REMARK    9  A    between atoms: C18_20  and  C19_21 
REMARK   10  A    between atoms: C19_21  and  N3_22 
REMARK   11  A    between atoms: C22_25  and  N4_26 
ROOT
HETATM    1  C13 UNL     1      13.870 -22.504   7.828  1.00  0.00     0.005 C 
ENDROOT
BRANCH   1   2
HETATM    2  C12 UNL     1      14.667 -21.370   7.241  1.00  0.00     0.005 C 
BRANCH   2   3
HETATM    3  C11 UNL     1      13.815 -20.235   6.732  1.00  0.00     0.038 C 
BRANCH   3   4
HETATM    4  C10 UNL     1      13.016 -20.696   5.541  1.00  0.00    -0.058 A 
HETATM    5  C9  UNL     1      11.659 -20.937   5.622  1.00  0.00     0.007 A 
HETATM    6  C8  UNL     1      10.939 -21.364   4.512  1.00  0.00     0.009 A 
HETATM    7  C7  UNL     1      11.548 -21.559   3.303  1.00  0.00    -0.040 A 
HETATM    8  C32 UNL     1      12.908 -21.319   3.213  1.00  0.00     0.009 A 
HETATM    9  C31 UNL     1      13.621 -20.894   4.324  1.00  0.00     0.007 A 
BRANCH   7  10
HETATM   10  C6  UNL     1      10.805 -22.015   2.096  1.00  0.00     0.161 C 
BRANCH  10  11
HETATM   11  N2  UNL     1       9.427 -22.317   2.357  1.00  0.00    -0.382 N 
HETATM   12  C5  UNL     1       8.405 -21.431   1.844  1.00  0.00     0.152 A 
HETATM   13  C4  UNL     1       7.042 -21.868   2.193  1.00  0.00     0.022 A 
HETATM   14  C3  UNL     1       6.753 -22.934   2.889  1.00  0.00     0.028 A 
HETATM   15  C34 UNL     1       7.817 -23.777   3.371  1.00  0.00     0.046 A 
HETATM   16  C33 UNL     1       9.091 -23.458   3.102  1.00  0.00     0.088 A 
BRANCH  14  17
HETATM   17  N1  UNL     1       5.397 -23.244   3.156  1.00  0.00    -0.390 N 
HETATM   18  C1  UNL     1       4.870 -24.481   2.607  1.00  0.00     0.149 C 
HETATM   19  C2  UNL     1       4.607 -22.333   3.947  1.00  0.00     0.149 C 
ENDBRANCH  14  17
ENDBRANCH  10  11
ENDBRANCH   7  10
ENDBRANCH   3   4
ENDBRANCH   2   3
ENDBRANCH   1   2
BRANCH   1  20
HETATM   20  C14 UNL     1      14.481 -23.802   7.399  1.00  0.00     0.038 C 
BRANCH  20  21
HETATM   21  C15 UNL     1      14.000 -24.205   6.029  1.00  0.00    -0.058 A 
HETATM   22  C16 UNL     1      14.870 -24.207   4.960  1.00  0.00     0.007 A 
HETATM   23  C17 UNL     1      14.467 -24.571   3.687  1.00  0.00     0.009 A 
HETATM   24  C18 UNL     1      13.165 -24.948   3.439  1.00  0.00    -0.040 A 
HETATM   25  C29 UNL     1      12.287 -24.950   4.503  1.00  0.00     0.009 A 
HETATM   26  C30 UNL     1      12.697 -24.582   5.785  1.00  0.00     0.007 A 
BRANCH  24  27
HETATM   27  C19 UNL     1      12.705 -25.345   2.080  1.00  0.00     0.161 C 
BRANCH  27  28
HETATM   28  N3  UNL     1      13.841 -25.844   1.288  1.00  0.00    -0.382 N 
HETATM   29  C20 UNL     1      14.234 -27.201   1.368  1.00  0.00     0.088 A 
HETATM   30  C21 UNL     1      15.244 -27.708   0.686  1.00  0.00     0.046 A 
HETATM   31  C22 UNL     1      16.033 -26.853  -0.218  1.00  0.00     0.029 A 
HETATM   32  C27 UNL     1      15.678 -25.580  -0.303  1.00  0.00     0.022 A 
HETATM   33  C28 UNL     1      14.564 -24.946   0.425  1.00  0.00     0.152 A 
BRANCH  31  34
HETATM   34  N4  UNL     1      17.120 -27.366  -0.960  1.00  0.00    -0.381 N 
HETATM   35  C23 UNL     1      18.455 -27.573  -0.481  1.00  0.00     0.123 C 
HETATM   36  C24 UNL     1      18.997 -28.719  -1.347  1.00  0.00     0.021 C 
HETATM   37  C25 UNL     1      17.876 -29.078  -2.294  1.00  0.00     0.021 C 
HETATM   38  C26 UNL     1      17.080 -27.774  -2.333  1.00  0.00     0.123 C 
ENDBRANCH  31  34
ENDBRANCH  27  28
ENDBRANCH  24  27
ENDBRANCH  20  21
ENDBRANCH   1  20
TORSDOF 11
ENDMDL
