MODEL 5
REMARK VINA RESULT: -7.048164313      2.333      5.616
REMARK  4 active torsions:
REMARK  status: ('A' for Active; 'I' for Inactive)
REMARK    1  A    between atoms: N2_5  and  N3_6 
REMARK    2  A    between atoms: N3_6  and  C4_7 
REMARK    3  A    between atoms: C4_7  and  C5_8 
REMARK    4  A    between atoms: C5_8  and  N4_9 
ROOT
HETATM    1  N4  UNL     1      14.497 -20.357 -16.579  1.00  0.00    -0.343 N 
HETATM    2  C6  UNL     1      14.520 -19.170 -15.789  1.00  0.00     0.052 A 
HETATM    3  C7  UNL     1      14.941 -17.954 -16.345  1.00  0.00     0.031 A 
HETATM    4  C8  UNL     1      14.973 -16.791 -15.606  1.00  0.00     0.002 A 
HETATM    5  C9  UNL     1      14.596 -16.767 -14.297  1.00  0.00     0.002 A 
HETATM    6  C10 UNL     1      14.182 -17.958 -13.749  1.00  0.00     0.021 A 
HETATM    7  C11 UNL     1      14.148 -19.105 -14.467  1.00  0.00     0.032 A 
HETATM    8  S1  UNL     1      13.584 -20.577 -13.653  1.00  0.00    -0.086 SA
HETATM    9  C12 UNL     1      13.656 -21.892 -14.845  1.00  0.00     0.032 A 
HETATM   10  C13 UNL     1      13.276 -23.143 -14.433  1.00  0.00     0.023 A 
HETATM   11  C14 UNL     1      13.299 -24.236 -15.267  1.00  0.00     0.025 A 
HETATM   12  C15 UNL     1      13.728 -24.010 -16.555  1.00  0.00     0.036 A 
HETATM   13 CL1  UNL     1      13.771 -25.379 -17.643  1.00  0.00    -0.084 Cl
HETATM   14  C16 UNL     1      14.108 -22.747 -16.958  1.00  0.00     0.054 A 
HETATM   15  C17 UNL     1      14.088 -21.638 -16.129  1.00  0.00     0.053 A 
ENDROOT
BRANCH   1  16
HETATM   16  C5  UNL     1      14.960 -20.192 -17.952  1.00  0.00     0.147 C 
BRANCH  16  17
HETATM   17  C4  UNL     1      13.951 -19.502 -18.834  1.00  0.00     0.149 C 
BRANCH  17  18
HETATM   18  N3  UNL     1      12.651 -20.053 -18.508  1.00  0.00    -0.163 NA
BRANCH  18  19
HETATM   19  N2  UNL     1      11.894 -20.391 -19.609  1.00  0.00    -0.231 NA
HETATM   20  C3  UNL     1      11.195 -21.643 -19.492  1.00  0.00     0.139 C 
HETATM   21  C2  UNL     1      10.356 -21.824 -20.717  1.00  0.00     0.287 C 
HETATM   22  N1  UNL     1      11.066 -21.778 -21.947  1.00  0.00     0.086 N 
HETATM   23  C1  UNL     1      11.559 -23.105 -22.303  1.00  0.00     0.310 C 
HETATM   24  C19 UNL     1      12.089 -20.780 -22.026  1.00  0.00     0.287 C 
HETATM   25  C18 UNL     1      12.826 -20.555 -20.735  1.00  0.00     0.139 C 
ENDBRANCH  18  19
ENDBRANCH  17  18
ENDBRANCH  16  17
ENDBRANCH   1  16
TORSDOF 4
ENDMDL
