MODEL 13
REMARK VINA RESULT: -6.816473201      1.712      1.771
REMARK  4 active torsions:
REMARK  status: ('A' for Active; 'I' for Inactive)
REMARK    1  A    between atoms: N2_5  and  N3_6 
REMARK    2  A    between atoms: N3_6  and  C4_7 
REMARK    3  A    between atoms: C4_7  and  C5_8 
REMARK    4  A    between atoms: C5_8  and  N4_9 
ROOT
HETATM    1  N4  UNL     1      13.589 -22.372 -19.373  1.00  0.00    -0.343 N 
HETATM    2  C6  UNL     1      13.168 -22.811 -20.662  1.00  0.00     0.052 A 
HETATM    3  C7  UNL     1      13.569 -22.120 -21.814  1.00  0.00     0.031 A 
HETATM    4  C8  UNL     1      13.179 -22.521 -23.074  1.00  0.00     0.002 A 
HETATM    5  C9  UNL     1      12.383 -23.611 -23.261  1.00  0.00     0.002 A 
HETATM    6  C10 UNL     1      11.989 -24.291 -22.132  1.00  0.00     0.021 A 
HETATM    7  C11 UNL     1      12.366 -23.904 -20.892  1.00  0.00     0.032 A 
HETATM    8  S1  UNL     1      11.803 -24.869 -19.514  1.00  0.00    -0.086 SA
HETATM    9  C12 UNL     1      12.459 -24.114 -18.045  1.00  0.00     0.032 A 
HETATM   10  C13 UNL     1      12.140 -24.685 -16.841  1.00  0.00     0.023 A 
HETATM   11  C14 UNL     1      12.584 -24.182 -15.641  1.00  0.00     0.025 A 
HETATM   12  C15 UNL     1      13.377 -23.058 -15.709  1.00  0.00     0.036 A 
HETATM   13 CL1  UNL     1      13.960 -22.390 -14.201  1.00  0.00    -0.084 Cl
HETATM   14  C16 UNL     1      13.692 -22.492 -16.927  1.00  0.00     0.054 A 
HETATM   15  C17 UNL     1      13.252 -22.990 -18.142  1.00  0.00     0.053 A 
ENDROOT
BRANCH   1  16
HETATM   16  C5  UNL     1      14.417 -21.171 -19.371  1.00  0.00     0.147 C 
BRANCH  16  17
HETATM   17  C4  UNL     1      13.638 -19.920 -19.052  1.00  0.00     0.149 C 
BRANCH  17  18
HETATM   18  N3  UNL     1      14.582 -18.821 -19.034  1.00  0.00    -0.163 NA
BRANCH  18  19
HETATM   19  N2  UNL     1      14.677 -18.186 -17.815  1.00  0.00    -0.231 NA
HETATM   20  C3  UNL     1      15.531 -18.846 -16.863  1.00  0.00     0.139 C 
HETATM   21  C2  UNL     1      15.602 -17.996 -15.634  1.00  0.00     0.287 C 
HETATM   22  N1  UNL     1      14.349 -17.694 -15.035  1.00  0.00     0.086 N 
HETATM   23  C1  UNL     1      13.975 -18.733 -14.081  1.00  0.00     0.310 C 
HETATM   24  C19 UNL     1      13.291 -17.393 -15.951  1.00  0.00     0.287 C 
HETATM   25  C18 UNL     1      13.332 -18.194 -17.221  1.00  0.00     0.139 C 
ENDBRANCH  18  19
ENDBRANCH  17  18
ENDBRANCH  16  17
ENDBRANCH   1  16
TORSDOF 4
ENDMDL
