MODEL 1
REMARK VINA RESULT: -7.450720578      0.000      0.000
REMARK  4 active torsions:
REMARK  status: ('A' for Active; 'I' for Inactive)
REMARK    1  A    between atoms: N2_5  and  N3_6 
REMARK    2  A    between atoms: N3_6  and  C4_7 
REMARK    3  A    between atoms: C4_7  and  C5_8 
REMARK    4  A    between atoms: C5_8  and  N4_9 
ROOT
HETATM    1  N4  UNL     1      13.855 -22.546 -18.679  1.00  0.00    -0.343 N 
HETATM    2  C6  UNL     1      12.870 -22.062 -19.590  1.00  0.00     0.052 A 
HETATM    3  C7  UNL     1      13.209 -21.112 -20.564  1.00  0.00     0.031 A 
HETATM    4  C8  UNL     1      12.279 -20.627 -21.459  1.00  0.00     0.002 A 
HETATM    5  C9  UNL     1      10.984 -21.050 -21.442  1.00  0.00     0.002 A 
HETATM    6  C10 UNL     1      10.650 -21.983 -20.488  1.00  0.00     0.021 A 
HETATM    7  C11 UNL     1      11.556 -22.463 -19.604  1.00  0.00     0.032 A 
HETATM    8  S1  UNL     1      11.007 -23.673 -18.429  1.00  0.00    -0.086 SA
HETATM    9  C12 UNL     1      12.410 -24.098 -17.425  1.00  0.00     0.032 A 
HETATM   10  C13 UNL     1      12.220 -25.016 -16.425  1.00  0.00     0.023 A 
HETATM   11  C14 UNL     1      13.231 -25.413 -15.582  1.00  0.00     0.025 A 
HETATM   12  C15 UNL     1      14.462 -24.836 -15.795  1.00  0.00     0.036 A 
HETATM   13 CL1  UNL     1      15.772 -25.318 -14.740  1.00  0.00    -0.084 Cl
HETATM   14  C16 UNL     1      14.641 -23.913 -16.804  1.00  0.00     0.054 A 
HETATM   15  C17 UNL     1      13.632 -23.506 -17.659  1.00  0.00     0.053 A 
ENDROOT
BRANCH   1  16
HETATM   16  C5  UNL     1      15.180 -21.958 -18.836  1.00  0.00     0.147 C 
BRANCH  16  17
HETATM   17  C4  UNL     1      15.519 -20.973 -17.746  1.00  0.00     0.149 C 
BRANCH  17  18
HETATM   18  N3  UNL     1      15.686 -19.678 -18.375  1.00  0.00    -0.163 NA
BRANCH  18  19
HETATM   19  N2  UNL     1      15.311 -18.617 -17.581  1.00  0.00    -0.231 NA
HETATM   20  C3  UNL     1      15.950 -18.582 -16.292  1.00  0.00     0.139 C 
HETATM   21  C2  UNL     1      15.512 -17.335 -15.589  1.00  0.00     0.287 C 
HETATM   22  N1  UNL     1      14.107 -17.189 -15.439  1.00  0.00     0.086 N 
HETATM   23  C1  UNL     1      13.655 -17.830 -14.208  1.00  0.00     0.310 C 
HETATM   24  C19 UNL     1      13.326 -17.581 -16.573  1.00  0.00     0.287 C 
HETATM   25  C18 UNL     1      13.874 -18.770 -17.312  1.00  0.00     0.139 C 
ENDBRANCH  18  19
ENDBRANCH  17  18
ENDBRANCH  16  17
ENDBRANCH   1  16
TORSDOF 4
ENDMDL
