MODEL 6
REMARK VINA RESULT: -7.028694889      2.824      6.170
REMARK  4 active torsions:
REMARK  status: ('A' for Active; 'I' for Inactive)
REMARK    1  A    between atoms: N2_5  and  N3_6 
REMARK    2  A    between atoms: N3_6  and  C4_7 
REMARK    3  A    between atoms: C4_7  and  C5_8 
REMARK    4  A    between atoms: C5_8  and  N4_9 
ROOT
HETATM    1  N4  UNL     1      15.222 -19.537 -18.225  1.00  0.00    -0.343 N 
HETATM    2  C6  UNL     1      14.816 -18.716 -17.131  1.00  0.00     0.052 A 
HETATM    3  C7  UNL     1      13.547 -18.120 -17.122  1.00  0.00     0.031 A 
HETATM    4  C8  UNL     1      13.126 -17.324 -16.079  1.00  0.00     0.002 A 
HETATM    5  C9  UNL     1      13.925 -17.078 -15.003  1.00  0.00     0.002 A 
HETATM    6  C10 UNL     1      15.171 -17.661 -15.009  1.00  0.00     0.021 A 
HETATM    7  C11 UNL     1      15.592 -18.444 -16.030  1.00  0.00     0.032 A 
HETATM    8  S1  UNL     1      17.215 -19.151 -15.918  1.00  0.00    -0.086 SA
HETATM    9  C12 UNL     1      17.467 -20.112 -17.391  1.00  0.00     0.032 A 
HETATM   10  C13 UNL     1      18.673 -20.748 -17.535  1.00  0.00     0.023 A 
HETATM   11  C14 UNL     1      18.982 -21.511 -18.636  1.00  0.00     0.025 A 
HETATM   12  C15 UNL     1      18.006 -21.607 -19.602  1.00  0.00     0.036 A 
HETATM   13 CL1  UNL     1      18.364 -22.570 -21.018  1.00  0.00    -0.084 Cl
HETATM   14  C16 UNL     1      16.796 -20.962 -19.447  1.00  0.00     0.054 A 
HETATM   15  C17 UNL     1      16.473 -20.192 -18.342  1.00  0.00     0.053 A 
ENDROOT
BRANCH   1  16
HETATM   16  C5  UNL     1      14.240 -19.663 -19.297  1.00  0.00     0.147 C 
BRANCH  16  17
HETATM   17  C4  UNL     1      13.645 -21.046 -19.388  1.00  0.00     0.149 C 
BRANCH  17  18
HETATM   18  N3  UNL     1      12.394 -21.022 -18.656  1.00  0.00    -0.163 NA
BRANCH  18  19
HETATM   19  N2  UNL     1      12.247 -22.064 -17.766  1.00  0.00    -0.231 NA
HETATM   20  C3  UNL     1      13.472 -22.500 -17.150  1.00  0.00     0.139 C 
HETATM   21  C2  UNL     1      13.138 -23.565 -16.153  1.00  0.00     0.287 C 
HETATM   22  N1  UNL     1      12.434 -24.682 -16.677  1.00  0.00     0.086 N 
HETATM   23  C1  UNL     1      13.368 -25.687 -17.175  1.00  0.00     0.310 C 
HETATM   24  C19 UNL     1      11.414 -24.370 -17.632  1.00  0.00     0.287 C 
HETATM   25  C18 UNL     1      11.752 -23.216 -18.534  1.00  0.00     0.139 C 
ENDBRANCH  18  19
ENDBRANCH  17  18
ENDBRANCH  16  17
ENDBRANCH   1  16
TORSDOF 4
ENDMDL
