MODEL 4
REMARK VINA RESULT: -7.065968485      2.367      5.840
REMARK  4 active torsions:
REMARK  status: ('A' for Active; 'I' for Inactive)
REMARK    1  A    between atoms: N2_5  and  N3_6 
REMARK    2  A    between atoms: N3_6  and  C4_7 
REMARK    3  A    between atoms: C4_7  and  C5_8 
REMARK    4  A    between atoms: C5_8  and  N4_9 
ROOT
HETATM    1  N4  UNL     1      14.342 -20.250 -16.642  1.00  0.00    -0.343 N 
HETATM    2  C6  UNL     1      14.384 -19.116 -15.779  1.00  0.00     0.052 A 
HETATM    3  C7  UNL     1      14.749 -17.857 -16.276  1.00  0.00     0.031 A 
HETATM    4  C8  UNL     1      14.796 -16.742 -15.467  1.00  0.00     0.002 A 
HETATM    5  C9  UNL     1      14.490 -16.810 -14.141  1.00  0.00     0.002 A 
HETATM    6  C10 UNL     1      14.131 -18.044 -13.650  1.00  0.00     0.021 A 
HETATM    7  C11 UNL     1      14.082 -19.144 -14.438  1.00  0.00     0.032 A 
HETATM    8  S1  UNL     1      13.592 -20.677 -13.692  1.00  0.00    -0.086 SA
HETATM    9  C12 UNL     1      13.627 -21.912 -14.969  1.00  0.00     0.032 A 
HETATM   10  C13 UNL     1      13.297 -23.196 -14.620  1.00  0.00     0.023 A 
HETATM   11  C14 UNL     1      13.298 -24.233 -15.522  1.00  0.00     0.025 A 
HETATM   12  C15 UNL     1      13.652 -23.914 -16.814  1.00  0.00     0.036 A 
HETATM   13 CL1  UNL     1      13.664 -25.210 -17.989  1.00  0.00    -0.084 Cl
HETATM   14  C16 UNL     1      13.983 -22.619 -17.154  1.00  0.00     0.054 A 
HETATM   15  C17 UNL     1      13.985 -21.567 -16.255  1.00  0.00     0.053 A 
ENDROOT
BRANCH   1  16
HETATM   16  C5  UNL     1      14.728 -19.987 -18.023  1.00  0.00     0.147 C 
BRANCH  16  17
HETATM   17  C4  UNL     1      13.556 -19.631 -18.903  1.00  0.00     0.149 C 
BRANCH  17  18
HETATM   18  N3  UNL     1      13.735 -20.332 -20.158  1.00  0.00    -0.163 NA
BRANCH  18  19
HETATM   19  N2  UNL     1      12.782 -21.298 -20.400  1.00  0.00    -0.231 NA
HETATM   20  C3  UNL     1      13.309 -22.553 -20.868  1.00  0.00     0.139 C 
HETATM   21  C2  UNL     1      12.172 -23.516 -20.996  1.00  0.00     0.287 C 
HETATM   22  N1  UNL     1      11.112 -23.090 -21.842  1.00  0.00     0.086 N 
HETATM   23  C1  UNL     1      11.371 -23.483 -23.223  1.00  0.00     0.310 C 
HETATM   24  C19 UNL     1      10.758 -21.707 -21.728  1.00  0.00     0.287 C 
HETATM   25  C18 UNL     1      11.926 -20.794 -21.484  1.00  0.00     0.139 C 
ENDBRANCH  18  19
ENDBRANCH  17  18
ENDBRANCH  16  17
ENDBRANCH   1  16
TORSDOF 4
ENDMDL
