MODEL 2
REMARK VINA RESULT: -7.211955073      1.352      1.623
REMARK  4 active torsions:
REMARK  status: ('A' for Active; 'I' for Inactive)
REMARK    1  A    between atoms: N2_5  and  N3_6 
REMARK    2  A    between atoms: N3_6  and  C4_7 
REMARK    3  A    between atoms: C4_7  and  C5_8 
REMARK    4  A    between atoms: C5_8  and  N4_9 
ROOT
HETATM    1  N4  UNL     1      13.057 -21.703 -18.430  1.00  0.00    -0.343 N 
HETATM    2  C6  UNL     1      12.574 -21.830 -19.766  1.00  0.00     0.052 A 
HETATM    3  C7  UNL     1      12.663 -20.754 -20.660  1.00  0.00     0.031 A 
HETATM    4  C8  UNL     1      12.207 -20.849 -21.957  1.00  0.00     0.002 A 
HETATM    5  C9  UNL     1      11.646 -21.995 -22.434  1.00  0.00     0.002 A 
HETATM    6  C10 UNL     1      11.558 -23.053 -21.559  1.00  0.00     0.021 A 
HETATM    7  C11 UNL     1      12.003 -22.968 -20.283  1.00  0.00     0.032 A 
HETATM    8  S1  UNL     1      11.845 -24.404 -19.254  1.00  0.00    -0.086 SA
HETATM    9  C12 UNL     1      12.511 -23.979 -17.662  1.00  0.00     0.032 A 
HETATM   10  C13 UNL     1      12.482 -24.940 -16.685  1.00  0.00     0.023 A 
HETATM   11  C14 UNL     1      12.961 -24.720 -15.415  1.00  0.00     0.025 A 
HETATM   12  C15 UNL     1      13.479 -23.468 -15.169  1.00  0.00     0.036 A 
HETATM   13 CL1  UNL     1      14.098 -23.153 -13.563  1.00  0.00    -0.084 Cl
HETATM   14  C16 UNL     1      13.503 -22.509 -16.160  1.00  0.00     0.054 A 
HETATM   15  C17 UNL     1      13.024 -22.719 -17.442  1.00  0.00     0.053 A 
ENDROOT
BRANCH   1  16
HETATM   16  C5  UNL     1      13.601 -20.391 -18.095  1.00  0.00     0.147 C 
BRANCH  16  17
HETATM   17  C4  UNL     1      15.100 -20.321 -18.242  1.00  0.00     0.149 C 
BRANCH  17  18
HETATM   18  N3  UNL     1      15.585 -19.395 -17.239  1.00  0.00    -0.163 NA
BRANCH  18  19
HETATM   19  N2  UNL     1      14.601 -18.898 -16.414  1.00  0.00    -0.231 NA
HETATM   20  C3  UNL     1      14.447 -17.468 -16.463  1.00  0.00     0.139 C 
HETATM   21  C2  UNL     1      13.291 -17.094 -15.589  1.00  0.00     0.287 C 
HETATM   22  N1  UNL     1      13.391 -17.525 -14.239  1.00  0.00     0.086 N 
HETATM   23  C1  UNL     1      14.094 -16.530 -13.435  1.00  0.00     0.310 C 
HETATM   24  C19 UNL     1      13.921 -18.842 -14.055  1.00  0.00     0.287 C 
HETATM   25  C18 UNL     1      15.000 -19.211 -15.034  1.00  0.00     0.139 C 
ENDBRANCH  18  19
ENDBRANCH  17  18
ENDBRANCH  16  17
ENDBRANCH   1  16
TORSDOF 4
ENDMDL
