MODEL 3
REMARK VINA RESULT: -7.211766787      1.019      1.111
REMARK  4 active torsions:
REMARK  status: ('A' for Active; 'I' for Inactive)
REMARK    1  A    between atoms: N2_5  and  N3_6 
REMARK    2  A    between atoms: N3_6  and  C4_7 
REMARK    3  A    between atoms: C4_7  and  C5_8 
REMARK    4  A    between atoms: C5_8  and  N4_9 
ROOT
HETATM    1  N4  UNL     1      13.615 -21.689 -18.869  1.00  0.00    -0.343 N 
HETATM    2  C6  UNL     1      12.584 -21.628 -19.852  1.00  0.00     0.052 A 
HETATM    3  C7  UNL     1      12.705 -20.775 -20.958  1.00  0.00     0.031 A 
HETATM    4  C8  UNL     1      11.725 -20.696 -21.924  1.00  0.00     0.002 A 
HETATM    5  C9  UNL     1      10.590 -21.446 -21.852  1.00  0.00     0.002 A 
HETATM    6  C10 UNL     1      10.469 -22.284 -20.768  1.00  0.00     0.021 A 
HETATM    7  C11 UNL     1      11.426 -22.367 -19.814  1.00  0.00     0.032 A 
HETATM    8  S1  UNL     1      11.161 -23.495 -18.471  1.00  0.00    -0.086 SA
HETATM    9  C12 UNL     1      12.576 -23.373 -17.402  1.00  0.00     0.032 A 
HETATM   10  C13 UNL     1      12.588 -24.151 -16.274  1.00  0.00     0.023 A 
HETATM   11  C14 UNL     1      13.625 -24.133 -15.372  1.00  0.00     0.025 A 
HETATM   12  C15 UNL     1      14.668 -23.281 -15.662  1.00  0.00     0.036 A 
HETATM   13 CL1  UNL     1      16.005 -23.232 -14.535  1.00  0.00    -0.084 Cl
HETATM   14  C16 UNL     1      14.644 -22.503 -16.800  1.00  0.00     0.054 A 
HETATM   15  C17 UNL     1      13.606 -22.513 -17.716  1.00  0.00     0.053 A 
ENDROOT
BRANCH   1  16
HETATM   16  C5  UNL     1      14.743 -20.793 -19.104  1.00  0.00     0.147 C 
BRANCH  16  17
HETATM   17  C4  UNL     1      14.452 -19.366 -18.714  1.00  0.00     0.149 C 
BRANCH  17  18
HETATM   18  N3  UNL     1      15.430 -18.989 -17.714  1.00  0.00    -0.163 NA
BRANCH  18  19
HETATM   19  N2  UNL     1      14.995 -18.009 -16.848  1.00  0.00    -0.231 NA
HETATM   20  C3  UNL     1      15.819 -17.835 -15.681  1.00  0.00     0.139 C 
HETATM   21  C2  UNL     1      15.273 -16.686 -14.893  1.00  0.00     0.287 C 
HETATM   22  N1  UNL     1      13.909 -16.810 -14.511  1.00  0.00     0.086 N 
HETATM   23  C1  UNL     1      13.798 -17.510 -13.235  1.00  0.00     0.310 C 
HETATM   24  C19 UNL     1      13.042 -17.360 -15.509  1.00  0.00     0.287 C 
HETATM   25  C18 UNL     1      13.678 -18.431 -16.350  1.00  0.00     0.139 C 
ENDBRANCH  18  19
ENDBRANCH  17  18
ENDBRANCH  16  17
ENDBRANCH   1  16
TORSDOF 4
ENDMDL
