MODEL 1
REMARK VINA RESULT: -8.830870957      0.000      0.000
REMARK  7 active torsions:
REMARK  status: ('A' for Active; 'I' for Inactive)
REMARK    1  A    between atoms: C2_2  and  C3_3 
REMARK    2  A    between atoms: C4_4  and  C5_5 
REMARK       I    between atoms: C5_5  and  N1_7 
REMARK    3  A    between atoms: N1_7  and  O2_9 
REMARK    4  A    between atoms: C6_11  and  C7_12 
REMARK    5  A    between atoms: C7_12  and  C9_14 
REMARK    6  A    between atoms: C9_14  and  C10_16 
REMARK    7  A    between atoms: C13_19  and  N2_20 
ROOT
HETATM    1  C7  UNL     1     -27.988 -11.744 -28.648  1.00  0.00     0.079 C 
HETATM    2  C8  UNL     1     -29.140 -10.808 -28.228  1.00  0.00     0.022 C 
ENDROOT
BRANCH   1   3
HETATM    3  C6  UNL     1     -26.973 -11.620 -27.605  1.00  0.00    -0.008 C 
HETATM    4  C2  UNL     1     -26.436 -12.717 -27.067  1.00  0.00    -0.065 C 
HETATM    5  C1  UNL     1     -26.903 -14.033 -27.555  1.00  0.00     0.048 C 
BRANCH   4   6
HETATM    6  C3  UNL     1     -25.412 -12.574 -26.037  1.00  0.00     0.012 C 
HETATM    7  C4  UNL     1     -25.434 -13.264 -24.937  1.00  0.00     0.076 C 
BRANCH   7   8
HETATM    8  C5  UNL     1     -24.394 -13.093 -23.927  1.00  0.00     0.264 C 
HETATM    9  O1  UNL     1     -24.647 -12.494 -22.829  1.00  0.00    -0.266 OA
HETATM   10  N1  UNL     1     -23.086 -13.602 -24.177  1.00  0.00    -0.234 N 
ATOM     11  H1  UNL     1     -22.884 -14.081 -25.055  1.00  0.00     0.197 HD
BRANCH  10  12
HETATM   12  O2  UNL     1     -22.120 -13.452 -23.256  1.00  0.00    -0.287 OA
ATOM     13  H2  UNL     1     -21.565 -12.680 -23.272  1.00  0.00     0.244 HD
ENDBRANCH  10  12
ENDBRANCH   7   8
ENDBRANCH   4   6
ENDBRANCH   1   3
BRANCH   1  14
HETATM   14  C9  UNL     1     -27.495 -11.222 -29.960  1.00  0.00     0.166 C 
HETATM   15  O3  UNL     1     -27.654  -9.996 -30.170  1.00  0.00    -0.292 OA
BRANCH  14  16
HETATM   16  C10 UNL     1     -26.853 -12.048 -30.976  1.00  0.00     0.011 A 
HETATM   17  C11 UNL     1     -27.285 -13.350 -31.194  1.00  0.00     0.017 A 
HETATM   18  C12 UNL     1     -26.730 -14.162 -32.155  1.00  0.00     0.030 A 
HETATM   19  C13 UNL     1     -25.701 -13.728 -32.971  1.00  0.00     0.029 A 
HETATM   20  C16 UNL     1     -25.273 -12.439 -32.754  1.00  0.00     0.030 A 
HETATM   21  C17 UNL     1     -25.829 -11.611 -31.782  1.00  0.00     0.017 A 
BRANCH  19  22
HETATM   22  N2  UNL     1     -25.141 -14.582 -33.964  1.00  0.00    -0.390 N 
HETATM   23  C14 UNL     1     -24.990 -16.014 -33.708  1.00  0.00     0.149 C 
HETATM   24  C15 UNL     1     -24.704 -14.107 -35.254  1.00  0.00     0.149 C 
ENDBRANCH  19  22
ENDBRANCH  14  16
ENDBRANCH   1  14
TORSDOF 7
ENDMDL
