MODEL 8
REMARK VINA RESULT: -8.038467824      3.316      5.570
REMARK  7 active torsions:
REMARK  status: ('A' for Active; 'I' for Inactive)
REMARK    1  A    between atoms: C2_2  and  C3_3 
REMARK    2  A    between atoms: C4_4  and  C5_5 
REMARK       I    between atoms: C5_5  and  N1_7 
REMARK    3  A    between atoms: N1_7  and  O2_9 
REMARK    4  A    between atoms: C6_11  and  C7_12 
REMARK    5  A    between atoms: C7_12  and  C9_14 
REMARK    6  A    between atoms: C9_14  and  C10_16 
REMARK    7  A    between atoms: C13_19  and  N2_20 
ROOT
HETATM    1  C7  UNL     1     -27.488 -12.738 -29.653  1.00  0.00     0.079 C 
HETATM    2  C8  UNL     1     -26.957 -13.623 -30.800  1.00  0.00     0.022 C 
ENDROOT
BRANCH   1   3
HETATM    3  C6  UNL     1     -26.917 -13.289 -28.427  1.00  0.00    -0.008 C 
HETATM    4  C2  UNL     1     -26.454 -12.469 -27.483  1.00  0.00    -0.065 C 
HETATM    5  C1  UNL     1     -26.534 -11.012 -27.724  1.00  0.00     0.048 C 
BRANCH   4   6
HETATM    6  C3  UNL     1     -25.900 -13.038 -26.257  1.00  0.00     0.012 C 
HETATM    7  C4  UNL     1     -25.040 -12.400 -25.523  1.00  0.00     0.076 C 
BRANCH   7   8
HETATM    8  C5  UNL     1     -24.507 -13.001 -24.305  1.00  0.00     0.264 C 
HETATM    9  O1  UNL     1     -24.989 -12.692 -23.164  1.00  0.00    -0.266 OA
HETATM   10  N1  UNL     1     -23.439 -13.940 -24.397  1.00  0.00    -0.234 N 
ATOM     11  H1  UNL     1     -23.054 -14.186 -25.309  1.00  0.00     0.197 HD
BRANCH  10  12
HETATM   12  O2  UNL     1     -22.939 -14.500 -23.283  1.00  0.00    -0.287 OA
ATOM     13  H2  UNL     1     -23.354 -15.270 -22.912  1.00  0.00     0.244 HD
ENDBRANCH  10  12
ENDBRANCH   7   8
ENDBRANCH   4   6
ENDBRANCH   1   3
BRANCH   1  14
HETATM   14  C9  UNL     1     -28.976 -12.883 -29.680  1.00  0.00     0.166 C 
HETATM   15  O3  UNL     1     -29.423 -14.053 -29.745  1.00  0.00    -0.292 OA
BRANCH  14  16
HETATM   16  C10 UNL     1     -29.905 -11.759 -29.635  1.00  0.00     0.011 A 
HETATM   17  C11 UNL     1     -31.084 -11.795 -30.368  1.00  0.00     0.017 A 
HETATM   18  C12 UNL     1     -32.003 -10.773 -30.341  1.00  0.00     0.030 A 
HETATM   19  C13 UNL     1     -31.810  -9.638 -29.575  1.00  0.00     0.029 A 
HETATM   20  C16 UNL     1     -30.641  -9.602 -28.850  1.00  0.00     0.030 A 
HETATM   21  C17 UNL     1     -29.705 -10.633 -28.872  1.00  0.00     0.017 A 
BRANCH  19  22
HETATM   22  N2  UNL     1     -32.774  -8.591 -29.556  1.00  0.00    -0.390 N 
HETATM   23  C14 UNL     1     -34.148  -8.858 -29.133  1.00  0.00     0.149 C 
HETATM   24  C15 UNL     1     -32.468  -7.233 -29.935  1.00  0.00     0.149 C 
ENDBRANCH  19  22
ENDBRANCH  14  16
ENDBRANCH   1  14
TORSDOF 7
ENDMDL
