MODEL 2
REMARK VINA RESULT: -8.783307378      0.184      1.014
REMARK  7 active torsions:
REMARK  status: ('A' for Active; 'I' for Inactive)
REMARK    1  A    between atoms: C2_2  and  C3_3 
REMARK    2  A    between atoms: C4_4  and  C5_5 
REMARK       I    between atoms: C5_5  and  N1_7 
REMARK    3  A    between atoms: N1_7  and  O2_9 
REMARK    4  A    between atoms: C6_11  and  C7_12 
REMARK    5  A    between atoms: C7_12  and  C9_14 
REMARK    6  A    between atoms: C9_14  and  C10_16 
REMARK    7  A    between atoms: C13_19  and  N2_20 
ROOT
HETATM    1  C7  UNL     1     -27.908 -11.897 -28.640  1.00  0.00     0.079 C 
HETATM    2  C8  UNL     1     -29.136 -11.026 -28.302  1.00  0.00     0.022 C 
ENDROOT
BRANCH   1   3
HETATM    3  C6  UNL     1     -26.960 -11.690 -27.549  1.00  0.00    -0.008 C 
HETATM    4  C2  UNL     1     -26.348 -12.737 -26.993  1.00  0.00    -0.065 C 
HETATM    5  C1  UNL     1     -26.666 -14.085 -27.510  1.00  0.00     0.048 C 
BRANCH   4   6
HETATM    6  C3  UNL     1     -25.392 -12.509 -25.914  1.00  0.00     0.012 C 
HETATM    7  C4  UNL     1     -25.273 -13.323 -24.909  1.00  0.00     0.076 C 
BRANCH   7   8
HETATM    8  C5  UNL     1     -24.306 -13.062 -23.847  1.00  0.00     0.264 C 
HETATM    9  O1  UNL     1     -24.666 -12.477 -22.771  1.00  0.00    -0.266 OA
HETATM   10  N1  UNL     1     -22.951 -13.468 -24.020  1.00  0.00    -0.234 N 
ATOM     11  H1  UNL     1     -22.664 -13.936 -24.880  1.00  0.00     0.197 HD
BRANCH  10  12
HETATM   12  O2  UNL     1     -22.052 -13.234 -23.050  1.00  0.00    -0.287 OA
ATOM     13  H2  UNL     1     -21.287 -13.792 -22.967  1.00  0.00     0.244 HD
ENDBRANCH  10  12
ENDBRANCH   7   8
ENDBRANCH   4   6
ENDBRANCH   1   3
BRANCH   1  14
HETATM   14  C9  UNL     1     -27.379 -11.372 -29.937  1.00  0.00     0.166 C 
HETATM   15  O3  UNL     1     -27.403 -10.127 -30.088  1.00  0.00    -0.292 OA
BRANCH  14  16
HETATM   16  C10 UNL     1     -26.849 -12.215 -31.001  1.00  0.00     0.011 A 
HETATM   17  C11 UNL     1     -25.817 -11.757 -31.810  1.00  0.00     0.017 A 
HETATM   18  C12 UNL     1     -25.267 -12.521 -32.811  1.00  0.00     0.030 A 
HETATM   19  C13 UNL     1     -25.708 -13.805 -33.076  1.00  0.00     0.029 A 
HETATM   20  C16 UNL     1     -26.731 -14.259 -32.275  1.00  0.00     0.030 A 
HETATM   21  C17 UNL     1     -27.294 -13.490 -31.260  1.00  0.00     0.017 A 
BRANCH  19  22
HETATM   22  N2  UNL     1     -25.123 -14.584 -34.115  1.00  0.00    -0.390 N 
HETATM   23  C14 UNL     1     -24.938 -16.024 -33.944  1.00  0.00     0.149 C 
HETATM   24  C15 UNL     1     -24.695 -14.023 -35.372  1.00  0.00     0.149 C 
ENDBRANCH  19  22
ENDBRANCH  14  16
ENDBRANCH   1  14
TORSDOF 7
ENDMDL
