MODEL 10
REMARK VINA RESULT: -7.929841183      1.473      1.866
REMARK  7 active torsions:
REMARK  status: ('A' for Active; 'I' for Inactive)
REMARK    1  A    between atoms: C2_2  and  C3_3 
REMARK    2  A    between atoms: C4_4  and  C5_5 
REMARK       I    between atoms: C5_5  and  N1_7 
REMARK    3  A    between atoms: N1_7  and  O2_9 
REMARK    4  A    between atoms: C6_11  and  C7_12 
REMARK    5  A    between atoms: C7_12  and  C9_14 
REMARK    6  A    between atoms: C9_14  and  C10_16 
REMARK    7  A    between atoms: C13_19  and  N2_20 
ROOT
HETATM    1  C7  UNL     1     -27.741 -12.778 -28.410  1.00  0.00     0.079 C 
HETATM    2  C8  UNL     1     -28.910 -11.781 -28.267  1.00  0.00     0.022 C 
ENDROOT
BRANCH   1   3
HETATM    3  C6  UNL     1     -27.069 -12.794 -27.113  1.00  0.00    -0.008 C 
HETATM    4  C2  UNL     1     -26.359 -13.862 -26.747  1.00  0.00    -0.065 C 
HETATM    5  C1  UNL     1     -26.286 -15.006 -27.682  1.00  0.00     0.048 C 
BRANCH   4   6
HETATM    6  C3  UNL     1     -25.682 -13.854 -25.453  1.00  0.00     0.012 C 
HETATM    7  C4  UNL     1     -24.928 -12.869 -25.071  1.00  0.00     0.076 C 
BRANCH   7   8
HETATM    8  C5  UNL     1     -24.265 -12.896 -23.771  1.00  0.00     0.264 C 
HETATM    9  O1  UNL     1     -24.897 -12.563 -22.713  1.00  0.00    -0.266 OA
HETATM   10  N1  UNL     1     -22.900 -13.297 -23.690  1.00  0.00    -0.234 N 
ATOM     11  H1  UNL     1     -22.395 -13.563 -24.536  1.00  0.00     0.197 HD
BRANCH  10  12
HETATM   12  O2  UNL     1     -22.278 -13.326 -22.500  1.00  0.00    -0.287 OA
ATOM     13  H2  UNL     1     -21.691 -12.621 -22.254  1.00  0.00     0.244 HD
ENDBRANCH  10  12
ENDBRANCH   7   8
ENDBRANCH   4   6
ENDBRANCH   1   3
BRANCH   1  14
HETATM   14  C9  UNL     1     -26.857 -12.220 -29.480  1.00  0.00     0.166 C 
HETATM   15  O3  UNL     1     -25.981 -11.402 -29.113  1.00  0.00    -0.292 OA
BRANCH  14  16
HETATM   16  C10 UNL     1     -26.962 -12.576 -30.890  1.00  0.00     0.011 A 
HETATM   17  C11 UNL     1     -27.166 -11.591 -31.848  1.00  0.00     0.017 A 
HETATM   18  C12 UNL     1     -27.249 -11.871 -33.191  1.00  0.00     0.030 A 
HETATM   19  C13 UNL     1     -27.131 -13.161 -33.676  1.00  0.00     0.029 A 
HETATM   20  C16 UNL     1     -26.931 -14.137 -32.728  1.00  0.00     0.030 A 
HETATM   21  C17 UNL     1     -26.846 -13.861 -31.366  1.00  0.00     0.017 A 
BRANCH  19  22
HETATM   22  N2  UNL     1     -27.216 -13.432 -35.072  1.00  0.00    -0.390 N 
HETATM   23  C14 UNL     1     -26.006 -13.474 -35.892  1.00  0.00     0.149 C 
HETATM   24  C15 UNL     1     -28.464 -13.684 -35.749  1.00  0.00     0.149 C 
ENDBRANCH  19  22
ENDBRANCH  14  16
ENDBRANCH   1  14
TORSDOF 7
ENDMDL
