MODEL 3
REMARK VINA RESULT: -8.701833999      3.479      5.147
REMARK  7 active torsions:
REMARK  status: ('A' for Active; 'I' for Inactive)
REMARK    1  A    between atoms: C2_2  and  C3_3 
REMARK    2  A    between atoms: C4_4  and  C5_5 
REMARK       I    between atoms: C5_5  and  N1_7 
REMARK    3  A    between atoms: N1_7  and  O2_9 
REMARK    4  A    between atoms: C6_11  and  C7_12 
REMARK    5  A    between atoms: C7_12  and  C9_14 
REMARK    6  A    between atoms: C9_14  and  C10_16 
REMARK    7  A    between atoms: C13_19  and  N2_20 
ROOT
HETATM    1  C7  UNL     1     -27.242 -12.593 -28.794  1.00  0.00     0.079 C 
HETATM    2  C8  UNL     1     -28.760 -12.849 -28.695  1.00  0.00     0.022 C 
ENDROOT
BRANCH   1   3
HETATM    3  C6  UNL     1     -26.794 -12.320 -27.431  1.00  0.00    -0.008 C 
HETATM    4  C2  UNL     1     -26.273 -13.303 -26.694  1.00  0.00    -0.065 C 
HETATM    5  C1  UNL     1     -26.176 -14.650 -27.296  1.00  0.00     0.048 C 
BRANCH   4   6
HETATM    6  C3  UNL     1     -25.817 -13.008 -25.339  1.00  0.00     0.012 C 
HETATM    7  C4  UNL     1     -24.636 -13.343 -24.916  1.00  0.00     0.076 C 
BRANCH   7   8
HETATM    8  C5  UNL     1     -24.213 -13.033 -23.554  1.00  0.00     0.264 C 
HETATM    9  O1  UNL     1     -25.036 -12.529 -22.718  1.00  0.00    -0.266 OA
HETATM   10  N1  UNL     1     -22.869 -13.297 -23.161  1.00  0.00    -0.234 N 
ATOM     11  H1  UNL     1     -22.212 -13.700 -23.829  1.00  0.00     0.197 HD
BRANCH  10  12
HETATM   12  O2  UNL     1     -22.468 -13.016 -21.910  1.00  0.00    -0.287 OA
ATOM     13  H2  UNL     1     -22.737 -13.574 -21.189  1.00  0.00     0.244 HD
ENDBRANCH  10  12
ENDBRANCH   7   8
ENDBRANCH   4   6
ENDBRANCH   1   3
BRANCH   1  14
HETATM   14  C9  UNL     1     -27.085 -11.395 -29.675  1.00  0.00     0.166 C 
HETATM   15  O3  UNL     1     -26.088 -11.386 -30.435  1.00  0.00    -0.292 OA
BRANCH  14  16
HETATM   16  C10 UNL     1     -28.013 -10.270 -29.692  1.00  0.00     0.011 A 
HETATM   17  C11 UNL     1     -28.682  -9.932 -30.861  1.00  0.00     0.017 A 
HETATM   18  C12 UNL     1     -29.584  -8.897 -30.924  1.00  0.00     0.030 A 
HETATM   19  C13 UNL     1     -29.885  -8.123 -29.818  1.00  0.00     0.029 A 
HETATM   20  C16 UNL     1     -29.222  -8.457 -28.660  1.00  0.00     0.030 A 
HETATM   21  C17 UNL     1     -28.306  -9.504 -28.588  1.00  0.00     0.017 A 
BRANCH  19  22
HETATM   22  N2  UNL     1     -30.825  -7.056 -29.901  1.00  0.00    -0.390 N 
HETATM   23  C14 UNL     1     -32.261  -7.332 -29.880  1.00  0.00     0.149 C 
HETATM   24  C15 UNL     1     -30.436  -5.671 -30.000  1.00  0.00     0.149 C 
ENDBRANCH  19  22
ENDBRANCH  14  16
ENDBRANCH   1  14
TORSDOF 7
ENDMDL
