MODEL 11
REMARK VINA RESULT: -7.835077596      3.549      4.757
REMARK  7 active torsions:
REMARK  status: ('A' for Active; 'I' for Inactive)
REMARK    1  A    between atoms: C2_2  and  C3_3 
REMARK    2  A    between atoms: C4_4  and  C5_5 
REMARK       I    between atoms: C5_5  and  N1_7 
REMARK    3  A    between atoms: N1_7  and  O2_9 
REMARK    4  A    between atoms: C6_11  and  C7_12 
REMARK    5  A    between atoms: C7_12  and  C9_14 
REMARK    6  A    between atoms: C9_14  and  C10_16 
REMARK    7  A    between atoms: C13_19  and  N2_20 
ROOT
HETATM    1  C7  UNL     1     -27.317 -12.132 -28.201  1.00  0.00     0.079 C 
HETATM    2  C8  UNL     1     -28.100 -13.438 -28.456  1.00  0.00     0.022 C 
ENDROOT
BRANCH   1   3
HETATM    3  C6  UNL     1     -26.659 -12.308 -26.909  1.00  0.00    -0.008 C 
HETATM    4  C2  UNL     1     -26.130 -13.490 -26.589  1.00  0.00    -0.065 C 
HETATM    5  C1  UNL     1     -26.241 -14.593 -27.569  1.00  0.00     0.048 C 
BRANCH   4   6
HETATM    6  C3  UNL     1     -25.463 -13.643 -25.299  1.00  0.00     0.012 C 
HETATM    7  C4  UNL     1     -24.878 -12.651 -24.700  1.00  0.00     0.076 C 
BRANCH   7   8
HETATM    8  C5  UNL     1     -24.218 -12.841 -23.412  1.00  0.00     0.264 C 
HETATM    9  O1  UNL     1     -24.834 -12.584 -22.323  1.00  0.00    -0.266 OA
HETATM   10  N1  UNL     1     -22.876 -13.317 -23.377  1.00  0.00    -0.234 N 
ATOM     11  H1  UNL     1     -22.384 -13.522 -24.246  1.00  0.00     0.197 HD
BRANCH  10  12
HETATM   12  O2  UNL     1     -22.257 -13.495 -22.197  1.00  0.00    -0.287 OA
ATOM     13  H2  UNL     1     -21.594 -12.878 -21.910  1.00  0.00     0.244 HD
ENDBRANCH  10  12
ENDBRANCH   7   8
ENDBRANCH   4   6
ENDBRANCH   1   3
BRANCH   1  14
HETATM   14  C9  UNL     1     -28.341 -11.044 -28.153  1.00  0.00     0.166 C 
HETATM   15  O3  UNL     1     -29.183 -11.109 -27.226  1.00  0.00    -0.292 OA
BRANCH  14  16
HETATM   16  C10 UNL     1     -28.403  -9.942 -29.106  1.00  0.00     0.011 A 
HETATM   17  C11 UNL     1     -29.003  -8.741 -28.750  1.00  0.00     0.017 A 
HETATM   18  C12 UNL     1     -29.067  -7.665 -29.602  1.00  0.00     0.030 A 
HETATM   19  C13 UNL     1     -28.530  -7.709 -30.876  1.00  0.00     0.029 A 
HETATM   20  C16 UNL     1     -27.937  -8.899 -31.229  1.00  0.00     0.030 A 
HETATM   21  C17 UNL     1     -27.869  -9.994 -30.372  1.00  0.00     0.017 A 
BRANCH  19  22
HETATM   22  N2  UNL     1     -28.602  -6.583 -31.744  1.00  0.00    -0.390 N 
HETATM   23  C14 UNL     1     -29.434  -5.432 -31.395  1.00  0.00     0.149 C 
HETATM   24  C15 UNL     1     -27.874  -6.499 -32.986  1.00  0.00     0.149 C 
ENDBRANCH  19  22
ENDBRANCH  14  16
ENDBRANCH   1  14
TORSDOF 7
ENDMDL
