MODEL 9
REMARK VINA RESULT: -7.980760027      0.975      1.446
REMARK  7 active torsions:
REMARK  status: ('A' for Active; 'I' for Inactive)
REMARK    1  A    between atoms: C2_2  and  C3_3 
REMARK    2  A    between atoms: C4_4  and  C5_5 
REMARK       I    between atoms: C5_5  and  N1_7 
REMARK    3  A    between atoms: N1_7  and  O2_9 
REMARK    4  A    between atoms: C6_11  and  C7_12 
REMARK    5  A    between atoms: C7_12  and  C9_14 
REMARK    6  A    between atoms: C9_14  and  C10_16 
REMARK    7  A    between atoms: C13_19  and  N2_20 
ROOT
HETATM    1  C7  UNL     1     -27.695 -11.436 -29.567  1.00  0.00     0.079 C 
HETATM    2  C8  UNL     1     -28.555 -10.157 -29.489  1.00  0.00     0.022 C 
ENDROOT
BRANCH   1   3
HETATM    3  C6  UNL     1     -26.783 -11.372 -28.429  1.00  0.00    -0.008 C 
HETATM    4  C2  UNL     1     -26.619 -12.442 -27.648  1.00  0.00    -0.065 C 
HETATM    5  C1  UNL     1     -27.386 -13.665 -27.971  1.00  0.00     0.048 C 
BRANCH   4   6
HETATM    6  C3  UNL     1     -25.690 -12.365 -26.524  1.00  0.00     0.012 C 
HETATM    7  C4  UNL     1     -25.629 -13.285 -25.610  1.00  0.00     0.076 C 
BRANCH   7   8
HETATM    8  C5  UNL     1     -24.689 -13.174 -24.500  1.00  0.00     0.264 C 
HETATM    9  O1  UNL     1     -25.003 -12.526 -23.446  1.00  0.00    -0.266 OA
HETATM   10  N1  UNL     1     -23.411 -13.796 -24.600  1.00  0.00    -0.234 N 
ATOM     11  H1  UNL     1     -23.160 -14.314 -25.442  1.00  0.00     0.197 HD
BRANCH  10  12
HETATM   12  O2  UNL     1     -22.536 -13.701 -23.584  1.00  0.00    -0.287 OA
ATOM     13  H2  UNL     1     -22.205 -14.488 -23.168  1.00  0.00     0.244 HD
ENDBRANCH  10  12
ENDBRANCH   7   8
ENDBRANCH   4   6
ENDBRANCH   1   3
BRANCH   1  14
HETATM   14  C9  UNL     1     -26.960 -11.357 -30.867  1.00  0.00     0.166 C 
HETATM   15  O3  UNL     1     -26.606 -10.213 -31.240  1.00  0.00    -0.292 OA
BRANCH  14  16
HETATM   16  C10 UNL     1     -26.644 -12.514 -31.695  1.00  0.00     0.011 A 
HETATM   17  C11 UNL     1     -25.470 -12.545 -32.436  1.00  0.00     0.017 A 
HETATM   18  C12 UNL     1     -25.115 -13.621 -33.214  1.00  0.00     0.030 A 
HETATM   19  C13 UNL     1     -25.908 -14.750 -33.305  1.00  0.00     0.029 A 
HETATM   20  C16 UNL     1     -27.071 -14.719 -32.571  1.00  0.00     0.030 A 
HETATM   21  C17 UNL     1     -27.439 -13.633 -31.782  1.00  0.00     0.017 A 
BRANCH  19  22
HETATM   22  N2  UNL     1     -25.522 -15.858 -34.112  1.00  0.00    -0.390 N 
HETATM   23  C14 UNL     1     -24.574 -16.848 -33.605  1.00  0.00     0.149 C 
HETATM   24  C15 UNL     1     -26.032 -16.076 -35.444  1.00  0.00     0.149 C 
ENDBRANCH  19  22
ENDBRANCH  14  16
ENDBRANCH   1  14
TORSDOF 7
ENDMDL
