MODEL 13
REMARK VINA RESULT: -7.767568463      1.613      2.469
REMARK  7 active torsions:
REMARK  status: ('A' for Active; 'I' for Inactive)
REMARK    1  A    between atoms: C2_2  and  C3_3 
REMARK    2  A    between atoms: C4_4  and  C5_5 
REMARK       I    between atoms: C5_5  and  N1_7 
REMARK    3  A    between atoms: N1_7  and  O2_9 
REMARK    4  A    between atoms: C6_11  and  C7_12 
REMARK    5  A    between atoms: C7_12  and  C9_14 
REMARK    6  A    between atoms: C9_14  and  C10_16 
REMARK    7  A    between atoms: C13_19  and  N2_20 
ROOT
HETATM    1  C7  UNL     1     -27.148 -11.840 -30.594  1.00  0.00     0.079 C 
HETATM    2  C8  UNL     1     -27.600 -10.402 -30.925  1.00  0.00     0.022 C 
ENDROOT
BRANCH   1   3
HETATM    3  C6  UNL     1     -26.574 -11.778 -29.252  1.00  0.00    -0.008 C 
HETATM    4  C2  UNL     1     -26.980 -12.638 -28.316  1.00  0.00    -0.065 C 
HETATM    5  C1  UNL     1     -28.015 -13.629 -28.681  1.00  0.00     0.048 C 
BRANCH   4   6
HETATM    6  C3  UNL     1     -26.383 -12.571 -26.985  1.00  0.00     0.012 C 
HETATM    7  C4  UNL     1     -25.779 -13.586 -26.444  1.00  0.00     0.076 C 
BRANCH   7   8
HETATM    8  C5  UNL     1     -25.196 -13.483 -25.111  1.00  0.00     0.264 C 
HETATM    9  O1  UNL     1     -25.856 -12.959 -24.152  1.00  0.00    -0.266 OA
HETATM   10  N1  UNL     1     -23.877 -13.974 -24.885  1.00  0.00    -0.234 N 
ATOM     11  H1  UNL     1     -23.350 -14.392 -25.651  1.00  0.00     0.197 HD
BRANCH  10  12
HETATM   12  O2  UNL     1     -23.328 -13.885 -23.662  1.00  0.00    -0.287 OA
ATOM     13  H2  UNL     1     -22.751 -13.160 -23.452  1.00  0.00     0.244 HD
ENDBRANCH  10  12
ENDBRANCH   7   8
ENDBRANCH   4   6
ENDBRANCH   1   3
BRANCH   1  14
HETATM   14  C9  UNL     1     -26.117 -12.190 -31.618  1.00  0.00     0.166 C 
HETATM   15  O3  UNL     1     -25.155 -11.394 -31.739  1.00  0.00    -0.292 OA
BRANCH  14  16
HETATM   16  C10 UNL     1     -26.175 -13.382 -32.457  1.00  0.00     0.011 A 
HETATM   17  C11 UNL     1     -25.104 -13.714 -33.277  1.00  0.00     0.017 A 
HETATM   18  C12 UNL     1     -25.099 -14.837 -34.068  1.00  0.00     0.030 A 
HETATM   19  C13 UNL     1     -26.167 -15.715 -34.096  1.00  0.00     0.029 A 
HETATM   20  C16 UNL     1     -27.228 -15.385 -33.285  1.00  0.00     0.030 A 
HETATM   21  C17 UNL     1     -27.241 -14.249 -32.481  1.00  0.00     0.017 A 
BRANCH  19  22
HETATM   22  N2  UNL     1     -26.143 -16.877 -34.920  1.00  0.00    -0.390 N 
HETATM   23  C14 UNL     1     -26.661 -16.825 -36.286  1.00  0.00     0.149 C 
HETATM   24  C15 UNL     1     -25.615 -18.143 -34.478  1.00  0.00     0.149 C 
ENDBRANCH  19  22
ENDBRANCH  14  16
ENDBRANCH   1  14
TORSDOF 7
ENDMDL
