MODEL 4
REMARK VINA RESULT: -8.752000525      2.163      2.586
REMARK  7 active torsions:
REMARK  status: ('A' for Active; 'I' for Inactive)
REMARK    1  A    between atoms: C2_2  and  C3_3 
REMARK    2  A    between atoms: C4_4  and  C5_5 
REMARK       I    between atoms: C5_5  and  N1_7 
REMARK    3  A    between atoms: N1_7  and  O2_9 
REMARK    4  A    between atoms: C6_11  and  C7_12 
REMARK    5  A    between atoms: C7_12  and  C9_14 
REMARK    6  A    between atoms: C9_14  and  C10_16 
REMARK    7  A    between atoms: C13_19  and  N2_20 
ROOT
HETATM    1  C7  UNL     1     -15.259  -1.396  -2.290  1.00  0.00    -0.011 C 
HETATM    2  C8  UNL     1     -15.425  -2.857  -2.112  1.00  0.00     0.052 C 
ENDROOT
BRANCH   1   3
HETATM    3  C6  UNL     1     -15.487  -0.779  -3.582  1.00  0.00     0.017 C 
HETATM    4  C2  UNL     1     -14.558  -0.332  -4.389  1.00  0.00    -0.061 C 
HETATM    5  C1  UNL     1     -13.143  -0.387  -4.120  1.00  0.00     0.048 C 
BRANCH   4   6
HETATM    6  C3  UNL     1     -15.005   0.282  -5.663  1.00  0.00     0.012 C 
HETATM    7  C4  UNL     1     -14.644  -0.122  -6.859  1.00  0.00     0.076 C 
BRANCH   7   8
HETATM    8  C5  UNL     1     -15.094   0.490  -8.109  1.00  0.00     0.264 C 
HETATM    9  O1  UNL     1     -15.849   1.491  -8.063  1.00  0.00    -0.266 OA
HETATM   10  N1  UNL     1     -14.707  -0.013  -9.363  1.00  0.00    -0.234 N 
ATOM     11  H1  UNL     1     -14.095  -0.827  -9.411  1.00  0.00     0.197 HD
BRANCH  10  12
HETATM   12  O2  UNL     1     -15.143   0.578 -10.526  1.00  0.00    -0.287 OA
ATOM     13  H2  UNL     1     -14.525   0.875 -11.183  1.00  0.00     0.244 HD
ENDBRANCH  10  12
ENDBRANCH   7   8
ENDBRANCH   4   6
ENDBRANCH   1   3
BRANCH   1  14
HETATM   14  C9  UNL     1     -15.594  -0.589  -1.106  1.00  0.00     0.188 C 
HETATM   15  O3  UNL     1     -14.619  -0.033  -0.516  1.00  0.00    -0.287 OA
BRANCH  14  16
HETATM   16  C10 UNL     1     -16.924  -0.397  -0.580  1.00  0.00     0.015 A 
HETATM   17  C11 UNL     1     -17.893   0.357  -1.190  1.00  0.00     0.018 A 
HETATM   18  C12 UNL     1     -19.180   0.499  -0.650  1.00  0.00     0.030 A 
HETATM   19  C13 UNL     1     -19.533  -0.115   0.525  1.00  0.00     0.029 A 
HETATM   20  C16 UNL     1     -18.574  -0.876   1.152  1.00  0.00     0.030 A 
HETATM   21  C17 UNL     1     -17.312  -1.015   0.621  1.00  0.00     0.018 A 
BRANCH  19  22
HETATM   22  N2  UNL     1     -20.856   0.039   1.067  1.00  0.00    -0.390 N 
HETATM   23  C14 UNL     1     -21.126   0.677   2.317  1.00  0.00     0.149 C 
HETATM   24  C15 UNL     1     -21.988  -0.488   0.294  1.00  0.00     0.149 C 
ENDBRANCH  19  22
ENDBRANCH  14  16
ENDBRANCH   1  14
TORSDOF 7
ENDMDL
