MODEL 5
REMARK VINA RESULT: -8.717773581      2.189      2.521
REMARK  7 active torsions:
REMARK  status: ('A' for Active; 'I' for Inactive)
REMARK    1  A    between atoms: C2_2  and  C3_3 
REMARK    2  A    between atoms: C4_4  and  C5_5 
REMARK       I    between atoms: C5_5  and  N1_7 
REMARK    3  A    between atoms: N1_7  and  O2_9 
REMARK    4  A    between atoms: C6_11  and  C7_12 
REMARK    5  A    between atoms: C7_12  and  C9_14 
REMARK    6  A    between atoms: C9_14  and  C10_16 
REMARK    7  A    between atoms: C13_19  and  N2_20 
ROOT
HETATM    1  C7  UNL     1     -15.204  -1.385  -2.348  1.00  0.00    -0.011 C 
HETATM    2  C8  UNL     1     -15.327  -2.850  -2.167  1.00  0.00     0.052 C 
ENDROOT
BRANCH   1   3
HETATM    3  C6  UNL     1     -15.456  -0.777  -3.640  1.00  0.00     0.017 C 
HETATM    4  C2  UNL     1     -14.543  -0.317  -4.458  1.00  0.00    -0.061 C 
HETATM    5  C1  UNL     1     -13.124  -0.346  -4.203  1.00  0.00     0.048 C 
BRANCH   4   6
HETATM    6  C3  UNL     1     -15.013   0.285  -5.730  1.00  0.00     0.012 C 
HETATM    7  C4  UNL     1     -14.627  -0.091  -6.927  1.00  0.00     0.076 C 
BRANCH   7   8
HETATM    8  C5  UNL     1     -15.100   0.507  -8.174  1.00  0.00     0.264 C 
HETATM    9  O1  UNL     1     -15.846   1.514  -8.125  1.00  0.00    -0.266 OA
HETATM   10  N1  UNL     1     -14.746  -0.015  -9.430  1.00  0.00    -0.234 N 
ATOM     11  H1  UNL     1     -14.141  -0.835  -9.481  1.00  0.00     0.197 HD
BRANCH  10  12
HETATM   12  O2  UNL     1     -15.202   0.564 -10.590  1.00  0.00    -0.287 OA
ATOM     13  H2  UNL     1     -14.765   0.408 -11.419  1.00  0.00     0.244 HD
ENDBRANCH  10  12
ENDBRANCH   7   8
ENDBRANCH   4   6
ENDBRANCH   1   3
BRANCH   1  14
HETATM   14  C9  UNL     1     -15.556  -0.586  -1.164  1.00  0.00     0.188 C 
HETATM   15  O3  UNL     1     -14.602   0.033  -0.605  1.00  0.00    -0.287 OA
BRANCH  14  16
HETATM   16  C10 UNL     1     -16.882  -0.468  -0.606  1.00  0.00     0.015 A 
HETATM   17  C11 UNL     1     -17.295  -1.094   0.542  1.00  0.00     0.018 A 
HETATM   18  C12 UNL     1     -18.589  -0.933   1.058  1.00  0.00     0.030 A 
HETATM   19  C13 UNL     1     -19.512  -0.134   0.432  1.00  0.00     0.029 A 
HETATM   20  C16 UNL     1     -19.118   0.502  -0.722  1.00  0.00     0.030 A 
HETATM   21  C17 UNL     1     -17.847   0.343  -1.226  1.00  0.00     0.018 A 
BRANCH  19  22
HETATM   22  N2  UNL     1     -20.836   0.021   0.971  1.00  0.00    -0.390 N 
HETATM   23  C14 UNL     1     -22.012  -0.481   0.332  1.00  0.00     0.149 C 
HETATM   24  C15 UNL     1     -20.986   0.735   2.246  1.00  0.00     0.149 C 
ENDBRANCH  19  22
ENDBRANCH  14  16
ENDBRANCH   1  14
TORSDOF 7
ENDMDL
