MODEL 9
REMARK VINA RESULT: -8.661203191      2.364      3.086
REMARK  7 active torsions:
REMARK  status: ('A' for Active; 'I' for Inactive)
REMARK    1  A    between atoms: C2_2  and  C3_3 
REMARK    2  A    between atoms: C4_4  and  C5_5 
REMARK       I    between atoms: C5_5  and  N1_7 
REMARK    3  A    between atoms: N1_7  and  O2_9 
REMARK    4  A    between atoms: C6_11  and  C7_12 
REMARK    5  A    between atoms: C7_12  and  C9_14 
REMARK    6  A    between atoms: C9_14  and  C10_16 
REMARK    7  A    between atoms: C13_19  and  N2_20 
ROOT
HETATM    1  C7  UNL     1     -15.334  -1.253  -2.246  1.00  0.00    -0.011 C 
HETATM    2  C8  UNL     1     -15.398  -2.723  -2.080  1.00  0.00     0.052 C 
ENDROOT
BRANCH   1   3
HETATM    3  C6  UNL     1     -15.527  -0.648  -3.550  1.00  0.00     0.017 C 
HETATM    4  C2  UNL     1     -14.575  -0.279  -4.368  1.00  0.00    -0.061 C 
HETATM    5  C1  UNL     1     -13.165  -0.421  -4.103  1.00  0.00     0.048 C 
BRANCH   4   6
HETATM    6  C3  UNL     1     -14.987   0.337  -5.654  1.00  0.00     0.012 C 
HETATM    7  C4  UNL     1     -14.688  -0.133  -6.843  1.00  0.00     0.076 C 
BRANCH   7   8
HETATM    8  C5  UNL     1     -15.102   0.482  -8.103  1.00  0.00     0.264 C 
HETATM    9  O1  UNL     1     -15.849   1.489  -8.076  1.00  0.00    -0.266 OA
HETATM   10  N1  UNL     1     -14.689  -0.025  -9.347  1.00  0.00    -0.234 N 
ATOM     11  H1  UNL     1     -14.083  -0.845  -9.380  1.00  0.00     0.197 HD
BRANCH  10  12
HETATM   12  O2  UNL     1     -15.091   0.568 -10.520  1.00  0.00    -0.287 OA
ATOM     13  H2  UNL     1     -14.776   1.431 -10.763  1.00  0.00     0.244 HD
ENDBRANCH  10  12
ENDBRANCH   7   8
ENDBRANCH   4   6
ENDBRANCH   1   3
BRANCH   1  14
HETATM   14  C9  UNL     1     -15.806  -0.481  -1.086  1.00  0.00     0.188 C 
HETATM   15  O3  UNL     1     -17.052  -0.254  -1.036  1.00  0.00    -0.287 OA
BRANCH  14  16
HETATM   16  C10 UNL     1     -14.965   0.030  -0.030  1.00  0.00     0.015 A 
HETATM   17  C11 UNL     1     -15.406   0.841   0.984  1.00  0.00     0.018 A 
HETATM   18  C12 UNL     1     -14.556   1.298   2.001  1.00  0.00     0.030 A 
HETATM   19  C13 UNL     1     -13.228   0.951   2.029  1.00  0.00     0.029 A 
HETATM   20  C16 UNL     1     -12.766   0.139   1.020  1.00  0.00     0.030 A 
HETATM   21  C17 UNL     1     -13.602  -0.308   0.024  1.00  0.00     0.018 A 
BRANCH  19  22
HETATM   22  N2  UNL     1     -12.366   1.427   3.078  1.00  0.00    -0.390 N 
HETATM   23  C14 UNL     1     -12.687   2.537   3.919  1.00  0.00     0.149 C 
HETATM   24  C15 UNL     1     -11.089   0.734   3.294  1.00  0.00     0.149 C 
ENDBRANCH  19  22
ENDBRANCH  14  16
ENDBRANCH   1  14
TORSDOF 7
ENDMDL
