MODEL 6
REMARK VINA RESULT: -8.703523946      2.322      2.911
REMARK  7 active torsions:
REMARK  status: ('A' for Active; 'I' for Inactive)
REMARK    1  A    between atoms: C2_2  and  C3_3 
REMARK    2  A    between atoms: C4_4  and  C5_5 
REMARK       I    between atoms: C5_5  and  N1_7 
REMARK    3  A    between atoms: N1_7  and  O2_9 
REMARK    4  A    between atoms: C6_11  and  C7_12 
REMARK    5  A    between atoms: C7_12  and  C9_14 
REMARK    6  A    between atoms: C9_14  and  C10_16 
REMARK    7  A    between atoms: C13_19  and  N2_20 
ROOT
HETATM    1  C7  UNL     1     -15.333  -1.309  -2.251  1.00  0.00    -0.011 C 
HETATM    2  C8  UNL     1     -15.409  -2.779  -2.092  1.00  0.00     0.052 C 
ENDROOT
BRANCH   1   3
HETATM    3  C6  UNL     1     -15.531  -0.695  -3.550  1.00  0.00     0.017 C 
HETATM    4  C2  UNL     1     -14.581  -0.308  -4.363  1.00  0.00    -0.061 C 
HETATM    5  C1  UNL     1     -13.170  -0.436  -4.097  1.00  0.00     0.048 C 
BRANCH   4   6
HETATM    6  C3  UNL     1     -14.998   0.314  -5.644  1.00  0.00     0.012 C 
HETATM    7  C4  UNL     1     -14.682  -0.137  -6.837  1.00  0.00     0.076 C 
BRANCH   7   8
HETATM    8  C5  UNL     1     -15.102   0.484  -8.092  1.00  0.00     0.264 C 
HETATM    9  O1  UNL     1     -15.852   1.487  -8.058  1.00  0.00    -0.266 OA
HETATM   10  N1  UNL     1     -14.689  -0.014  -9.341  1.00  0.00    -0.234 N 
ATOM     11  H1  UNL     1     -14.079  -0.831  -9.380  1.00  0.00     0.197 HD
BRANCH  10  12
HETATM   12  O2  UNL     1     -15.095   0.585 -10.509  1.00  0.00    -0.287 OA
ATOM     13  H2  UNL     1     -15.176   0.084 -11.312  1.00  0.00     0.244 HD
ENDBRANCH  10  12
ENDBRANCH   7   8
ENDBRANCH   4   6
ENDBRANCH   1   3
BRANCH   1  14
HETATM   14  C9  UNL     1     -15.787  -0.538  -1.083  1.00  0.00     0.188 C 
HETATM   15  O3  UNL     1     -17.036  -0.339  -0.998  1.00  0.00    -0.287 OA
BRANCH  14  16
HETATM   16  C10 UNL     1     -14.927  -0.001  -0.056  1.00  0.00     0.015 A 
HETATM   17  C11 UNL     1     -13.600  -0.317   0.083  1.00  0.00     0.018 A 
HETATM   18  C12 UNL     1     -12.798   0.246   1.086  1.00  0.00     0.030 A 
HETATM   19  C13 UNL     1     -13.309   1.148   1.986  1.00  0.00     0.029 A 
HETATM   20  C16 UNL     1     -14.639   1.477   1.863  1.00  0.00     0.030 A 
HETATM   21  C17 UNL     1     -15.424   0.924   0.878  1.00  0.00     0.018 A 
BRANCH  19  22
HETATM   22  N2  UNL     1     -12.476   1.717   3.010  1.00  0.00    -0.390 N 
HETATM   23  C14 UNL     1     -12.974   2.550   4.059  1.00  0.00     0.149 C 
HETATM   24  C15 UNL     1     -11.036   1.427   2.974  1.00  0.00     0.149 C 
ENDBRANCH  19  22
ENDBRANCH  14  16
ENDBRANCH   1  14
TORSDOF 7
ENDMDL
