MODEL 3
REMARK VINA RESULT: -8.763780534      3.928      5.242
REMARK  7 active torsions:
REMARK  status: ('A' for Active; 'I' for Inactive)
REMARK    1  A    between atoms: C2_2  and  C3_3 
REMARK    2  A    between atoms: C4_4  and  C5_5 
REMARK       I    between atoms: C5_5  and  N1_7 
REMARK    3  A    between atoms: N1_7  and  O2_9 
REMARK    4  A    between atoms: C6_11  and  C7_12 
REMARK    5  A    between atoms: C7_12  and  C9_14 
REMARK    6  A    between atoms: C9_14  and  C10_16 
REMARK    7  A    between atoms: C13_19  and  N2_20 
ROOT
HETATM    1  C7  UNL     1     -13.938  -1.170  -1.613  1.00  0.00    -0.011 C 
HETATM    2  C8  UNL     1     -13.373  -0.346  -0.521  1.00  0.00     0.052 C 
ENDROOT
BRANCH   1   3
HETATM    3  C6  UNL     1     -13.872  -0.718  -2.989  1.00  0.00     0.017 C 
HETATM    4  C2  UNL     1     -14.898  -0.400  -3.738  1.00  0.00    -0.061 C 
HETATM    5  C1  UNL     1     -16.273  -0.445  -3.307  1.00  0.00     0.048 C 
BRANCH   4   6
HETATM    6  C3  UNL     1     -14.614   0.026  -5.130  1.00  0.00     0.012 C 
HETATM    7  C4  UNL     1     -15.446  -0.100  -6.139  1.00  0.00     0.076 C 
BRANCH   7   8
HETATM    8  C5  UNL     1     -15.155   0.327  -7.507  1.00  0.00     0.264 C 
HETATM    9  O1  UNL     1     -15.815   1.268  -8.008  1.00  0.00    -0.266 OA
HETATM   10  N1  UNL     1     -14.157  -0.291  -8.281  1.00  0.00    -0.234 N 
ATOM     11  H1  UNL     1     -13.616  -1.059  -7.884  1.00  0.00     0.197 HD
BRANCH  10  12
HETATM   12  O2  UNL     1     -13.901   0.126  -9.566  1.00  0.00    -0.287 OA
ATOM     13  H2  UNL     1     -13.052  -0.022  -9.966  1.00  0.00     0.244 HD
ENDBRANCH  10  12
ENDBRANCH   7   8
ENDBRANCH   4   6
ENDBRANCH   1   3
BRANCH   1  14
HETATM   14  C9  UNL     1     -13.859  -2.623  -1.393  1.00  0.00     0.188 C 
HETATM   15  O3  UNL     1     -12.692  -3.116  -1.336  1.00  0.00    -0.287 OA
BRANCH  14  16
HETATM   16  C10 UNL     1     -14.992  -3.504  -1.248  1.00  0.00     0.015 A 
HETATM   17  C11 UNL     1     -14.997  -4.824  -1.622  1.00  0.00     0.018 A 
HETATM   18  C12 UNL     1     -16.117  -5.648  -1.443  1.00  0.00     0.030 A 
HETATM   19  C13 UNL     1     -17.274  -5.168  -0.880  1.00  0.00     0.029 A 
HETATM   20  C16 UNL     1     -17.289  -3.847  -0.499  1.00  0.00     0.030 A 
HETATM   21  C17 UNL     1     -16.189  -3.040  -0.675  1.00  0.00     0.018 A 
BRANCH  19  22
HETATM   22  N2  UNL     1     -18.415  -6.024  -0.703  1.00  0.00    -0.390 N 
HETATM   23  C14 UNL     1     -18.414  -7.417  -1.026  1.00  0.00     0.149 C 
HETATM   24  C15 UNL     1     -19.647  -5.435  -0.162  1.00  0.00     0.149 C 
ENDBRANCH  19  22
ENDBRANCH  14  16
ENDBRANCH   1  14
TORSDOF 7
ENDMDL
