MODEL 6
REMARK VINA RESULT: -8.501059903      5.811      8.835
REMARK  11 active torsions:
REMARK  status: ('A' for Active; 'I' for Inactive)
REMARK    1  A    between atoms: C1_2  and  C2_3 
REMARK       I    between atoms: C1_2  and  N1_18 
REMARK    2  A    between atoms: C2_3  and  C3_4 
REMARK    3  A    between atoms: C3_4  and  C4_5 
REMARK    4  A    between atoms: C4_5  and  C5_6 
REMARK    5  A    between atoms: C5_6  and  C6_7 
REMARK    6  A    between atoms: C6_7  and  C7_8 
REMARK    7  A    between atoms: C7_8  and  C8_9 
REMARK    8  A    between atoms: C8_9  and  O2_10 
REMARK    9  A    between atoms: C8_9  and  O3_12 
REMARK   10  A    between atoms: C8_9  and  C9_14 
REMARK   11  A    between atoms: N1_18  and  C10_20 
ROOT
HETATM    1  C4  UNL     1     -19.379   7.802  -2.182  1.00  0.00     0.000 C 
ENDROOT
BRANCH   1   2
HETATM    2  C3  UNL     1     -18.781   8.383  -0.926  1.00  0.00     0.009 C 
BRANCH   2   3
HETATM    3  C2  UNL     1     -19.818   9.180  -0.149  1.00  0.00     0.103 C 
BRANCH   3   4
HETATM    4  C1  UNL     1     -20.457   8.270   0.884  1.00  0.00     0.222 C 
HETATM    5  O1  UNL     1     -21.612   8.497   1.299  1.00  0.00    -0.273 OA
HETATM    6  N1  UNL     1     -19.733   7.164   1.373  1.00  0.00    -0.327 N 
ATOM      7  H1  UNL     1     -18.794   7.022   1.003  1.00  0.00     0.169 HD
BRANCH   6   8
HETATM    8  C10 UNL     1     -20.193   6.239   2.329  1.00  0.00     0.034 A 
HETATM    9  C11 UNL     1     -20.319   6.422   3.675  1.00  0.00     0.029 A 
HETATM   10  C12 UNL     1     -20.784   5.450   4.546  1.00  0.00     0.002 A 
HETATM   11  C13 UNL     1     -21.149   4.221   4.074  1.00  0.00     0.000 A 
HETATM   12  C14 UNL     1     -21.042   3.984   2.731  1.00  0.00     0.002 A 
HETATM   13  C15 UNL     1     -20.577   4.967   1.881  1.00  0.00     0.029 A 
ENDBRANCH   6   8
ENDBRANCH   3   4
ENDBRANCH   2   3
ENDBRANCH   1   2
BRANCH   1  14
HETATM   14  C5  UNL     1     -19.074   6.352  -2.382  1.00  0.00     0.000 C 
BRANCH  14  15
HETATM   15  C6  UNL     1     -20.103   5.431  -1.820  1.00  0.00     0.006 C 
BRANCH  15  16
HETATM   16  C7  UNL     1     -20.803   4.583  -2.818  1.00  0.00     0.078 C 
BRANCH  16  17
HETATM   17  C8  UNL     1     -21.439   3.344  -2.291  1.00  0.00     0.260 C 
BRANCH  17  18
HETATM   18  O2  UNL     1     -20.404   2.386  -2.160  1.00  0.00    -0.359 OA
ATOM     19  H2  UNL     1     -20.784   1.640  -1.711  1.00  0.00     0.213 HD
ENDBRANCH  17  18
BRANCH  17  20
HETATM   20  O3  UNL     1     -22.001   3.470  -1.038  1.00  0.00    -0.359 OA
ATOM     21  H3  UNL     1     -22.790   2.958  -0.902  1.00  0.00     0.213 HD
ENDBRANCH  17  20
BRANCH  17  22
HETATM   22  C9  UNL     1     -22.443   2.730  -3.237  1.00  0.00     0.444 C 
HETATM   23  F1  UNL     1     -22.533   3.580  -4.342  1.00  0.00    -0.166 F 
HETATM   24  F2  UNL     1     -23.687   2.714  -2.638  1.00  0.00    -0.166 F 
HETATM   25  F3  UNL     1     -22.095   1.488  -3.682  1.00  0.00    -0.166 F 
ENDBRANCH  17  22
ENDBRANCH  16  17
ENDBRANCH  15  16
ENDBRANCH  14  15
ENDBRANCH   1  14
TORSDOF 11
ENDMDL
