MODEL 3
REMARK VINA RESULT: -8.642847414      2.921      3.708
REMARK  11 active torsions:
REMARK  status: ('A' for Active; 'I' for Inactive)
REMARK    1  A    between atoms: C1_2  and  C2_3 
REMARK       I    between atoms: C1_2  and  N1_18 
REMARK    2  A    between atoms: C2_3  and  C3_4 
REMARK    3  A    between atoms: C3_4  and  C4_5 
REMARK    4  A    between atoms: C4_5  and  C5_6 
REMARK    5  A    between atoms: C5_6  and  C6_7 
REMARK    6  A    between atoms: C6_7  and  C7_8 
REMARK    7  A    between atoms: C7_8  and  C8_9 
REMARK    8  A    between atoms: C8_9  and  O2_10 
REMARK    9  A    between atoms: C8_9  and  O3_12 
REMARK   10  A    between atoms: C8_9  and  C9_14 
REMARK   11  A    between atoms: N1_18  and  C10_20 
ROOT
HETATM    1  C4  UNL     1     -20.848   5.319   3.465  1.00  0.00     0.000 C 
ENDROOT
BRANCH   1   2
HETATM    2  C3  UNL     1     -20.889   4.349   2.310  1.00  0.00     0.009 C 
BRANCH   2   3
HETATM    3  C2  UNL     1     -20.486   5.032   1.013  1.00  0.00     0.103 C 
BRANCH   3   4
HETATM    4  C1  UNL     1     -21.096   4.269  -0.150  1.00  0.00     0.222 C 
HETATM    5  O1  UNL     1     -22.234   3.768  -0.051  1.00  0.00    -0.273 OA
HETATM    6  N1  UNL     1     -20.362   4.131  -1.346  1.00  0.00    -0.327 N 
ATOM      7  H1  UNL     1     -19.437   4.559  -1.376  1.00  0.00     0.169 HD
BRANCH   6   8
HETATM    8  C10 UNL     1     -20.794   3.455  -2.501  1.00  0.00     0.034 A 
HETATM    9  C11 UNL     1     -21.752   3.848  -3.389  1.00  0.00     0.029 A 
HETATM   10  C12 UNL     1     -22.116   3.115  -4.508  1.00  0.00     0.002 A 
HETATM   11  C13 UNL     1     -21.506   1.922  -4.776  1.00  0.00     0.000 A 
HETATM   12  C14 UNL     1     -20.537   1.481  -3.917  1.00  0.00     0.002 A 
HETATM   13  C15 UNL     1     -20.191   2.228  -2.809  1.00  0.00     0.029 A 
ENDBRANCH   6   8
ENDBRANCH   3   4
ENDBRANCH   2   3
ENDBRANCH   1   2
BRANCH   1  14
HETATM   14  C5  UNL     1     -20.858   4.662   4.807  1.00  0.00     0.000 C 
BRANCH  14  15
HETATM   15  C6  UNL     1     -20.816   5.616   5.952  1.00  0.00     0.006 C 
BRANCH  15  16
HETATM   16  C7  UNL     1     -19.579   5.566   6.770  1.00  0.00     0.078 C 
BRANCH  16  17
HETATM   17  C8  UNL     1     -19.725   5.951   8.202  1.00  0.00     0.260 C 
BRANCH  17  18
HETATM   18  O2  UNL     1     -18.640   6.811   8.498  1.00  0.00    -0.359 OA
ATOM     19  H2  UNL     1     -18.094   6.349   9.124  1.00  0.00     0.213 HD
ENDBRANCH  17  18
BRANCH  17  20
HETATM   20  O3  UNL     1     -20.868   6.666   8.494  1.00  0.00    -0.359 OA
ATOM     21  H3  UNL     1     -20.844   7.133   9.321  1.00  0.00     0.213 HD
ENDBRANCH  17  20
BRANCH  17  22
HETATM   22  C9  UNL     1     -19.596   4.789   9.157  1.00  0.00     0.444 C 
HETATM   23  F1  UNL     1     -18.913   5.261  10.281  1.00  0.00    -0.166 F 
HETATM   24  F2  UNL     1     -18.805   3.812   8.586  1.00  0.00    -0.166 F 
HETATM   25  F3  UNL     1     -20.792   4.276   9.568  1.00  0.00    -0.166 F 
ENDBRANCH  17  22
ENDBRANCH  16  17
ENDBRANCH  15  16
ENDBRANCH  14  15
ENDBRANCH   1  14
TORSDOF 11
ENDMDL
