MODEL 7
REMARK VINA RESULT: -8.483821324      5.736      8.838
REMARK  11 active torsions:
REMARK  status: ('A' for Active; 'I' for Inactive)
REMARK    1  A    between atoms: C1_2  and  C2_3 
REMARK       I    between atoms: C1_2  and  N1_18 
REMARK    2  A    between atoms: C2_3  and  C3_4 
REMARK    3  A    between atoms: C3_4  and  C4_5 
REMARK    4  A    between atoms: C4_5  and  C5_6 
REMARK    5  A    between atoms: C5_6  and  C6_7 
REMARK    6  A    between atoms: C6_7  and  C7_8 
REMARK    7  A    between atoms: C7_8  and  C8_9 
REMARK    8  A    between atoms: C8_9  and  O2_10 
REMARK    9  A    between atoms: C8_9  and  O3_12 
REMARK   10  A    between atoms: C8_9  and  C9_14 
REMARK   11  A    between atoms: N1_18  and  C10_20 
ROOT
HETATM    1  C4  UNL     1     -19.347   7.756  -2.181  1.00  0.00     0.000 C 
ENDROOT
BRANCH   1   2
HETATM    2  C3  UNL     1     -18.799   8.191  -0.845  1.00  0.00     0.009 C 
BRANCH   2   3
HETATM    3  C2  UNL     1     -19.830   9.000  -0.073  1.00  0.00     0.103 C 
BRANCH   3   4
HETATM    4  C1  UNL     1     -20.375   8.146   1.057  1.00  0.00     0.222 C 
HETATM    5  O1  UNL     1     -21.368   8.521   1.711  1.00  0.00    -0.273 OA
HETATM    6  N1  UNL     1     -19.748   6.920   1.360  1.00  0.00    -0.327 N 
ATOM      7  H1  UNL     1     -18.940   6.659   0.796  1.00  0.00     0.169 HD
BRANCH   6   8
HETATM    8  C10 UNL     1     -20.138   6.027   2.375  1.00  0.00     0.034 A 
HETATM    9  C11 UNL     1     -20.793   4.838   2.234  1.00  0.00     0.029 A 
HETATM   10  C12 UNL     1     -21.140   4.017   3.294  1.00  0.00     0.002 A 
HETATM   11  C13 UNL     1     -20.827   4.379   4.575  1.00  0.00     0.000 A 
HETATM   12  C14 UNL     1     -20.169   5.561   4.773  1.00  0.00     0.002 A 
HETATM   13  C15 UNL     1     -19.834   6.364   3.701  1.00  0.00     0.029 A 
ENDBRANCH   6   8
ENDBRANCH   3   4
ENDBRANCH   2   3
ENDBRANCH   1   2
BRANCH   1  14
HETATM   14  C5  UNL     1     -19.123   6.310  -2.486  1.00  0.00     0.000 C 
BRANCH  14  15
HETATM   15  C6  UNL     1     -20.145   5.399  -1.896  1.00  0.00     0.006 C 
BRANCH  15  16
HETATM   16  C7  UNL     1     -20.884   4.562  -2.874  1.00  0.00     0.078 C 
BRANCH  16  17
HETATM   17  C8  UNL     1     -21.506   3.320  -2.335  1.00  0.00     0.260 C 
BRANCH  17  18
HETATM   18  O2  UNL     1     -20.465   2.368  -2.216  1.00  0.00    -0.359 OA
ATOM     19  H2  UNL     1     -19.928   2.458  -2.995  1.00  0.00     0.213 HD
ENDBRANCH  17  18
BRANCH  17  20
HETATM   20  O3  UNL     1     -22.050   3.447  -1.073  1.00  0.00    -0.359 OA
ATOM     21  H3  UNL     1     -22.909   3.853  -1.049  1.00  0.00     0.213 HD
ENDBRANCH  17  20
BRANCH  17  22
HETATM   22  C9  UNL     1     -22.521   2.699  -3.264  1.00  0.00     0.444 C 
HETATM   23  F1  UNL     1     -22.602   3.525  -4.389  1.00  0.00    -0.166 F 
HETATM   24  F2  UNL     1     -23.764   2.716  -2.662  1.00  0.00    -0.166 F 
HETATM   25  F3  UNL     1     -22.192   1.442  -3.680  1.00  0.00    -0.166 F 
ENDBRANCH  17  22
ENDBRANCH  16  17
ENDBRANCH  15  16
ENDBRANCH  14  15
ENDBRANCH   1  14
TORSDOF 11
ENDMDL
