MODEL 5
REMARK VINA RESULT: -8.509900112      4.533      8.037
REMARK  11 active torsions:
REMARK  status: ('A' for Active; 'I' for Inactive)
REMARK    1  A    between atoms: C1_2  and  C2_3 
REMARK       I    between atoms: C1_2  and  N1_18 
REMARK    2  A    between atoms: C2_3  and  C3_4 
REMARK    3  A    between atoms: C3_4  and  C4_5 
REMARK    4  A    between atoms: C4_5  and  C5_6 
REMARK    5  A    between atoms: C5_6  and  C6_7 
REMARK    6  A    between atoms: C6_7  and  C7_8 
REMARK    7  A    between atoms: C7_8  and  C8_9 
REMARK    8  A    between atoms: C8_9  and  O2_10 
REMARK    9  A    between atoms: C8_9  and  O3_12 
REMARK   10  A    between atoms: C8_9  and  C9_14 
REMARK   11  A    between atoms: N1_18  and  C10_20 
ROOT
HETATM    1  C4  UNL     1     -19.002   7.775  -2.166  1.00  0.00     0.000 C 
ENDROOT
BRANCH   1   2
HETATM    2  C3  UNL     1     -18.991   7.431  -0.697  1.00  0.00     0.009 C 
BRANCH   2   3
HETATM    3  C2  UNL     1     -19.681   8.512   0.119  1.00  0.00     0.103 C 
BRANCH   3   4
HETATM    4  C1  UNL     1     -20.160   7.906   1.426  1.00  0.00     0.222 C 
HETATM    5  O1  UNL     1     -21.087   8.438   2.069  1.00  0.00    -0.273 OA
HETATM    6  N1  UNL     1     -19.546   6.732   1.908  1.00  0.00    -0.327 N 
ATOM      7  H1  UNL     1     -18.794   6.336   1.345  1.00  0.00     0.169 HD
BRANCH   6   8
HETATM    8  C10 UNL     1     -19.881   6.059   3.098  1.00  0.00     0.034 A 
HETATM    9  C11 UNL     1     -19.436   6.326   4.360  1.00  0.00     0.029 A 
HETATM   10  C12 UNL     1     -19.820   5.608   5.481  1.00  0.00     0.002 A 
HETATM   11  C13 UNL     1     -20.694   4.564   5.363  1.00  0.00     0.000 A 
HETATM   12  C14 UNL     1     -21.172   4.254   4.119  1.00  0.00     0.002 A 
HETATM   13  C15 UNL     1     -20.775   4.983   3.016  1.00  0.00     0.029 A 
ENDBRANCH   6   8
ENDBRANCH   3   4
ENDBRANCH   2   3
ENDBRANCH   1   2
BRANCH   1  14
HETATM   14  C5  UNL     1     -19.414   6.642  -3.049  1.00  0.00     0.000 C 
BRANCH  14  15
HETATM   15  C6  UNL     1     -19.662   5.364  -2.323  1.00  0.00     0.006 C 
BRANCH  15  16
HETATM   16  C7  UNL     1     -20.873   4.619  -2.751  1.00  0.00     0.078 C 
BRANCH  16  17
HETATM   17  C8  UNL     1     -21.273   3.470  -1.892  1.00  0.00     0.260 C 
BRANCH  17  18
HETATM   18  O2  UNL     1     -22.499   2.988  -2.412  1.00  0.00    -0.359 OA
ATOM     19  H2  UNL     1     -23.127   3.028  -1.701  1.00  0.00     0.213 HD
ENDBRANCH  17  18
BRANCH  17  20
HETATM   20  O3  UNL     1     -20.403   2.399  -1.917  1.00  0.00    -0.359 OA
ATOM     21  H3  UNL     1     -20.324   1.971  -2.761  1.00  0.00     0.213 HD
ENDBRANCH  17  20
BRANCH  17  22
HETATM   22  C9  UNL     1     -21.561   3.856  -0.462  1.00  0.00     0.444 C 
HETATM   23  F1  UNL     1     -20.797   3.012   0.349  1.00  0.00    -0.166 F 
HETATM   24  F2  UNL     1     -22.887   3.597  -0.175  1.00  0.00    -0.166 F 
HETATM   25  F3  UNL     1     -21.236   5.146  -0.161  1.00  0.00    -0.166 F 
ENDBRANCH  17  22
ENDBRANCH  16  17
ENDBRANCH  15  16
ENDBRANCH  14  15
ENDBRANCH   1  14
TORSDOF 11
ENDMDL
