MODEL 4
REMARK VINA RESULT: -8.354289123      6.371     10.681
REMARK  11 active torsions:
REMARK  status: ('A' for Active; 'I' for Inactive)
REMARK    1  A    between atoms: C1_2  and  C2_3 
REMARK       I    between atoms: C1_2  and  N1_18 
REMARK    2  A    between atoms: C2_3  and  C3_4 
REMARK    3  A    between atoms: C3_4  and  C4_5 
REMARK    4  A    between atoms: C4_5  and  C5_6 
REMARK    5  A    between atoms: C5_6  and  C6_7 
REMARK    6  A    between atoms: C6_7  and  C7_8 
REMARK    7  A    between atoms: C7_8  and  C8_9 
REMARK    8  A    between atoms: C8_9  and  O2_10 
REMARK    9  A    between atoms: C8_9  and  O3_12 
REMARK   10  A    between atoms: C8_9  and  C9_14 
REMARK   11  A    between atoms: N1_18  and  C10_20 
ROOT
HETATM    1  C4  UNL     1      11.311  62.843  23.125  1.00  0.00     0.000 C 
ENDROOT
BRANCH   1   2
HETATM    2  C3  UNL     1      11.640  61.377  22.990  1.00  0.00     0.009 C 
BRANCH   2   3
HETATM    3  C2  UNL     1      10.527  60.516  23.568  1.00  0.00     0.103 C 
BRANCH   3   4
HETATM    4  C1  UNL     1      11.054  59.106  23.765  1.00  0.00     0.222 C 
HETATM    5  O1  UNL     1      11.663  58.798  24.809  1.00  0.00    -0.273 OA
HETATM    6  N1  UNL     1      10.848  58.145  22.755  1.00  0.00    -0.327 N 
ATOM      7  H1  UNL     1      10.344  58.446  21.921  1.00  0.00     0.169 HD
BRANCH   6   8
HETATM    8  C10 UNL     1      11.277  56.805  22.796  1.00  0.00     0.034 A 
HETATM    9  C11 UNL     1      10.511  55.680  22.697  1.00  0.00     0.029 A 
HETATM   10  C12 UNL     1      11.021  54.392  22.748  1.00  0.00     0.002 A 
HETATM   11  C13 UNL     1      12.363  54.190  22.905  1.00  0.00     0.000 A 
HETATM   12  C14 UNL     1      13.177  55.284  23.009  1.00  0.00     0.002 A 
HETATM   13  C15 UNL     1      12.647  56.558  22.956  1.00  0.00     0.029 A 
ENDBRANCH   6   8
ENDBRANCH   3   4
ENDBRANCH   2   3
ENDBRANCH   1   2
BRANCH   1  14
HETATM   14  C5  UNL     1       9.946  63.109  23.673  1.00  0.00     0.000 C 
BRANCH  14  15
HETATM   15  C6  UNL     1       9.652  64.552  23.900  1.00  0.00     0.006 C 
BRANCH  15  16
HETATM   16  C7  UNL     1       8.945  64.861  25.168  1.00  0.00     0.078 C 
BRANCH  16  17
HETATM   17  C8  UNL     1       7.478  65.099  25.058  1.00  0.00     0.260 C 
BRANCH  17  18
HETATM   18  O2  UNL     1       7.166  66.114  25.994  1.00  0.00    -0.359 OA
ATOM     19  H2  UNL     1       6.907  66.875  25.489  1.00  0.00     0.213 HD
ENDBRANCH  17  18
BRANCH  17  20
HETATM   20  O3  UNL     1       7.059  65.571  23.832  1.00  0.00    -0.359 OA
ATOM     21  H3  UNL     1       7.282  65.015  23.094  1.00  0.00     0.213 HD
ENDBRANCH  17  20
BRANCH  17  22
HETATM   22  C9  UNL     1       6.641  63.907  25.456  1.00  0.00     0.444 C 
HETATM   23  F1  UNL     1       5.467  64.407  26.026  1.00  0.00    -0.166 F 
HETATM   24  F2  UNL     1       7.296  63.194  26.440  1.00  0.00    -0.166 F 
HETATM   25  F3  UNL     1       6.297  63.100  24.410  1.00  0.00    -0.166 F 
ENDBRANCH  17  22
ENDBRANCH  16  17
ENDBRANCH  15  16
ENDBRANCH  14  15
ENDBRANCH   1  14
TORSDOF 11
ENDMDL
