MODEL 1
REMARK VINA RESULT: -9.033055251      0.000      0.000
REMARK  11 active torsions:
REMARK  status: ('A' for Active; 'I' for Inactive)
REMARK    1  A    between atoms: C1_2  and  C2_3 
REMARK       I    between atoms: C1_2  and  N1_18 
REMARK    2  A    between atoms: C2_3  and  C3_4 
REMARK    3  A    between atoms: C3_4  and  C4_5 
REMARK    4  A    between atoms: C4_5  and  C5_6 
REMARK    5  A    between atoms: C5_6  and  C6_7 
REMARK    6  A    between atoms: C6_7  and  C7_8 
REMARK    7  A    between atoms: C7_8  and  C8_9 
REMARK    8  A    between atoms: C8_9  and  O2_10 
REMARK    9  A    between atoms: C8_9  and  O3_12 
REMARK   10  A    between atoms: C8_9  and  C9_14 
REMARK   11  A    between atoms: N1_18  and  C10_20 
ROOT
HETATM    1  C4  UNL     1      10.927  55.599  22.003  1.00  0.00     0.000 C 
ENDROOT
BRANCH   1   2
HETATM    2  C3  UNL     1      10.933  56.707  23.025  1.00  0.00     0.009 C 
BRANCH   2   3
HETATM    3  C2  UNL     1      12.349  57.195  23.288  1.00  0.00     0.103 C 
BRANCH   3   4
HETATM    4  C1  UNL     1      12.309  58.689  23.556  1.00  0.00     0.222 C 
HETATM    5  O1  UNL     1      13.121  59.212  24.346  1.00  0.00    -0.273 OA
HETATM    6  N1  UNL     1      11.344  59.482  22.903  1.00  0.00    -0.327 N 
ATOM      7  H1  UNL     1      10.704  59.006  22.268  1.00  0.00     0.169 HD
BRANCH   6   8
HETATM    8  C10 UNL     1      11.186  60.872  23.052  1.00  0.00     0.034 A 
HETATM    9  C11 UNL     1      11.942  61.862  22.497  1.00  0.00     0.029 A 
HETATM   10  C12 UNL     1      11.713  63.214  22.698  1.00  0.00     0.002 A 
HETATM   11  C13 UNL     1      10.680  63.625  23.492  1.00  0.00     0.000 A 
HETATM   12  C14 UNL     1       9.889  62.673  24.074  1.00  0.00     0.002 A 
HETATM   13  C15 UNL     1      10.136  61.332  23.859  1.00  0.00     0.029 A 
ENDBRANCH   6   8
ENDBRANCH   3   4
ENDBRANCH   2   3
ENDBRANCH   1   2
BRANCH   1  14
HETATM   14  C5  UNL     1      12.198  54.813  21.954  1.00  0.00     0.000 C 
BRANCH  14  15
HETATM   15  C6  UNL     1      12.160  53.546  22.739  1.00  0.00     0.006 C 
BRANCH  15  16
HETATM   16  C7  UNL     1      13.478  53.065  23.224  1.00  0.00     0.078 C 
BRANCH  16  17
HETATM   17  C8  UNL     1      13.877  51.699  22.785  1.00  0.00     0.260 C 
BRANCH  17  18
HETATM   18  O2  UNL     1      12.746  50.869  22.976  1.00  0.00    -0.359 OA
ATOM     19  H2  UNL     1      12.609  50.408  22.157  1.00  0.00     0.213 HD
ENDBRANCH  17  18
BRANCH  17  20
HETATM   20  O3  UNL     1      14.204  51.593  21.448  1.00  0.00    -0.359 OA
ATOM     21  H3  UNL     1      15.000  51.107  21.271  1.00  0.00     0.213 HD
ENDBRANCH  17  20
BRANCH  17  22
HETATM   22  C9  UNL     1      14.975  51.090  23.624  1.00  0.00     0.444 C 
HETATM   23  F1  UNL     1      14.482  50.990  24.928  1.00  0.00    -0.166 F 
HETATM   24  F2  UNL     1      16.052  51.953  23.666  1.00  0.00    -0.166 F 
HETATM   25  F3  UNL     1      15.356  49.845  23.216  1.00  0.00    -0.166 F 
ENDBRANCH  17  22
ENDBRANCH  16  17
ENDBRANCH  15  16
ENDBRANCH  14  15
ENDBRANCH   1  14
TORSDOF 11
ENDMDL
