MODEL 3
REMARK VINA RESULT: -8.388566155      6.374     10.659
REMARK  11 active torsions:
REMARK  status: ('A' for Active; 'I' for Inactive)
REMARK    1  A    between atoms: C1_2  and  C2_3 
REMARK       I    between atoms: C1_2  and  N1_18 
REMARK    2  A    between atoms: C2_3  and  C3_4 
REMARK    3  A    between atoms: C3_4  and  C4_5 
REMARK    4  A    between atoms: C4_5  and  C5_6 
REMARK    5  A    between atoms: C5_6  and  C6_7 
REMARK    6  A    between atoms: C6_7  and  C7_8 
REMARK    7  A    between atoms: C7_8  and  C8_9 
REMARK    8  A    between atoms: C8_9  and  O2_10 
REMARK    9  A    between atoms: C8_9  and  O3_12 
REMARK   10  A    between atoms: C8_9  and  C9_14 
REMARK   11  A    between atoms: N1_18  and  C10_20 
ROOT
HETATM    1  C4  UNL     1      11.501  63.271  23.097  1.00  0.00     0.000 C 
ENDROOT
BRANCH   1   2
HETATM    2  C3  UNL     1      11.830  61.798  23.090  1.00  0.00     0.009 C 
BRANCH   2   3
HETATM    3  C2  UNL     1      10.660  60.979  23.612  1.00  0.00     0.103 C 
BRANCH   3   4
HETATM    4  C1  UNL     1      11.112  59.541  23.789  1.00  0.00     0.222 C 
HETATM    5  O1  UNL     1      11.423  59.109  24.916  1.00  0.00    -0.273 OA
HETATM    6  N1  UNL     1      11.176  58.695  22.663  1.00  0.00    -0.327 N 
ATOM      7  H1  UNL     1      10.911  59.096  21.764  1.00  0.00     0.169 HD
BRANCH   6   8
HETATM    8  C10 UNL     1      11.575  57.345  22.671  1.00  0.00     0.034 A 
HETATM    9  C11 UNL     1      12.728  56.819  23.177  1.00  0.00     0.029 A 
HETATM   10  C12 UNL     1      13.041  55.470  23.143  1.00  0.00     0.002 A 
HETATM   11  C13 UNL     1      12.174  54.577  22.578  1.00  0.00     0.000 A 
HETATM   12  C14 UNL     1      11.002  55.052  22.056  1.00  0.00     0.002 A 
HETATM   13  C15 UNL     1      10.711  56.400  22.101  1.00  0.00     0.029 A 
ENDBRANCH   6   8
ENDBRANCH   3   4
ENDBRANCH   2   3
ENDBRANCH   1   2
BRANCH   1  14
HETATM   14  C5  UNL     1      10.038  63.564  23.177  1.00  0.00     0.000 C 
BRANCH  14  15
HETATM   15  C6  UNL     1       9.711  64.855  23.846  1.00  0.00     0.006 C 
BRANCH  15  16
HETATM   16  C7  UNL     1       8.939  64.734  25.108  1.00  0.00     0.078 C 
BRANCH  16  17
HETATM   17  C8  UNL     1       7.494  65.086  25.027  1.00  0.00     0.260 C 
BRANCH  17  18
HETATM   18  O2  UNL     1       7.293  66.166  25.920  1.00  0.00    -0.359 OA
ATOM     19  H2  UNL     1       7.426  66.960  25.415  1.00  0.00     0.213 HD
ENDBRANCH  17  18
BRANCH  17  20
HETATM   20  O3  UNL     1       7.076  65.533  23.790  1.00  0.00    -0.359 OA
ATOM     21  H3  UNL     1       6.168  65.343  23.585  1.00  0.00     0.213 HD
ENDBRANCH  17  20
BRANCH  17  22
HETATM   22  C9  UNL     1       6.575  63.987  25.505  1.00  0.00     0.444 C 
HETATM   23  F1  UNL     1       7.281  63.257  26.465  1.00  0.00    -0.166 F 
HETATM   24  F2  UNL     1       6.308  63.125  24.460  1.00  0.00    -0.166 F 
HETATM   25  F3  UNL     1       5.422  64.441  26.076  1.00  0.00    -0.166 F 
ENDBRANCH  17  22
ENDBRANCH  16  17
ENDBRANCH  15  16
ENDBRANCH  14  15
ENDBRANCH   1  14
TORSDOF 11
ENDMDL
