MODEL 5
REMARK VINA RESULT: -8.306090671      6.409     10.573
REMARK  11 active torsions:
REMARK  status: ('A' for Active; 'I' for Inactive)
REMARK    1  A    between atoms: C1_2  and  C2_3 
REMARK       I    between atoms: C1_2  and  N1_18 
REMARK    2  A    between atoms: C2_3  and  C3_4 
REMARK    3  A    between atoms: C3_4  and  C4_5 
REMARK    4  A    between atoms: C4_5  and  C5_6 
REMARK    5  A    between atoms: C5_6  and  C6_7 
REMARK    6  A    between atoms: C6_7  and  C7_8 
REMARK    7  A    between atoms: C7_8  and  C8_9 
REMARK    8  A    between atoms: C8_9  and  O2_10 
REMARK    9  A    between atoms: C8_9  and  O3_12 
REMARK   10  A    between atoms: C8_9  and  C9_14 
REMARK   11  A    between atoms: N1_18  and  C10_20 
ROOT
HETATM    1  C4  UNL     1      10.055  61.592  23.520  1.00  0.00     0.000 C 
ENDROOT
BRANCH   1   2
HETATM    2  C3  UNL     1      11.459  61.762  22.996  1.00  0.00     0.009 C 
BRANCH   2   3
HETATM    3  C2  UNL     1      12.463  61.058  23.897  1.00  0.00     0.103 C 
BRANCH   3   4
HETATM    4  C1  UNL     1      12.077  59.594  24.007  1.00  0.00     0.222 C 
HETATM    5  O1  UNL     1      11.749  59.107  25.107  1.00  0.00    -0.273 OA
HETATM    6  N1  UNL     1      12.093  58.787  22.851  1.00  0.00    -0.327 N 
ATOM      7  H1  UNL     1      12.368  59.233  21.976  1.00  0.00     0.169 HD
BRANCH   6   8
HETATM    8  C10 UNL     1      11.763  57.420  22.798  1.00  0.00     0.034 A 
HETATM    9  C11 UNL     1      10.561  56.864  22.471  1.00  0.00     0.029 A 
HETATM   10  C12 UNL     1      10.323  55.499  22.445  1.00  0.00     0.002 A 
HETATM   11  C13 UNL     1      11.323  54.621  22.757  1.00  0.00     0.000 A 
HETATM   12  C14 UNL     1      12.549  55.126  23.092  1.00  0.00     0.002 A 
HETATM   13  C15 UNL     1      12.763  56.490  23.112  1.00  0.00     0.029 A 
ENDBRANCH   6   8
ENDBRANCH   3   4
ENDBRANCH   2   3
ENDBRANCH   1   2
BRANCH   1  14
HETATM   14  C5  UNL     1       9.742  62.452  24.702  1.00  0.00     0.000 C 
BRANCH  14  15
HETATM   15  C6  UNL     1       9.561  63.894  24.373  1.00  0.00     0.006 C 
BRANCH  15  16
HETATM   16  C7  UNL     1       8.905  64.705  25.431  1.00  0.00     0.078 C 
BRANCH  16  17
HETATM   17  C8  UNL     1       7.489  65.091  25.175  1.00  0.00     0.260 C 
BRANCH  17  18
HETATM   18  O2  UNL     1       7.213  66.188  26.028  1.00  0.00    -0.359 OA
ATOM     19  H2  UNL     1       6.342  66.044  26.377  1.00  0.00     0.213 HD
ENDBRANCH  17  18
BRANCH  17  20
HETATM   20  O3  UNL     1       7.232  65.533  23.894  1.00  0.00    -0.359 OA
ATOM     21  H3  UNL     1       6.338  65.812  23.741  1.00  0.00     0.213 HD
ENDBRANCH  17  20
BRANCH  17  22
HETATM   22  C9  UNL     1       6.492  64.022  25.552  1.00  0.00     0.444 C 
HETATM   23  F1  UNL     1       7.078  63.259  26.566  1.00  0.00    -0.166 F 
HETATM   24  F2  UNL     1       6.295  63.179  24.476  1.00  0.00    -0.166 F 
HETATM   25  F3  UNL     1       5.307  64.511  26.017  1.00  0.00    -0.166 F 
ENDBRANCH  17  22
ENDBRANCH  16  17
ENDBRANCH  15  16
ENDBRANCH  14  15
ENDBRANCH   1  14
TORSDOF 11
ENDMDL
