MODEL 6
REMARK VINA RESULT: -10.206923873      2.511      3.228
REMARK  9 active torsions:
REMARK  status: ('A' for Active; 'I' for Inactive)
REMARK       I    between atoms: C1_2  and  N1_3 
REMARK    1  A    between atoms: C1_2  and  C2_7 
REMARK    2  A    between atoms: N1_3  and  O2_5 
REMARK    3  A    between atoms: C2_7  and  C3_10 
REMARK    4  A    between atoms: C3_10  and  C4_13 
REMARK    5  A    between atoms: C4_13  and  C5_16 
REMARK    6  A    between atoms: C5_16  and  C6_19 
REMARK    7  A    between atoms: C6_19  and  C7_22 
REMARK    8  A    between atoms: C7_22  and  C8_25 
REMARK       I    between atoms: C8_25  and  N2_27 
REMARK    9  A    between atoms: N2_27  and  C9_29 
ROOT
HETATM    1  C5  UNL     1      57.580  10.512 -23.971  1.00  0.00     0.385 C 
HETATM    2  F7  UNL     1      57.566   9.152 -23.781  1.00  0.00    -0.192 F 
HETATM    3  F8  UNL     1      56.966  10.799 -25.160  1.00  0.00    -0.192 F 
ENDROOT
BRANCH   1   4
HETATM    4  C4  UNL     1      56.805  11.180 -22.825  1.00  0.00     0.385 C 
HETATM    5  F5  UNL     1      57.320  12.435 -22.672  1.00  0.00    -0.192 F 
HETATM    6  F6  UNL     1      56.981  10.365 -21.725  1.00  0.00    -0.192 F 
BRANCH   4   7
HETATM    7  C3  UNL     1      55.318  11.261 -23.183  1.00  0.00     0.387 C 
HETATM    8  F3  UNL     1      54.607  10.265 -22.577  1.00  0.00    -0.192 F 
HETATM    9  F4  UNL     1      55.174  11.240 -24.557  1.00  0.00    -0.192 F 
BRANCH   7  10
HETATM   10  C2  UNL     1      54.853  12.629 -22.718  1.00  0.00     0.394 C 
HETATM   11  F1  UNL     1      54.807  12.584 -21.339  1.00  0.00    -0.188 F 
HETATM   12  F2  UNL     1      55.809  13.546 -23.073  1.00  0.00    -0.188 F 
BRANCH  10  13
HETATM   13  C1  UNL     1      53.566  13.034 -23.312  1.00  0.00     0.320 C 
HETATM   14  O1  UNL     1      52.499  12.558 -22.871  1.00  0.00    -0.264 OA
HETATM   15  N1  UNL     1      53.516  13.957 -24.380  1.00  0.00    -0.232 N 
ATOM     16  H1  UNL     1      54.389  14.343 -24.739  1.00  0.00     0.197 HD
BRANCH  15  17
HETATM   17  O2  UNL     1      52.331  14.352 -24.951  1.00  0.00    -0.287 OA
ATOM     18  H2  UNL     1      52.089  15.267 -25.033  1.00  0.00     0.244 HD
ENDBRANCH  15  17
ENDBRANCH  10  13
ENDBRANCH   7  10
ENDBRANCH   4   7
ENDBRANCH   1   4
BRANCH   1  19
HETATM   19  C6  UNL     1      58.961  11.090 -23.928  1.00  0.00     0.387 C 
HETATM   20  F9  UNL     1      59.315  11.453 -22.625  1.00  0.00    -0.192 F 
HETATM   21  F10 UNL     1      59.917  10.115 -24.266  1.00  0.00    -0.192 F 
BRANCH  19  22
HETATM   22  C7  UNL     1      59.207  12.244 -24.837  1.00  0.00     0.393 C 
HETATM   23  F11 UNL     1      58.080  12.990 -25.083  1.00  0.00    -0.188 F 
HETATM   24  F12 UNL     1      59.635  11.655 -26.065  1.00  0.00    -0.188 F 
BRANCH  22  25
HETATM   25  C8  UNL     1      60.347  13.107 -24.464  1.00  0.00     0.301 C 
HETATM   26  O3  UNL     1      60.156  14.329 -24.343  1.00  0.00    -0.266 OA
HETATM   27  N2  UNL     1      61.637  12.554 -24.245  1.00  0.00    -0.322 N 
ATOM     28  H2  UNL     1      61.726  11.544 -24.357  1.00  0.00     0.169 HD
BRANCH  27  29
HETATM   29  C9  UNL     1      62.802  13.254 -23.888  1.00  0.00     0.034 A 
HETATM   30  C10 UNL     1      63.014  13.869 -22.694  1.00  0.00     0.029 A 
HETATM   31  C11 UNL     1      64.211  14.525 -22.454  1.00  0.00     0.002 A 
HETATM   32  C12 UNL     1      65.193  14.561 -23.408  1.00  0.00     0.000 A 
HETATM   33  C13 UNL     1      64.991  13.942 -24.623  1.00  0.00     0.002 A 
HETATM   34  C14 UNL     1      63.813  13.303 -24.847  1.00  0.00     0.029 A 
ENDBRANCH  27  29
ENDBRANCH  22  25
ENDBRANCH  19  22
ENDBRANCH   1  19
TORSDOF 9
ENDMDL
