MODEL 5
REMARK VINA RESULT: -10.264482126      2.535      3.389
REMARK  9 active torsions:
REMARK  status: ('A' for Active; 'I' for Inactive)
REMARK       I    between atoms: C1_2  and  N1_3 
REMARK    1  A    between atoms: C1_2  and  C2_7 
REMARK    2  A    between atoms: N1_3  and  O2_5 
REMARK    3  A    between atoms: C2_7  and  C3_10 
REMARK    4  A    between atoms: C3_10  and  C4_13 
REMARK    5  A    between atoms: C4_13  and  C5_16 
REMARK    6  A    between atoms: C5_16  and  C6_19 
REMARK    7  A    between atoms: C6_19  and  C7_22 
REMARK    8  A    between atoms: C7_22  and  C8_25 
REMARK       I    between atoms: C8_25  and  N2_27 
REMARK    9  A    between atoms: N2_27  and  C9_29 
ROOT
HETATM    1  C5  UNL     1      57.585  12.271 -23.806  1.00  0.00     0.385 C 
HETATM    2  F7  UNL     1      57.250  12.646 -25.084  1.00  0.00    -0.192 F 
HETATM    3  F8  UNL     1      57.917  13.390 -23.090  1.00  0.00    -0.192 F 
ENDROOT
BRANCH   1   4
HETATM    4  C4  UNL     1      56.371  11.593 -23.153  1.00  0.00     0.385 C 
HETATM    5  F5  UNL     1      56.830  10.920 -22.058  1.00  0.00    -0.192 F 
HETATM    6  F6  UNL     1      55.828  10.776 -24.125  1.00  0.00    -0.192 F 
BRANCH   4   7
HETATM    7  C3  UNL     1      55.349  12.653 -22.731  1.00  0.00     0.387 C 
HETATM    8  F3  UNL     1      55.787  13.912 -23.030  1.00  0.00    -0.192 F 
HETATM    9  F4  UNL     1      55.067  12.508 -21.386  1.00  0.00    -0.192 F 
BRANCH   7  10
HETATM   10  C2  UNL     1      54.073  12.322 -23.481  1.00  0.00     0.394 C 
HETATM   11  F1  UNL     1      54.427  12.142 -24.803  1.00  0.00    -0.188 F 
HETATM   12  F2  UNL     1      53.602  11.123 -23.010  1.00  0.00    -0.188 F 
BRANCH  10  13
HETATM   13  C1  UNL     1      53.023  13.342 -23.312  1.00  0.00     0.320 C 
HETATM   14  O1  UNL     1      52.370  13.394 -22.249  1.00  0.00    -0.264 OA
HETATM   15  N1  UNL     1      52.737  14.270 -24.338  1.00  0.00    -0.232 N 
ATOM     16  H1  UNL     1      53.271  14.224 -25.206  1.00  0.00     0.197 HD
BRANCH  15  17
HETATM   17  O2  UNL     1      51.765  15.230 -24.207  1.00  0.00    -0.287 OA
ATOM     18  H2  UNL     1      51.662  15.936 -24.834  1.00  0.00     0.244 HD
ENDBRANCH  15  17
ENDBRANCH  10  13
ENDBRANCH   7  10
ENDBRANCH   4   7
ENDBRANCH   1   4
BRANCH   1  19
HETATM   19  C6  UNL     1      58.691  11.263 -23.769  1.00  0.00     0.387 C 
HETATM   20  F9  UNL     1      59.274  11.200 -22.499  1.00  0.00    -0.192 F 
HETATM   21  F10 UNL     1      58.185   9.964 -23.960  1.00  0.00    -0.192 F 
BRANCH  19  22
HETATM   22  C7  UNL     1      59.764  11.442 -24.787  1.00  0.00     0.393 C 
HETATM   23  F11 UNL     1      59.371  11.092 -26.056  1.00  0.00    -0.188 F 
HETATM   24  F12 UNL     1      60.806  10.557 -24.378  1.00  0.00    -0.188 F 
BRANCH  22  25
HETATM   25  C8  UNL     1      60.424  12.764 -24.779  1.00  0.00     0.301 C 
HETATM   26  O3  UNL     1      60.030  13.633 -25.576  1.00  0.00    -0.266 OA
HETATM   27  N2  UNL     1      61.487  13.041 -23.879  1.00  0.00    -0.322 N 
ATOM     28  H2  UNL     1      61.761  12.286 -23.249  1.00  0.00     0.169 HD
BRANCH  27  29
HETATM   29  C9  UNL     1      62.200  14.246 -23.766  1.00  0.00     0.034 A 
HETATM   30  C10 UNL     1      61.657  15.454 -23.457  1.00  0.00     0.029 A 
HETATM   31  C11 UNL     1      62.465  16.576 -23.365  1.00  0.00     0.002 A 
HETATM   32  C12 UNL     1      63.814  16.486 -23.581  1.00  0.00     0.000 A 
HETATM   33  C13 UNL     1      64.378  15.268 -23.896  1.00  0.00     0.002 A 
HETATM   34  C14 UNL     1      63.576  14.176 -23.983  1.00  0.00     0.029 A 
ENDBRANCH  27  29
ENDBRANCH  22  25
ENDBRANCH  19  22
ENDBRANCH   1  19
TORSDOF 9
ENDMDL
