MODEL 2
REMARK VINA RESULT: -10.340906940      2.420      3.482
REMARK  9 active torsions:
REMARK  status: ('A' for Active; 'I' for Inactive)
REMARK       I    between atoms: C1_2  and  N1_3 
REMARK    1  A    between atoms: C1_2  and  C2_7 
REMARK    2  A    between atoms: N1_3  and  O2_5 
REMARK    3  A    between atoms: C2_7  and  C3_10 
REMARK    4  A    between atoms: C3_10  and  C4_13 
REMARK    5  A    between atoms: C4_13  and  C5_16 
REMARK    6  A    between atoms: C5_16  and  C6_19 
REMARK    7  A    between atoms: C6_19  and  C7_22 
REMARK    8  A    between atoms: C7_22  and  C8_25 
REMARK       I    between atoms: C8_25  and  N2_27 
REMARK    9  A    between atoms: N2_27  and  C9_29 
ROOT
HETATM    1  C5  UNL     1      57.524  12.250 -23.796  1.00  0.00     0.385 C 
HETATM    2  F7  UNL     1      57.381  12.656 -25.100  1.00  0.00    -0.192 F 
HETATM    3  F8  UNL     1      57.834  13.338 -23.026  1.00  0.00    -0.192 F 
ENDROOT
BRANCH   1   4
HETATM    4  C4  UNL     1      56.193  11.652 -23.315  1.00  0.00     0.385 C 
HETATM    5  F5  UNL     1      56.480  10.832 -22.262  1.00  0.00    -0.192 F 
HETATM    6  F6  UNL     1      55.659  10.994 -24.405  1.00  0.00    -0.192 F 
BRANCH   4   7
HETATM    7  C3  UNL     1      55.251  12.774 -22.868  1.00  0.00     0.387 C 
HETATM    8  F3  UNL     1      55.734  14.000 -23.226  1.00  0.00    -0.192 F 
HETATM    9  F4  UNL     1      55.036  12.678 -21.507  1.00  0.00    -0.192 F 
BRANCH   7  10
HETATM   10  C2  UNL     1      53.920  12.490 -23.539  1.00  0.00     0.394 C 
HETATM   11  F1  UNL     1      54.176  12.368 -24.890  1.00  0.00    -0.188 F 
HETATM   12  F2  UNL     1      53.468  11.275 -23.090  1.00  0.00    -0.188 F 
BRANCH  10  13
HETATM   13  C1  UNL     1      52.897  13.511 -23.249  1.00  0.00     0.320 C 
HETATM   14  O1  UNL     1      52.338  13.534 -22.134  1.00  0.00    -0.264 OA
HETATM   15  N1  UNL     1      52.535  14.474 -24.218  1.00  0.00    -0.232 N 
ATOM     16  H1  UNL     1      52.993  14.453 -25.129  1.00  0.00     0.197 HD
BRANCH  15  17
HETATM   17  O2  UNL     1      51.587  15.437 -23.974  1.00  0.00    -0.287 OA
ATOM     18  H2  UNL     1      51.654  16.039 -23.242  1.00  0.00     0.244 HD
ENDBRANCH  15  17
ENDBRANCH  10  13
ENDBRANCH   7  10
ENDBRANCH   4   7
ENDBRANCH   1   4
BRANCH   1  19
HETATM   19  C6  UNL     1      58.546  11.168 -23.633  1.00  0.00     0.387 C 
HETATM   20  F9  UNL     1      58.930  11.034 -22.295  1.00  0.00    -0.192 F 
HETATM   21  F10 UNL     1      57.992   9.912 -23.941  1.00  0.00    -0.192 F 
BRANCH  19  22
HETATM   22  C7  UNL     1      59.766  11.300 -24.478  1.00  0.00     0.393 C 
HETATM   23  F11 UNL     1      59.487  11.578 -25.793  1.00  0.00    -0.188 F 
HETATM   24  F12 UNL     1      60.395  10.021 -24.411  1.00  0.00    -0.188 F 
BRANCH  22  25
HETATM   25  C8  UNL     1      60.803  12.211 -23.947  1.00  0.00     0.301 C 
HETATM   26  O3  UNL     1      61.620  11.769 -23.121  1.00  0.00    -0.266 OA
HETATM   27  N2  UNL     1      60.867  13.564 -24.372  1.00  0.00    -0.322 N 
ATOM     28  H2  UNL     1      60.169  13.864 -25.053  1.00  0.00     0.169 HD
BRANCH  27  29
HETATM   29  C9  UNL     1      61.793  14.534 -23.951  1.00  0.00     0.034 A 
HETATM   30  C10 UNL     1      63.132  14.337 -23.823  1.00  0.00     0.029 A 
HETATM   31  C11 UNL     1      63.950  15.375 -23.406  1.00  0.00     0.002 A 
HETATM   32  C12 UNL     1      63.425  16.607 -23.119  1.00  0.00     0.000 A 
HETATM   33  C13 UNL     1      62.069  16.820 -23.244  1.00  0.00     0.002 A 
HETATM   34  C14 UNL     1      61.278  15.795 -23.653  1.00  0.00     0.029 A 
ENDBRANCH  27  29
ENDBRANCH  22  25
ENDBRANCH  19  22
ENDBRANCH   1  19
TORSDOF 9
ENDMDL
