MODEL 9
REMARK VINA RESULT: -10.059671606      2.293      2.849
REMARK  9 active torsions:
REMARK  status: ('A' for Active; 'I' for Inactive)
REMARK       I    between atoms: C1_2  and  N1_3 
REMARK    1  A    between atoms: C1_2  and  C2_7 
REMARK    2  A    between atoms: N1_3  and  O2_5 
REMARK    3  A    between atoms: C2_7  and  C3_10 
REMARK    4  A    between atoms: C3_10  and  C4_13 
REMARK    5  A    between atoms: C4_13  and  C5_16 
REMARK    6  A    between atoms: C5_16  and  C6_19 
REMARK    7  A    between atoms: C6_19  and  C7_22 
REMARK    8  A    between atoms: C7_22  and  C8_25 
REMARK       I    between atoms: C8_25  and  N2_27 
REMARK    9  A    between atoms: N2_27  and  C9_29 
ROOT
HETATM    1  C5  UNL     1      57.655  12.239 -23.799  1.00  0.00     0.385 C 
HETATM    2  F7  UNL     1      57.384  12.646 -25.082  1.00  0.00    -0.192 F 
HETATM    3  F8  UNL     1      57.973  13.336 -23.045  1.00  0.00    -0.192 F 
ENDROOT
BRANCH   1   4
HETATM    4  C4  UNL     1      56.401  11.569 -23.216  1.00  0.00     0.385 C 
HETATM    5  F5  UNL     1      56.803  10.841 -22.134  1.00  0.00    -0.192 F 
HETATM    6  F6  UNL     1      55.871  10.807 -24.237  1.00  0.00    -0.192 F 
BRANCH   4   7
HETATM    7  C3  UNL     1      55.393  12.640 -22.786  1.00  0.00     0.387 C 
HETATM    8  F3  UNL     1      55.839  13.893 -23.094  1.00  0.00    -0.192 F 
HETATM    9  F4  UNL     1      55.124  12.502 -21.438  1.00  0.00    -0.192 F 
BRANCH   7  10
HETATM   10  C2  UNL     1      54.106  12.317 -23.522  1.00  0.00     0.394 C 
HETATM   11  F1  UNL     1      54.440  12.155 -24.851  1.00  0.00    -0.188 F 
HETATM   12  F2  UNL     1      53.642  11.112 -23.059  1.00  0.00    -0.188 F 
BRANCH  10  13
HETATM   13  C1  UNL     1      53.058  13.335 -23.324  1.00  0.00     0.320 C 
HETATM   14  O1  UNL     1      52.429  13.381 -22.247  1.00  0.00    -0.264 OA
HETATM   15  N1  UNL     1      52.747  14.266 -24.341  1.00  0.00    -0.232 N 
ATOM     16  H1  UNL     1      53.261  14.225 -25.220  1.00  0.00     0.197 HD
BRANCH  15  17
HETATM   17  O2  UNL     1      51.776  15.224 -24.183  1.00  0.00    -0.287 OA
ATOM     18  H2  UNL     1      51.177  15.221 -23.446  1.00  0.00     0.244 HD
ENDBRANCH  15  17
ENDBRANCH  10  13
ENDBRANCH   7  10
ENDBRANCH   4   7
ENDBRANCH   1   4
BRANCH   1  19
HETATM   19  C6  UNL     1      58.741  11.210 -23.733  1.00  0.00     0.387 C 
HETATM   20  F9  UNL     1      59.317  11.165 -22.460  1.00  0.00    -0.192 F 
HETATM   21  F10 UNL     1      58.210   9.918 -23.897  1.00  0.00    -0.192 F 
BRANCH  19  22
HETATM   22  C7  UNL     1      59.821  11.345 -24.751  1.00  0.00     0.393 C 
HETATM   23  F11 UNL     1      59.351  11.358 -26.041  1.00  0.00    -0.188 F 
HETATM   24  F12 UNL     1      60.631  10.183 -24.578  1.00  0.00    -0.188 F 
BRANCH  22  25
HETATM   25  C8  UNL     1      60.770  12.454 -24.517  1.00  0.00     0.301 C 
HETATM   26  O3  UNL     1      60.428  13.608 -24.828  1.00  0.00    -0.266 OA
HETATM   27  N2  UNL     1      62.048  12.209 -23.947  1.00  0.00    -0.322 N 
ATOM     28  H2  UNL     1      62.266  11.241 -23.712  1.00  0.00     0.169 HD
BRANCH  27  29
HETATM   29  C9  UNL     1      63.042  13.163 -23.674  1.00  0.00     0.034 A 
HETATM   30  C10 UNL     1      63.959  13.621 -24.568  1.00  0.00     0.029 A 
HETATM   31  C11 UNL     1      64.890  14.573 -24.183  1.00  0.00     0.002 A 
HETATM   32  C12 UNL     1      64.899  15.065 -22.905  1.00  0.00     0.000 A 
HETATM   33  C13 UNL     1      63.976  14.610 -21.988  1.00  0.00     0.002 A 
HETATM   34  C14 UNL     1      63.069  13.676 -22.377  1.00  0.00     0.029 A 
ENDBRANCH  27  29
ENDBRANCH  22  25
ENDBRANCH  19  22
ENDBRANCH   1  19
TORSDOF 9
ENDMDL
