MODEL 3
REMARK VINA RESULT: -8.808932828      2.065      5.241
REMARK  6 active torsions:
REMARK  status: ('A' for Active; 'I' for Inactive)
REMARK    1  A    between atoms: C1_2  and  C2_4 
REMARK    2  A    between atoms: C2_4  and  C3_5 
REMARK    3  A    between atoms: C3_5  and  N1_6 
REMARK    4  A    between atoms: C3_5  and  C6_15 
REMARK       I    between atoms: N1_6  and  C4_8 
REMARK    5  A    between atoms: C4_8  and  C5_10 
REMARK    6  A    between atoms: C5_10  and  P1_11 
ROOT
HETATM    1  N1  UNL     1     -81.263 -45.795 109.881  1.00  0.00    -0.345 N 
ATOM      2  H1  UNL     1     -81.628 -46.298 109.073  1.00  0.00     0.163 HD
HETATM    3  C4  UNL     1     -81.458 -46.343 111.175  1.00  0.00     0.231 C 
HETATM    4  O3  UNL     1     -81.009 -45.722 112.169  1.00  0.00    -0.273 OA
ENDROOT
BRANCH   1   5
HETATM    5  C3  UNL     1     -80.547 -44.520 109.667  1.00  0.00     0.195 C 
BRANCH   5   6
HETATM    6  C2  UNL     1     -79.910 -44.582 108.329  1.00  0.00     0.149 C 
BRANCH   6   7
HETATM    7  C1  UNL     1     -78.524 -44.098 108.252  1.00  0.00     0.175 C 
HETATM    8  O1  UNL     1     -77.981 -44.133 107.094  1.00  0.00    -0.648 OA
HETATM    9  O2  UNL     1     -77.774 -43.621 109.303  1.00  0.00    -0.648 OA
ENDBRANCH   6   7
ENDBRANCH   5   6
BRANCH   5  10
HETATM   10  C6  UNL     1     -81.539 -43.412 109.829  1.00  0.00     0.197 C 
HETATM   11  O7  UNL     1     -81.126 -42.251 110.052  1.00  0.00    -0.646 OA
HETATM   12  O8  UNL     1     -82.893 -43.606 109.743  1.00  0.00    -0.646 OA
ENDBRANCH   5  10
ENDBRANCH   1   5
BRANCH   3  13
HETATM   13  C5  UNL     1     -82.186 -47.623 111.304  1.00  0.00     0.248 C 
BRANCH  13  14
HETATM   14  P1  UNL     1     -83.569 -47.738 110.148  1.00  0.00     0.268 P 
HETATM   15  O4  UNL     1     -83.878 -46.392 109.529  1.00  0.00    -0.639 OA
HETATM   16  O5  UNL     1     -83.128 -48.781 108.896  1.00  0.00    -0.639 OA
HETATM   17  O6  UNL     1     -84.919 -48.367 110.911  1.00  0.00    -0.639 OA
ENDBRANCH  13  14
ENDBRANCH   3  13
TORSDOF 6
ENDMDL
