MODEL 2
REMARK VINA RESULT: -9.101025646      0.704      1.570
REMARK  6 active torsions:
REMARK  status: ('A' for Active; 'I' for Inactive)
REMARK    1  A    between atoms: C1_2  and  C2_4 
REMARK    2  A    between atoms: C2_4  and  C3_5 
REMARK    3  A    between atoms: C3_5  and  N1_6 
REMARK    4  A    between atoms: C3_5  and  C6_15 
REMARK       I    between atoms: N1_6  and  C4_8 
REMARK    5  A    between atoms: C4_8  and  C5_10 
REMARK    6  A    between atoms: C5_10  and  P1_11 
ROOT
HETATM    1  N1  UNL     1     -81.831 -45.407 109.556  1.00  0.00    -0.345 N 
ATOM      2  H1  UNL     1     -81.287 -46.054 108.986  1.00  0.00     0.163 HD
HETATM    3  C4  UNL     1     -81.613 -44.014 109.407  1.00  0.00     0.231 C 
HETATM    4  O3  UNL     1     -82.283 -43.217 110.110  1.00  0.00    -0.273 OA
ENDROOT
BRANCH   1   5
HETATM    5  C3  UNL     1     -82.821 -45.951 110.510  1.00  0.00     0.195 C 
BRANCH   5   6
HETATM    6  C2  UNL     1     -83.613 -46.981 109.796  1.00  0.00     0.149 C 
BRANCH   6   7
HETATM    7  C1  UNL     1     -82.841 -47.998 109.067  1.00  0.00     0.175 C 
HETATM    8  O1  UNL     1     -83.500 -48.715 108.237  1.00  0.00    -0.648 OA
HETATM    9  O2  UNL     1     -81.493 -48.239 109.202  1.00  0.00    -0.648 OA
ENDBRANCH   6   7
ENDBRANCH   5   6
BRANCH   5  10
HETATM   10  C6  UNL     1     -82.070 -46.461 111.699  1.00  0.00     0.197 C 
HETATM   11  O7  UNL     1     -81.057 -45.842 112.094  1.00  0.00    -0.646 OA
HETATM   12  O8  UNL     1     -82.443 -47.587 112.386  1.00  0.00    -0.646 OA
ENDBRANCH   5  10
ENDBRANCH   1   5
BRANCH   3  13
HETATM   13  C5  UNL     1     -80.603 -43.550 108.431  1.00  0.00     0.248 C 
BRANCH  13  14
HETATM   14  P1  UNL     1     -79.058 -44.477 108.561  1.00  0.00     0.268 P 
HETATM   15  O4  UNL     1     -78.981 -45.232 109.871  1.00  0.00    -0.639 OA
HETATM   16  O5  UNL     1     -79.017 -45.618 107.318  1.00  0.00    -0.639 OA
HETATM   17  O6  UNL     1     -77.746 -43.454 108.386  1.00  0.00    -0.639 OA
ENDBRANCH  13  14
ENDBRANCH   3  13
TORSDOF 6
ENDMDL
