MODEL 9
REMARK VINA RESULT: -8.509918117      1.227      2.009
REMARK  6 active torsions:
REMARK  status: ('A' for Active; 'I' for Inactive)
REMARK    1  A    between atoms: C1_2  and  C2_4 
REMARK    2  A    between atoms: C2_4  and  C3_5 
REMARK    3  A    between atoms: C3_5  and  N1_6 
REMARK    4  A    between atoms: C3_5  and  C6_15 
REMARK       I    between atoms: N1_6  and  C4_8 
REMARK    5  A    between atoms: C4_8  and  C5_10 
REMARK    6  A    between atoms: C5_10  and  P1_11 
ROOT
HETATM    1  N1  UNL     1     -81.698 -45.489 109.538  1.00  0.00    -0.345 N 
ATOM      2  H1  UNL     1     -81.004 -46.041 109.034  1.00  0.00     0.163 HD
HETATM    3  C4  UNL     1     -81.661 -44.076 109.429  1.00  0.00     0.231 C 
HETATM    4  O3  UNL     1     -82.516 -43.397 110.050  1.00  0.00    -0.273 OA
ENDROOT
BRANCH   1   5
HETATM    5  C3  UNL     1     -82.711 -46.188 110.357  1.00  0.00     0.195 C 
BRANCH   5   6
HETATM    6  C2  UNL     1     -83.217 -47.335 109.564  1.00  0.00     0.149 C 
BRANCH   6   7
HETATM    7  C1  UNL     1     -84.642 -47.654 109.728  1.00  0.00     0.175 C 
HETATM    8  O1  UNL     1     -85.177 -48.334 108.786  1.00  0.00    -0.648 OA
HETATM    9  O2  UNL     1     -85.435 -47.288 110.792  1.00  0.00    -0.648 OA
ENDBRANCH   6   7
ENDBRANCH   5   6
BRANCH   5  10
HETATM   10  C6  UNL     1     -82.064 -46.568 111.650  1.00  0.00     0.197 C 
HETATM   11  O7  UNL     1     -81.259 -45.774 112.188  1.00  0.00    -0.646 OA
HETATM   12  O8  UNL     1     -82.311 -47.758 112.285  1.00  0.00    -0.646 OA
ENDBRANCH   5  10
ENDBRANCH   1   5
BRANCH   3  13
HETATM   13  C5  UNL     1     -80.614 -43.453 108.590  1.00  0.00     0.248 C 
BRANCH  13  14
HETATM   14  P1  UNL     1     -79.081 -44.408 108.597  1.00  0.00     0.268 P 
HETATM   15  O4  UNL     1     -78.914 -45.167 109.896  1.00  0.00    -0.639 OA
HETATM   16  O5  UNL     1     -79.160 -45.547 107.353  1.00  0.00    -0.639 OA
HETATM   17  O6  UNL     1     -77.769 -43.409 108.318  1.00  0.00    -0.639 OA
ENDBRANCH  13  14
ENDBRANCH   3  13
TORSDOF 6
ENDMDL
