MODEL 1
REMARK VINA RESULT: -9.120983374      0.000      0.000
REMARK  6 active torsions:
REMARK  status: ('A' for Active; 'I' for Inactive)
REMARK    1  A    between atoms: C1_2  and  C2_4 
REMARK    2  A    between atoms: C2_4  and  C3_5 
REMARK    3  A    between atoms: C3_5  and  N1_6 
REMARK    4  A    between atoms: C3_5  and  C6_15 
REMARK       I    between atoms: N1_6  and  C4_8 
REMARK    5  A    between atoms: C4_8  and  C5_10 
REMARK    6  A    between atoms: C5_10  and  P1_11 
ROOT
HETATM    1  N1  UNL     1     -81.704 -45.215 109.371  1.00  0.00    -0.345 N 
ATOM      2  H1  UNL     1     -81.355 -45.831 108.637  1.00  0.00     0.163 HD
HETATM    3  C4  UNL     1     -81.320 -43.850 109.360  1.00  0.00     0.231 C 
HETATM    4  O3  UNL     1     -81.749 -43.093 110.265  1.00  0.00    -0.273 OA
ENDROOT
BRANCH   1   5
HETATM    5  C3  UNL     1     -82.593 -45.774 110.412  1.00  0.00     0.195 C 
BRANCH   5   6
HETATM    6  C2  UNL     1     -83.510 -46.733 109.751  1.00  0.00     0.149 C 
BRANCH   6   7
HETATM    7  C1  UNL     1     -82.880 -47.911 109.138  1.00  0.00     0.175 C 
HETATM    8  O1  UNL     1     -83.673 -48.748 108.585  1.00  0.00    -0.648 OA
HETATM    9  O2  UNL     1     -81.531 -48.185 109.112  1.00  0.00    -0.648 OA
ENDBRANCH   6   7
ENDBRANCH   5   6
BRANCH   5  10
HETATM   10  C6  UNL     1     -81.726 -46.377 111.471  1.00  0.00     0.197 C 
HETATM   11  O7  UNL     1     -82.256 -47.041 112.391  1.00  0.00    -0.646 OA
HETATM   12  O8  UNL     1     -80.362 -46.237 111.485  1.00  0.00    -0.646 OA
ENDBRANCH   5  10
ENDBRANCH   1   5
BRANCH   3  13
HETATM   13  C5  UNL     1     -80.426 -43.370 108.284  1.00  0.00     0.248 C 
BRANCH  13  14
HETATM   14  P1  UNL     1     -78.896 -44.324 108.196  1.00  0.00     0.268 P 
HETATM   15  O4  UNL     1     -78.066 -43.919 106.997  1.00  0.00    -0.639 OA
HETATM   16  O5  UNL     1     -77.983 -43.993 109.577  1.00  0.00    -0.639 OA
HETATM   17  O6  UNL     1     -79.230 -45.963 108.162  1.00  0.00    -0.639 OA
ENDBRANCH  13  14
ENDBRANCH   3  13
TORSDOF 6
ENDMDL
