MODEL 13
REMARK VINA RESULT: -8.052219625      2.320      5.447
REMARK  6 active torsions:
REMARK  status: ('A' for Active; 'I' for Inactive)
REMARK    1  A    between atoms: C1_2  and  C2_4 
REMARK    2  A    between atoms: C2_4  and  C3_5 
REMARK    3  A    between atoms: C3_5  and  N1_6 
REMARK    4  A    between atoms: C3_5  and  C6_15 
REMARK       I    between atoms: N1_6  and  C4_8 
REMARK    5  A    between atoms: C4_8  and  C5_10 
REMARK    6  A    between atoms: C5_10  and  P1_11 
ROOT
HETATM    1  N1  UNL     1     -81.447 -45.531 109.567  1.00  0.00    -0.345 N 
ATOM      2  H1  UNL     1     -82.244 -45.640 108.940  1.00  0.00     0.163 HD
HETATM    3  C4  UNL     1     -81.182 -46.546 110.521  1.00  0.00     0.231 C 
HETATM    4  O3  UNL     1     -80.201 -46.411 111.293  1.00  0.00    -0.273 OA
ENDROOT
BRANCH   1   5
HETATM    5  C3  UNL     1     -80.605 -44.322 109.450  1.00  0.00     0.195 C 
BRANCH   5   6
HETATM    6  C2  UNL     1     -79.911 -44.381 108.141  1.00  0.00     0.149 C 
BRANCH   6   7
HETATM    7  C1  UNL     1     -78.474 -44.075 108.158  1.00  0.00     0.175 C 
HETATM    8  O1  UNL     1     -77.853 -44.233 107.051  1.00  0.00    -0.648 OA
HETATM    9  O2  UNL     1     -77.752 -43.642 109.248  1.00  0.00    -0.648 OA
ENDBRANCH   6   7
ENDBRANCH   5   6
BRANCH   5  10
HETATM   10  C6  UNL     1     -81.494 -43.132 109.626  1.00  0.00     0.197 C 
HETATM   11  O7  UNL     1     -82.601 -43.275 110.193  1.00  0.00    -0.646 OA
HETATM   12  O8  UNL     1     -81.153 -41.877 109.192  1.00  0.00    -0.646 OA
ENDBRANCH   5  10
ENDBRANCH   1   5
BRANCH   3  13
HETATM   13  C5  UNL     1     -82.073 -47.724 110.574  1.00  0.00     0.248 C 
BRANCH  13  14
HETATM   14  P1  UNL     1     -83.113 -47.723 112.051  1.00  0.00     0.268 P 
HETATM   15  O4  UNL     1     -82.612 -48.719 113.074  1.00  0.00    -0.639 OA
HETATM   16  O5  UNL     1     -83.033 -46.191 112.756  1.00  0.00    -0.639 OA
HETATM   17  O6  UNL     1     -84.706 -48.037 111.645  1.00  0.00    -0.639 OA
ENDBRANCH  13  14
ENDBRANCH   3  13
TORSDOF 6
ENDMDL
