MODEL 4
REMARK VINA RESULT: -7.853433750      1.477      5.745
REMARK  7 active torsions:
REMARK  status: ('A' for Active; 'I' for Inactive)
REMARK    1  A    between atoms: C2_2  and  O1_3 
REMARK    2  A    between atoms: O1_3  and  C3_4 
REMARK    3  A    between atoms: C3_4  and  C4_6 
REMARK    4  A    between atoms: C9_13  and  O3_14 
REMARK    5  A    between atoms: C13_18  and  S1_19 
REMARK    6  A    between atoms: S1_19  and  C14_20 
REMARK    7  A    between atoms: C14_20  and  C15_21 
ROOT
HETATM    1  C15 UNL     1      23.939  45.181  57.939  1.00  0.00     0.134 C 
HETATM    2  C16 UNL     1      22.780  45.247  57.086  1.00  0.00     0.059 C 
HETATM    3  N2  UNL     1      21.859  45.285  56.394  1.00  0.00    -0.197 NA
ENDROOT
BRANCH   1   4
HETATM    4  C14 UNL     1      24.311  43.831  58.430  1.00  0.00     0.093 C 
BRANCH   4   5
HETATM    5  S1  UNL     1      24.169  43.531  60.178  1.00  0.00    -0.127 SA
BRANCH   5   6
HETATM    6  C13 UNL     1      24.173  44.998  61.183  1.00  0.00     0.030 A 
HETATM    7  C4  UNL     1      25.389  45.530  61.574  1.00  0.00     0.072 A 
HETATM    8  C5  UNL     1      25.395  46.662  62.347  1.00  0.00     0.107 A 
HETATM    9  N1  UNL     1      24.259  47.246  62.724  1.00  0.00    -0.364 N 
HETATM   10  C6  UNL     1      23.079  46.761  62.367  1.00  0.00     0.043 A 
ATOM     11  H1  UNL     1      24.298  48.087  63.300  1.00  0.00     0.165 HD
HETATM   12  C7  UNL     1      21.930  47.392  62.784  1.00  0.00     0.033 A 
HETATM   13  C12 UNL     1      23.008  45.611  61.579  1.00  0.00     0.011 A 
HETATM   14  C8  UNL     1      20.712  46.860  62.407  1.00  0.00     0.039 A 
HETATM   15  C9  UNL     1      20.607  45.729  61.634  1.00  0.00     0.069 A 
HETATM   16  C11 UNL     1      21.770  45.112  61.225  1.00  0.00     0.051 A 
BRANCH   7  17
HETATM   17  C3  UNL     1      26.653  44.885  61.165  1.00  0.00     0.296 C 
HETATM   18  O2  UNL     1      27.111  43.996  61.912  1.00  0.00    -0.259 OA
BRANCH  17  19
HETATM   19  O1  UNL     1      27.320  45.223  60.023  1.00  0.00    -0.318 OA
BRANCH  19  20
HETATM   20  C2  UNL     1      28.388  44.481  59.467  1.00  0.00     0.174 C 
HETATM   21  C1  UNL     1      28.017  43.722  58.238  1.00  0.00     0.034 C 
ENDBRANCH  19  20
ENDBRANCH  17  19
ENDBRANCH   7  17
BRANCH  15  22
HETATM   22  O3  UNL     1      19.340  45.279  61.311  1.00  0.00    -0.356 OA
HETATM   23  C10 UNL     1      18.259  46.102  60.966  1.00  0.00     0.210 C 
ENDBRANCH  15  22
ENDBRANCH   5   6
ENDBRANCH   4   5
ENDBRANCH   1   4
TORSDOF 7
ENDMDL
