MODEL 2
REMARK VINA RESULT: -7.934636988      1.757      5.865
REMARK  7 active torsions:
REMARK  status: ('A' for Active; 'I' for Inactive)
REMARK    1  A    between atoms: C2_2  and  O1_3 
REMARK    2  A    between atoms: O1_3  and  C3_4 
REMARK    3  A    between atoms: C3_4  and  C4_6 
REMARK    4  A    between atoms: C9_13  and  O3_14 
REMARK    5  A    between atoms: C13_18  and  S1_19 
REMARK    6  A    between atoms: S1_19  and  C14_20 
REMARK    7  A    between atoms: C14_20  and  C15_21 
ROOT
HETATM    1  C15 UNL     1      23.934  45.102  57.985  1.00  0.00     0.134 C 
HETATM    2  C16 UNL     1      22.783  45.176  57.122  1.00  0.00     0.059 C 
HETATM    3  N2  UNL     1      21.869  45.221  56.422  1.00  0.00    -0.197 NA
ENDROOT
BRANCH   1   4
HETATM    4  C14 UNL     1      24.271  43.755  58.506  1.00  0.00     0.093 C 
BRANCH   4   5
HETATM    5  S1  UNL     1      24.112  43.496  60.260  1.00  0.00    -0.127 SA
BRANCH   5   6
HETATM    6  C13 UNL     1      24.113  44.985  61.231  1.00  0.00     0.030 A 
HETATM    7  C4  UNL     1      25.328  45.514  61.631  1.00  0.00     0.072 A 
HETATM    8  C5  UNL     1      25.332  46.663  62.378  1.00  0.00     0.107 A 
HETATM    9  N1  UNL     1      24.196  47.267  62.722  1.00  0.00    -0.364 N 
HETATM   10  C6  UNL     1      23.017  46.785  62.356  1.00  0.00     0.043 A 
ATOM     11  H1  UNL     1      24.234  48.121  63.279  1.00  0.00     0.165 HD
HETATM   12  C7  UNL     1      21.867  47.437  62.738  1.00  0.00     0.033 A 
HETATM   13  C12 UNL     1      22.948  45.619  61.593  1.00  0.00     0.011 A 
HETATM   14  C8  UNL     1      20.651  46.908  62.352  1.00  0.00     0.039 A 
HETATM   15  C9  UNL     1      20.548  45.761  61.602  1.00  0.00     0.069 A 
HETATM   16  C11 UNL     1      21.712  45.123  61.228  1.00  0.00     0.051 A 
BRANCH   7  17
HETATM   17  C3  UNL     1      26.592  44.847  61.259  1.00  0.00     0.296 C 
HETATM   18  O2  UNL     1      27.123  45.185  60.181  1.00  0.00    -0.259 OA
BRANCH  17  19
HETATM   19  O1  UNL     1      27.183  43.895  62.038  1.00  0.00    -0.318 OA
BRANCH  19  20
HETATM   20  C2  UNL     1      27.557  42.608  61.589  1.00  0.00     0.174 C 
HETATM   21  C1  UNL     1      28.286  41.803  62.611  1.00  0.00     0.034 C 
ENDBRANCH  19  20
ENDBRANCH  17  19
ENDBRANCH   7  17
BRANCH  15  22
HETATM   22  O3  UNL     1      19.282  45.316  61.268  1.00  0.00    -0.356 OA
HETATM   23  C10 UNL     1      18.218  46.141  60.876  1.00  0.00     0.210 C 
ENDBRANCH  15  22
ENDBRANCH   5   6
ENDBRANCH   4   5
ENDBRANCH   1   4
TORSDOF 7
ENDMDL
