MODEL 5
REMARK VINA RESULT: -7.783245504      1.567      5.818
REMARK  7 active torsions:
REMARK  status: ('A' for Active; 'I' for Inactive)
REMARK    1  A    between atoms: C2_2  and  O1_3 
REMARK    2  A    between atoms: O1_3  and  C3_4 
REMARK    3  A    between atoms: C3_4  and  C4_6 
REMARK    4  A    between atoms: C9_13  and  O3_14 
REMARK    5  A    between atoms: C13_18  and  S1_19 
REMARK    6  A    between atoms: S1_19  and  C14_20 
REMARK    7  A    between atoms: C14_20  and  C15_21 
ROOT
HETATM    1  C15 UNL     1      23.822  45.099  58.056  1.00  0.00     0.134 C 
HETATM    2  C16 UNL     1      25.053  45.612  57.510  1.00  0.00     0.059 C 
HETATM    3  N2  UNL     1      26.046  46.016  57.088  1.00  0.00    -0.197 NA
ENDROOT
BRANCH   1   4
HETATM    4  C14 UNL     1      23.863  43.702  58.555  1.00  0.00     0.093 C 
BRANCH   4   5
HETATM    5  S1  UNL     1      24.117  43.467  60.300  1.00  0.00    -0.127 SA
BRANCH   5   6
HETATM    6  C13 UNL     1      24.123  44.966  61.256  1.00  0.00     0.030 A 
HETATM    7  C4  UNL     1      25.339  45.496  61.650  1.00  0.00     0.072 A 
HETATM    8  C5  UNL     1      25.346  46.652  62.386  1.00  0.00     0.107 A 
HETATM    9  N1  UNL     1      24.212  47.263  62.723  1.00  0.00    -0.364 N 
HETATM   10  C6  UNL     1      23.032  46.780  62.363  1.00  0.00     0.043 A 
ATOM     11  H1  UNL     1      24.253  48.122  63.272  1.00  0.00     0.165 HD
HETATM   12  C7  UNL     1      21.884  47.439  62.739  1.00  0.00     0.033 A 
HETATM   13  C12 UNL     1      22.959  45.606  61.612  1.00  0.00     0.011 A 
HETATM   14  C8  UNL     1      20.667  46.909  62.359  1.00  0.00     0.039 A 
HETATM   15  C9  UNL     1      20.560  45.755  61.621  1.00  0.00     0.069 A 
HETATM   16  C11 UNL     1      21.722  45.110  61.253  1.00  0.00     0.051 A 
BRANCH   7  17
HETATM   17  C3  UNL     1      26.601  44.822  61.284  1.00  0.00     0.296 C 
HETATM   18  O2  UNL     1      27.179  45.210  60.249  1.00  0.00    -0.259 OA
BRANCH  17  19
HETATM   19  O1  UNL     1      27.141  43.811  62.025  1.00  0.00    -0.318 OA
BRANCH  19  20
HETATM   20  C2  UNL     1      27.619  42.591  61.493  1.00  0.00     0.174 C 
HETATM   21  C1  UNL     1      28.487  41.825  62.432  1.00  0.00     0.034 C 
ENDBRANCH  19  20
ENDBRANCH  17  19
ENDBRANCH   7  17
BRANCH  15  22
HETATM   22  O3  UNL     1      19.292  45.310  61.292  1.00  0.00    -0.356 OA
HETATM   23  C10 UNL     1      18.231  46.133  60.890  1.00  0.00     0.210 C 
ENDBRANCH  15  22
ENDBRANCH   5   6
ENDBRANCH   4   5
ENDBRANCH   1   4
TORSDOF 7
ENDMDL
