MODEL 1
REMARK VINA RESULT: -11.449095575      0.000      0.000
REMARK  7 active torsions:
REMARK  status: ('A' for Active; 'I' for Inactive)
REMARK    1  A    between atoms: O1_2  and  C2_3 
REMARK    2  A    between atoms: C5_6  and  C6_7 
REMARK    3  A    between atoms: N2_10  and  C7_11 
REMARK    4  A    between atoms: C22_27  and  C23_28 
REMARK    5  A    between atoms: C26_31  and  C27_32 
REMARK       I    between atoms: C27_32  and  N3_34 
REMARK    6  A    between atoms: N3_34  and  C28_36 
REMARK    7  A    between atoms: C28_36  and  C29_37 
ROOT
HETATM    1  C2  UNL     1      27.829  12.931  -0.928  1.00  0.00     0.079 A 
HETATM    2  C3  UNL     1      27.428  11.680  -0.559  1.00  0.00     0.038 A 
HETATM    3  C4  UNL     1      27.113  10.774  -1.579  1.00  0.00     0.016 A 
HETATM    4  C5  UNL     1      27.181  11.061  -2.904  1.00  0.00    -0.011 A 
HETATM    5  C21 UNL     1      27.593  12.348  -3.229  1.00  0.00     0.028 A 
HETATM    6  C22 UNL     1      27.915  13.279  -2.276  1.00  0.00     0.008 A 
ENDROOT
BRANCH   4   7
HETATM    7  C6  UNL     1      26.863  10.117  -4.011  1.00  0.00     0.041 C 
HETATM    8  N1  UNL     1      25.824  10.477  -4.747  1.00  0.00    -0.298 N 
HETATM    9  N2  UNL     1      25.299   9.835  -5.799  1.00  0.00    -0.256 N 
ATOM     10  H1  UNL     1      25.366  11.349  -4.481  1.00  0.00     0.187 HD
HETATM   11  C14 UNL     1      25.912   8.588  -6.210  1.00  0.00     0.243 C 
HETATM   12  O2  UNL     1      25.880   8.166  -7.383  1.00  0.00    -0.271 OA
HETATM   13  C15 UNL     1      26.567   7.901  -5.061  1.00  0.00     0.093 C 
HETATM   14  C16 UNL     1      25.631   7.473  -3.996  1.00  0.00     0.041 C 
HETATM   15  C20 UNL     1      27.556   8.929  -4.420  1.00  0.00     0.055 C 
HETATM   16  C17 UNL     1      26.318   7.174  -2.725  1.00  0.00    -0.030 C 
HETATM   17  C18 UNL     1      27.567   7.449  -2.456  1.00  0.00    -0.030 C 
HETATM   18  C19 UNL     1      28.397   8.123  -3.499  1.00  0.00     0.038 C 
BRANCH   9  19
HETATM   19  C7  UNL     1      24.154  10.329  -6.533  1.00  0.00     0.111 C 
HETATM   20  C8  UNL     1      23.109  10.952  -5.678  1.00  0.00     0.027 C 
HETATM   21  C9  UNL     1      22.415  12.027  -6.489  1.00  0.00     0.002 C 
HETATM   22  C10 UNL     1      21.515  11.301  -7.470  1.00  0.00     0.000 C 
HETATM   23  C11 UNL     1      22.310  10.740  -8.631  1.00  0.00     0.000 C 
HETATM   24  C12 UNL     1      23.651  11.417  -8.767  1.00  0.00     0.002 C 
HETATM   25  C13 UNL     1      24.616  11.182  -7.681  1.00  0.00     0.027 C 
ENDBRANCH   9  19
ENDBRANCH   4   7
BRANCH   6  26
HETATM   26  C23 UNL     1      28.345  14.635  -2.628  1.00  0.00    -0.023 A 
HETATM   27  C24 UNL     1      27.522  15.726  -2.632  1.00  0.00     0.013 A 
HETATM   28  C25 UNL     1      28.043  16.945  -2.978  1.00  0.00     0.018 A 
HETATM   29  C26 UNL     1      29.380  17.144  -3.333  1.00  0.00     0.032 A 
HETATM   30  C30 UNL     1      30.211  16.034  -3.328  1.00  0.00     0.018 A 
HETATM   31  C31 UNL     1      29.688  14.809  -2.981  1.00  0.00     0.013 A 
BRANCH  29  32
HETATM   32  C27 UNL     1      29.847  18.475  -3.698  1.00  0.00     0.252 C 
HETATM   33  O3  UNL     1      29.240  19.079  -4.617  1.00  0.00    -0.268 OA
HETATM   34  N3  UNL     1      30.938  19.104  -3.070  1.00  0.00    -0.348 N 
ATOM     35  H3  UNL     1      31.413  18.594  -2.326  1.00  0.00     0.163 HD
BRANCH  34  36
HETATM   36  C28 UNL     1      31.437  20.424  -3.401  1.00  0.00     0.222 C 
BRANCH  36  37
HETATM   37  C29 UNL     1      32.728  20.328  -4.120  1.00  0.00     0.248 C 
HETATM   38  N4  UNL     1      33.907  21.013  -3.709  1.00  0.00    -0.061 NA
HETATM   39  O4  UNL     1      32.804  19.614  -5.139  1.00  0.00    -0.275 OA
ENDBRANCH  36  37
ENDBRANCH  34  36
ENDBRANCH  29  32
ENDBRANCH   6  26
BRANCH   1  40
HETATM   40  O1  UNL     1      28.157  13.876   0.005  1.00  0.00    -0.355 OA
HETATM   41  C1  UNL     1      28.982  13.547   1.086  1.00  0.00     0.210 C 
ENDBRANCH   1  40
TORSDOF 7
ENDMDL
