MODEL 19
REMARK VINA RESULT: -9.440008013      4.549      6.145
REMARK  7 active torsions:
REMARK  status: ('A' for Active; 'I' for Inactive)
REMARK    1  A    between atoms: O1_2  and  C2_3 
REMARK    2  A    between atoms: C5_6  and  C6_7 
REMARK    3  A    between atoms: N2_10  and  C7_11 
REMARK    4  A    between atoms: C22_27  and  C23_28 
REMARK    5  A    between atoms: C26_31  and  C27_32 
REMARK       I    between atoms: C27_32  and  N3_34 
REMARK    6  A    between atoms: N3_34  and  C28_36 
REMARK    7  A    between atoms: C28_36  and  C29_37 
ROOT
HETATM    1  C2  UNL     1      26.967  10.112  -4.467  1.00  0.00     0.079 A 
HETATM    2  C3  UNL     1      27.793   9.033  -4.339  1.00  0.00     0.038 A 
HETATM    3  C4  UNL     1      27.716   8.039  -5.322  1.00  0.00     0.016 A 
HETATM    4  C5  UNL     1      26.877   8.081  -6.388  1.00  0.00    -0.011 A 
HETATM    5  C21 UNL     1      26.055   9.199  -6.474  1.00  0.00     0.028 A 
HETATM    6  C22 UNL     1      26.084  10.205  -5.543  1.00  0.00     0.008 A 
ENDROOT
BRANCH   4   7
HETATM    7  C6  UNL     1      26.781   7.046  -7.455  1.00  0.00     0.041 C 
HETATM    8  N1  UNL     1      26.094   7.429  -8.520  1.00  0.00    -0.298 N 
HETATM    9  N2  UNL     1      25.834   6.724  -9.628  1.00  0.00    -0.256 N 
ATOM     10  H1  UNL     1      25.717   8.376  -8.493  1.00  0.00     0.187 HD
HETATM   11  C14 UNL     1      26.345   5.370  -9.707  1.00  0.00     0.243 C 
HETATM   12  O2  UNL     1      26.617   4.806 -10.786  1.00  0.00    -0.271 OA
HETATM   13  C15 UNL     1      26.491   4.764  -8.354  1.00  0.00     0.093 C 
HETATM   14  C16 UNL     1      25.214   4.592  -7.625  1.00  0.00     0.041 C 
HETATM   15  C20 UNL     1      27.376   5.741  -7.512  1.00  0.00     0.055 C 
HETATM   16  C17 UNL     1      25.411   4.380  -6.178  1.00  0.00    -0.030 C 
HETATM   17  C18 UNL     1      26.540   4.537  -5.537  1.00  0.00    -0.030 C 
HETATM   18  C19 UNL     1      27.749   4.967  -6.301  1.00  0.00     0.038 C 
BRANCH   9  19
HETATM   19  C7  UNL     1      25.068   7.250 -10.737  1.00  0.00     0.111 C 
HETATM   20  C8  UNL     1      23.620   6.915 -10.687  1.00  0.00     0.027 C 
HETATM   21  C9  UNL     1      22.852   8.037 -11.355  1.00  0.00     0.002 C 
HETATM   22  C10 UNL     1      23.080   7.875 -12.845  1.00  0.00     0.000 C 
HETATM   23  C11 UNL     1      24.450   8.382 -13.248  1.00  0.00     0.000 C 
HETATM   24  C12 UNL     1      25.027   9.312 -12.211  1.00  0.00     0.002 C 
HETATM   25  C13 UNL     1      25.368   8.714 -10.911  1.00  0.00     0.027 C 
ENDBRANCH   9  19
ENDBRANCH   4   7
BRANCH   6  26
HETATM   26  C23 UNL     1      25.210  11.378  -5.641  1.00  0.00    -0.023 A 
HETATM   27  C24 UNL     1      23.873  11.365  -5.361  1.00  0.00     0.013 A 
HETATM   28  C25 UNL     1      23.162  12.530  -5.487  1.00  0.00     0.018 A 
HETATM   29  C26 UNL     1      23.726  13.743  -5.889  1.00  0.00     0.032 A 
HETATM   30  C30 UNL     1      25.083  13.751  -6.173  1.00  0.00     0.018 A 
HETATM   31  C31 UNL     1      25.798  12.581  -6.047  1.00  0.00     0.013 A 
BRANCH  29  32
HETATM   32  C27 UNL     1      22.892  14.932  -6.007  1.00  0.00     0.252 C 
HETATM   33  O3  UNL     1      21.846  14.850  -6.698  1.00  0.00    -0.268 OA
HETATM   34  N3  UNL     1      23.206  16.155  -5.384  1.00  0.00    -0.348 N 
ATOM     35  H3  UNL     1      24.059  16.195  -4.827  1.00  0.00     0.163 HD
BRANCH  34  36
HETATM   36  C28 UNL     1      22.407  17.360  -5.474  1.00  0.00     0.222 C 
BRANCH  36  37
HETATM   37  C29 UNL     1      23.220  18.551  -5.136  1.00  0.00     0.248 C 
HETATM   38  N4  UNL     1      24.486  18.478  -4.487  1.00  0.00    -0.061 NA
HETATM   39  O4  UNL     1      22.788  19.684  -5.428  1.00  0.00    -0.275 OA
ENDBRANCH  36  37
ENDBRANCH  34  36
ENDBRANCH  29  32
ENDBRANCH   6  26
BRANCH   1  40
HETATM   40  O1  UNL     1      26.978  11.129  -3.553  1.00  0.00    -0.355 OA
HETATM   41  C1  UNL     1      28.137  11.886  -3.351  1.00  0.00     0.210 C 
ENDBRANCH   1  40
TORSDOF 7
ENDMDL
