MODEL 18
REMARK VINA RESULT: -9.476333149      4.345      6.426
REMARK  7 active torsions:
REMARK  status: ('A' for Active; 'I' for Inactive)
REMARK    1  A    between atoms: O1_2  and  C2_3 
REMARK    2  A    between atoms: C5_6  and  C6_7 
REMARK    3  A    between atoms: N2_10  and  C7_11 
REMARK    4  A    between atoms: C22_27  and  C23_28 
REMARK    5  A    between atoms: C26_31  and  C27_32 
REMARK       I    between atoms: C27_32  and  N3_34 
REMARK    6  A    between atoms: N3_34  and  C28_36 
REMARK    7  A    between atoms: C28_36  and  C29_37 
ROOT
HETATM    1  C2  UNL     1      26.417   6.488  -4.011  1.00  0.00     0.079 A 
HETATM    2  C3  UNL     1      26.253   5.411  -4.833  1.00  0.00     0.038 A 
HETATM    3  C4  UNL     1      26.113   5.659  -6.204  1.00  0.00     0.016 A 
HETATM    4  C5  UNL     1      26.132   6.896  -6.763  1.00  0.00    -0.011 A 
HETATM    5  C21 UNL     1      26.301   7.960  -5.885  1.00  0.00     0.028 A 
HETATM    6  C22 UNL     1      26.442   7.782  -4.533  1.00  0.00     0.008 A 
ENDROOT
BRANCH   4   7
HETATM    7  C6  UNL     1      25.997   7.190  -8.217  1.00  0.00     0.041 C 
HETATM    8  N1  UNL     1      25.089   8.110  -8.501  1.00  0.00    -0.298 N 
HETATM    9  N2  UNL     1      24.741   8.578  -9.707  1.00  0.00    -0.256 N 
ATOM     10  H1  UNL     1      24.594   8.511  -7.705  1.00  0.00     0.187 HD
HETATM   11  C14 UNL     1      25.414   8.031 -10.868  1.00  0.00     0.243 C 
HETATM   12  O2  UNL     1      25.571   8.669 -11.928  1.00  0.00    -0.271 OA
HETATM   13  C15 UNL     1      25.877   6.636 -10.621  1.00  0.00     0.093 C 
HETATM   14  C16 UNL     1      24.782   5.666 -10.388  1.00  0.00     0.041 C 
HETATM   15  C20 UNL     1      26.749   6.670  -9.323  1.00  0.00     0.055 C 
HETATM   16  C17 UNL     1      25.256   4.418  -9.760  1.00  0.00    -0.030 C 
HETATM   17  C18 UNL     1      26.445   4.230  -9.252  1.00  0.00    -0.030 C 
HETATM   18  C19 UNL     1      27.432   5.351  -9.291  1.00  0.00     0.038 C 
BRANCH   9  19
HETATM   19  C7  UNL     1      23.729   9.593  -9.897  1.00  0.00     0.111 C 
HETATM   20  C8  UNL     1      22.439   9.072 -10.423  1.00  0.00     0.027 C 
HETATM   21  C9  UNL     1      21.323   9.950  -9.893  1.00  0.00     0.002 C 
HETATM   22  C10 UNL     1      21.394  11.243 -10.681  1.00  0.00     0.000 C 
HETATM   23  C11 UNL     1      22.519  12.128 -10.181  1.00  0.00     0.000 C 
HETATM   24  C12 UNL     1      22.957  11.740  -8.792  1.00  0.00     0.002 C 
HETATM   25  C13 UNL     1      23.607  10.428  -8.651  1.00  0.00     0.027 C 
ENDBRANCH   9  19
ENDBRANCH   4   7
BRANCH   6  26
HETATM   26  C23 UNL     1      26.616   8.911  -3.615  1.00  0.00    -0.023 A 
HETATM   27  C24 UNL     1      25.931   9.060  -2.443  1.00  0.00     0.013 A 
HETATM   28  C25 UNL     1      26.184  10.160  -1.665  1.00  0.00     0.018 A 
HETATM   29  C26 UNL     1      27.109  11.151  -2.003  1.00  0.00     0.032 A 
HETATM   30  C30 UNL     1      27.801  10.996  -3.194  1.00  0.00     0.018 A 
HETATM   31  C31 UNL     1      27.548   9.891  -3.975  1.00  0.00     0.013 A 
BRANCH  29  32
HETATM   32  C27 UNL     1      27.307  12.294  -1.122  1.00  0.00     0.252 C 
HETATM   33  O3  UNL     1      27.392  13.433  -1.646  1.00  0.00    -0.268 OA
HETATM   34  N3  UNL     1      27.405  12.177   0.278  1.00  0.00    -0.348 N 
ATOM     35  H3  UNL     1      27.332  11.242   0.679  1.00  0.00     0.163 HD
BRANCH  34  36
HETATM   36  C28 UNL     1      27.603  13.284   1.191  1.00  0.00     0.222 C 
BRANCH  36  37
HETATM   37  C29 UNL     1      29.045  13.587   1.339  1.00  0.00     0.248 C 
HETATM   38  N4  UNL     1      29.818  13.189   2.468  1.00  0.00    -0.061 NA
HETATM   39  O4  UNL     1      29.628  14.221   0.438  1.00  0.00    -0.275 OA
ENDBRANCH  36  37
ENDBRANCH  34  36
ENDBRANCH  29  32
ENDBRANCH   6  26
BRANCH   1  40
HETATM   40  O1  UNL     1      26.562   6.336  -2.660  1.00  0.00    -0.355 OA
HETATM   41  C1  UNL     1      27.787   5.925  -2.121  1.00  0.00     0.210 C 
ENDBRANCH   1  40
TORSDOF 7
ENDMDL
