MODEL 8
REMARK VINA RESULT: -10.155831794      3.348      8.977
REMARK  7 active torsions:
REMARK  status: ('A' for Active; 'I' for Inactive)
REMARK    1  A    between atoms: O1_2  and  C2_3 
REMARK    2  A    between atoms: C5_6  and  C6_7 
REMARK    3  A    between atoms: N2_10  and  C7_11 
REMARK    4  A    between atoms: C22_27  and  C23_28 
REMARK    5  A    between atoms: C26_31  and  C27_32 
REMARK       I    between atoms: C27_32  and  N3_34 
REMARK    6  A    between atoms: N3_34  and  C28_36 
REMARK    7  A    between atoms: C28_36  and  C29_37 
ROOT
HETATM    1  C2  UNL     1      27.778  11.111  -0.940  1.00  0.00     0.079 A 
HETATM    2  C3  UNL     1      28.088  12.210  -0.193  1.00  0.00     0.038 A 
HETATM    3  C4  UNL     1      28.038  13.458  -0.826  1.00  0.00     0.016 A 
HETATM    4  C5  UNL     1      27.701  13.642  -2.128  1.00  0.00    -0.011 A 
HETATM    5  C21 UNL     1      27.395  12.492  -2.847  1.00  0.00     0.028 A 
HETATM    6  C22 UNL     1      27.427  11.243  -2.283  1.00  0.00     0.008 A 
ENDROOT
BRANCH   4   7
HETATM    7  C6  UNL     1      27.628  14.956  -2.825  1.00  0.00     0.041 C 
HETATM    8  N1  UNL     1      26.561  15.101  -3.595  1.00  0.00    -0.298 N 
HETATM    9  N2  UNL     1      26.224  16.159  -4.344  1.00  0.00    -0.256 N 
ATOM     10  H1  UNL     1      25.916  14.311  -3.620  1.00  0.00     0.187 HD
HETATM   11  C14 UNL     1      27.114  17.302  -4.343  1.00  0.00     0.243 C 
HETATM   12  O2  UNL     1      26.725  18.468  -4.553  1.00  0.00    -0.271 OA
HETATM   13  C15 UNL     1      28.520  16.897  -4.066  1.00  0.00     0.093 C 
HETATM   14  C16 UNL     1      29.114  16.018  -5.100  1.00  0.00     0.041 C 
HETATM   15  C20 UNL     1      28.504  16.088  -2.727  1.00  0.00     0.055 C 
HETATM   16  C17 UNL     1      30.321  15.316  -4.623  1.00  0.00    -0.030 C 
HETATM   17  C18 UNL     1      30.730  15.271  -3.382  1.00  0.00    -0.030 C 
HETATM   18  C19 UNL     1      29.932  15.976  -2.334  1.00  0.00     0.038 C 
BRANCH   9  19
HETATM   19  C7  UNL     1      25.023  16.205  -5.149  1.00  0.00     0.111 C 
HETATM   20  C8  UNL     1      24.542  14.871  -5.597  1.00  0.00     0.027 C 
HETATM   21  C9  UNL     1      23.034  14.933  -5.729  1.00  0.00     0.002 C 
HETATM   22  C10 UNL     1      22.753  15.722  -6.992  1.00  0.00     0.000 C 
HETATM   23  C11 UNL     1      22.934  17.208  -6.762  1.00  0.00     0.000 C 
HETATM   24  C12 UNL     1      22.882  17.555  -5.295  1.00  0.00     0.002 C 
HETATM   25  C13 UNL     1      23.984  17.048  -4.462  1.00  0.00     0.027 C 
ENDBRANCH   9  19
ENDBRANCH   4   7
BRANCH   6  26
HETATM   26  C23 UNL     1      27.106  10.036  -3.051  1.00  0.00    -0.023 A 
HETATM   27  C24 UNL     1      25.851   9.508  -3.161  1.00  0.00     0.013 A 
HETATM   28  C25 UNL     1      25.675   8.374  -3.911  1.00  0.00     0.018 A 
HETATM   29  C26 UNL     1      26.714   7.718  -4.577  1.00  0.00     0.032 A 
HETATM   30  C30 UNL     1      27.985   8.257  -4.462  1.00  0.00     0.018 A 
HETATM   31  C31 UNL     1      28.162   9.396  -3.708  1.00  0.00     0.013 A 
BRANCH  29  32
HETATM   32  C27 UNL     1      26.439   6.510  -5.345  1.00  0.00     0.252 C 
HETATM   33  O3  UNL     1      25.514   5.759  -4.947  1.00  0.00    -0.268 OA
HETATM   34  N3  UNL     1      27.158   6.155  -6.501  1.00  0.00    -0.348 N 
ATOM     35  H3  UNL     1      27.902   6.783  -6.805  1.00  0.00     0.163 HD
BRANCH  34  36
HETATM   36  C28 UNL     1      26.920   4.966  -7.293  1.00  0.00     0.222 C 
BRANCH  36  37
HETATM   37  C29 UNL     1      27.756   3.842  -6.811  1.00  0.00     0.248 C 
HETATM   38  N4  UNL     1      28.057   2.694  -7.599  1.00  0.00    -0.061 NA
HETATM   39  O4  UNL     1      28.229   3.889  -5.659  1.00  0.00    -0.275 OA
ENDBRANCH  36  37
ENDBRANCH  34  36
ENDBRANCH  29  32
ENDBRANCH   6  26
BRANCH   1  40
HETATM   40  O1  UNL     1      27.801   9.855  -0.400  1.00  0.00    -0.355 OA
HETATM   41  C1  UNL     1      26.827   9.465   0.527  1.00  0.00     0.210 C 
ENDBRANCH   1  40
TORSDOF 7
ENDMDL
