MODEL 7
REMARK VINA RESULT: -10.348657503      1.517      2.020
REMARK  7 active torsions:
REMARK  status: ('A' for Active; 'I' for Inactive)
REMARK    1  A    between atoms: O1_2  and  C2_3 
REMARK    2  A    between atoms: C5_6  and  C6_7 
REMARK    3  A    between atoms: N2_10  and  C7_11 
REMARK    4  A    between atoms: C22_27  and  C23_28 
REMARK    5  A    between atoms: C26_31  and  C27_32 
REMARK       I    between atoms: C27_32  and  N3_34 
REMARK    6  A    between atoms: N3_34  and  C28_36 
REMARK    7  A    between atoms: C28_36  and  C29_37 
ROOT
HETATM    1  C2  UNL     1      27.792  12.883  -1.173  1.00  0.00     0.079 A 
HETATM    2  C3  UNL     1      27.380  11.651  -0.756  1.00  0.00     0.038 A 
HETATM    3  C4  UNL     1      27.124  10.687  -1.741  1.00  0.00     0.016 A 
HETATM    4  C5  UNL     1      27.261  10.902  -3.074  1.00  0.00    -0.011 A 
HETATM    5  C21 UNL     1      27.682  12.172  -3.447  1.00  0.00     0.028 A 
HETATM    6  C22 UNL     1      27.947  13.157  -2.532  1.00  0.00     0.008 A 
ENDROOT
BRANCH   4   7
HETATM    7  C6  UNL     1      27.008   9.895  -4.142  1.00  0.00     0.041 C 
HETATM    8  N1  UNL     1      26.056  10.239  -4.994  1.00  0.00    -0.298 N 
HETATM    9  N2  UNL     1      25.604   9.545  -6.047  1.00  0.00    -0.256 N 
ATOM     10  H1  UNL     1      25.611  11.142  -4.830  1.00  0.00     0.187 HD
HETATM   11  C14 UNL     1      26.201   8.252  -6.316  1.00  0.00     0.243 C 
HETATM   12  O2  UNL     1      26.259   7.752  -7.457  1.00  0.00    -0.271 OA
HETATM   13  C15 UNL     1      26.720   7.623  -5.068  1.00  0.00     0.093 C 
HETATM   14  C16 UNL     1      25.674   7.302  -4.070  1.00  0.00     0.041 C 
HETATM   15  C20 UNL     1      27.687   8.659  -4.406  1.00  0.00     0.055 C 
HETATM   16  C17 UNL     1      26.229   7.067  -2.723  1.00  0.00    -0.030 C 
HETATM   17  C18 UNL     1      27.458   7.317  -2.357  1.00  0.00    -0.030 C 
HETATM   18  C19 UNL     1      28.407   7.889  -3.359  1.00  0.00     0.038 C 
BRANCH   9  19
HETATM   19  C7  UNL     1      24.552  10.025  -6.916  1.00  0.00     0.111 C 
HETATM   20  C8  UNL     1      23.439  10.705  -6.201  1.00  0.00     0.027 C 
HETATM   21  C9  UNL     1      22.856  11.755  -7.125  1.00  0.00     0.002 C 
HETATM   22  C10 UNL     1      22.046  11.002  -8.161  1.00  0.00     0.000 C 
HETATM   23  C11 UNL     1      22.943  10.375  -9.209  1.00  0.00     0.000 C 
HETATM   24  C12 UNL     1      24.306  11.021  -9.234  1.00  0.00     0.002 C 
HETATM   25  C13 UNL     1      25.149  10.818  -8.046  1.00  0.00     0.027 C 
ENDBRANCH   9  19
ENDBRANCH   4   7
BRANCH   6  26
HETATM   26  C23 UNL     1      28.388  14.496  -2.936  1.00  0.00    -0.023 A 
HETATM   27  C24 UNL     1      29.672  14.810  -3.280  1.00  0.00     0.013 A 
HETATM   28  C25 UNL     1      29.961  16.100  -3.644  1.00  0.00     0.018 A 
HETATM   29  C26 UNL     1      29.012  17.124  -3.684  1.00  0.00     0.032 A 
HETATM   30  C30 UNL     1      27.710  16.801  -3.333  1.00  0.00     0.018 A 
HETATM   31  C31 UNL     1      27.420  15.505  -2.967  1.00  0.00     0.013 A 
BRANCH  29  32
HETATM   32  C27 UNL     1      29.409  18.471  -4.073  1.00  0.00     0.252 C 
HETATM   33  O3  UNL     1      30.260  19.061  -3.361  1.00  0.00    -0.268 OA
HETATM   34  N3  UNL     1      28.885  19.131  -5.201  1.00  0.00    -0.348 N 
ATOM     35  H3  UNL     1      28.198  18.630  -5.763  1.00  0.00     0.163 HD
BRANCH  34  36
HETATM   36  C28 UNL     1      29.250  20.468  -5.623  1.00  0.00     0.222 C 
BRANCH  36  37
HETATM   37  C29 UNL     1      28.258  21.000  -6.584  1.00  0.00     0.248 C 
HETATM   38  N4  UNL     1      27.117  21.759  -6.195  1.00  0.00    -0.061 NA
HETATM   39  O4  UNL     1      28.415  20.782  -7.802  1.00  0.00    -0.275 OA
ENDBRANCH  36  37
ENDBRANCH  34  36
ENDBRANCH  29  32
ENDBRANCH   6  26
BRANCH   1  40
HETATM   40  O1  UNL     1      28.065  13.881  -0.278  1.00  0.00    -0.355 OA
HETATM   41  C1  UNL     1      28.168  13.597   1.088  1.00  0.00     0.210 C 
ENDBRANCH   1  40
TORSDOF 7
ENDMDL
