MODEL 3
REMARK VINA RESULT: -11.254500745      0.953      1.089
REMARK  7 active torsions:
REMARK  status: ('A' for Active; 'I' for Inactive)
REMARK    1  A    between atoms: O1_2  and  C2_3 
REMARK    2  A    between atoms: C5_6  and  C6_7 
REMARK    3  A    between atoms: N2_10  and  C7_11 
REMARK    4  A    between atoms: C22_27  and  C23_28 
REMARK    5  A    between atoms: C26_31  and  C27_32 
REMARK       I    between atoms: C27_32  and  N3_34 
REMARK    6  A    between atoms: N3_34  and  C28_36 
REMARK    7  A    between atoms: C28_36  and  C29_37 
ROOT
HETATM    1  C2  UNL     1      27.692  12.988  -1.212  1.00  0.00     0.079 A 
HETATM    2  C3  UNL     1      27.362  11.720  -0.832  1.00  0.00     0.038 A 
HETATM    3  C4  UNL     1      27.254  10.750  -1.837  1.00  0.00     0.016 A 
HETATM    4  C5  UNL     1      27.457  10.992  -3.157  1.00  0.00    -0.011 A 
HETATM    5  C21 UNL     1      27.790  12.298  -3.494  1.00  0.00     0.028 A 
HETATM    6  C22 UNL     1      27.909  13.291  -2.557  1.00  0.00     0.008 A 
ENDROOT
BRANCH   4   7
HETATM    7  C6  UNL     1      27.361   9.980  -4.245  1.00  0.00     0.041 C 
HETATM    8  N1  UNL     1      26.541  10.318  -5.227  1.00  0.00    -0.298 N 
HETATM    9  N2  UNL     1      26.245   9.619  -6.331  1.00  0.00    -0.256 N 
ATOM     10  H1  UNL     1      26.076  11.222  -5.132  1.00  0.00     0.187 HD
HETATM   11  C14 UNL     1      26.877   8.326  -6.505  1.00  0.00     0.243 C 
HETATM   12  O2  UNL     1      27.099   7.822  -7.624  1.00  0.00    -0.271 OA
HETATM   13  C15 UNL     1      27.211   7.704  -5.194  1.00  0.00     0.093 C 
HETATM   14  C16 UNL     1      26.033   7.385  -4.355  1.00  0.00     0.041 C 
HETATM   15  C20 UNL     1      28.072   8.744  -4.403  1.00  0.00     0.055 C 
HETATM   16  C17 UNL     1      26.388   7.157  -2.941  1.00  0.00    -0.030 C 
HETATM   17  C18 UNL     1      27.552   7.411  -2.403  1.00  0.00    -0.030 C 
HETATM   18  C19 UNL     1      28.635   7.980  -3.260  1.00  0.00     0.038 C 
BRANCH   9  19
HETATM   19  C7  UNL     1      25.329  10.094  -7.345  1.00  0.00     0.111 C 
HETATM   20  C8  UNL     1      23.977  10.435  -6.827  1.00  0.00     0.027 C 
HETATM   21  C9  UNL     1      23.408  11.545  -7.687  1.00  0.00     0.002 C 
HETATM   22  C10 UNL     1      23.003  10.898  -8.997  1.00  0.00     0.000 C 
HETATM   23  C11 UNL     1      24.209  10.643  -9.877  1.00  0.00     0.000 C 
HETATM   24  C12 UNL     1      25.390  11.484  -9.463  1.00  0.00     0.002 C 
HETATM   25  C13 UNL     1      25.984  11.181  -8.152  1.00  0.00     0.027 C 
ENDBRANCH   9  19
ENDBRANCH   4   7
BRANCH   6  26
HETATM   26  C23 UNL     1      28.257  14.667  -2.923  1.00  0.00    -0.023 A 
HETATM   27  C24 UNL     1      27.359  15.693  -2.994  1.00  0.00     0.013 A 
HETATM   28  C25 UNL     1      27.807  16.940  -3.346  1.00  0.00     0.018 A 
HETATM   29  C26 UNL     1      29.142  17.229  -3.640  1.00  0.00     0.032 A 
HETATM   30  C30 UNL     1      30.050  16.184  -3.567  1.00  0.00     0.018 A 
HETATM   31  C31 UNL     1      29.600  14.931  -3.214  1.00  0.00     0.013 A 
BRANCH  29  32
HETATM   32  C27 UNL     1      29.529  18.582  -4.016  1.00  0.00     0.252 C 
HETATM   33  O3  UNL     1      28.826  19.179  -4.869  1.00  0.00    -0.268 OA
HETATM   34  N3  UNL     1      30.646  19.241  -3.469  1.00  0.00    -0.348 N 
ATOM     35  H3  UNL     1      31.200  18.736  -2.778  1.00  0.00     0.163 HD
BRANCH  34  36
HETATM   36  C28 UNL     1      31.069  20.583  -3.815  1.00  0.00     0.222 C 
BRANCH  36  37
HETATM   37  C29 UNL     1      32.234  20.545  -4.728  1.00  0.00     0.248 C 
HETATM   38  N4  UNL     1      32.253  19.805  -5.944  1.00  0.00    -0.061 NA
HETATM   39  O4  UNL     1      33.259  21.189  -4.431  1.00  0.00    -0.275 OA
ENDBRANCH  36  37
ENDBRANCH  34  36
ENDBRANCH  29  32
ENDBRANCH   6  26
BRANCH   1  40
HETATM   40  O1  UNL     1      27.819  13.995  -0.296  1.00  0.00    -0.355 OA
HETATM   41  C1  UNL     1      27.724  13.721   1.074  1.00  0.00     0.210 C 
ENDBRANCH   1  40
TORSDOF 7
ENDMDL
