MODEL 5
REMARK VINA RESULT: -8.307931609      2.894      6.496
REMARK  1 active torsions:
REMARK  status: ('A' for Active; 'I' for Inactive)
REMARK    1  A    between atoms: C11_11  and  O1_12 
ROOT
HETATM    1  C1  UNL     1       1.979 -13.440  -8.974  1.00  0.00     0.033 C 
HETATM    2  C2  UNL     1       2.159 -12.504 -10.220  1.00  0.00     0.062 C 
HETATM    3  C3  UNL     1       3.004 -11.406  -9.815  1.00  0.00    -0.004 C 
HETATM    4  C4  UNL     1       2.617 -10.136  -9.648  1.00  0.00     0.011 C 
HETATM    5  C5  UNL     1       1.249  -9.778  -9.913  1.00  0.00    -0.015 A 
HETATM    6  C6  UNL     1       0.315 -10.713 -10.386  1.00  0.00    -0.018 A 
HETATM    7  C7  UNL     1      -0.989 -10.355 -10.617  1.00  0.00     0.014 A 
HETATM    8  C8  UNL     1      -1.458  -9.086 -10.406  1.00  0.00     0.013 A 
HETATM    9  C9  UNL     1      -0.565  -8.157  -9.945  1.00  0.00    -0.022 A 
HETATM   10  C10 UNL     1      -1.023  -6.883  -9.731  1.00  0.00     0.048 A 
HETATM   11  C11 UNL     1      -0.177  -5.917  -9.272  1.00  0.00     0.066 A 
HETATM   12  C12 UNL     1       1.147  -6.256  -9.031  1.00  0.00     0.037 A 
HETATM   13  C13 UNL     1       1.641  -7.528  -9.236  1.00  0.00     0.016 A 
HETATM   14  C14 UNL     1       0.768  -8.489  -9.700  1.00  0.00    -0.015 A 
HETATM   15  C15 UNL     1       0.798 -12.077 -10.637  1.00  0.00    -0.031 C 
HETATM   16  C16 UNL     1       0.263 -13.090 -11.334  1.00  0.00    -0.010 C 
HETATM   17  C17 UNL     1       1.251 -14.229 -11.426  1.00  0.00     0.107 C 
HETATM   18  C18 UNL     1       2.525 -13.389 -11.306  1.00  0.00     0.146 C 
HETATM   19  O2  UNL     1       3.490 -13.501 -11.959  1.00  0.00    -0.296 OA
ENDROOT
BRANCH  11  20
HETATM   20  O1  UNL     1      -0.656  -4.633  -9.060  1.00  0.00    -0.361 OA
ATOM     21  H1  UNL     1      -1.589  -4.491  -8.956  1.00  0.00     0.217 HD
ENDBRANCH  11  20
TORSDOF 1
ENDMDL
