MODEL 6
REMARK VINA RESULT: -8.243059516      1.734      6.279
REMARK  1 active torsions:
REMARK  status: ('A' for Active; 'I' for Inactive)
REMARK    1  A    between atoms: C11_11  and  O1_12 
ROOT
HETATM    1  C1  UNL     1       2.896 -12.831 -13.531  1.00  0.00     0.033 C 
HETATM    2  C2  UNL     1       1.914 -12.216 -12.473  1.00  0.00     0.062 C 
HETATM    3  C3  UNL     1       1.011 -11.342 -13.182  1.00  0.00    -0.004 C 
HETATM    4  C4  UNL     1       0.995 -10.005 -13.113  1.00  0.00     0.011 C 
HETATM    5  C5  UNL     1       1.924  -9.336 -12.243  1.00  0.00    -0.015 A 
HETATM    6  C6  UNL     1       2.821 -10.043 -11.428  1.00  0.00    -0.018 A 
HETATM    7  C7  UNL     1       3.711  -9.385 -10.618  1.00  0.00     0.014 A 
HETATM    8  C8  UNL     1       3.782  -8.020 -10.551  1.00  0.00     0.013 A 
HETATM    9  C9  UNL     1       2.917  -7.308 -11.337  1.00  0.00    -0.022 A 
HETATM   10  C10 UNL     1       2.979  -5.940 -11.277  1.00  0.00     0.048 A 
HETATM   11  C11 UNL     1       2.141  -5.180 -12.039  1.00  0.00     0.066 A 
HETATM   12  C12 UNL     1       1.232  -5.824 -12.867  1.00  0.00     0.037 A 
HETATM   13  C13 UNL     1       1.143  -7.199 -12.950  1.00  0.00     0.016 A 
HETATM   14  C14 UNL     1       2.000  -7.947 -12.172  1.00  0.00    -0.015 A 
HETATM   15  C15 UNL     1       2.752 -11.510 -11.470  1.00  0.00    -0.031 C 
HETATM   16  C16 UNL     1       3.242 -12.442 -10.638  1.00  0.00    -0.010 C 
HETATM   17  C17 UNL     1       2.739 -13.807 -11.043  1.00  0.00     0.107 C 
HETATM   18  C18 UNL     1       1.437 -13.345 -11.702  1.00  0.00     0.146 C 
HETATM   19  O2  UNL     1       0.382 -13.832 -11.563  1.00  0.00    -0.296 OA
ENDROOT
BRANCH  11  20
HETATM   20  O1  UNL     1       2.216  -3.798 -11.968  1.00  0.00    -0.361 OA
ATOM     21  H1  UNL     1       2.884  -3.391 -11.429  1.00  0.00     0.217 HD
ENDBRANCH  11  20
TORSDOF 1
ENDMDL
