MODEL 2
REMARK VINA RESULT: -8.486649790      2.411      3.676
REMARK  1 active torsions:
REMARK  status: ('A' for Active; 'I' for Inactive)
REMARK    1  A    between atoms: C11_11  and  O1_12 
ROOT
HETATM    1  C1  UNL     1       2.197  -6.386 -10.045  1.00  0.00     0.033 C 
HETATM    2  C2  UNL     1       0.983  -7.281 -10.479  1.00  0.00     0.062 C 
HETATM    3  C3  UNL     1       0.928  -8.401  -9.570  1.00  0.00    -0.004 C 
HETATM    4  C4  UNL     1       1.221  -9.672  -9.870  1.00  0.00     0.011 C 
HETATM    5  C5  UNL     1       1.603 -10.005 -11.216  1.00  0.00    -0.015 A 
HETATM    6  C6  UNL     1       1.634  -9.045 -12.239  1.00  0.00    -0.018 A 
HETATM    7  C7  UNL     1       2.018  -9.381 -13.513  1.00  0.00     0.014 A 
HETATM    8  C8  UNL     1       2.387 -10.651 -13.865  1.00  0.00     0.013 A 
HETATM    9  C9  UNL     1       2.363 -11.606 -12.884  1.00  0.00    -0.022 A 
HETATM   10  C10 UNL     1       2.731 -12.880 -13.225  1.00  0.00     0.048 A 
HETATM   11  C11 UNL     1       2.727 -13.871 -12.288  1.00  0.00     0.066 A 
HETATM   12  C12 UNL     1       2.343 -13.555 -10.992  1.00  0.00     0.037 A 
HETATM   13  C13 UNL     1       1.967 -12.281 -10.615  1.00  0.00     0.016 A 
HETATM   14  C14 UNL     1       1.980 -11.297 -11.579  1.00  0.00    -0.015 A 
HETATM   15  C15 UNL     1       1.225  -7.679 -11.890  1.00  0.00    -0.031 C 
HETATM   16  C16 UNL     1       0.877  -6.636 -12.659  1.00  0.00    -0.010 C 
HETATM   17  C17 UNL     1       0.371  -5.506 -11.794  1.00  0.00     0.107 C 
HETATM   18  C18 UNL     1      -0.127  -6.363 -10.628  1.00  0.00     0.146 C 
HETATM   19  O2  UNL     1      -1.147  -6.239 -10.067  1.00  0.00    -0.296 OA
ENDROOT
BRANCH  11  20
HETATM   20  O1  UNL     1       3.102 -15.156 -12.649  1.00  0.00    -0.361 OA
ATOM     21  H1  UNL     1       2.472 -15.864 -12.585  1.00  0.00     0.217 HD
ENDBRANCH  11  20
TORSDOF 1
ENDMDL
