MODEL 3
REMARK VINA RESULT: -8.414001434      1.109      6.423
REMARK  1 active torsions:
REMARK  status: ('A' for Active; 'I' for Inactive)
REMARK    1  A    between atoms: C11_11  and  O1_12 
ROOT
HETATM    1  C1  UNL     1       0.760 -11.954 -10.530  1.00  0.00     0.033 C 
HETATM    2  C2  UNL     1       2.323 -11.885 -10.662  1.00  0.00     0.062 C 
HETATM    3  C3  UNL     1       2.851 -11.578  -9.354  1.00  0.00    -0.004 C 
HETATM    4  C4  UNL     1       3.415 -10.421  -8.986  1.00  0.00     0.011 C 
HETATM    5  C5  UNL     1       3.555  -9.369  -9.957  1.00  0.00    -0.015 A 
HETATM    6  C6  UNL     1       3.159  -9.532 -11.293  1.00  0.00    -0.018 A 
HETATM    7  C7  UNL     1       3.287  -8.509 -12.198  1.00  0.00     0.014 A 
HETATM    8  C8  UNL     1       3.800  -7.285 -11.866  1.00  0.00     0.013 A 
HETATM    9  C9  UNL     1       4.193  -7.101 -10.568  1.00  0.00    -0.022 A 
HETATM   10  C10 UNL     1       4.708  -5.879 -10.224  1.00  0.00     0.048 A 
HETATM   11  C11 UNL     1       5.115  -5.640  -8.944  1.00  0.00     0.066 A 
HETATM   12  C12 UNL     1       4.996  -6.660  -8.010  1.00  0.00     0.037 A 
HETATM   13  C13 UNL     1       4.482  -7.903  -8.324  1.00  0.00     0.016 A 
HETATM   14  C14 UNL     1       4.076  -8.120  -9.622  1.00  0.00    -0.015 A 
HETATM   15  C15 UNL     1       2.622 -10.843 -11.678  1.00  0.00    -0.031 C 
HETATM   16  C16 UNL     1       2.433 -11.402 -12.883  1.00  0.00    -0.010 C 
HETATM   17  C17 UNL     1       2.015 -12.844 -12.721  1.00  0.00     0.107 C 
HETATM   18  C18 UNL     1       2.693 -13.091 -11.372  1.00  0.00     0.146 C 
HETATM   19  O2  UNL     1       3.325 -14.032 -11.079  1.00  0.00    -0.296 OA
ENDROOT
BRANCH  11  20
HETATM   20  O1  UNL     1       5.634  -4.399  -8.612  1.00  0.00    -0.361 OA
ATOM     21  H1  UNL     1       5.360  -3.976  -7.806  1.00  0.00     0.217 HD
ENDBRANCH  11  20
TORSDOF 1
ENDMDL
