MODEL 4
REMARK VINA RESULT: -8.328444121      1.769      3.230
REMARK  1 active torsions:
REMARK  status: ('A' for Active; 'I' for Inactive)
REMARK    1  A    between atoms: C11_11  and  O1_12 
ROOT
HETATM    1  C1  UNL     1       3.845  -5.972 -11.273  1.00  0.00     0.033 C 
HETATM    2  C2  UNL     1       2.533  -6.759 -10.922  1.00  0.00     0.062 C 
HETATM    3  C3  UNL     1       2.876  -7.740  -9.921  1.00  0.00    -0.004 C 
HETATM    4  C4  UNL     1       2.927  -9.065 -10.104  1.00  0.00     0.011 C 
HETATM    5  C5  UNL     1       2.590  -9.610 -11.391  1.00  0.00    -0.015 A 
HETATM    6  C6  UNL     1       2.164  -8.797 -12.454  1.00  0.00    -0.018 A 
HETATM    7  C7  UNL     1       1.863  -9.335 -13.679  1.00  0.00     0.014 A 
HETATM    8  C8  UNL     1       1.955 -10.675 -13.943  1.00  0.00     0.013 A 
HETATM    9  C9  UNL     1       2.368 -11.488 -12.922  1.00  0.00    -0.022 A 
HETATM   10  C10 UNL     1       2.464 -12.831 -13.175  1.00  0.00     0.048 A 
HETATM   11  C11 UNL     1       2.871 -13.688 -12.195  1.00  0.00     0.066 A 
HETATM   12  C12 UNL     1       3.181 -13.167 -10.946  1.00  0.00     0.037 A 
HETATM   13  C13 UNL     1       3.095 -11.819 -10.659  1.00  0.00     0.016 A 
HETATM   14  C14 UNL     1       2.682 -10.973 -11.665  1.00  0.00    -0.015 A 
HETATM   15  C15 UNL     1       2.040  -7.358 -12.189  1.00  0.00    -0.031 C 
HETATM   16  C16 UNL     1       1.410  -6.386 -12.866  1.00  0.00    -0.010 C 
HETATM   17  C17 UNL     1       1.442  -5.103 -12.071  1.00  0.00     0.107 C 
HETATM   18  C18 UNL     1       1.535  -5.738 -10.682  1.00  0.00     0.146 C 
HETATM   19  O2  UNL     1       0.924  -5.421  -9.735  1.00  0.00    -0.296 OA
ENDROOT
BRANCH  11  20
HETATM   20  O1  UNL     1       2.963 -15.044 -12.467  1.00  0.00    -0.361 OA
ATOM     21  H1  UNL     1       2.700 -15.674 -11.806  1.00  0.00     0.217 HD
ENDBRANCH  11  20
TORSDOF 1
ENDMDL
