MODEL 1
REMARK VINA RESULT: -7.931940583      0.000      0.000
REMARK  3 active torsions:
REMARK  status: ('A' for Active; 'I' for Inactive)
REMARK    1  A    between atoms: C2_2  and  C3_3 
REMARK    2  A    between atoms: C2_2  and  C12_14 
REMARK    3  A    between atoms: C3_3  and  C4_4 
ROOT
HETATM    1  C4  UNL     1      28.834 -49.348 -13.574  1.00  0.00    -0.026 A 
HETATM    2  C5  UNL     1      28.592 -48.777 -12.365  1.00  0.00     0.096 A 
HETATM    3  N1  UNL     1      29.731 -48.273 -11.903  1.00  0.00    -0.365 N 
ATOM      4  H1  UNL     1      29.832 -47.788 -11.011  1.00  0.00     0.165 HD
HETATM    5  C6  UNL     1      30.736 -48.492 -12.773  1.00  0.00     0.042 A 
HETATM    6  C7  UNL     1      32.093 -48.174 -12.767  1.00  0.00     0.030 A 
HETATM    7  C8  UNL     1      32.839 -48.561 -13.848  1.00  0.00     0.002 A 
HETATM    8  C9  UNL     1      32.318 -49.242 -14.928  1.00  0.00     0.001 A 
HETATM    9  C10 UNL     1      30.976 -49.535 -14.893  1.00  0.00     0.014 A 
HETATM   10  C11 UNL     1      30.177 -49.171 -13.832  1.00  0.00    -0.002 A 
ENDROOT
BRANCH   1  11
HETATM   11  C3  UNL     1      27.913 -50.044 -14.505  1.00  0.00     0.085 C 
BRANCH  11  12
HETATM   12  C2  UNL     1      27.194 -49.084 -15.388  1.00  0.00     0.013 C 
HETATM   13  C1  UNL     1      27.735 -48.569 -16.470  1.00  0.00     0.026 C 
BRANCH  12  14
HETATM   14  C12 UNL     1      25.839 -48.729 -14.999  1.00  0.00     0.204 C 
HETATM   15  O1  UNL     1      24.935 -48.802 -15.858  1.00  0.00    -0.644 OA
HETATM   16  O2  UNL     1      25.487 -48.315 -13.730  1.00  0.00    -0.644 OA
ENDBRANCH  12  14
ENDBRANCH  11  12
ENDBRANCH   1  11
TORSDOF 3
ENDMDL
