MODEL 3
REMARK VINA RESULT: -7.418320593      6.758      8.947
REMARK  3 active torsions:
REMARK  status: ('A' for Active; 'I' for Inactive)
REMARK    1  A    between atoms: C2_2  and  C3_3 
REMARK    2  A    between atoms: C2_2  and  C12_14 
REMARK    3  A    between atoms: C3_3  and  C4_4 
ROOT
HETATM    1  C4  UNL     1      22.553 -43.815 -12.386  1.00  0.00    -0.026 A 
HETATM    2  C5  UNL     1      21.458 -44.238 -13.072  1.00  0.00     0.096 A 
HETATM    3  N1  UNL     1      21.276 -43.430 -14.111  1.00  0.00    -0.365 N 
ATOM      4  H1  UNL     1      20.522 -43.521 -14.793  1.00  0.00     0.165 HD
HETATM    5  C6  UNL     1      22.223 -42.472 -14.141  1.00  0.00     0.042 A 
HETATM    6  C7  UNL     1      22.479 -41.406 -15.002  1.00  0.00     0.030 A 
HETATM    7  C8  UNL     1      23.559 -40.612 -14.723  1.00  0.00     0.002 A 
HETATM    8  C9  UNL     1      24.395 -40.814 -13.645  1.00  0.00     0.001 A 
HETATM    9  C10 UNL     1      24.107 -41.876 -12.823  1.00  0.00     0.014 A 
HETATM   10  C11 UNL     1      23.034 -42.708 -13.055  1.00  0.00    -0.002 A 
ENDROOT
BRANCH   1  11
HETATM   11  C3  UNL     1      23.184 -44.361 -11.160  1.00  0.00     0.085 C 
BRANCH  11  12
HETATM   12  C2  UNL     1      23.978 -45.587 -11.449  1.00  0.00     0.013 C 
HETATM   13  C1  UNL     1      25.176 -45.549 -11.989  1.00  0.00     0.026 C 
BRANCH  12  14
HETATM   14  C12 UNL     1      23.364 -46.859 -11.103  1.00  0.00     0.204 C 
HETATM   15  O1  UNL     1      22.789 -46.960  -9.999  1.00  0.00    -0.644 OA
HETATM   16  O2  UNL     1      23.376 -47.968 -11.925  1.00  0.00    -0.644 OA
ENDBRANCH  12  14
ENDBRANCH  11  12
ENDBRANCH   1  11
TORSDOF 3
ENDMDL
