MODEL 2
REMARK VINA RESULT: -7.852106463      0.824      1.090
REMARK  3 active torsions:
REMARK  status: ('A' for Active; 'I' for Inactive)
REMARK    1  A    between atoms: C2_2  and  C3_3 
REMARK    2  A    between atoms: C2_2  and  C12_14 
REMARK    3  A    between atoms: C3_3  and  C4_4 
ROOT
HETATM    1  C4  UNL     1      29.333 -48.673 -13.645  1.00  0.00    -0.026 A 
HETATM    2  C5  UNL     1      28.901 -48.561 -12.361  1.00  0.00     0.096 A 
HETATM    3  N1  UNL     1      29.956 -48.636 -11.556  1.00  0.00    -0.365 N 
ATOM      4  H1  UNL     1      29.914 -48.580 -10.538  1.00  0.00     0.165 HD
HETATM    5  C6  UNL     1      31.088 -48.795 -12.268  1.00  0.00     0.042 A 
HETATM    6  C7  UNL     1      32.430 -48.923 -11.916  1.00  0.00     0.030 A 
HETATM    7  C8  UNL     1      33.340 -49.073 -12.928  1.00  0.00     0.002 A 
HETATM    8  C9  UNL     1      32.996 -49.103 -14.263  1.00  0.00     0.001 A 
HETATM    9  C10 UNL     1      31.662 -48.973 -14.566  1.00  0.00     0.014 A 
HETATM   10  C11 UNL     1      30.703 -48.820 -13.590  1.00  0.00    -0.002 A 
ENDROOT
BRANCH   1  11
HETATM   11  C3  UNL     1      28.569 -48.654 -14.916  1.00  0.00     0.085 C 
BRANCH  11  12
HETATM   12  C2  UNL     1      27.354 -49.512 -14.841  1.00  0.00     0.013 C 
HETATM   13  C1  UNL     1      27.407 -50.825 -14.860  1.00  0.00     0.026 C 
BRANCH  12  14
HETATM   14  C12 UNL     1      26.076 -48.825 -14.746  1.00  0.00     0.204 C 
HETATM   15  O1  UNL     1      25.325 -48.825 -15.744  1.00  0.00    -0.644 OA
HETATM   16  O2  UNL     1      25.637 -48.171 -13.612  1.00  0.00    -0.644 OA
ENDBRANCH  12  14
ENDBRANCH  11  12
ENDBRANCH   1  11
TORSDOF 3
ENDMDL
