MODEL 8
REMARK VINA RESULT: -7.246537239      3.014      4.722
REMARK  3 active torsions:
REMARK  status: ('A' for Active; 'I' for Inactive)
REMARK    1  A    between atoms: C2_2  and  C3_3 
REMARK    2  A    between atoms: C2_2  and  C12_14 
REMARK    3  A    between atoms: C3_3  and  C4_4 
ROOT
HETATM    1  C4  UNL     1      26.628 -46.969 -12.445  1.00  0.00    -0.026 A 
HETATM    2  C5  UNL     1      27.703 -47.117 -11.625  1.00  0.00     0.096 A 
HETATM    3  N1  UNL     1      28.502 -48.043 -12.144  1.00  0.00    -0.365 N 
ATOM      4  H1  UNL     1      29.382 -48.349 -11.728  1.00  0.00     0.165 HD
HETATM    5  C6  UNL     1      27.992 -48.522 -13.295  1.00  0.00     0.042 A 
HETATM    6  C7  UNL     1      28.426 -49.480 -14.209  1.00  0.00     0.030 A 
HETATM    7  C8  UNL     1      27.634 -49.721 -15.299  1.00  0.00     0.002 A 
HETATM    8  C9  UNL     1      26.441 -49.070 -15.533  1.00  0.00     0.001 A 
HETATM    9  C10 UNL     1      26.051 -48.133 -14.607  1.00  0.00     0.014 A 
HETATM   10  C11 UNL     1      26.807 -47.849 -13.492  1.00  0.00    -0.002 A 
ENDROOT
BRANCH   1  11
HETATM   11  C3  UNL     1      25.452 -46.074 -12.328  1.00  0.00     0.085 C 
BRANCH  11  12
HETATM   12  C2  UNL     1      24.721 -46.291 -11.048  1.00  0.00     0.013 C 
HETATM   13  C1  UNL     1      24.981 -45.608  -9.956  1.00  0.00     0.026 C 
BRANCH  12  14
HETATM   14  C12 UNL     1      23.684 -47.310 -11.054  1.00  0.00     0.204 C 
HETATM   15  O1  UNL     1      23.020 -47.488 -10.011  1.00  0.00    -0.644 OA
HETATM   16  O2  UNL     1      23.385 -48.097 -12.148  1.00  0.00    -0.644 OA
ENDBRANCH  12  14
ENDBRANCH  11  12
ENDBRANCH   1  11
TORSDOF 3
ENDMDL
