MODEL 6
REMARK VINA RESULT: -5.965466607      1.127      1.327
REMARK  1 active torsions:
REMARK  status: ('A' for Active; 'I' for Inactive)
REMARK    1  A    between atoms: C7_8  and  O1_9 
ROOT
HETATM    1  N1  UNL     1     -29.631   5.849 -18.440  1.00  0.00    -0.100 NA
HETATM    2  C1  UNL     1     -29.239   6.570 -17.282  1.00  0.00     0.073 A 
HETATM    3  C2  UNL     1     -29.062   7.958 -17.321  1.00  0.00     0.029 A 
HETATM    4  C3  UNL     1     -28.680   8.636 -16.178  1.00  0.00     0.003 A 
HETATM    5  C4  UNL     1     -28.464   7.988 -14.980  1.00  0.00     0.014 A 
HETATM    6  C5  UNL     1     -28.634   6.623 -14.923  1.00  0.00    -0.005 A 
HETATM    7  C6  UNL     1     -28.420   5.942 -13.721  1.00  0.00     0.051 A 
HETATM    8  C7  UNL     1     -28.589   4.572 -13.658  1.00  0.00     0.081 A 
HETATM    9  C8  UNL     1     -28.971   3.939 -14.824  1.00  0.00     0.124 A 
HETATM   10  N2  UNL     1     -29.171   4.615 -15.971  1.00  0.00    -0.361 N 
ATOM     11  H2  UNL     1     -29.453   4.095 -16.802  1.00  0.00     0.165 HD
HETATM   12  C9  UNL     1     -29.014   5.953 -16.066  1.00  0.00     0.067 A 
ENDROOT
BRANCH   8  13
HETATM   13  O1  UNL     1     -28.393   3.836 -12.495  1.00  0.00    -0.359 OA
ATOM     14  H1  UNL     1     -29.103   3.418 -12.020  1.00  0.00     0.217 HD
ENDBRANCH   8  13
TORSDOF 1
ENDMDL
