MODEL 11
REMARK VINA RESULT: -5.626132810      5.592      7.082
REMARK  1 active torsions:
REMARK  status: ('A' for Active; 'I' for Inactive)
REMARK    1  A    between atoms: C7_8  and  O1_9 
ROOT
HETATM    1  N1  UNL     1     -23.833   2.160 -11.782  1.00  0.00    -0.100 NA
HETATM    2  C1  UNL     1     -24.784   1.908 -12.804  1.00  0.00     0.073 A 
HETATM    3  C2  UNL     1     -25.867   2.770 -13.011  1.00  0.00     0.029 A 
HETATM    4  C3  UNL     1     -26.779   2.502 -14.015  1.00  0.00     0.003 A 
HETATM    5  C4  UNL     1     -26.663   1.399 -14.834  1.00  0.00     0.014 A 
HETATM    6  C5  UNL     1     -25.604   0.540 -14.645  1.00  0.00    -0.005 A 
HETATM    7  C6  UNL     1     -25.464  -0.586 -15.462  1.00  0.00     0.051 A 
HETATM    8  C7  UNL     1     -24.403  -1.452 -15.277  1.00  0.00     0.081 A 
HETATM    9  C8  UNL     1     -23.518  -1.142 -14.263  1.00  0.00     0.124 A 
HETATM   10  N2  UNL     1     -23.673  -0.052 -13.488  1.00  0.00    -0.361 N 
ATOM     11  H2  UNL     1     -22.988   0.127 -12.754  1.00  0.00     0.165 HD
HETATM   12  C9  UNL     1     -24.698   0.813 -13.642  1.00  0.00     0.067 A 
ENDROOT
BRANCH   8  13
HETATM   13  O1  UNL     1     -24.205  -2.588 -16.054  1.00  0.00    -0.359 OA
ATOM     14  H1  UNL     1     -23.353  -2.987 -16.180  1.00  0.00     0.217 HD
ENDBRANCH   8  13
TORSDOF 1
ENDMDL
