MODEL 10
REMARK VINA RESULT: -5.655264189      3.608      4.611
REMARK  1 active torsions:
REMARK  status: ('A' for Active; 'I' for Inactive)
REMARK    1  A    between atoms: C7_8  and  O1_9 
ROOT
HETATM    1  N1  UNL     1     -27.831   4.888 -13.603  1.00  0.00    -0.100 NA
HETATM    2  C1  UNL     1     -28.223   5.995 -14.400  1.00  0.00     0.073 A 
HETATM    3  C2  UNL     1     -29.248   5.876 -15.345  1.00  0.00     0.029 A 
HETATM    4  C3  UNL     1     -29.611   6.970 -16.109  1.00  0.00     0.003 A 
HETATM    5  C4  UNL     1     -28.993   8.195 -15.973  1.00  0.00     0.014 A 
HETATM    6  C5  UNL     1     -27.983   8.330 -15.048  1.00  0.00    -0.005 A 
HETATM    7  C6  UNL     1     -27.339   9.561 -14.892  1.00  0.00     0.051 A 
HETATM    8  C7  UNL     1     -26.324   9.703 -13.964  1.00  0.00     0.081 A 
HETATM    9  C8  UNL     1     -25.997   8.583 -13.226  1.00  0.00     0.124 A 
HETATM   10  N2  UNL     1     -26.631   7.407 -13.394  1.00  0.00    -0.361 N 
ATOM     11  H2  UNL     1     -26.347   6.613 -12.819  1.00  0.00     0.165 HD
HETATM   12  C9  UNL     1     -27.625   7.235 -14.290  1.00  0.00     0.067 A 
ENDROOT
BRANCH   8  13
HETATM   13  O1  UNL     1     -25.645  10.898 -13.759  1.00  0.00    -0.359 OA
ATOM     14  H1  UNL     1     -24.742  11.034 -14.024  1.00  0.00     0.217 HD
ENDBRANCH   8  13
TORSDOF 1
ENDMDL
