MODEL 8
REMARK VINA RESULT: -5.830606987      2.760      4.606
REMARK  1 active torsions:
REMARK  status: ('A' for Active; 'I' for Inactive)
REMARK    1  A    between atoms: C7_8  and  O1_9 
ROOT
HETATM    1  N1  UNL     1     -28.646   6.115 -13.601  1.00  0.00    -0.100 NA
HETATM    2  C1  UNL     1     -28.634   5.002 -14.482  1.00  0.00     0.073 A 
HETATM    3  C2  UNL     1     -28.330   3.717 -14.018  1.00  0.00     0.029 A 
HETATM    4  C3  UNL     1     -28.326   2.650 -14.897  1.00  0.00     0.003 A 
HETATM    5  C4  UNL     1     -28.615   2.804 -16.236  1.00  0.00     0.014 A 
HETATM    6  C5  UNL     1     -28.917   4.060 -16.711  1.00  0.00    -0.005 A 
HETATM    7  C6  UNL     1     -29.213   4.244 -18.065  1.00  0.00     0.051 A 
HETATM    8  C7  UNL     1     -29.517   5.503 -18.546  1.00  0.00     0.081 A 
HETATM    9  C8  UNL     1     -29.508   6.536 -17.631  1.00  0.00     0.124 A 
HETATM   10  N2  UNL     1     -29.220   6.337 -16.331  1.00  0.00    -0.361 N 
ATOM     11  H2  UNL     1     -29.229   7.138 -15.700  1.00  0.00     0.165 HD
HETATM   12  C9  UNL     1     -28.919   5.120 -15.829  1.00  0.00     0.067 A 
ENDROOT
BRANCH   8  13
HETATM   13  O1  UNL     1     -29.820   5.753 -19.879  1.00  0.00    -0.359 OA
ATOM     14  H1  UNL     1     -29.920   6.629 -20.233  1.00  0.00     0.217 HD
ENDBRANCH   8  13
TORSDOF 1
ENDMDL
