MODEL 1
REMARK VINA RESULT: -6.372797650      0.000      0.000
REMARK  1 active torsions:
REMARK  status: ('A' for Active; 'I' for Inactive)
REMARK    1  A    between atoms: C7_8  and  O1_9 
ROOT
HETATM    1  N1  UNL     1     -29.173   3.940 -18.646  1.00  0.00    -0.100 NA
HETATM    2  C1  UNL     1     -29.197   4.975 -17.675  1.00  0.00     0.073 A 
HETATM    3  C2  UNL     1     -29.411   6.308 -18.045  1.00  0.00     0.029 A 
HETATM    4  C3  UNL     1     -29.429   7.297 -17.078  1.00  0.00     0.003 A 
HETATM    5  C4  UNL     1     -29.243   7.017 -15.742  1.00  0.00     0.014 A 
HETATM    6  C5  UNL     1     -29.032   5.711 -15.359  1.00  0.00    -0.005 A 
HETATM    7  C6  UNL     1     -28.839   5.401 -14.009  1.00  0.00     0.051 A 
HETATM    8  C7  UNL     1     -28.627   4.092 -13.620  1.00  0.00     0.081 A 
HETATM    9  C8  UNL     1     -28.617   3.141 -14.620  1.00  0.00     0.124 A 
HETATM   10  N2  UNL     1     -28.804   3.462 -15.914  1.00  0.00    -0.361 N 
ATOM     11  H2  UNL     1     -28.787   2.717 -16.610  1.00  0.00     0.165 HD
HETATM   12  C9  UNL     1     -29.014   4.730 -16.327  1.00  0.00     0.067 A 
ENDROOT
BRANCH   8  13
HETATM   13  O1  UNL     1     -28.429   3.717 -12.296  1.00  0.00    -0.359 OA
ATOM     14  H1  UNL     1     -27.654   3.257 -11.998  1.00  0.00     0.217 HD
ENDBRANCH   8  13
TORSDOF 1
ENDMDL
