MODEL 1
REMARK VINA RESULT: -5.315527105      0.000      0.000
REMARK  1 active torsions:
REMARK  status: ('A' for Active; 'I' for Inactive)
REMARK    1  A    between atoms: C2_2  and  C3_3 
ROOT
HETATM    1  C3  UNL     1     -27.078   4.777 -30.823  1.00  0.00     0.013 A 
HETATM    2  C4  UNL     1     -26.556   5.208 -32.007  1.00  0.00     0.080 A 
HETATM    3  C5  UNL     1     -26.807   6.499 -32.437  1.00  0.00     0.186 A 
HETATM    4  O1  UNL     1     -26.317   6.885 -33.536  1.00  0.00    -0.287 OA
HETATM    5  C6  UNL     1     -27.568   7.373 -31.712  1.00  0.00     0.041 A 
HETATM    6  C7  UNL     1     -27.831   8.648 -32.110  1.00  0.00     0.018 A 
HETATM    7  C8  UNL     1     -28.598   9.528 -31.378  1.00  0.00     0.001 A 
HETATM    8  C9  UNL     1     -29.113   9.051 -30.176  1.00  0.00     0.002 A 
HETATM    9  C10 UNL     1     -28.853   7.767 -29.767  1.00  0.00     0.030 A 
HETATM   10  C11 UNL     1     -28.087   6.897 -30.504  1.00  0.00     0.046 A 
HETATM   11  N1  UNL     1     -27.828   5.635 -30.107  1.00  0.00    -0.359 N 
ATOM     12  H1  UNL     1     -28.220   5.316 -29.222  1.00  0.00     0.166 HD
ENDROOT
BRANCH   1  13
HETATM   13  C2  UNL     1     -26.879   3.421 -30.260  1.00  0.00     0.052 C 
HETATM   14  C1  UNL     1     -27.300   2.328 -31.175  1.00  0.00     0.011 C 
ENDBRANCH   1  13
TORSDOF 1
ENDMDL
