MODEL 5
REMARK VINA RESULT: -5.011591204      1.684      2.702
REMARK  1 active torsions:
REMARK  status: ('A' for Active; 'I' for Inactive)
REMARK    1  A    between atoms: C2_2  and  C3_3 
ROOT
HETATM    1  C3  UNL     1     -27.110   4.812 -30.707  1.00  0.00     0.013 A 
HETATM    2  C4  UNL     1     -27.905   5.687 -30.029  1.00  0.00     0.080 A 
HETATM    3  C5  UNL     1     -28.084   6.971 -30.516  1.00  0.00     0.186 A 
HETATM    4  O1  UNL     1     -28.824   7.771 -29.878  1.00  0.00    -0.287 OA
HETATM    5  C6  UNL     1     -27.486   7.402 -31.668  1.00  0.00     0.041 A 
HETATM    6  C7  UNL     1     -27.644   8.657 -32.171  1.00  0.00     0.018 A 
HETATM    7  C8  UNL     1     -27.040   9.090 -33.331  1.00  0.00     0.001 A 
HETATM    8  C9  UNL     1     -26.236   8.168 -33.994  1.00  0.00     0.002 A 
HETATM    9  C10 UNL     1     -26.071   6.900 -33.494  1.00  0.00     0.030 A 
HETATM   10  C11 UNL     1     -26.677   6.477 -32.335  1.00  0.00     0.046 A 
HETATM   11  N1  UNL     1     -26.519   5.234 -31.840  1.00  0.00    -0.359 N 
ATOM     12  H1  UNL     1     -25.923   4.581 -32.349  1.00  0.00     0.166 HD
ENDROOT
BRANCH   1  13
HETATM   13  C2  UNL     1     -26.843   3.417 -30.285  1.00  0.00     0.052 C 
HETATM   14  C1  UNL     1     -27.190   2.405 -31.317  1.00  0.00     0.011 C 
ENDBRANCH   1  13
TORSDOF 1
ENDMDL
