MODEL 9
REMARK VINA RESULT: -4.719904947      2.520      4.772
REMARK  1 active torsions:
REMARK  status: ('A' for Active; 'I' for Inactive)
REMARK    1  A    between atoms: C2_2  and  C3_3 
ROOT
HETATM    1  C3  UNL     1     -26.958   5.446 -34.702  1.00  0.00     0.013 A 
HETATM    2  C4  UNL     1     -26.952   6.507 -33.846  1.00  0.00     0.080 A 
HETATM    3  C5  UNL     1     -26.984   6.286 -32.480  1.00  0.00     0.186 A 
HETATM    4  O1  UNL     1     -26.977   7.279 -31.698  1.00  0.00    -0.287 OA
HETATM    5  C6  UNL     1     -27.022   5.028 -31.947  1.00  0.00     0.041 A 
HETATM    6  C7  UNL     1     -27.053   4.781 -30.608  1.00  0.00     0.018 A 
HETATM    7  C8  UNL     1     -27.092   3.512 -30.073  1.00  0.00     0.001 A 
HETATM    8  C9  UNL     1     -27.097   2.455 -30.978  1.00  0.00     0.002 A 
HETATM    9  C10 UNL     1     -27.066   2.695 -32.329  1.00  0.00     0.030 A 
HETATM   10  C11 UNL     1     -27.028   3.965 -32.855  1.00  0.00     0.046 A 
HETATM   11  N1  UNL     1     -26.996   4.206 -34.180  1.00  0.00    -0.359 N 
ATOM     12  H1  UNL     1     -27.001   3.411 -34.818  1.00  0.00     0.166 HD
ENDROOT
BRANCH   1  13
HETATM   13  C2  UNL     1     -26.926   5.557 -36.179  1.00  0.00     0.052 C 
HETATM   14  C1  UNL     1     -25.862   6.462 -36.687  1.00  0.00     0.011 C 
ENDBRANCH   1  13
TORSDOF 1
ENDMDL
