MODEL 2
REMARK VINA RESULT: -5.254577453      2.878      4.705
REMARK  1 active torsions:
REMARK  status: ('A' for Active; 'I' for Inactive)
REMARK    1  A    between atoms: C2_2  and  C3_3 
ROOT
HETATM    1  C3  UNL     1     -26.694   4.361 -34.878  1.00  0.00     0.013 A 
HETATM    2  C4  UNL     1     -26.565   5.580 -34.282  1.00  0.00     0.080 A 
HETATM    3  C5  UNL     1     -26.642   5.682 -32.904  1.00  0.00     0.186 A 
HETATM    4  O1  UNL     1     -26.521   6.818 -32.365  1.00  0.00    -0.287 OA
HETATM    5  C6  UNL     1     -26.844   4.592 -32.104  1.00  0.00     0.041 A 
HETATM    6  C7  UNL     1     -26.923   4.662 -30.746  1.00  0.00     0.018 A 
HETATM    7  C8  UNL     1     -27.127   3.562 -29.941  1.00  0.00     0.001 A 
HETATM    8  C9  UNL     1     -27.253   2.336 -30.586  1.00  0.00     0.002 A 
HETATM    9  C10 UNL     1     -27.175   2.256 -31.954  1.00  0.00     0.030 A 
HETATM   10  C11 UNL     1     -26.972   3.358 -32.749  1.00  0.00     0.046 A 
HETATM   11  N1  UNL     1     -26.894   3.286 -34.092  1.00  0.00    -0.359 N 
ATOM     12  H1  UNL     1     -26.991   2.372 -34.535  1.00  0.00     0.166 HD
ENDROOT
BRANCH   1  13
HETATM   13  C2  UNL     1     -26.630   4.127 -36.339  1.00  0.00     0.052 C 
HETATM   14  C1  UNL     1     -27.056   2.762 -36.744  1.00  0.00     0.011 C 
ENDBRANCH   1  13
TORSDOF 1
ENDMDL
