MODEL 6
REMARK VINA RESULT: -4.818521138      3.287      5.452
REMARK  1 active torsions:
REMARK  status: ('A' for Active; 'I' for Inactive)
REMARK    1  A    between atoms: C2_2  and  C3_3 
ROOT
HETATM    1  C3  UNL     1     -27.333   4.478 -31.840  1.00  0.00     0.013 A 
HETATM    2  C4  UNL     1     -27.128   3.242 -31.303  1.00  0.00     0.080 A 
HETATM    3  C5  UNL     1     -27.886   2.169 -31.741  1.00  0.00     0.186 A 
HETATM    4  O1  UNL     1     -27.685   1.029 -31.236  1.00  0.00    -0.287 OA
HETATM    5  C6  UNL     1     -28.846   2.302 -32.706  1.00  0.00     0.041 A 
HETATM    6  C7  UNL     1     -29.605   1.266 -33.156  1.00  0.00     0.018 A 
HETATM    7  C8  UNL     1     -30.573   1.402 -34.128  1.00  0.00     0.001 A 
HETATM    8  C9  UNL     1     -30.753   2.679 -34.651  1.00  0.00     0.002 A 
HETATM    9  C10 UNL     1     -29.992   3.729 -34.202  1.00  0.00     0.030 A 
HETATM   10  C11 UNL     1     -29.029   3.584 -33.232  1.00  0.00     0.046 A 
HETATM   11  N1  UNL     1     -28.279   4.612 -32.788  1.00  0.00    -0.359 N 
ATOM     12  H1  UNL     1     -28.435   5.536 -33.191  1.00  0.00     0.166 HD
ENDROOT
BRANCH   1  13
HETATM   13  C2  UNL     1     -26.587   5.698 -31.452  1.00  0.00     0.052 C 
HETATM   14  C1  UNL     1     -27.399   6.672 -30.676  1.00  0.00     0.011 C 
ENDBRANCH   1  13
TORSDOF 1
ENDMDL
