MODEL 2
REMARK VINA RESULT: -6.931649013      1.774      5.443
REMARK  4 active torsions:
REMARK  status: ('A' for Active; 'I' for Inactive)
REMARK    1  A    between atoms: N1_2  and  C2_5 
REMARK    2  A    between atoms: C2_5  and  C3_6 
REMARK    3  A    between atoms: N2_18  and  C15_19 
REMARK    4  A    between atoms: C15_19  and  C16_20 
ROOT
HETATM    1  C3  UNL     1     124.348 102.015 -46.507  1.00  0.00    -0.032 A 
HETATM    2  C4  UNL     1     124.711 101.107 -45.531  1.00  0.00     0.011 A 
HETATM    3  C5  UNL     1     124.925 101.512 -44.211  1.00  0.00     0.031 A 
HETATM    4  C6  UNL     1     124.783 102.824 -43.843  1.00  0.00     0.046 A 
HETATM    5  C7  UNL     1     124.420 103.724 -44.826  1.00  0.00     0.004 A 
HETATM    6  C8  UNL     1     124.205 103.335 -46.131  1.00  0.00     0.023 A 
HETATM    7  C9  UNL     1     124.330 104.991 -44.247  1.00  0.00     0.003 A 
HETATM    8  C10 UNL     1     124.008 106.228 -44.775  1.00  0.00     0.014 A 
HETATM    9  C11 UNL     1     123.991 107.360 -43.962  1.00  0.00     0.001 A 
HETATM   10  C12 UNL     1     124.303 107.216 -42.623  1.00  0.00     0.002 A 
HETATM   11  C13 UNL     1     124.621 105.970 -42.123  1.00  0.00     0.030 A 
HETATM   12  C14 UNL     1     124.641 104.833 -42.924  1.00  0.00     0.046 A 
HETATM   13  N2  UNL     1     124.908 103.528 -42.705  1.00  0.00    -0.343 N 
ENDROOT
BRANCH   1  14
HETATM   14  C2  UNL     1     124.120 101.578 -47.911  1.00  0.00     0.270 C 
BRANCH  14  15
HETATM   15  N1  UNL     1     124.690 100.276 -48.179  1.00  0.00    -0.075 N 
HETATM   16  C1  UNL     1     123.800  99.462 -48.999  1.00  0.00     0.267 C 
ATOM     17  H12 UNL     1     124.947  99.795 -47.317  1.00  0.00     0.277 HD
ATOM     18  H11 UNL     1     125.617 100.354 -48.598  1.00  0.00     0.277 HD
ENDBRANCH  14  15
ENDBRANCH   1  14
BRANCH  13  19
HETATM   19  C15 UNL     1     125.279 102.954 -41.429  1.00  0.00     0.161 C 
BRANCH  19  20
HETATM   20  C16 UNL     1     126.553 102.136 -41.541  1.00  0.00     0.242 C 
HETATM   21  F1  UNL     1     127.497 102.623 -40.684  1.00  0.00    -0.254 F 
ENDBRANCH  19  20
ENDBRANCH  13  19
TORSDOF 4
ENDMDL
