MODEL 4
REMARK VINA RESULT: -5.942104115      2.650      6.369
REMARK  4 active torsions:
REMARK  status: ('A' for Active; 'I' for Inactive)
REMARK    1  A    between atoms: N1_2  and  C2_5 
REMARK    2  A    between atoms: C2_5  and  C3_6 
REMARK    3  A    between atoms: N2_18  and  C15_19 
REMARK    4  A    between atoms: C15_19  and  C16_20 
ROOT
HETATM    1  C3  UNL     1     124.413 101.908 -45.917  1.00  0.00    -0.032 A 
HETATM    2  C4  UNL     1     124.041 102.879 -46.828  1.00  0.00     0.011 A 
HETATM    3  C5  UNL     1     123.913 104.217 -46.446  1.00  0.00     0.031 A 
HETATM    4  C6  UNL     1     124.152 104.608 -45.154  1.00  0.00     0.046 A 
HETATM    5  C7  UNL     1     124.523 103.631 -44.252  1.00  0.00     0.004 A 
HETATM    6  C8  UNL     1     124.653 102.309 -44.618  1.00  0.00     0.023 A 
HETATM    7  C9  UNL     1     124.716 104.235 -43.009  1.00  0.00     0.003 A 
HETATM    8  C10 UNL     1     125.088 103.722 -41.779  1.00  0.00     0.014 A 
HETATM    9  C11 UNL     1     125.212 104.559 -40.673  1.00  0.00     0.001 A 
HETATM   10  C12 UNL     1     124.954 105.908 -40.833  1.00  0.00     0.002 A 
HETATM   11  C13 UNL     1     124.585 106.393 -42.071  1.00  0.00     0.030 A 
HETATM   12  C14 UNL     1     124.458 105.567 -43.183  1.00  0.00     0.046 A 
HETATM   13  N2  UNL     1     124.122 105.768 -44.475  1.00  0.00    -0.343 N 
ENDROOT
BRANCH   1  14
HETATM   14  C2  UNL     1     124.548 100.485 -46.329  1.00  0.00     0.270 C 
BRANCH  14  15
HETATM   15  N1  UNL     1     125.049 100.350 -47.680  1.00  0.00    -0.075 N 
HETATM   16  C1  UNL     1     124.102  99.640 -48.532  1.00  0.00     0.267 C 
ATOM     17  H12 UNL     1     125.969  99.909 -47.695  1.00  0.00     0.277 HD
ATOM     18  H11 UNL     1     125.302 101.255 -48.076  1.00  0.00     0.277 HD
ENDBRANCH  14  15
ENDBRANCH   1  14
BRANCH  13  19
HETATM   19  C15 UNL     1     123.777 107.046 -45.060  1.00  0.00     0.161 C 
BRANCH  19  20
HETATM   20  C16 UNL     1     122.278 107.281 -45.028  1.00  0.00     0.242 C 
HETATM   21  F1  UNL     1     121.882 107.595 -43.759  1.00  0.00    -0.254 F 
ENDBRANCH  19  20
ENDBRANCH  13  19
TORSDOF 4
ENDMDL
