MODEL 1
REMARK VINA RESULT: -7.391531018      0.000      0.000
REMARK  4 active torsions:
REMARK  status: ('A' for Active; 'I' for Inactive)
REMARK    1  A    between atoms: N1_2  and  C2_5 
REMARK    2  A    between atoms: C2_5  and  C3_6 
REMARK    3  A    between atoms: N2_18  and  C15_19 
REMARK    4  A    between atoms: C15_19  and  C16_20 
ROOT
HETATM    1  C3  UNL     1     124.355 106.861 -42.713  1.00  0.00    -0.032 A 
HETATM    2  C4  UNL     1     124.711 106.309 -41.496  1.00  0.00     0.011 A 
HETATM    3  C5  UNL     1     124.966 104.942 -41.370  1.00  0.00     0.031 A 
HETATM    4  C6  UNL     1     124.871 104.103 -42.449  1.00  0.00     0.046 A 
HETATM    5  C7  UNL     1     124.515 104.663 -43.660  1.00  0.00     0.004 A 
HETATM    6  C8  UNL     1     124.262 106.010 -43.797  1.00  0.00     0.023 A 
HETATM    7  C9  UNL     1     124.477 103.647 -44.617  1.00  0.00     0.003 A 
HETATM    8  C10 UNL     1     124.182 103.660 -45.968  1.00  0.00     0.014 A 
HETATM    9  C11 UNL     1     124.217 102.482 -46.710  1.00  0.00     0.001 A 
HETATM   10  C12 UNL     1     124.553 101.305 -46.066  1.00  0.00     0.002 A 
HETATM   11  C13 UNL     1     124.843 101.321 -44.717  1.00  0.00     0.030 A 
HETATM   12  C14 UNL     1     124.811 102.491 -43.966  1.00  0.00     0.046 A 
HETATM   13  N2  UNL     1     125.042 102.788 -42.669  1.00  0.00    -0.343 N 
ENDROOT
BRANCH   1  14
HETATM   14  C2  UNL     1     124.085 108.317 -42.843  1.00  0.00     0.270 C 
BRANCH  14  15
HETATM   15  N1  UNL     1     123.087 108.776 -41.901  1.00  0.00    -0.075 N 
HETATM   16  C1  UNL     1     121.747 108.727 -42.476  1.00  0.00     0.267 C 
ATOM     17  H12 UNL     1     123.307 109.707 -41.546  1.00  0.00     0.277 HD
ATOM     18  H11 UNL     1     123.135 108.257 -41.024  1.00  0.00     0.277 HD
ENDBRANCH  14  15
ENDBRANCH   1  14
BRANCH  13  19
HETATM   19  C15 UNL     1     125.422 101.834 -41.649  1.00  0.00     0.161 C 
BRANCH  19  20
HETATM   20  C16 UNL     1     126.932 101.738 -41.518  1.00  0.00     0.242 C 
HETATM   21  F1  UNL     1     127.396 102.747 -40.724  1.00  0.00    -0.254 F 
ENDBRANCH  19  20
ENDBRANCH  13  19
TORSDOF 4
ENDMDL
