MODEL 3
REMARK VINA RESULT: -5.949084592      2.565      6.255
REMARK  4 active torsions:
REMARK  status: ('A' for Active; 'I' for Inactive)
REMARK    1  A    between atoms: N1_2  and  C2_5 
REMARK    2  A    between atoms: C2_5  and  C3_6 
REMARK    3  A    between atoms: N2_18  and  C15_19 
REMARK    4  A    between atoms: C15_19  and  C16_20 
ROOT
HETATM    1  C3  UNL     1     124.352 101.278 -46.926  1.00  0.00    -0.032 A 
HETATM    2  C4  UNL     1     123.981 102.473 -47.513  1.00  0.00     0.011 A 
HETATM    3  C5  UNL     1     123.924 103.655 -46.770  1.00  0.00     0.031 A 
HETATM    4  C6  UNL     1     124.232 103.667 -45.435  1.00  0.00     0.046 A 
HETATM    5  C7  UNL     1     124.600 102.467 -44.858  1.00  0.00     0.004 A 
HETATM    6  C8  UNL     1     124.662 101.296 -45.580  1.00  0.00     0.023 A 
HETATM    7  C9  UNL     1     124.869 102.697 -43.508  1.00  0.00     0.003 A 
HETATM    8  C10 UNL     1     125.272 101.854 -42.488  1.00  0.00     0.014 A 
HETATM    9  C11 UNL     1     125.475 102.347 -41.201  1.00  0.00     0.001 A 
HETATM   10  C12 UNL     1     125.266 103.694 -40.970  1.00  0.00     0.002 A 
HETATM   11  C13 UNL     1     124.864 104.514 -42.006  1.00  0.00     0.030 A 
HETATM   12  C14 UNL     1     124.658 104.032 -43.294  1.00  0.00     0.046 A 
HETATM   13  N2  UNL     1     124.277 104.592 -44.461  1.00  0.00    -0.343 N 
ENDROOT
BRANCH   1  14
HETATM   14  C2  UNL     1     124.412 100.022 -47.720  1.00  0.00     0.270 C 
BRANCH  14  15
HETATM   15  N1  UNL     1     124.290 100.265 -49.141  1.00  0.00    -0.075 N 
HETATM   16  C1  UNL     1     123.088  99.647 -49.688  1.00  0.00     0.267 C 
ATOM     17  H12 UNL     1     125.126  99.966 -49.644  1.00  0.00     0.277 HD
ATOM     18  H11 UNL     1     124.328 101.262 -49.353  1.00  0.00     0.277 HD
ENDBRANCH  14  15
ENDBRANCH   1  14
BRANCH  13  19
HETATM   19  C15 UNL     1     123.959 105.992 -44.653  1.00  0.00     0.161 C 
BRANCH  19  20
HETATM   20  C16 UNL     1     125.213 106.816 -44.883  1.00  0.00     0.242 C 
HETATM   21  F1  UNL     1     125.523 107.517 -43.753  1.00  0.00    -0.254 F 
ENDBRANCH  19  20
ENDBRANCH  13  19
TORSDOF 4
ENDMDL
