MODEL 7
REMARK VINA RESULT: -5.505174167      1.399      1.752
REMARK  4 active torsions:
REMARK  status: ('A' for Active; 'I' for Inactive)
REMARK    1  A    between atoms: N1_2  and  C2_5 
REMARK    2  A    between atoms: C2_5  and  C3_6 
REMARK    3  A    between atoms: N2_18  and  C15_19 
REMARK    4  A    between atoms: C15_19  and  C16_20 
ROOT
HETATM    1  C3  UNL     1     124.957 107.904 -41.434  1.00  0.00    -0.032 A 
HETATM    2  C4  UNL     1     125.280 107.067 -40.382  1.00  0.00     0.011 A 
HETATM    3  C5  UNL     1     125.305 105.679 -40.545  1.00  0.00     0.031 A 
HETATM    4  C6  UNL     1     125.010 105.104 -41.753  1.00  0.00     0.046 A 
HETATM    5  C7  UNL     1     124.689 105.949 -42.797  1.00  0.00     0.004 A 
HETATM    6  C8  UNL     1     124.662 107.319 -42.649  1.00  0.00     0.023 A 
HETATM    7  C9  UNL     1     124.426 105.169 -43.924  1.00  0.00     0.003 A 
HETATM    8  C10 UNL     1     124.064 105.504 -45.217  1.00  0.00     0.014 A 
HETATM    9  C11 UNL     1     123.857 104.511 -46.172  1.00  0.00     0.001 A 
HETATM   10  C12 UNL     1     124.022 103.190 -45.799  1.00  0.00     0.002 A 
HETATM   11  C13 UNL     1     124.384 102.884 -44.503  1.00  0.00     0.030 A 
HETATM   12  C14 UNL     1     124.593 103.866 -43.540  1.00  0.00     0.046 A 
HETATM   13  N2  UNL     1     124.942 103.852 -42.237  1.00  0.00    -0.343 N 
ENDROOT
BRANCH   1  14
HETATM   14  C2  UNL     1     124.932 109.380 -41.256  1.00  0.00     0.270 C 
BRANCH  14  15
HETATM   15  N1  UNL     1     123.586 109.911 -41.265  1.00  0.00    -0.075 N 
HETATM   16  C1  UNL     1     123.454 111.047 -40.360  1.00  0.00     0.267 C 
ATOM     17  H12 UNL     1     122.898 109.187 -41.058  1.00  0.00     0.277 HD
ATOM     18  H11 UNL     1     123.285 110.149 -42.210  1.00  0.00     0.277 HD
ENDBRANCH  14  15
ENDBRANCH   1  14
BRANCH  13  19
HETATM   19  C15 UNL     1     125.210 102.662 -41.456  1.00  0.00     0.161 C 
BRANCH  19  20
HETATM   20  C16 UNL     1     126.542 102.042 -41.835  1.00  0.00     0.242 C 
HETATM   21  F1  UNL     1     126.880 101.076 -40.931  1.00  0.00    -0.254 F 
ENDBRANCH  19  20
ENDBRANCH  13  19
TORSDOF 4
ENDMDL
