MODEL 2
REMARK VINA RESULT: -7.246313310      1.959      5.716
REMARK  4 active torsions:
REMARK  status: ('A' for Active; 'I' for Inactive)
REMARK    1  A    between atoms: N1_2  and  C2_5 
REMARK    2  A    between atoms: C2_5  and  C3_6 
REMARK    3  A    between atoms: N2_18  and  C15_19 
REMARK    4  A    between atoms: C15_19  and  C16_20 
ROOT
HETATM    1  C3  UNL     1     124.004 102.241 -46.887  1.00  0.00    -0.032 A 
HETATM    2  C4  UNL     1     124.389 101.143 -46.170  1.00  0.00     0.011 A 
HETATM    3  C5  UNL     1     124.726 101.285 -44.843  1.00  0.00     0.031 A 
HETATM    4  C6  UNL     1     124.689 102.517 -44.196  1.00  0.00     0.046 A 
HETATM    5  C7  UNL     1     124.298 103.631 -44.924  1.00  0.00     0.004 A 
HETATM    6  C8  UNL     1     123.962 103.468 -46.258  1.00  0.00     0.023 A 
HETATM    7  C9  UNL     1     124.328 104.741 -44.108  1.00  0.00     0.003 A 
HETATM    8  C10 UNL     1     124.030 106.059 -44.363  1.00  0.00     0.014 A 
HETATM    9  C11 UNL     1     124.145 106.983 -43.350  1.00  0.00     0.001 A 
HETATM   10  C12 UNL     1     124.559 106.548 -42.106  1.00  0.00     0.002 A 
HETATM   11  C13 UNL     1     124.852 105.221 -41.877  1.00  0.00     0.030 A 
HETATM   12  C14 UNL     1     124.744 104.274 -42.876  1.00  0.00     0.046 A 
HETATM   13  N2  UNL     1     124.954 102.945 -42.951  1.00  0.00    -0.340 N 
ENDROOT
BRANCH   1  14
HETATM   14  C2  UNL     1     123.633 102.129 -48.321  1.00  0.00     0.270 C 
BRANCH  14  15
HETATM   15  N1  UNL     1     124.102 100.858 -48.845  1.00  0.00    -0.075 N 
HETATM   16  C1  UNL     1     123.404 100.664 -50.122  1.00  0.00     0.267 C 
ATOM     17  H12 UNL     1     123.984 100.082 -48.194  1.00  0.00     0.277 HD
ATOM     18  H11 UNL     1     125.117 100.800 -48.924  1.00  0.00     0.277 HD
ENDBRANCH  14  15
ENDBRANCH   1  14
BRANCH  13  19
HETATM   19  C15 UNL     1     125.397 102.098 -41.865  1.00  0.00     0.200 C 
BRANCH  19  20
HETATM   20  C16 UNL     1     126.905 101.980 -41.813  1.00  0.00     0.371 C 
HETATM   21  F1  UNL     1     127.326 102.920 -40.862  1.00  0.00    -0.213 F 
HETATM   22  F2  UNL     1     127.292 100.751 -41.312  1.00  0.00    -0.213 F 
ENDBRANCH  19  20
ENDBRANCH  13  19
TORSDOF 4
ENDMDL
