MODEL 3
REMARK VINA RESULT: -6.717028569      3.171      6.781
REMARK  4 active torsions:
REMARK  status: ('A' for Active; 'I' for Inactive)
REMARK    1  A    between atoms: N1_2  and  C2_5 
REMARK    2  A    between atoms: C2_5  and  C3_6 
REMARK    3  A    between atoms: N2_18  and  C15_19 
REMARK    4  A    between atoms: C15_19  and  C16_20 
ROOT
HETATM    1  C3  UNL     1     124.291 101.873 -46.148  1.00  0.00    -0.032 A 
HETATM    2  C4  UNL     1     123.899 102.820 -47.053  1.00  0.00     0.011 A 
HETATM    3  C5  UNL     1     123.783 104.132 -46.652  1.00  0.00     0.031 A 
HETATM    4  C6  UNL     1     124.052 104.536 -45.348  1.00  0.00     0.046 A 
HETATM    5  C7  UNL     1     124.449 103.575 -44.430  1.00  0.00     0.004 A 
HETATM    6  C8  UNL     1     124.561 102.260 -44.852  1.00  0.00     0.023 A 
HETATM    7  C9  UNL     1     124.664 104.175 -43.208  1.00  0.00     0.003 A 
HETATM    8  C10 UNL     1     125.063 103.649 -42.001  1.00  0.00     0.014 A 
HETATM    9  C11 UNL     1     125.203 104.486 -40.917  1.00  0.00     0.001 A 
HETATM   10  C12 UNL     1     124.935 105.830 -41.085  1.00  0.00     0.002 A 
HETATM   11  C13 UNL     1     124.536 106.330 -42.305  1.00  0.00     0.030 A 
HETATM   12  C14 UNL     1     124.388 105.513 -43.408  1.00  0.00     0.046 A 
HETATM   13  N2  UNL     1     124.025 105.707 -44.691  1.00  0.00    -0.340 N 
ENDROOT
BRANCH   1  14
HETATM   14  C2  UNL     1     124.428 100.447 -46.542  1.00  0.00     0.270 C 
BRANCH  14  15
HETATM   15  N1  UNL     1     124.988 100.365 -47.879  1.00  0.00    -0.075 N 
HETATM   16  C1  UNL     1     124.106  99.465 -48.633  1.00  0.00     0.267 C 
ATOM     17  H12 UNL     1     125.967 100.080 -47.892  1.00  0.00     0.277 HD
ATOM     18  H11 UNL     1     125.117 101.274 -48.322  1.00  0.00     0.277 HD
ENDBRANCH  14  15
ENDBRANCH   1  14
BRANCH  13  19
HETATM   19  C15 UNL     1     123.661 106.976 -45.282  1.00  0.00     0.200 C 
BRANCH  19  20
HETATM   20  C16 UNL     1     122.190 107.286 -45.104  1.00  0.00     0.371 C 
HETATM   21  F1  UNL     1     121.509 106.113 -45.456  1.00  0.00    -0.213 F 
HETATM   22  F2  UNL     1     121.884 107.504 -43.773  1.00  0.00    -0.213 F 
ENDBRANCH  19  20
ENDBRANCH  13  19
TORSDOF 4
ENDMDL
