MODEL 5
REMARK VINA RESULT: -6.639600713      2.866      6.674
REMARK  4 active torsions:
REMARK  status: ('A' for Active; 'I' for Inactive)
REMARK    1  A    between atoms: N1_2  and  C2_5 
REMARK    2  A    between atoms: C2_5  and  C3_6 
REMARK    3  A    between atoms: N2_18  and  C15_19 
REMARK    4  A    between atoms: C15_19  and  C16_20 
ROOT
HETATM    1  C3  UNL     1     124.144 101.494 -46.974  1.00  0.00    -0.032 A 
HETATM    2  C4  UNL     1     123.680 102.648 -47.540  1.00  0.00     0.011 A 
HETATM    3  C5  UNL     1     123.624 103.798 -46.785  1.00  0.00     0.031 A 
HETATM    4  C6  UNL     1     124.026 103.831 -45.454  1.00  0.00     0.046 A 
HETATM    5  C7  UNL     1     124.496 102.660 -44.879  1.00  0.00     0.004 A 
HETATM    6  C8  UNL     1     124.546 101.513 -45.654  1.00  0.00     0.023 A 
HETATM    7  C9  UNL     1     124.840 102.903 -43.567  1.00  0.00     0.003 A 
HETATM    8  C10 UNL     1     125.347 102.072 -42.596  1.00  0.00     0.014 A 
HETATM    9  C11 UNL     1     125.606 102.580 -41.343  1.00  0.00     0.001 A 
HETATM   10  C12 UNL     1     125.344 103.915 -41.107  1.00  0.00     0.002 A 
HETATM   11  C13 UNL     1     124.835 104.726 -42.098  1.00  0.00     0.030 A 
HETATM   12  C14 UNL     1     124.566 104.242 -43.362  1.00  0.00     0.046 A 
HETATM   13  N2  UNL     1     124.082 104.776 -44.500  1.00  0.00    -0.340 N 
ENDROOT
BRANCH   1  14
HETATM   14  C2  UNL     1     124.220 100.233 -47.755  1.00  0.00     0.270 C 
BRANCH  14  15
HETATM   15  N1  UNL     1     124.234 100.542 -49.174  1.00  0.00    -0.075 N 
HETATM   16  C1  UNL     1     123.119  99.790 -49.764  1.00  0.00     0.267 C 
ATOM     17  H12 UNL     1     125.132 100.356 -49.621  1.00  0.00     0.277 HD
ATOM     18  H11 UNL     1     124.201 101.541 -49.373  1.00  0.00     0.277 HD
ENDBRANCH  14  15
ENDBRANCH   1  14
BRANCH  13  19
HETATM   19  C15 UNL     1     123.681 106.154 -44.681  1.00  0.00     0.200 C 
BRANCH  19  20
HETATM   20  C16 UNL     1     124.864 107.063 -44.938  1.00  0.00     0.371 C 
HETATM   21  F1  UNL     1     125.248 107.548 -43.680  1.00  0.00    -0.213 F 
HETATM   22  F2  UNL     1     125.950 106.348 -45.405  1.00  0.00    -0.213 F 
ENDBRANCH  19  20
ENDBRANCH  13  19
TORSDOF 4
ENDMDL
