MODEL 6
REMARK VINA RESULT: -6.539243504      1.779      2.263
REMARK  4 active torsions:
REMARK  status: ('A' for Active; 'I' for Inactive)
REMARK    1  A    between atoms: N1_2  and  C2_5 
REMARK    2  A    between atoms: C2_5  and  C3_6 
REMARK    3  A    between atoms: N2_18  and  C15_19 
REMARK    4  A    between atoms: C15_19  and  C16_20 
ROOT
HETATM    1  C3  UNL     1     124.029 106.741 -44.341  1.00  0.00    -0.032 A 
HETATM    2  C4  UNL     1     124.387 106.439 -43.057  1.00  0.00     0.011 A 
HETATM    3  C5  UNL     1     124.661 105.132 -42.721  1.00  0.00     0.031 A 
HETATM    4  C6  UNL     1     124.587 104.097 -43.647  1.00  0.00     0.046 A 
HETATM    5  C7  UNL     1     124.223 104.404 -44.950  1.00  0.00     0.004 A 
HETATM    6  C8  UNL     1     123.952 105.724 -45.270  1.00  0.00     0.023 A 
HETATM    7  C9  UNL     1     124.209 103.249 -45.702  1.00  0.00     0.003 A 
HETATM    8  C10 UNL     1     123.916 103.039 -47.030  1.00  0.00     0.014 A 
HETATM    9  C11 UNL     1     123.980 101.761 -47.538  1.00  0.00     0.001 A 
HETATM   10  C12 UNL     1     124.339 100.732 -46.689  1.00  0.00     0.002 A 
HETATM   11  C13 UNL     1     124.627 100.971 -45.363  1.00  0.00     0.030 A 
HETATM   12  C14 UNL     1     124.570 102.243 -44.828  1.00  0.00     0.046 A 
HETATM   13  N2  UNL     1     124.791 102.769 -43.608  1.00  0.00    -0.340 N 
ENDROOT
BRANCH   1  14
HETATM   14  C2  UNL     1     123.726 108.138 -44.744  1.00  0.00     0.270 C 
BRANCH  14  15
HETATM   15  N1  UNL     1     122.601 108.633 -43.969  1.00  0.00    -0.075 N 
HETATM   16  C1  UNL     1     121.645 109.175 -44.942  1.00  0.00     0.267 C 
ATOM     17  H12 UNL     1     122.868 109.300 -43.245  1.00  0.00     0.277 HD
ATOM     18  H11 UNL     1     122.196 107.932 -43.348  1.00  0.00     0.277 HD
ENDBRANCH  14  15
ENDBRANCH   1  14
BRANCH  13  19
HETATM   19  C15 UNL     1     125.187 102.031 -42.429  1.00  0.00     0.200 C 
BRANCH  19  20
HETATM   20  C16 UNL     1     126.668 102.164 -42.144  1.00  0.00     0.371 C 
HETATM   21  F1  UNL     1     126.997 101.073 -41.329  1.00  0.00    -0.213 F 
HETATM   22  F2  UNL     1     127.414 102.002 -43.296  1.00  0.00    -0.213 F 
ENDBRANCH  19  20
ENDBRANCH  13  19
TORSDOF 4
ENDMDL
