MODEL 1
REMARK VINA RESULT: -7.909286952      0.000      0.000
REMARK  4 active torsions:
REMARK  status: ('A' for Active; 'I' for Inactive)
REMARK    1  A    between atoms: N1_2  and  C2_5 
REMARK    2  A    between atoms: C2_5  and  C3_6 
REMARK    3  A    between atoms: N2_18  and  C15_19 
REMARK    4  A    between atoms: C15_19  and  C16_20 
ROOT
HETATM    1  C3  UNL     1     124.691 107.024 -42.092  1.00  0.00    -0.032 A 
HETATM    2  C4  UNL     1     125.042 106.303 -40.985  1.00  0.00     0.011 A 
HETATM    3  C5  UNL     1     125.176 104.936 -41.081  1.00  0.00     0.031 A 
HETATM    4  C6  UNL     1     124.966 104.253 -42.275  1.00  0.00     0.046 A 
HETATM    5  C7  UNL     1     124.609 104.984 -43.398  1.00  0.00     0.004 A 
HETATM    6  C8  UNL     1     124.479 106.359 -43.282  1.00  0.00     0.023 A 
HETATM    7  C9  UNL     1     124.448 104.128 -44.466  1.00  0.00     0.003 A 
HETATM    8  C10 UNL     1     124.103 104.371 -45.775  1.00  0.00     0.014 A 
HETATM    9  C11 UNL     1     124.012 103.315 -46.654  1.00  0.00     0.001 A 
HETATM   10  C12 UNL     1     124.272 102.043 -46.183  1.00  0.00     0.002 A 
HETATM   11  C13 UNL     1     124.616 101.828 -44.866  1.00  0.00     0.030 A 
HETATM   12  C14 UNL     1     124.714 102.869 -43.965  1.00  0.00     0.046 A 
HETATM   13  N2  UNL     1     125.021 102.965 -42.656  1.00  0.00    -0.340 N 
ENDROOT
BRANCH   1  14
HETATM   14  C2  UNL     1     124.537 108.499 -42.029  1.00  0.00     0.270 C 
BRANCH  14  15
HETATM   15  N1  UNL     1     125.287 109.018 -40.898  1.00  0.00    -0.075 N 
HETATM   16  C1  UNL     1     124.881 110.421 -40.751  1.00  0.00     0.267 C 
ATOM     17  H12 UNL     1     126.295 108.893 -40.988  1.00  0.00     0.277 HD
ATOM     18  H11 UNL     1     125.170 108.469 -40.047  1.00  0.00     0.277 HD
ENDBRANCH  14  15
ENDBRANCH   1  14
BRANCH  13  19
HETATM   19  C15 UNL     1     125.359 101.861 -41.785  1.00  0.00     0.200 C 
BRANCH  19  20
HETATM   20  C16 UNL     1     126.856 101.677 -41.654  1.00  0.00     0.371 C 
HETATM   21  F1  UNL     1     127.383 101.944 -42.925  1.00  0.00    -0.213 F 
HETATM   22  F2  UNL     1     127.405 102.632 -40.819  1.00  0.00    -0.213 F 
ENDBRANCH  19  20
ENDBRANCH  13  19
TORSDOF 4
ENDMDL
