MODEL 7
REMARK VINA RESULT: -6.162173628      3.566      6.997
REMARK  4 active torsions:
REMARK  status: ('A' for Active; 'I' for Inactive)
REMARK    1  A    between atoms: N1_2  and  C3_4 
REMARK    2  A    between atoms: C3_4  and  C4_5 
REMARK    3  A    between atoms: N2_17  and  C16_18 
REMARK    4  A    between atoms: C16_18  and  C17_19 
ROOT
HETATM    1  C4  UNL     1      91.054  93.003 -45.944  1.00  0.00    -0.029 A 
HETATM    2  C5  UNL     1      90.597  93.977 -46.800  1.00  0.00     0.011 A 
HETATM    3  C6  UNL     1      90.461  95.288 -46.394  1.00  0.00     0.031 A 
HETATM    4  C7  UNL     1      90.782  95.676 -45.097  1.00  0.00     0.046 A 
HETATM    5  C8  UNL     1      91.242  94.692 -44.241  1.00  0.00     0.004 A 
HETATM    6  C9  UNL     1      91.374  93.378 -44.661  1.00  0.00     0.023 A 
HETATM    7  C10 UNL     1      91.494  95.308 -43.021  1.00  0.00     0.003 A 
HETATM    8  C11 UNL     1      91.959  94.853 -41.804  1.00  0.00     0.014 A 
HETATM    9  C12 UNL     1      92.120  95.704 -40.728  1.00  0.00     0.001 A 
HETATM   10  C13 UNL     1      91.812  97.044 -40.864  1.00  0.00     0.002 A 
HETATM   11  C14 UNL     1      91.348  97.480 -42.088  1.00  0.00     0.030 A 
HETATM   12  C15 UNL     1      91.180  96.644 -43.174  1.00  0.00     0.046 A 
HETATM   13  N2  UNL     1      90.745  96.856 -44.451  1.00  0.00    -0.337 N 
ENDROOT
BRANCH  13  14
HETATM   14  C16 UNL     1      90.326  98.139 -44.984  1.00  0.00     0.246 C 
BRANCH  14  15
HETATM   15  C17 UNL     1      88.850  98.381 -44.769  1.00  0.00     0.403 C 
HETATM   16  F1  UNL     1      88.509  99.507 -45.497  1.00  0.00    -0.169 F 
HETATM   17  F2  UNL     1      88.545  98.539 -43.434  1.00  0.00    -0.169 F 
HETATM   18  F3  UNL     1      88.140  97.323 -45.312  1.00  0.00    -0.169 F 
ENDBRANCH  14  15
ENDBRANCH  13  14
BRANCH   1  19
HETATM   19  C3  UNL     1      91.186  91.620 -46.405  1.00  0.00     0.309 C 
BRANCH  19  20
HETATM   20  N1  UNL     1      91.594  91.465 -47.763  1.00  0.00     0.084 N 
HETATM   21  C1  UNL     1      92.633  90.477 -47.969  1.00  0.00     0.309 C 
HETATM   22  C2  UNL     1      90.445  91.051 -48.548  1.00  0.00     0.309 C 
ENDBRANCH  19  20
ENDBRANCH   1  19
TORSDOF 4
ENDMDL
