MODEL 1
REMARK VINA RESULT: -8.170555020      0.000      0.000
REMARK  4 active torsions:
REMARK  status: ('A' for Active; 'I' for Inactive)
REMARK    1  A    between atoms: N1_2  and  C3_4 
REMARK    2  A    between atoms: C3_4  and  C4_5 
REMARK    3  A    between atoms: N2_17  and  C16_18 
REMARK    4  A    between atoms: C16_18  and  C17_19 
ROOT
HETATM    1  C4  UNL     1      90.895  97.848 -42.947  1.00  0.00    -0.029 A 
HETATM    2  C5  UNL     1      91.350  97.321 -41.761  1.00  0.00     0.011 A 
HETATM    3  C6  UNL     1      91.697  95.991 -41.650  1.00  0.00     0.031 A 
HETATM    4  C7  UNL     1      91.599  95.128 -42.736  1.00  0.00     0.046 A 
HETATM    5  C8  UNL     1      91.140  95.664 -43.926  1.00  0.00     0.004 A 
HETATM    6  C9  UNL     1      90.795  97.002 -44.026  1.00  0.00     0.023 A 
HETATM    7  C10 UNL     1      91.128  94.629 -44.853  1.00  0.00     0.003 A 
HETATM    8  C11 UNL     1      90.776  94.550 -46.186  1.00  0.00     0.014 A 
HETATM    9  C12 UNL     1      90.862  93.362 -46.887  1.00  0.00     0.001 A 
HETATM   10  C13 UNL     1      91.311  92.223 -46.247  1.00  0.00     0.002 A 
HETATM   11  C14 UNL     1      91.658  92.322 -44.915  1.00  0.00     0.030 A 
HETATM   12  C15 UNL     1      91.578  93.499 -44.199  1.00  0.00     0.046 A 
HETATM   13  N2  UNL     1      91.862  93.819 -42.902  1.00  0.00    -0.337 N 
ENDROOT
BRANCH  13  14
HETATM   14  C16 UNL     1      92.361  92.889 -41.907  1.00  0.00     0.246 C 
BRANCH  14  15
HETATM   15  C17 UNL     1      93.869  92.921 -41.812  1.00  0.00     0.403 C 
HETATM   16  F1  UNL     1      94.204  93.968 -40.971  1.00  0.00    -0.169 F 
HETATM   17  F2  UNL     1      94.458  93.067 -43.050  1.00  0.00    -0.169 F 
HETATM   18  F3  UNL     1      94.302  91.758 -41.197  1.00  0.00    -0.169 F 
ENDBRANCH  14  15
ENDBRANCH  13  14
BRANCH   1  19
HETATM   19  C3  UNL     1      90.533  99.263 -43.032  1.00  0.00     0.309 C 
BRANCH  19  20
HETATM   20  N1  UNL     1      89.476  99.678 -42.170  1.00  0.00     0.084 N 
HETATM   21  C1  UNL     1      89.501 101.083 -41.820  1.00  0.00     0.309 C 
HETATM   22  C2  UNL     1      88.210  99.421 -42.832  1.00  0.00     0.309 C 
ENDBRANCH  19  20
ENDBRANCH   1  19
TORSDOF 4
ENDMDL
