MODEL 6
REMARK VINA RESULT: -6.679238535      3.103      6.703
REMARK  4 active torsions:
REMARK  status: ('A' for Active; 'I' for Inactive)
REMARK    1  A    between atoms: N1_2  and  C3_4 
REMARK    2  A    between atoms: C3_4  and  C4_5 
REMARK    3  A    between atoms: N2_17  and  C16_18 
REMARK    4  A    between atoms: C16_18  and  C17_19 
ROOT
HETATM    1  C4  UNL     1      91.003  92.418 -47.011  1.00  0.00    -0.029 A 
HETATM    2  C5  UNL     1      90.448  93.585 -47.482  1.00  0.00     0.011 A 
HETATM    3  C6  UNL     1      90.359  94.711 -46.690  1.00  0.00     0.031 A 
HETATM    4  C7  UNL     1      90.827  94.710 -45.381  1.00  0.00     0.046 A 
HETATM    5  C8  UNL     1      91.384  93.533 -44.912  1.00  0.00     0.004 A 
HETATM    6  C9  UNL     1      91.469  92.408 -45.717  1.00  0.00     0.023 A 
HETATM    7  C10 UNL     1      91.776  93.769 -43.601  1.00  0.00     0.003 A 
HETATM    8  C11 UNL     1      92.380  92.991 -42.633  1.00  0.00     0.014 A 
HETATM    9  C12 UNL     1      92.663  93.491 -41.377  1.00  0.00     0.001 A 
HETATM   10  C13 UNL     1      92.339  94.799 -41.073  1.00  0.00     0.002 A 
HETATM   11  C14 UNL     1      91.735  95.561 -42.052  1.00  0.00     0.030 A 
HETATM   12  C15 UNL     1      91.444  95.079 -43.313  1.00  0.00     0.046 A 
HETATM   13  N2  UNL     1      90.863  95.643 -44.412  1.00  0.00    -0.337 N 
ENDROOT
BRANCH  13  14
HETATM   14  C16 UNL     1      90.383  97.010 -44.489  1.00  0.00     0.246 C 
BRANCH  14  15
HETATM   15  C17 UNL     1      91.510  97.989 -44.728  1.00  0.00     0.403 C 
HETATM   16  F1  UNL     1      90.996  99.031 -45.479  1.00  0.00    -0.169 F 
HETATM   17  F2  UNL     1      92.580  97.396 -45.363  1.00  0.00    -0.169 F 
HETATM   18  F3  UNL     1      91.899  98.525 -43.512  1.00  0.00    -0.169 F 
ENDBRANCH  14  15
ENDBRANCH  13  14
BRANCH   1  19
HETATM   19  C3  UNL     1      91.083  91.240 -47.874  1.00  0.00     0.309 C 
BRANCH  19  20
HETATM   20  N1  UNL     1      90.151  91.208 -48.953  1.00  0.00     0.084 N 
HETATM   21  C1  UNL     1      90.755  91.214 -50.270  1.00  0.00     0.309 C 
HETATM   22  C2  UNL     1      89.360  89.995 -48.848  1.00  0.00     0.309 C 
ENDBRANCH  19  20
ENDBRANCH   1  19
TORSDOF 4
ENDMDL
