MODEL 4
REMARK VINA RESULT: -7.635460954      1.865      5.665
REMARK  4 active torsions:
REMARK  status: ('A' for Active; 'I' for Inactive)
REMARK    1  A    between atoms: N1_2  and  C3_4 
REMARK    2  A    between atoms: C3_4  and  C4_5 
REMARK    3  A    between atoms: N2_17  and  C16_18 
REMARK    4  A    between atoms: C16_18  and  C17_19 
ROOT
HETATM    1  C4  UNL     1      90.809  93.038 -47.049  1.00  0.00    -0.029 A 
HETATM    2  C5  UNL     1      91.259  91.968 -46.313  1.00  0.00     0.011 A 
HETATM    3  C6  UNL     1      91.612  92.104 -44.986  1.00  0.00     0.031 A 
HETATM    4  C7  UNL     1      91.526  93.333 -44.340  1.00  0.00     0.046 A 
HETATM    5  C8  UNL     1      91.072  94.406 -45.087  1.00  0.00     0.004 A 
HETATM    6  C9  UNL     1      90.721  94.257 -46.419  1.00  0.00     0.023 A 
HETATM    7  C10 UNL     1      91.071  95.509 -44.243  1.00  0.00     0.003 A 
HETATM    8  C11 UNL     1      90.728  96.836 -44.412  1.00  0.00     0.014 A 
HETATM    9  C12 UNL     1      90.826  97.745 -43.376  1.00  0.00     0.001 A 
HETATM   10  C13 UNL     1      91.276  97.325 -42.139  1.00  0.00     0.002 A 
HETATM   11  C14 UNL     1      91.614  95.996 -41.990  1.00  0.00     0.030 A 
HETATM   12  C15 UNL     1      91.523  95.074 -43.013  1.00  0.00     0.046 A 
HETATM   13  N2  UNL     1      91.799  93.738 -43.087  1.00  0.00    -0.337 N 
ENDROOT
BRANCH  13  14
HETATM   14  C16 UNL     1      92.294  92.930 -41.989  1.00  0.00     0.246 C 
BRANCH  14  15
HETATM   15  C17 UNL     1      93.803  92.969 -41.899  1.00  0.00     0.403 C 
HETATM   16  F1  UNL     1      94.136  94.029 -41.074  1.00  0.00    -0.169 F 
HETATM   17  F2  UNL     1      94.388  93.098 -43.140  1.00  0.00    -0.169 F 
HETATM   18  F3  UNL     1      94.241  91.817 -41.268  1.00  0.00    -0.169 F 
ENDBRANCH  14  15
ENDBRANCH  13  14
BRANCH   1  19
HETATM   19  C3  UNL     1      90.444  92.863 -48.456  1.00  0.00     0.309 C 
BRANCH  19  20
HETATM   20  N1  UNL     1      90.057  91.541 -48.826  1.00  0.00     0.084 N 
HETATM   21  C1  UNL     1      88.708  91.432 -49.342  1.00  0.00     0.309 C 
HETATM   22  C2  UNL     1      90.955  91.069 -49.865  1.00  0.00     0.309 C 
ENDBRANCH  19  20
ENDBRANCH   1  19
TORSDOF 4
ENDMDL
