MODEL 2
REMARK VINA RESULT: -8.164820945      0.822      1.446
REMARK  4 active torsions:
REMARK  status: ('A' for Active; 'I' for Inactive)
REMARK    1  A    between atoms: N1_2  and  C3_4 
REMARK    2  A    between atoms: C3_4  and  C4_5 
REMARK    3  A    between atoms: N2_17  and  C16_18 
REMARK    4  A    between atoms: C16_18  and  C17_19 
ROOT
HETATM    1  C4  UNL     1      90.969  97.779 -42.667  1.00  0.00    -0.029 A 
HETATM    2  C5  UNL     1      91.435  97.198 -41.511  1.00  0.00     0.011 A 
HETATM    3  C6  UNL     1      91.778  95.863 -41.463  1.00  0.00     0.031 A 
HETATM    4  C7  UNL     1      91.663  95.049 -42.586  1.00  0.00     0.046 A 
HETATM    5  C8  UNL     1      91.194  95.640 -43.746  1.00  0.00     0.004 A 
HETATM    6  C9  UNL     1      90.854  96.983 -43.782  1.00  0.00     0.023 A 
HETATM    7  C10 UNL     1      91.167  94.648 -44.718  1.00  0.00     0.003 A 
HETATM    8  C11 UNL     1      90.799  94.629 -46.049  1.00  0.00     0.014 A 
HETATM    9  C12 UNL     1      90.873  93.474 -46.802  1.00  0.00     0.001 A 
HETATM   10  C13 UNL     1      91.323  92.306 -46.220  1.00  0.00     0.002 A 
HETATM   11  C14 UNL     1      91.685  92.343 -44.889  1.00  0.00     0.030 A 
HETATM   12  C15 UNL     1      91.619  93.488 -44.120  1.00  0.00     0.046 A 
HETATM   13  N2  UNL     1      91.919  93.748 -42.813  1.00  0.00    -0.337 N 
ENDROOT
BRANCH  13  14
HETATM   14  C16 UNL     1      92.425  92.772 -41.866  1.00  0.00     0.246 C 
BRANCH  14  15
HETATM   15  C17 UNL     1      93.929  92.838 -41.741  1.00  0.00     0.403 C 
HETATM   16  F1  UNL     1      94.436  93.077 -43.006  1.00  0.00    -0.169 F 
HETATM   17  F2  UNL     1      94.451  91.680 -41.205  1.00  0.00    -0.169 F 
HETATM   18  F3  UNL     1      94.264  93.933 -40.961  1.00  0.00    -0.169 F 
ENDBRANCH  14  15
ENDBRANCH  13  14
BRANCH   1  19
HETATM   19  C3  UNL     1      90.613  99.198 -42.685  1.00  0.00     0.309 C 
BRANCH  19  20
HETATM   20  N1  UNL     1      91.701 100.104 -42.509  1.00  0.00     0.084 N 
HETATM   21  C1  UNL     1      92.222 100.663 -43.740  1.00  0.00     0.309 C 
HETATM   22  C2  UNL     1      91.251 101.214 -41.689  1.00  0.00     0.309 C 
ENDBRANCH  19  20
ENDBRANCH   1  19
TORSDOF 4
ENDMDL
