MODEL 3
REMARK VINA RESULT: -8.028044257      0.885      1.200
REMARK  4 active torsions:
REMARK  status: ('A' for Active; 'I' for Inactive)
REMARK    1  A    between atoms: N1_2  and  C3_4 
REMARK    2  A    between atoms: C3_4  and  C4_5 
REMARK    3  A    between atoms: N2_17  and  C16_18 
REMARK    4  A    between atoms: C16_18  and  C17_19 
ROOT
HETATM    1  C4  UNL     1      90.945  97.839 -42.806  1.00  0.00    -0.029 A 
HETATM    2  C5  UNL     1      91.410  97.282 -41.638  1.00  0.00     0.011 A 
HETATM    3  C6  UNL     1      91.750  95.947 -41.562  1.00  0.00     0.031 A 
HETATM    4  C7  UNL     1      91.636  95.111 -42.667  1.00  0.00     0.046 A 
HETATM    5  C8  UNL     1      91.169  95.677 -43.840  1.00  0.00     0.004 A 
HETATM    6  C9  UNL     1      90.830  97.020 -43.904  1.00  0.00     0.023 A 
HETATM    7  C10 UNL     1      91.141  94.665 -44.790  1.00  0.00     0.003 A 
HETATM    8  C11 UNL     1      90.775  94.619 -46.121  1.00  0.00     0.014 A 
HETATM    9  C12 UNL     1      90.847  93.449 -46.851  1.00  0.00     0.001 A 
HETATM   10  C13 UNL     1      91.297  92.292 -46.243  1.00  0.00     0.002 A 
HETATM   11  C14 UNL     1      91.657  92.357 -44.913  1.00  0.00     0.030 A 
HETATM   12  C15 UNL     1      91.591  93.518 -44.168  1.00  0.00     0.046 A 
HETATM   13  N2  UNL     1      91.891  93.805 -42.867  1.00  0.00    -0.337 N 
ENDROOT
BRANCH  13  14
HETATM   14  C16 UNL     1      92.394  92.849 -41.899  1.00  0.00     0.246 C 
BRANCH  14  15
HETATM   15  C17 UNL     1      93.903  92.885 -41.805  1.00  0.00     0.403 C 
HETATM   16  F1  UNL     1      94.235  93.923 -40.952  1.00  0.00    -0.169 F 
HETATM   17  F2  UNL     1      94.491  93.047 -43.041  1.00  0.00    -0.169 F 
HETATM   18  F3  UNL     1      94.340  91.716 -41.204  1.00  0.00    -0.169 F 
ENDBRANCH  14  15
ENDBRANCH  13  14
BRANCH   1  19
HETATM   19  C3  UNL     1      90.591  99.258 -42.854  1.00  0.00     0.309 C 
BRANCH  19  20
HETATM   20  N1  UNL     1      90.924  99.930 -44.067  1.00  0.00     0.084 N 
HETATM   21  C1  UNL     1      90.010 100.992 -44.436  1.00  0.00     0.309 C 
HETATM   22  C2  UNL     1      92.240 100.526 -43.920  1.00  0.00     0.309 C 
ENDBRANCH  19  20
ENDBRANCH   1  19
TORSDOF 4
ENDMDL
