MODEL 5
REMARK VINA RESULT: -7.500684011      0.645      1.061
REMARK  4 active torsions:
REMARK  status: ('A' for Active; 'I' for Inactive)
REMARK    1  A    between atoms: N1_2  and  C3_4 
REMARK    2  A    between atoms: C3_4  and  C4_5 
REMARK    3  A    between atoms: N2_17  and  C16_18 
REMARK    4  A    between atoms: C16_18  and  C17_19 
ROOT
HETATM    1  C4  UNL     1      90.904  98.228 -42.750  1.00  0.00    -0.029 A 
HETATM    2  C5  UNL     1      91.336  97.666 -41.571  1.00  0.00     0.011 A 
HETATM    3  C6  UNL     1      91.640  96.323 -41.482  1.00  0.00     0.031 A 
HETATM    4  C7  UNL     1      91.519  95.483 -42.585  1.00  0.00     0.046 A 
HETATM    5  C8  UNL     1      91.084  96.055 -43.767  1.00  0.00     0.004 A 
HETATM    6  C9  UNL     1      90.782  97.405 -43.844  1.00  0.00     0.023 A 
HETATM    7  C10 UNL     1      91.043  95.038 -44.712  1.00  0.00     0.003 A 
HETATM    8  C11 UNL     1      90.695  94.993 -46.048  1.00  0.00     0.014 A 
HETATM    9  C12 UNL     1      90.746  93.816 -46.769  1.00  0.00     0.001 A 
HETATM   10  C13 UNL     1      91.155  92.652 -46.148  1.00  0.00     0.002 A 
HETATM   11  C14 UNL     1      91.498  92.716 -44.813  1.00  0.00     0.030 A 
HETATM   12  C15 UNL     1      91.453  93.883 -44.076  1.00  0.00     0.046 A 
HETATM   13  N2  UNL     1      91.741  94.170 -42.773  1.00  0.00    -0.337 N 
ENDROOT
BRANCH  13  14
HETATM   14  C16 UNL     1      92.204  93.206 -41.792  1.00  0.00     0.246 C 
BRANCH  14  15
HETATM   15  C17 UNL     1      93.713  93.157 -41.722  1.00  0.00     0.403 C 
HETATM   16  F1  UNL     1      94.061  91.894 -41.276  1.00  0.00    -0.169 F 
HETATM   17  F2  UNL     1      94.222  94.136 -40.896  1.00  0.00    -0.169 F 
HETATM   18  F3  UNL     1      94.223  93.283 -43.004  1.00  0.00    -0.169 F 
ENDBRANCH  14  15
ENDBRANCH  13  14
BRANCH   1  19
HETATM   19  C3  UNL     1      90.589  99.656 -42.812  1.00  0.00     0.309 C 
BRANCH  19  20
HETATM   20  N1  UNL     1      89.223  99.969 -43.074  1.00  0.00     0.084 N 
HETATM   21  C1  UNL     1      88.708 101.092 -42.317  1.00  0.00     0.309 C 
HETATM   22  C2  UNL     1      89.084 100.299 -44.481  1.00  0.00     0.309 C 
ENDBRANCH  19  20
ENDBRANCH   1  19
TORSDOF 4
ENDMDL
