MODEL 1
REMARK VINA RESULT: -10.317201219      0.000      0.000
REMARK  11 active torsions:
REMARK  status: ('A' for Active; 'I' for Inactive)
REMARK    1  A    between atoms: O1_2  and  C2_3 
REMARK    2  A    between atoms: C5_6  and  C6_7 
REMARK    3  A    between atoms: N2_10  and  C7_11 
REMARK    4  A    between atoms: C22_27  and  O3_28 
REMARK    5  A    between atoms: O3_28  and  C23_29 
REMARK    6  A    between atoms: C23_29  and  C24_30 
REMARK    7  A    between atoms: C24_30  and  C25_31 
REMARK    8  A    between atoms: C25_31  and  C26_32 
REMARK    9  A    between atoms: C26_32  and  O4_33 
REMARK   10  A    between atoms: O4_33  and  C27_34 
REMARK   11  A    between atoms: C30_37  and  C31_38 
ROOT
HETATM    1  C2  UNL     1      23.661  13.087  -6.052  1.00  0.00     0.101 A 
HETATM    2  C3  UNL     1      23.109  11.846  -6.276  1.00  0.00     0.040 A 
HETATM    3  C4  UNL     1      23.907  10.731  -6.111  1.00  0.00     0.016 A 
HETATM    4  C5  UNL     1      25.232  10.803  -5.731  1.00  0.00    -0.009 A 
HETATM    5  C21 UNL     1      25.755  12.050  -5.514  1.00  0.00     0.053 A 
HETATM    6  C22 UNL     1      25.002  13.235  -5.663  1.00  0.00     0.102 A 
ENDROOT
BRANCH   6   7
HETATM    7  O3  UNL     1      25.496  14.412  -5.458  1.00  0.00    -0.348 OA
BRANCH   7   8
HETATM    8  C23 UNL     1      25.591  15.614  -4.935  1.00  0.00     0.176 C 
BRANCH   8   9
HETATM    9  C24 UNL     1      27.035  16.107  -4.934  1.00  0.00     0.029 C 
BRANCH   9  10
HETATM   10  C25 UNL     1      27.222  17.088  -3.761  1.00  0.00     0.029 C 
BRANCH  10  11
HETATM   11  C26 UNL     1      28.462  16.697  -3.038  1.00  0.00     0.175 C 
BRANCH  11  12
HETATM   12  O4  UNL     1      28.806  15.392  -3.249  1.00  0.00    -0.351 OA
BRANCH  12  13
HETATM   13  C27 UNL     1      28.530  14.268  -2.537  1.00  0.00     0.068 A 
HETATM   14  C28 UNL     1      28.462  13.005  -3.070  1.00  0.00     0.037 A 
HETATM   15  C29 UNL     1      28.164  11.916  -2.248  1.00  0.00     0.018 A 
HETATM   16  C30 UNL     1      27.932  12.043  -0.900  1.00  0.00     0.011 A 
HETATM   17  C32 UNL     1      28.002  13.310  -0.362  1.00  0.00     0.018 A 
HETATM   18  C33 UNL     1      28.291  14.386  -1.154  1.00  0.00     0.037 A 
BRANCH  16  19
HETATM   19  C31 UNL     1      27.622  10.906  -0.051  1.00  0.00     0.147 A 
HETATM   20  N3  UNL     1      26.821  10.843   1.028  1.00  0.00    -0.268 N 
HETATM   21  N4  UNL     1      26.865   9.583   1.453  1.00  0.00    -0.227 N 
ATOM     22  H3  UNL     1      26.287  11.608   1.438  1.00  0.00     0.190 HD
HETATM   23  N5  UNL     1      27.644   8.862   0.703  1.00  0.00    -0.227 N 
ATOM     24  H4  UNL     1      26.355   9.228   2.261  1.00  0.00     0.210 HD
HETATM   25  N6  UNL     1      28.127   9.669  -0.242  1.00  0.00    -0.268 N 
ATOM     26  H5  UNL     1      27.848   7.869   0.817  1.00  0.00     0.210 HD
ATOM     27  H6  UNL     1      28.770   9.397  -0.986  1.00  0.00     0.190 HD
ENDBRANCH  16  19
ENDBRANCH  12  13
ENDBRANCH  11  12
ENDBRANCH  10  11
ENDBRANCH   9  10
ENDBRANCH   8   9
ENDBRANCH   7   8
ENDBRANCH   6   7
BRANCH   1  28
HETATM   28  O1  UNL     1      22.939  14.263  -6.193  1.00  0.00    -0.353 OA
HETATM   29  C1  UNL     1      21.935  14.305  -7.187  1.00  0.00     0.210 C 
ENDBRANCH   1  28
BRANCH   4  30
HETATM   30  C6  UNL     1      26.040   9.569  -5.587  1.00  0.00     0.041 C 
HETATM   31  N1  UNL     1      25.983   8.663  -6.499  1.00  0.00    -0.298 N 
HETATM   32  N2  UNL     1      26.696   7.467  -6.472  1.00  0.00    -0.256 N 
ATOM     33  H1  UNL     1      25.373   8.833  -7.299  1.00  0.00     0.187 HD
HETATM   34  C14 UNL     1      27.532   7.270  -5.342  1.00  0.00     0.243 C 
HETATM   35  O2  UNL     1      27.839   6.127  -4.961  1.00  0.00    -0.271 OA
HETATM   36  C15 UNL     1      28.027   8.463  -4.633  1.00  0.00     0.093 C 
HETATM   37  C16 UNL     1      28.632   7.995  -3.317  1.00  0.00     0.041 C 
HETATM   38  C20 UNL     1      26.906   9.430  -4.385  1.00  0.00     0.055 C 
HETATM   39  C17 UNL     1      27.577   7.177  -2.672  1.00  0.00    -0.030 C 
HETATM   40  C18 UNL     1      26.356   7.690  -2.651  1.00  0.00    -0.030 C 
HETATM   41  C19 UNL     1      26.072   8.997  -3.240  1.00  0.00     0.038 C 
BRANCH  32  42
HETATM   42  C7  UNL     1      26.620   6.456  -7.525  1.00  0.00     0.111 C 
HETATM   43  C8  UNL     1      25.211   6.201  -7.999  1.00  0.00     0.027 C 
HETATM   44  C9  UNL     1      25.271   5.123  -9.058  1.00  0.00     0.002 C 
HETATM   45  C10 UNL     1      25.677   5.653 -10.405  1.00  0.00     0.000 C 
HETATM   46  C11 UNL     1      25.633   7.160 -10.461  1.00  0.00     0.000 C 
HETATM   47  C12 UNL     1      26.630   7.828  -9.560  1.00  0.00     0.002 C 
HETATM   48  C13 UNL     1      27.435   6.911  -8.704  1.00  0.00     0.027 C 
ENDBRANCH  32  42
ENDBRANCH   4  30
TORSDOF 11
ENDMDL
