MODEL 3
REMARK VINA RESULT: -9.856698959      3.124      8.839
REMARK  11 active torsions:
REMARK  status: ('A' for Active; 'I' for Inactive)
REMARK    1  A    between atoms: O1_2  and  C2_3 
REMARK    2  A    between atoms: C5_6  and  C6_7 
REMARK    3  A    between atoms: N2_10  and  C7_11 
REMARK    4  A    between atoms: C22_27  and  O3_28 
REMARK    5  A    between atoms: O3_28  and  C23_29 
REMARK    6  A    between atoms: C23_29  and  C24_30 
REMARK    7  A    between atoms: C24_30  and  C25_31 
REMARK    8  A    between atoms: C25_31  and  C26_32 
REMARK    9  A    between atoms: C26_32  and  O4_33 
REMARK   10  A    between atoms: O4_33  and  C27_34 
REMARK   11  A    between atoms: C30_37  and  C31_38 
ROOT
HETATM    1  C2  UNL     1      25.734  10.071  -6.018  1.00  0.00     0.101 A 
HETATM    2  C3  UNL     1      25.938  11.422  -6.184  1.00  0.00     0.040 A 
HETATM    3  C4  UNL     1      26.557  12.125  -5.169  1.00  0.00     0.016 A 
HETATM    4  C5  UNL     1      26.979  11.536  -3.995  1.00  0.00    -0.009 A 
HETATM    5  C21 UNL     1      26.765  10.190  -3.856  1.00  0.00     0.053 A 
HETATM    6  C22 UNL     1      26.139   9.406  -4.849  1.00  0.00     0.102 A 
ENDROOT
BRANCH   6   7
HETATM    7  O3  UNL     1      25.936   8.136  -4.717  1.00  0.00    -0.348 OA
BRANCH   7   8
HETATM    8  C23 UNL     1      25.731   6.999  -4.091  1.00  0.00     0.176 C 
BRANCH   8   9
HETATM    9  C24 UNL     1      26.970   6.110  -4.133  1.00  0.00     0.029 C 
BRANCH   9  10
HETATM   10  C25 UNL     1      26.710   4.944  -5.106  1.00  0.00     0.029 C 
BRANCH  10  11
HETATM   11  C26 UNL     1      25.801   5.440  -6.174  1.00  0.00     0.175 C 
BRANCH  11  12
HETATM   12  O4  UNL     1      26.441   5.627  -7.367  1.00  0.00    -0.351 OA
BRANCH  12  13
HETATM   13  C27 UNL     1      27.616   6.241  -7.664  1.00  0.00     0.068 A 
HETATM   14  C28 UNL     1      27.821   7.598  -7.605  1.00  0.00     0.037 A 
HETATM   15  C29 UNL     1      29.068   8.129  -7.938  1.00  0.00     0.018 A 
HETATM   16  C30 UNL     1      30.130   7.349  -8.329  1.00  0.00     0.011 A 
HETATM   17  C32 UNL     1      29.926   5.987  -8.386  1.00  0.00     0.018 A 
HETATM   18  C33 UNL     1      28.710   5.451  -8.065  1.00  0.00     0.037 A 
BRANCH  16  19
HETATM   19  C31 UNL     1      31.425   7.909  -8.675  1.00  0.00     0.147 A 
HETATM   20  N3  UNL     1      32.580   7.869  -7.987  1.00  0.00    -0.268 N 
HETATM   21  N4  UNL     1      33.476   8.522  -8.722  1.00  0.00    -0.227 N 
ATOM     22  H3  UNL     1      32.738   7.425  -7.082  1.00  0.00     0.190 HD
HETATM   23  N5  UNL     1      32.945   8.964  -9.823  1.00  0.00    -0.227 N 
ATOM     24  H4  UNL     1      34.451   8.659  -8.457  1.00  0.00     0.210 HD
HETATM   25  N6  UNL     1      31.665   8.592  -9.813  1.00  0.00    -0.268 N 
ATOM     26  H5  UNL     1      33.418   9.495 -10.555  1.00  0.00     0.210 HD
ATOM     27  H6  UNL     1      30.981   8.789 -10.544  1.00  0.00     0.190 HD
ENDBRANCH  16  19
ENDBRANCH  12  13
ENDBRANCH  11  12
ENDBRANCH  10  11
ENDBRANCH   9  10
ENDBRANCH   8   9
ENDBRANCH   7   8
ENDBRANCH   6   7
BRANCH   1  28
HETATM   28  O1  UNL     1      25.122   9.283  -6.981  1.00  0.00    -0.353 OA
HETATM   29  C1  UNL     1      24.924   9.843  -8.263  1.00  0.00     0.210 C 
ENDBRANCH   1  28
BRANCH   4  30
HETATM   30  C6  UNL     1      27.623  12.349  -2.935  1.00  0.00     0.041 C 
HETATM   31  N1  UNL     1      28.197  13.458  -3.248  1.00  0.00    -0.298 N 
HETATM   32  N2  UNL     1      28.831  14.303  -2.340  1.00  0.00    -0.256 N 
ATOM     33  H1  UNL     1      28.188  13.737  -4.228  1.00  0.00     0.187 HD
HETATM   34  C14 UNL     1      28.822  13.877  -0.987  1.00  0.00     0.243 C 
HETATM   35  O2  UNL     1      29.699  14.251  -0.189  1.00  0.00    -0.271 OA
HETATM   36  C15 UNL     1      27.739  12.976  -0.553  1.00  0.00     0.093 C 
HETATM   37  C16 UNL     1      28.114  12.436   0.819  1.00  0.00     0.041 C 
HETATM   38  C20 UNL     1      27.566  11.853  -1.534  1.00  0.00     0.055 C 
HETATM   39  C17 UNL     1      29.478  11.875   0.658  1.00  0.00    -0.030 C 
HETATM   40  C18 UNL     1      29.681  11.100  -0.396  1.00  0.00    -0.030 C 
HETATM   41  C19 UNL     1      28.610  10.818  -1.348  1.00  0.00     0.038 C 
BRANCH  32  42
HETATM   42  C7  UNL     1      29.471  15.562  -2.719  1.00  0.00     0.111 C 
HETATM   43  C8  UNL     1      29.884  15.602  -4.169  1.00  0.00     0.027 C 
HETATM   44  C9  UNL     1      30.555  16.935  -4.418  1.00  0.00     0.002 C 
HETATM   45  C10 UNL     1      29.569  18.052  -4.620  1.00  0.00     0.000 C 
HETATM   46  C11 UNL     1      28.165  17.542  -4.831  1.00  0.00     0.000 C 
HETATM   47  C12 UNL     1      27.589  16.843  -3.634  1.00  0.00     0.002 C 
HETATM   48  C13 UNL     1      28.513  16.694  -2.474  1.00  0.00     0.027 C 
ENDBRANCH  32  42
ENDBRANCH   4  30
TORSDOF 11
ENDMDL
