MODEL 2
REMARK VINA RESULT: -9.969074329      2.202      4.750
REMARK  11 active torsions:
REMARK  status: ('A' for Active; 'I' for Inactive)
REMARK    1  A    between atoms: O1_2  and  C2_3 
REMARK    2  A    between atoms: C5_6  and  C6_7 
REMARK    3  A    between atoms: N2_10  and  C7_11 
REMARK    4  A    between atoms: C22_27  and  O3_28 
REMARK    5  A    between atoms: O3_28  and  C23_29 
REMARK    6  A    between atoms: C23_29  and  C24_30 
REMARK    7  A    between atoms: C24_30  and  C25_31 
REMARK    8  A    between atoms: C25_31  and  C26_32 
REMARK    9  A    between atoms: C26_32  and  O4_33 
REMARK   10  A    between atoms: O4_33  and  C27_34 
REMARK   11  A    between atoms: C30_37  and  C31_38 
ROOT
HETATM    1  C2  UNL     1      25.258  11.009  -9.775  1.00  0.00     0.101 A 
HETATM    2  C3  UNL     1      26.252  10.142 -10.171  1.00  0.00     0.040 A 
HETATM    3  C4  UNL     1      26.581   9.092  -9.336  1.00  0.00     0.016 A 
HETATM    4  C5  UNL     1      25.961   8.872  -8.123  1.00  0.00    -0.009 A 
HETATM    5  C21 UNL     1      24.976   9.749  -7.754  1.00  0.00     0.053 A 
HETATM    6  C22 UNL     1      24.585  10.845  -8.554  1.00  0.00     0.102 A 
ENDROOT
BRANCH   6   7
HETATM    7  O3  UNL     1      23.655  11.673  -8.205  1.00  0.00    -0.348 OA
BRANCH   7   8
HETATM    8  C23 UNL     1      23.006  12.511  -7.428  1.00  0.00     0.176 C 
BRANCH   8   9
HETATM    9  C24 UNL     1      23.906  13.654  -6.970  1.00  0.00     0.029 C 
BRANCH   9  10
HETATM   10  C25 UNL     1      24.677  13.204  -5.714  1.00  0.00     0.029 C 
BRANCH  10  11
HETATM   11  C26 UNL     1      26.116  13.101  -6.080  1.00  0.00     0.175 C 
BRANCH  11  12
HETATM   12  O4  UNL     1      26.920  13.857  -5.274  1.00  0.00    -0.351 OA
BRANCH  12  13
HETATM   13  C27 UNL     1      27.335  13.667  -3.995  1.00  0.00     0.068 A 
HETATM   14  C28 UNL     1      27.526  12.438  -3.413  1.00  0.00     0.037 A 
HETATM   15  C29 UNL     1      27.950  12.353  -2.085  1.00  0.00     0.018 A 
HETATM   16  C30 UNL     1      28.194  13.461  -1.309  1.00  0.00     0.011 A 
HETATM   17  C32 UNL     1      28.004  14.695  -1.893  1.00  0.00     0.018 A 
HETATM   18  C33 UNL     1      27.588  14.795  -3.191  1.00  0.00     0.037 A 
BRANCH  16  19
HETATM   19  C31 UNL     1      28.633  13.366   0.072  1.00  0.00     0.147 A 
HETATM   20  N3  UNL     1      28.051  13.846   1.185  1.00  0.00    -0.268 N 
HETATM   21  N4  UNL     1      28.838  13.497   2.199  1.00  0.00    -0.227 N 
ATOM     22  H3  UNL     1      27.180  14.374   1.240  1.00  0.00     0.190 HD
HETATM   23  N5  UNL     1      29.872  12.829   1.782  1.00  0.00    -0.227 N 
ATOM     24  H4  UNL     1      28.654  13.723   3.176  1.00  0.00     0.210 HD
HETATM   25  N6  UNL     1      29.763  12.735   0.456  1.00  0.00    -0.268 N 
ATOM     26  H5  UNL     1      30.622  12.449   2.359  1.00  0.00     0.210 HD
ATOM     27  H6  UNL     1      30.423  12.266  -0.164  1.00  0.00     0.190 HD
ENDBRANCH  16  19
ENDBRANCH  12  13
ENDBRANCH  11  12
ENDBRANCH  10  11
ENDBRANCH   9  10
ENDBRANCH   8   9
ENDBRANCH   7   8
ENDBRANCH   6   7
BRANCH   1  28
HETATM   28  O1  UNL     1      24.859  12.091 -10.545  1.00  0.00    -0.353 OA
HETATM   29  C1  UNL     1      25.821  12.689 -11.391  1.00  0.00     0.210 C 
ENDBRANCH   1  28
BRANCH   4  30
HETATM   30  C6  UNL     1      26.373   7.736  -7.264  1.00  0.00     0.041 C 
HETATM   31  N1  UNL     1      26.847   7.968  -6.091  1.00  0.00    -0.298 N 
HETATM   32  N2  UNL     1      27.264   6.983  -5.198  1.00  0.00    -0.256 N 
ATOM     33  H1  UNL     1      26.923   8.940  -5.793  1.00  0.00     0.187 HD
HETATM   34  C14 UNL     1      27.142   5.644  -5.651  1.00  0.00     0.243 C 
HETATM   35  O2  UNL     1      27.868   4.743  -5.196  1.00  0.00    -0.271 OA
HETATM   36  C15 UNL     1      26.129   5.353  -6.680  1.00  0.00     0.093 C 
HETATM   37  C16 UNL     1      26.398   3.949  -7.203  1.00  0.00     0.041 C 
HETATM   38  C20 UNL     1      26.207   6.356  -7.795  1.00  0.00     0.055 C 
HETATM   39  C17 UNL     1      27.827   3.947  -7.600  1.00  0.00    -0.030 C 
HETATM   40  C18 UNL     1      28.245   4.975  -8.323  1.00  0.00    -0.030 C 
HETATM   41  C19 UNL     1      27.335   6.053  -8.706  1.00  0.00     0.038 C 
BRANCH  32  42
HETATM   42  C7  UNL     1      27.793   7.272  -3.866  1.00  0.00     0.111 C 
HETATM   43  C8  UNL     1      28.110   8.732  -3.659  1.00  0.00     0.027 C 
HETATM   44  C9  UNL     1      28.673   8.886  -2.263  1.00  0.00     0.002 C 
HETATM   45  C10 UNL     1      27.603   8.921  -1.207  1.00  0.00     0.000 C 
HETATM   46  C11 UNL     1      26.226   9.102  -1.796  1.00  0.00     0.000 C 
HETATM   47  C12 UNL     1      25.775   7.949  -2.645  1.00  0.00     0.002 C 
HETATM   48  C13 UNL     1      26.778   6.864  -2.834  1.00  0.00     0.027 C 
ENDBRANCH  32  42
ENDBRANCH   4  30
TORSDOF 11
ENDMDL
