MODEL 3
REMARK VINA RESULT: -5.996093409      4.366      5.527
REMARK  10 active torsions:
REMARK  status: ('A' for Active; 'I' for Inactive)
REMARK    1  A    between atoms: N1_1  and  C1_5 
REMARK    2  A    between atoms: C1_5  and  C2_6 
REMARK    3  A    between atoms: C1_5  and  C10_23 
REMARK    4  A    between atoms: C2_6  and  C3_7 
REMARK    5  A    between atoms: C3_7  and  C4_8 
REMARK       I    between atoms: C4_8  and  N2_10 
REMARK    6  A    between atoms: N2_10  and  C5_12 
REMARK    7  A    between atoms: C5_12  and  C6_13 
REMARK    8  A    between atoms: C5_12  and  C7_15 
REMARK       I    between atoms: C7_15  and  N3_17 
REMARK    9  A    between atoms: N3_17  and  C8_19 
REMARK   10  A    between atoms: C8_19  and  C9_20 
ROOT
HETATM    1  C4  UNL     1      -3.040 -29.850  16.584  1.00  0.00     0.218 C 
HETATM    2  O1  UNL     1      -3.326 -30.018  17.813  1.00  0.00    -0.274 OA
HETATM    3  N2  UNL     1      -2.479 -28.606  16.242  1.00  0.00    -0.347 N 
ATOM      4  H2  UNL     1      -2.228 -28.409  15.273  1.00  0.00     0.163 HD
ENDROOT
BRANCH   3   5
HETATM    5  C5  UNL     1      -2.254 -27.579  17.288  1.00  0.00     0.186 C 
BRANCH   5   6
HETATM    6  C6  UNL     1      -1.278 -26.568  16.657  1.00  0.00     0.120 C 
HETATM    7  S1  UNL     1       0.389 -26.761  17.269  1.00  0.00    -0.095 SA
ENDBRANCH   5   6
BRANCH   5   8
HETATM    8  C7  UNL     1      -3.539 -26.880  17.471  1.00  0.00     0.241 C 
HETATM    9  O2  UNL     1      -3.885 -26.022  16.597  1.00  0.00    -0.271 OA
HETATM   10  N3  UNL     1      -4.377 -27.149  18.581  1.00  0.00    -0.349 N 
ATOM     11  H3  UNL     1      -4.111 -27.839  19.284  1.00  0.00     0.163 HD
BRANCH  10  12
HETATM   12  C8  UNL     1      -5.623 -26.417  18.690  1.00  0.00     0.235 C 
BRANCH  12  13
HETATM   13  C9  UNL     1      -5.453 -25.325  19.673  1.00  0.00     0.191 C 
HETATM   14  O3  UNL     1      -5.806 -25.481  20.869  1.00  0.00    -0.647 OA
HETATM   15  O4  UNL     1      -4.902 -24.113  19.279  1.00  0.00    -0.647 OA
ENDBRANCH  12  13
ENDBRANCH  10  12
ENDBRANCH   5   8
ENDBRANCH   3   5
BRANCH   1  16
HETATM   16  C3  UNL     1      -3.296 -30.929  15.585  1.00  0.00     0.105 C 
BRANCH  16  17
HETATM   17  C2  UNL     1      -3.193 -30.322  14.227  1.00  0.00     0.053 C 
BRANCH  17  18
HETATM   18  C1  UNL     1      -2.482 -31.193  13.228  1.00  0.00     0.283 C 
BRANCH  18  19
HETATM   19  N1  UNL     1      -1.076 -30.967  13.165  1.00  0.00    -0.065 N 
ATOM     20  H13 UNL     1      -0.615 -31.342  13.993  1.00  0.00     0.275 HD
ATOM     21  H12 UNL     1      -0.650 -31.556  12.449  1.00  0.00     0.275 HD
ATOM     22  H11 UNL     1      -0.822 -29.990  13.024  1.00  0.00     0.275 HD
ENDBRANCH  18  19
BRANCH  18  23
HETATM   23  C10 UNL     1      -3.111 -30.995  11.898  1.00  0.00     0.204 C 
HETATM   24  O5  UNL     1      -2.501 -31.243  10.834  1.00  0.00    -0.646 OA
HETATM   25  O6  UNL     1      -4.414 -30.518  11.864  1.00  0.00    -0.646 OA
ENDBRANCH  18  23
ENDBRANCH  17  18
ENDBRANCH  16  17
ENDBRANCH   1  16
TORSDOF 10
ENDMDL
