MODEL 1
REMARK VINA RESULT: -6.140453489      0.000      0.000
REMARK  10 active torsions:
REMARK  status: ('A' for Active; 'I' for Inactive)
REMARK    1  A    between atoms: N1_1  and  C1_5 
REMARK    2  A    between atoms: C1_5  and  C2_6 
REMARK    3  A    between atoms: C1_5  and  C10_23 
REMARK    4  A    between atoms: C2_6  and  C3_7 
REMARK    5  A    between atoms: C3_7  and  C4_8 
REMARK       I    between atoms: C4_8  and  N2_10 
REMARK    6  A    between atoms: N2_10  and  C5_12 
REMARK    7  A    between atoms: C5_12  and  C6_13 
REMARK    8  A    between atoms: C5_12  and  C7_15 
REMARK       I    between atoms: C7_15  and  N3_17 
REMARK    9  A    between atoms: N3_17  and  C8_19 
REMARK   10  A    between atoms: C8_19  and  C9_20 
ROOT
HETATM    1  C4  UNL     1      -5.840 -29.316  19.197  1.00  0.00     0.218 C 
HETATM    2  O1  UNL     1      -7.039 -29.745  19.198  1.00  0.00    -0.274 OA
HETATM    3  N2  UNL     1      -5.412 -28.668  20.370  1.00  0.00    -0.347 N 
ATOM      4  H2  UNL     1      -4.462 -28.302  20.432  1.00  0.00     0.163 HD
ENDROOT
BRANCH   3   5
HETATM    5  C5  UNL     1      -6.340 -28.515  21.517  1.00  0.00     0.186 C 
BRANCH   5   6
HETATM    6  C6  UNL     1      -5.624 -29.182  22.706  1.00  0.00     0.120 C 
HETATM    7  S1  UNL     1      -6.267 -30.810  23.060  1.00  0.00    -0.095 SA
ENDBRANCH   5   6
BRANCH   5   8
HETATM    8  C7  UNL     1      -6.408 -27.071  21.809  1.00  0.00     0.241 C 
HETATM    9  O2  UNL     1      -7.294 -26.666  22.629  1.00  0.00    -0.271 OA
HETATM   10  N3  UNL     1      -5.517 -26.151  21.204  1.00  0.00    -0.349 N 
ATOM     11  H3  UNL     1      -4.801 -26.467  20.550  1.00  0.00     0.163 HD
BRANCH  10  12
HETATM   12  C8  UNL     1      -5.652 -24.748  21.541  1.00  0.00     0.235 C 
BRANCH  12  13
HETATM   13  C9  UNL     1      -4.933 -23.941  20.533  1.00  0.00     0.191 C 
HETATM   14  O3  UNL     1      -4.953 -24.268  19.320  1.00  0.00    -0.647 OA
HETATM   15  O4  UNL     1      -4.227 -22.810  20.921  1.00  0.00    -0.647 OA
ENDBRANCH  12  13
ENDBRANCH  10  12
ENDBRANCH   5   8
ENDBRANCH   3   5
BRANCH   1  16
HETATM   16  C3  UNL     1      -4.962 -29.505  18.006  1.00  0.00     0.105 C 
BRANCH  16  17
HETATM   17  C2  UNL     1      -4.439 -28.165  17.612  1.00  0.00     0.053 C 
BRANCH  17  18
HETATM   18  C1  UNL     1      -2.942 -28.118  17.473  1.00  0.00     0.283 C 
BRANCH  18  19
HETATM   19  N1  UNL     1      -2.242 -28.471  18.663  1.00  0.00    -0.065 N 
ATOM     20  H13 UNL     1      -2.896 -28.638  19.428  1.00  0.00     0.275 HD
ATOM     21  H12 UNL     1      -1.836 -29.403  18.579  1.00  0.00     0.275 HD
ATOM     22  H11 UNL     1      -1.532 -27.793  18.939  1.00  0.00     0.275 HD
ENDBRANCH  18  19
BRANCH  18  23
HETATM   23  C10 UNL     1      -2.555 -26.761  17.013  1.00  0.00     0.204 C 
HETATM   24  O5  UNL     1      -3.401 -25.857  16.830  1.00  0.00    -0.646 OA
HETATM   25  O6  UNL     1      -1.207 -26.514  16.788  1.00  0.00    -0.646 OA
ENDBRANCH  18  23
ENDBRANCH  17  18
ENDBRANCH  16  17
ENDBRANCH   1  16
TORSDOF 10
ENDMDL
