MODEL 2
REMARK VINA RESULT: -6.084660843      1.937      2.131
REMARK  10 active torsions:
REMARK  status: ('A' for Active; 'I' for Inactive)
REMARK    1  A    between atoms: N1_1  and  C1_5 
REMARK    2  A    between atoms: C1_5  and  C2_6 
REMARK    3  A    between atoms: C1_5  and  C10_23 
REMARK    4  A    between atoms: C2_6  and  C3_7 
REMARK    5  A    between atoms: C3_7  and  C4_8 
REMARK       I    between atoms: C4_8  and  N2_10 
REMARK    6  A    between atoms: N2_10  and  C5_12 
REMARK    7  A    between atoms: C5_12  and  C6_13 
REMARK    8  A    between atoms: C5_12  and  C7_15 
REMARK       I    between atoms: C7_15  and  N3_17 
REMARK    9  A    between atoms: N3_17  and  C8_19 
REMARK   10  A    between atoms: C8_19  and  C9_20 
ROOT
HETATM    1  C4  UNL     1      -4.068 -29.239  20.733  1.00  0.00     0.218 C 
HETATM    2  O1  UNL     1      -5.250 -29.705  20.658  1.00  0.00    -0.274 OA
HETATM    3  N2  UNL     1      -3.777 -28.464  21.871  1.00  0.00    -0.347 N 
ATOM      4  H2  UNL     1      -2.848 -28.063  21.990  1.00  0.00     0.163 HD
ENDROOT
BRANCH   3   5
HETATM    5  C5  UNL     1      -4.822 -28.230  22.898  1.00  0.00     0.186 C 
BRANCH   5   6
HETATM    6  C6  UNL     1      -4.053 -28.042  24.219  1.00  0.00     0.120 C 
HETATM    7  S1  UNL     1      -2.455 -27.284  23.972  1.00  0.00    -0.095 SA
ENDBRANCH   5   6
BRANCH   5   8
HETATM    8  C7  UNL     1      -5.443 -26.933  22.573  1.00  0.00     0.241 C 
HETATM    9  O2  UNL     1      -5.894 -26.226  23.530  1.00  0.00    -0.271 OA
HETATM   10  N3  UNL     1      -5.539 -26.472  21.236  1.00  0.00    -0.349 N 
ATOM     11  H3  UNL     1      -5.176 -27.029  20.462  1.00  0.00     0.163 HD
BRANCH  10  12
HETATM   12  C8  UNL     1      -6.167 -25.188  21.000  1.00  0.00     0.235 C 
BRANCH  12  13
HETATM   13  C9  UNL     1      -5.131 -24.214  20.595  1.00  0.00     0.191 C 
HETATM   14  O3  UNL     1      -4.842 -24.055  19.382  1.00  0.00    -0.647 OA
HETATM   15  O4  UNL     1      -4.465 -23.466  21.556  1.00  0.00    -0.647 OA
ENDBRANCH  12  13
ENDBRANCH  10  12
ENDBRANCH   5   8
ENDBRANCH   3   5
BRANCH   1  16
HETATM   16  C3  UNL     1      -3.068 -29.515  19.661  1.00  0.00     0.105 C 
BRANCH  16  17
HETATM   17  C2  UNL     1      -3.739 -29.296  18.348  1.00  0.00     0.053 C 
BRANCH  17  18
HETATM   18  C1  UNL     1      -3.093 -28.226  17.511  1.00  0.00     0.283 C 
BRANCH  18  19
HETATM   19  N1  UNL     1      -1.778 -27.878  17.936  1.00  0.00    -0.065 N 
ATOM     20  H13 UNL     1      -1.589 -28.254  18.864  1.00  0.00     0.275 HD
ATOM     21  H12 UNL     1      -1.079 -28.390  17.398  1.00  0.00     0.275 HD
ATOM     22  H11 UNL     1      -1.588 -26.876  17.909  1.00  0.00     0.275 HD
ENDBRANCH  18  19
BRANCH  18  23
HETATM   23  C10 UNL     1      -3.980 -27.035  17.503  1.00  0.00     0.204 C 
HETATM   24  O5  UNL     1      -3.651 -25.969  16.937  1.00  0.00    -0.646 OA
HETATM   25  O6  UNL     1      -5.203 -27.136  18.152  1.00  0.00    -0.646 OA
ENDBRANCH  18  23
ENDBRANCH  17  18
ENDBRANCH  16  17
ENDBRANCH   1  16
TORSDOF 10
ENDMDL
