MODEL 19
REMARK VINA RESULT: -9.264790925      3.150      9.294
REMARK  8 active torsions:
REMARK  status: ('A' for Active; 'I' for Inactive)
REMARK    1  A    between atoms: O1_2  and  C2_3 
REMARK    2  A    between atoms: C5_6  and  C6_7 
REMARK    3  A    between atoms: N2_10  and  C7_11 
REMARK    4  A    between atoms: C18_23  and  C19_24 
REMARK    5  A    between atoms: C22_27  and  C23_28 
REMARK    6  A    between atoms: C23_28  and  O3_29 
REMARK    7  A    between atoms: C23_28  and  N3_31 
REMARK    8  A    between atoms: C26_34  and  O4_35 
ROOT
HETATM    1  C2  UNL     1     137.186  88.122  67.593  1.00  0.00     0.079 A 
HETATM    2  C3  UNL     1     136.897  88.931  68.655  1.00  0.00     0.038 A 
HETATM    3  C4  UNL     1     136.105  90.080  68.489  1.00  0.00     0.016 A 
HETATM    4  C5  UNL     1     135.605  90.428  67.275  1.00  0.00    -0.011 A 
HETATM    5  C17 UNL     1     135.913  89.588  66.205  1.00  0.00     0.028 A 
HETATM    6  C18 UNL     1     136.693  88.449  66.365  1.00  0.00     0.008 A 
ENDROOT
BRANCH   6   7
HETATM    7  C19 UNL     1     136.939  87.651  65.164  1.00  0.00    -0.023 A 
HETATM    8  C20 UNL     1     135.995  86.711  64.824  1.00  0.00     0.013 A 
HETATM    9  C21 UNL     1     136.115  85.904  63.740  1.00  0.00     0.016 A 
HETATM   10  C22 UNL     1     137.265  86.035  62.922  1.00  0.00     0.015 A 
HETATM   11  C28 UNL     1     138.200  86.963  63.254  1.00  0.00     0.016 A 
HETATM   12  C29 UNL     1     138.042  87.775  64.376  1.00  0.00     0.013 A 
BRANCH  10  13
HETATM   13  C23 UNL     1     137.294  85.129  61.792  1.00  0.00     0.152 C 
BRANCH  13  14
HETATM   14  O3  UNL     1     137.928  83.998  61.933  1.00  0.00    -0.345 OA
ATOM     15  H3  UNL     1     138.440  83.681  61.199  1.00  0.00     0.219 HD
ENDBRANCH  13  14
BRANCH  13  16
HETATM   16  N3  UNL     1     136.708  85.325  60.520  1.00  0.00    -0.339 N 
HETATM   17  C24 UNL     1     135.921  86.378  60.034  1.00  0.00     0.069 C 
HETATM   18  C25 UNL     1     135.585  86.066  58.578  1.00  0.00     0.078 C 
HETATM   19  C26 UNL     1     135.781  84.579  58.516  1.00  0.00     0.141 C 
HETATM   20  C27 UNL     1     136.905  84.312  59.469  1.00  0.00     0.162 C 
BRANCH  19  21
HETATM   21  O4  UNL     1     136.163  84.208  57.225  1.00  0.00    -0.394 OA
ATOM     22  H4  UNL     1     137.108  84.266  57.141  1.00  0.00     0.210 HD
ENDBRANCH  19  21
ENDBRANCH  13  16
ENDBRANCH  10  13
ENDBRANCH   6   7
BRANCH   1  23
HETATM   23  O1  UNL     1     137.962  86.975  67.702  1.00  0.00    -0.355 OA
HETATM   24  C1  UNL     1     137.512  85.815  68.354  1.00  0.00     0.210 C 
ENDBRANCH   1  23
BRANCH   4  25
HETATM   25  C6  UNL     1     134.824  91.650  67.050  1.00  0.00     0.041 C 
HETATM   26  N1  UNL     1     135.246  92.367  66.059  1.00  0.00    -0.298 N 
HETATM   27  N2  UNL     1     134.750  93.552  65.579  1.00  0.00    -0.257 N 
ATOM     28  H1  UNL     1     136.062  92.000  65.568  1.00  0.00     0.187 HD
HETATM   29  C10 UNL     1     133.595  94.032  66.307  1.00  0.00     0.243 C 
HETATM   30  O2  UNL     1     132.832  94.818  65.751  1.00  0.00    -0.271 OA
HETATM   31  C11 UNL     1     133.390  93.558  67.677  1.00  0.00     0.093 C 
HETATM   32  C12 UNL     1     134.283  94.364  68.653  1.00  0.00     0.041 C 
HETATM   33  C16 UNL     1     133.686  92.100  67.873  1.00  0.00     0.055 C 
HETATM   34  C13 UNL     1     133.612  94.087  69.982  1.00  0.00    -0.030 C 
HETATM   35  C14 UNL     1     133.393  92.815  70.255  1.00  0.00    -0.030 C 
HETATM   36  C15 UNL     1     133.782  91.747  69.326  1.00  0.00     0.038 C 
BRANCH  27  37
HETATM   37  C7  UNL     1     135.341  94.217  64.466  1.00  0.00     0.103 C 
HETATM   38  C8  UNL     1     134.379  95.286  64.001  1.00  0.00     0.034 C 
HETATM   39  C9  UNL     1     136.713  94.771  64.754  1.00  0.00     0.034 C 
ENDBRANCH  27  37
ENDBRANCH   4  25
TORSDOF 8
ENDMDL
