MODEL 18
REMARK VINA RESULT: -9.401926280      5.255      7.243
REMARK  8 active torsions:
REMARK  status: ('A' for Active; 'I' for Inactive)
REMARK    1  A    between atoms: O1_2  and  C2_3 
REMARK    2  A    between atoms: C5_6  and  C6_7 
REMARK    3  A    between atoms: N2_10  and  C7_11 
REMARK    4  A    between atoms: C18_23  and  C19_24 
REMARK    5  A    between atoms: C22_27  and  C23_28 
REMARK    6  A    between atoms: C23_28  and  O3_29 
REMARK    7  A    between atoms: C23_28  and  N3_31 
REMARK    8  A    between atoms: C26_34  and  O4_35 
ROOT
HETATM    1  C2  UNL     1     134.610  88.688  63.605  1.00  0.00     0.079 A 
HETATM    2  C3  UNL     1     134.788  87.992  62.444  1.00  0.00     0.038 A 
HETATM    3  C4  UNL     1     135.653  86.885  62.395  1.00  0.00     0.016 A 
HETATM    4  C5  UNL     1     136.342  86.473  63.491  1.00  0.00    -0.011 A 
HETATM    5  C17 UNL     1     136.144  87.199  64.666  1.00  0.00     0.028 A 
HETATM    6  C18 UNL     1     135.288  88.292  64.720  1.00  0.00     0.008 A 
ENDROOT
BRANCH   6   7
HETATM    7  C19 UNL     1     135.166  88.965  66.013  1.00  0.00    -0.023 A 
HETATM    8  C20 UNL     1     134.352  88.383  66.955  1.00  0.00     0.013 A 
HETATM    9  C21 UNL     1     134.151  88.916  68.187  1.00  0.00     0.016 A 
HETATM   10  C22 UNL     1     134.809  90.127  68.516  1.00  0.00     0.015 A 
HETATM   11  C28 UNL     1     135.615  90.706  67.587  1.00  0.00     0.016 A 
HETATM   12  C29 UNL     1     135.797  90.128  66.332  1.00  0.00     0.013 A 
BRANCH  10  13
HETATM   13  C23 UNL     1     134.530  90.609  69.853  1.00  0.00     0.152 C 
BRANCH  13  14
HETATM   14  O3  UNL     1     134.975  89.908  70.859  1.00  0.00    -0.345 OA
ATOM     15  H3  UNL     1     135.810  90.157  71.238  1.00  0.00     0.219 HD
ENDBRANCH  13  14
BRANCH  13  16
HETATM   16  N3  UNL     1     133.814  91.774  70.213  1.00  0.00    -0.339 N 
HETATM   17  C24 UNL     1     132.615  91.920  70.925  1.00  0.00     0.069 C 
HETATM   18  C25 UNL     1     132.326  93.415  71.036  1.00  0.00     0.078 C 
HETATM   19  C26 UNL     1     133.134  93.982  69.904  1.00  0.00     0.141 C 
HETATM   20  C27 UNL     1     134.338  93.095  69.826  1.00  0.00     0.162 C 
BRANCH  19  21
HETATM   21  O4  UNL     1     133.531  95.284  70.214  1.00  0.00    -0.394 OA
ATOM     22  H4  UNL     1     132.785  95.780  70.531  1.00  0.00     0.210 HD
ENDBRANCH  19  21
ENDBRANCH  13  16
ENDBRANCH  10  13
ENDBRANCH   6   7
BRANCH   1  23
HETATM   23  O1  UNL     1     133.767  89.787  63.708  1.00  0.00    -0.355 OA
HETATM   24  C1  UNL     1     132.738  90.043  62.786  1.00  0.00     0.210 C 
ENDBRANCH   1  23
BRANCH   4  25
HETATM   25  C6  UNL     1     137.297  85.359  63.467  1.00  0.00     0.041 C 
HETATM   26  N1  UNL     1     137.177  84.589  62.434  1.00  0.00    -0.298 N 
HETATM   27  N2  UNL     1     137.905  83.474  62.100  1.00  0.00    -0.257 N 
ATOM     28  H1  UNL     1     136.441  84.847  61.777  1.00  0.00     0.187 HD
HETATM   29  C10 UNL     1     138.937  83.149  63.062  1.00  0.00     0.243 C 
HETATM   30  O2  UNL     1     139.888  82.464  62.696  1.00  0.00    -0.271 OA
HETATM   31  C11 UNL     1     138.797  83.652  64.429  1.00  0.00     0.093 C 
HETATM   32  C12 UNL     1     137.830  82.744  65.230  1.00  0.00     0.041 C 
HETATM   33  C16 UNL     1     138.290  85.062  64.516  1.00  0.00     0.055 C 
HETATM   34  C13 UNL     1     138.176  83.110  66.657  1.00  0.00    -0.030 C 
HETATM   35  C14 UNL     1     138.175  84.402  66.929  1.00  0.00    -0.030 C 
HETATM   36  C15 UNL     1     137.856  85.407  65.908  1.00  0.00     0.038 C 
BRANCH  27  37
HETATM   37  C7  UNL     1     137.640  82.734  60.912  1.00  0.00     0.103 C 
HETATM   38  C8  UNL     1     136.141  82.617  60.763  1.00  0.00     0.034 C 
HETATM   39  C9  UNL     1     138.293  83.314  59.683  1.00  0.00     0.034 C 
ENDBRANCH  27  37
ENDBRANCH   4  25
TORSDOF 8
ENDMDL
