MODEL 6
REMARK VINA RESULT: -10.080845622      1.806      3.024
REMARK  8 active torsions:
REMARK  status: ('A' for Active; 'I' for Inactive)
REMARK    1  A    between atoms: O1_2  and  C2_3 
REMARK    2  A    between atoms: C5_6  and  C6_7 
REMARK    3  A    between atoms: N2_10  and  C7_11 
REMARK    4  A    between atoms: C18_23  and  C19_24 
REMARK    5  A    between atoms: C22_27  and  C23_28 
REMARK    6  A    between atoms: C23_28  and  O3_29 
REMARK    7  A    between atoms: C23_28  and  N3_31 
REMARK    8  A    between atoms: C26_34  and  O4_35 
ROOT
HETATM    1  C2  UNL     1     133.738  92.853  67.970  1.00  0.00     0.079 A 
HETATM    2  C3  UNL     1     133.895  91.666  68.627  1.00  0.00     0.038 A 
HETATM    3  C4  UNL     1     134.524  90.575  68.002  1.00  0.00     0.016 A 
HETATM    4  C5  UNL     1     134.992  90.660  66.729  1.00  0.00    -0.011 A 
HETATM    5  C17 UNL     1     134.821  91.882  66.078  1.00  0.00     0.028 A 
HETATM    6  C18 UNL     1     134.202  92.963  66.693  1.00  0.00     0.008 A 
ENDROOT
BRANCH   6   7
HETATM    7  C19 UNL     1     134.089  94.189  65.902  1.00  0.00    -0.023 A 
HETATM    8  C20 UNL     1     135.100  95.113  66.019  1.00  0.00     0.013 A 
HETATM    9  C21 UNL     1     135.103  96.291  65.346  1.00  0.00     0.016 A 
HETATM   10  C22 UNL     1     134.017  96.582  64.484  1.00  0.00     0.015 A 
HETATM   11  C28 UNL     1     133.015  95.671  64.366  1.00  0.00     0.016 A 
HETATM   12  C29 UNL     1     133.047  94.470  65.074  1.00  0.00     0.013 A 
BRANCH  10  13
HETATM   13  C23 UNL     1     134.119  97.861  63.812  1.00  0.00     0.152 C 
BRANCH  13  14
HETATM   14  O3  UNL     1     133.635  98.909  64.420  1.00  0.00    -0.345 OA
ATOM     15  H3  UNL     1     132.701  98.932  64.590  1.00  0.00     0.219 HD
ENDBRANCH  13  14
BRANCH  13  16
HETATM   16  N3  UNL     1     134.690  98.123  62.546  1.00  0.00    -0.339 N 
HETATM   17  C24 UNL     1     135.924  98.696  62.206  1.00  0.00     0.069 C 
HETATM   18  C25 UNL     1     136.019  98.710  60.683  1.00  0.00     0.078 C 
HETATM   19  C26 UNL     1     134.579  98.617  60.271  1.00  0.00     0.141 C 
HETATM   20  C27 UNL     1     133.945  97.765  61.327  1.00  0.00     0.162 C 
BRANCH  19  21
HETATM   21  O4  UNL     1     134.483  97.977  59.033  1.00  0.00    -0.394 OA
ATOM     22  H4  UNL     1     134.120  98.574  58.391  1.00  0.00     0.210 HD
ENDBRANCH  19  21
ENDBRANCH  13  16
ENDBRANCH  10  13
ENDBRANCH   6   7
BRANCH   1  23
HETATM   23  O1  UNL     1     133.126  93.961  68.542  1.00  0.00    -0.355 OA
HETATM   24  C1  UNL     1     133.006  94.128  69.932  1.00  0.00     0.210 C 
ENDBRANCH   1  23
BRANCH   4  25
HETATM   25  C6  UNL     1     135.601  89.528  66.022  1.00  0.00     0.041 C 
HETATM   26  N1  UNL     1     134.958  89.167  64.959  1.00  0.00    -0.298 N 
HETATM   27  N2  UNL     1     135.251  88.161  64.073  1.00  0.00    -0.257 N 
ATOM     28  H1  UNL     1     134.116  89.705  64.751  1.00  0.00     0.187 HD
HETATM   29  C10 UNL     1     136.452  87.427  64.410  1.00  0.00     0.243 C 
HETATM   30  O2  UNL     1     137.034  86.810  63.522  1.00  0.00    -0.271 OA
HETATM   31  C11 UNL     1     136.917  87.452  65.798  1.00  0.00     0.093 C 
HETATM   32  C12 UNL     1     136.113  86.432  66.643  1.00  0.00     0.041 C 
HETATM   33  C16 UNL     1     136.803  88.795  66.459  1.00  0.00     0.055 C 
HETATM   34  C13 UNL     1     137.008  86.260  67.850  1.00  0.00    -0.030 C 
HETATM   35  C14 UNL     1     137.395  87.377  68.437  1.00  0.00    -0.030 C 
HETATM   36  C15 UNL     1     136.974  88.694  67.945  1.00  0.00     0.038 C 
BRANCH  27  37
HETATM   37  C7  UNL     1     134.428  87.894  62.941  1.00  0.00     0.103 C 
HETATM   38  C8  UNL     1     133.237  87.092  63.413  1.00  0.00     0.034 C 
HETATM   39  C9  UNL     1     134.019  89.134  62.188  1.00  0.00     0.034 C 
ENDBRANCH  27  37
ENDBRANCH   4  25
TORSDOF 8
ENDMDL
