MODEL 3
REMARK VINA RESULT: -10.390256758      1.735      2.944
REMARK  8 active torsions:
REMARK  status: ('A' for Active; 'I' for Inactive)
REMARK    1  A    between atoms: O1_2  and  C2_3 
REMARK    2  A    between atoms: C5_6  and  C6_7 
REMARK    3  A    between atoms: N2_10  and  C7_11 
REMARK    4  A    between atoms: C18_23  and  C19_24 
REMARK    5  A    between atoms: C22_27  and  C23_28 
REMARK    6  A    between atoms: C23_28  and  O3_29 
REMARK    7  A    between atoms: C23_28  and  N3_31 
REMARK    8  A    between atoms: C26_34  and  O4_35 
ROOT
HETATM    1  C2  UNL     1     133.955  92.697  67.759  1.00  0.00     0.079 A 
HETATM    2  C3  UNL     1     134.081  91.630  68.601  1.00  0.00     0.038 A 
HETATM    3  C4  UNL     1     134.750  90.465  68.189  1.00  0.00     0.016 A 
HETATM    4  C5  UNL     1     135.290  90.357  66.947  1.00  0.00    -0.011 A 
HETATM    5  C17 UNL     1     135.150  91.460  66.105  1.00  0.00     0.028 A 
HETATM    6  C18 UNL     1     134.490  92.614  66.507  1.00  0.00     0.008 A 
ENDROOT
BRANCH   6   7
HETATM    7  C19 UNL     1     134.416  93.701  65.530  1.00  0.00    -0.023 A 
HETATM    8  C20 UNL     1     133.165  94.134  65.161  1.00  0.00     0.013 A 
HETATM    9  C21 UNL     1     132.966  95.127  64.257  1.00  0.00     0.016 A 
HETATM   10  C22 UNL     1     134.098  95.743  63.667  1.00  0.00     0.015 A 
HETATM   11  C28 UNL     1     135.336  95.317  64.030  1.00  0.00     0.016 A 
HETATM   12  C29 UNL     1     135.501  94.294  64.963  1.00  0.00     0.013 A 
BRANCH  10  13
HETATM   13  C23 UNL     1     133.776  96.790  62.720  1.00  0.00     0.152 C 
BRANCH  13  14
HETATM   14  O3  UNL     1     133.056  96.471  61.680  1.00  0.00    -0.345 OA
ATOM     15  H3  UNL     1     132.287  96.996  61.495  1.00  0.00     0.219 HD
ENDBRANCH  13  14
BRANCH  13  16
HETATM   16  N3  UNL     1     134.157  98.150  62.781  1.00  0.00    -0.339 N 
HETATM   17  C24 UNL     1     134.642  98.910  63.855  1.00  0.00     0.069 C 
HETATM   18  C25 UNL     1     134.908 100.321  63.334  1.00  0.00     0.078 C 
HETATM   19  C26 UNL     1     134.041 100.380  62.111  1.00  0.00     0.141 C 
HETATM   20  C27 UNL     1     134.067  98.983  61.570  1.00  0.00     0.162 C 
BRANCH  19  21
HETATM   21  O4  UNL     1     134.602 101.254  61.177  1.00  0.00    -0.394 OA
ATOM     22  H4  UNL     1     134.252 101.067  60.314  1.00  0.00     0.210 HD
ENDBRANCH  19  21
ENDBRANCH  13  16
ENDBRANCH  10  13
ENDBRANCH   6   7
BRANCH   1  23
HETATM   23  O1  UNL     1     133.305  93.872  68.115  1.00  0.00    -0.355 OA
HETATM   24  C1  UNL     1     132.656  94.035  69.351  1.00  0.00     0.210 C 
ENDBRANCH   1  23
BRANCH   4  25
HETATM   25  C6  UNL     1     135.945  89.137  66.460  1.00  0.00     0.041 C 
HETATM   26  N1  UNL     1     135.421  88.657  65.380  1.00  0.00    -0.298 N 
HETATM   27  N2  UNL     1     135.787  87.545  64.664  1.00  0.00    -0.257 N 
ATOM     28  H1  UNL     1     134.626  89.178  65.008  1.00  0.00     0.187 HD
HETATM   29  C10 UNL     1     136.918  86.841  65.229  1.00  0.00     0.243 C 
HETATM   30  O2  UNL     1     137.583  86.111  64.498  1.00  0.00    -0.271 OA
HETATM   31  C11 UNL     1     137.217  87.031  66.649  1.00  0.00     0.093 C 
HETATM   32  C12 UNL     1     136.289  86.134  67.508  1.00  0.00     0.041 C 
HETATM   33  C16 UNL     1     137.065  88.446  67.125  1.00  0.00     0.055 C 
HETATM   34  C13 UNL     1     137.030  86.100  68.827  1.00  0.00    -0.030 C 
HETATM   35  C14 UNL     1     137.377  87.275  69.316  1.00  0.00    -0.030 C 
HETATM   36  C15 UNL     1     137.056  88.527  68.621  1.00  0.00     0.038 C 
BRANCH  27  37
HETATM   37  C7  UNL     1     135.096  87.153  63.481  1.00  0.00     0.103 C 
HETATM   38  C8  UNL     1     133.616  87.344  63.724  1.00  0.00     0.034 C 
HETATM   39  C9  UNL     1     135.567  87.870  62.242  1.00  0.00     0.034 C 
ENDBRANCH  27  37
ENDBRANCH   4  25
TORSDOF 8
ENDMDL
