MODEL 14
REMARK VINA RESULT: -9.602462706      3.309      9.826
REMARK  8 active torsions:
REMARK  status: ('A' for Active; 'I' for Inactive)
REMARK    1  A    between atoms: O1_2  and  C2_3 
REMARK    2  A    between atoms: C5_6  and  C6_7 
REMARK    3  A    between atoms: N2_10  and  C7_11 
REMARK    4  A    between atoms: C18_23  and  C19_24 
REMARK    5  A    between atoms: C22_27  and  C23_28 
REMARK    6  A    between atoms: C23_28  and  O3_29 
REMARK    7  A    between atoms: C23_28  and  N3_31 
REMARK    8  A    between atoms: C26_34  and  O4_35 
ROOT
HETATM    1  C2  UNL     1     137.111  88.445  67.686  1.00  0.00     0.079 A 
HETATM    2  C3  UNL     1     136.808  89.207  68.778  1.00  0.00     0.038 A 
HETATM    3  C4  UNL     1     135.992  90.345  68.656  1.00  0.00     0.016 A 
HETATM    4  C5  UNL     1     135.480  90.727  67.456  1.00  0.00    -0.011 A 
HETATM    5  C17 UNL     1     135.803  89.933  66.356  1.00  0.00     0.028 A 
HETATM    6  C18 UNL     1     136.608  88.807  66.471  1.00  0.00     0.008 A 
ENDROOT
BRANCH   6   7
HETATM    7  C19 UNL     1     136.867  88.058  65.241  1.00  0.00    -0.023 A 
HETATM    8  C20 UNL     1     135.829  87.328  64.714  1.00  0.00     0.013 A 
HETATM    9  C21 UNL     1     135.948  86.586  63.584  1.00  0.00     0.016 A 
HETATM   10  C22 UNL     1     137.199  86.562  62.919  1.00  0.00     0.015 A 
HETATM   11  C28 UNL     1     138.229  87.282  63.437  1.00  0.00     0.016 A 
HETATM   12  C29 UNL     1     138.067  88.034  64.600  1.00  0.00     0.013 A 
BRANCH  10  13
HETATM   13  C23 UNL     1     137.220  85.743  61.724  1.00  0.00     0.152 C 
BRANCH  13  14
HETATM   14  O3  UNL     1     136.903  86.309  60.592  1.00  0.00    -0.345 OA
ATOM     15  H3  UNL     1     137.541  86.887  60.191  1.00  0.00     0.219 HD
ENDBRANCH  13  14
BRANCH  13  16
HETATM   16  N3  UNL     1     137.547  84.371  61.629  1.00  0.00    -0.339 N 
HETATM   17  C24 UNL     1     137.699  83.550  60.503  1.00  0.00     0.069 C 
HETATM   18  C25 UNL     1     138.079  82.157  61.000  1.00  0.00     0.078 C 
HETATM   19  C26 UNL     1     137.591  82.179  62.419  1.00  0.00     0.141 C 
HETATM   20  C27 UNL     1     137.789  83.597  62.858  1.00  0.00     0.162 C 
BRANCH  19  21
HETATM   21  O4  UNL     1     138.379  81.333  63.202  1.00  0.00    -0.394 OA
ATOM     22  H4  UNL     1     139.095  81.825  63.586  1.00  0.00     0.210 HD
ENDBRANCH  19  21
ENDBRANCH  13  16
ENDBRANCH  10  13
ENDBRANCH   6   7
BRANCH   1  23
HETATM   23  O1  UNL     1     137.911  87.311  67.751  1.00  0.00    -0.355 OA
HETATM   24  C1  UNL     1     137.450  86.086  68.262  1.00  0.00     0.210 C 
ENDBRANCH   1  23
BRANCH   4  25
HETATM   25  C6  UNL     1     134.673  91.939  67.278  1.00  0.00     0.041 C 
HETATM   26  N1  UNL     1     135.101  92.720  66.340  1.00  0.00    -0.298 N 
HETATM   27  N2  UNL     1     134.585  93.918  65.912  1.00  0.00    -0.257 N 
ATOM     28  H1  UNL     1     135.938  92.402  65.851  1.00  0.00     0.187 HD
HETATM   29  C10 UNL     1     133.400  94.327  66.635  1.00  0.00     0.243 C 
HETATM   30  O2  UNL     1     132.631  95.124  66.103  1.00  0.00    -0.271 OA
HETATM   31  C11 UNL     1     133.174  93.773  67.971  1.00  0.00     0.093 C 
HETATM   32  C12 UNL     1     134.021  94.546  69.013  1.00  0.00     0.041 C 
HETATM   33  C16 UNL     1     133.504  92.314  68.094  1.00  0.00     0.055 C 
HETATM   34  C13 UNL     1     133.325  94.179  70.306  1.00  0.00    -0.030 C 
HETATM   35  C14 UNL     1     133.133  92.888  70.503  1.00  0.00    -0.030 C 
HETATM   36  C15 UNL     1     133.573  91.884  69.528  1.00  0.00     0.038 C 
BRANCH  27  37
HETATM   37  C7  UNL     1     135.186  94.658  64.853  1.00  0.00     0.103 C 
HETATM   38  C8  UNL     1     136.685  94.580  65.026  1.00  0.00     0.034 C 
HETATM   39  C9  UNL     1     134.745  94.214  63.482  1.00  0.00     0.034 C 
ENDBRANCH  27  37
ENDBRANCH   4  25
TORSDOF 8
ENDMDL
