MODEL 2
REMARK VINA RESULT: -10.516745495      1.440      2.700
REMARK  8 active torsions:
REMARK  status: ('A' for Active; 'I' for Inactive)
REMARK    1  A    between atoms: O1_2  and  C2_3 
REMARK    2  A    between atoms: C5_6  and  C6_7 
REMARK    3  A    between atoms: N2_10  and  C7_11 
REMARK    4  A    between atoms: C18_23  and  C19_24 
REMARK    5  A    between atoms: C22_27  and  C23_28 
REMARK    6  A    between atoms: C23_28  and  O3_29 
REMARK    7  A    between atoms: C23_28  and  N3_31 
REMARK    8  A    between atoms: C26_34  and  O4_35 
ROOT
HETATM    1  C2  UNL     1     134.207  92.840  67.593  1.00  0.00     0.079 A 
HETATM    2  C3  UNL     1     134.150  91.767  68.435  1.00  0.00     0.038 A 
HETATM    3  C4  UNL     1     134.645  90.513  68.036  1.00  0.00     0.016 A 
HETATM    4  C5  UNL     1     135.190  90.323  66.806  1.00  0.00    -0.011 A 
HETATM    5  C17 UNL     1     135.237  91.434  65.963  1.00  0.00     0.028 A 
HETATM    6  C18 UNL     1     134.752  92.675  66.354  1.00  0.00     0.008 A 
ENDROOT
BRANCH   6   7
HETATM    7  C19 UNL     1     134.864  93.760  65.378  1.00  0.00    -0.023 A 
HETATM    8  C20 UNL     1     136.130  94.145  65.003  1.00  0.00     0.013 A 
HETATM    9  C21 UNL     1     136.363  95.144  64.114  1.00  0.00     0.016 A 
HETATM   10  C22 UNL     1     135.254  95.819  63.547  1.00  0.00     0.015 A 
HETATM   11  C28 UNL     1     134.001  95.440  63.914  1.00  0.00     0.016 A 
HETATM   12  C29 UNL     1     133.801  94.409  64.831  1.00  0.00     0.013 A 
BRANCH  10  13
HETATM   13  C23 UNL     1     135.612  96.864  62.610  1.00  0.00     0.152 C 
BRANCH  13  14
HETATM   14  O3  UNL     1     136.414  96.554  61.629  1.00  0.00    -0.345 OA
ATOM     15  H3  UNL     1     136.056  96.546  60.749  1.00  0.00     0.219 HD
ENDBRANCH  13  14
BRANCH  13  16
HETATM   16  N3  UNL     1     135.192  98.213  62.628  1.00  0.00    -0.339 N 
HETATM   17  C24 UNL     1     134.821  99.036  63.701  1.00  0.00     0.069 C 
HETATM   18  C25 UNL     1     134.480 100.410  63.129  1.00  0.00     0.078 C 
HETATM   19  C26 UNL     1     134.180 100.094  61.693  1.00  0.00     0.141 C 
HETATM   20  C27 UNL     1     135.102  98.960  61.362  1.00  0.00     0.162 C 
BRANCH  19  21
HETATM   21  O4  UNL     1     134.488 101.196  60.893  1.00  0.00    -0.394 OA
ATOM     22  H4  UNL     1     133.787 101.346  60.270  1.00  0.00     0.210 HD
ENDBRANCH  19  21
ENDBRANCH  13  16
ENDBRANCH  10  13
ENDBRANCH   6   7
BRANCH   1  23
HETATM   23  O1  UNL     1     133.735  94.100  67.937  1.00  0.00    -0.355 OA
HETATM   24  C1  UNL     1     133.738  94.576  69.260  1.00  0.00     0.210 C 
ENDBRANCH   1  23
BRANCH   4  25
HETATM   25  C6  UNL     1     135.663  89.018  66.330  1.00  0.00     0.041 C 
HETATM   26  N1  UNL     1     135.001  88.557  65.319  1.00  0.00    -0.298 N 
HETATM   27  N2  UNL     1     135.181  87.383  64.633  1.00  0.00    -0.257 N 
ATOM     28  H1  UNL     1     134.241  89.150  64.985  1.00  0.00     0.187 HD
HETATM   29  C10 UNL     1     136.271  86.577  65.143  1.00  0.00     0.243 C 
HETATM   30  O2  UNL     1     136.788  85.747  64.400  1.00  0.00    -0.271 OA
HETATM   31  C11 UNL     1     136.705  86.789  66.525  1.00  0.00     0.093 C 
HETATM   32  C12 UNL     1     135.759  86.041  67.496  1.00  0.00     0.041 C 
HETATM   33  C16 UNL     1     136.752  88.231  66.939  1.00  0.00     0.055 C 
HETATM   34  C13 UNL     1     136.599  85.975  68.753  1.00  0.00    -0.030 C 
HETATM   35  C14 UNL     1     137.113  87.122  69.155  1.00  0.00    -0.030 C 
HETATM   36  C15 UNL     1     136.875  88.373  68.426  1.00  0.00     0.038 C 
BRANCH  27  37
HETATM   37  C7  UNL     1     134.356  87.024  63.529  1.00  0.00     0.103 C 
HETATM   38  C8  UNL     1     132.932  87.395  63.876  1.00  0.00     0.034 C 
HETATM   39  C9  UNL     1     134.801  87.630  62.222  1.00  0.00     0.034 C 
ENDBRANCH  27  37
ENDBRANCH   4  25
TORSDOF 8
ENDMDL
