MODEL 12
REMARK VINA RESULT: -9.767852815      1.734      3.192
REMARK  8 active torsions:
REMARK  status: ('A' for Active; 'I' for Inactive)
REMARK    1  A    between atoms: O1_2  and  C2_3 
REMARK    2  A    between atoms: C5_6  and  C6_7 
REMARK    3  A    between atoms: N2_10  and  C7_11 
REMARK    4  A    between atoms: C18_23  and  C19_24 
REMARK    5  A    between atoms: C22_27  and  C23_28 
REMARK    6  A    between atoms: C23_28  and  O3_29 
REMARK    7  A    between atoms: C23_28  and  N3_31 
REMARK    8  A    between atoms: C26_34  and  O4_35 
ROOT
HETATM    1  C2  UNL     1     134.232  92.089  67.637  1.00  0.00     0.079 A 
HETATM    2  C3  UNL     1     134.413  90.827  68.124  1.00  0.00     0.038 A 
HETATM    3  C4  UNL     1     134.741  89.764  67.264  1.00  0.00     0.016 A 
HETATM    4  C5  UNL     1     134.885  89.953  65.926  1.00  0.00    -0.011 A 
HETATM    5  C17 UNL     1     134.696  91.251  65.452  1.00  0.00     0.028 A 
HETATM    6  C18 UNL     1     134.374  92.304  66.298  1.00  0.00     0.008 A 
ENDROOT
BRANCH   6   7
HETATM    7  C19 UNL     1     134.206  93.618  65.675  1.00  0.00    -0.023 A 
HETATM    8  C20 UNL     1     135.314  94.428  65.599  1.00  0.00     0.013 A 
HETATM    9  C21 UNL     1     135.282  95.670  65.053  1.00  0.00     0.016 A 
HETATM   10  C22 UNL     1     134.053  96.153  64.539  1.00  0.00     0.015 A 
HETATM   11  C28 UNL     1     132.956  95.354  64.612  1.00  0.00     0.016 A 
HETATM   12  C29 UNL     1     133.027  94.083  65.180  1.00  0.00     0.013 A 
BRANCH  10  13
HETATM   13  C23 UNL     1     134.129  97.486  63.977  1.00  0.00     0.152 C 
BRANCH  13  14
HETATM   14  O3  UNL     1     133.593  98.464  64.655  1.00  0.00    -0.345 OA
ATOM     15  H3  UNL     1     134.039  98.755  65.441  1.00  0.00     0.219 HD
ENDBRANCH  13  14
BRANCH  13  16
HETATM   16  N3  UNL     1     134.724  97.870  62.754  1.00  0.00    -0.339 N 
HETATM   17  C24 UNL     1     135.936  98.526  62.499  1.00  0.00     0.069 C 
HETATM   18  C25 UNL     1     136.077  98.660  60.985  1.00  0.00     0.078 C 
HETATM   19  C26 UNL     1     134.656  98.529  60.519  1.00  0.00     0.141 C 
HETATM   20  C27 UNL     1     134.034  97.570  61.487  1.00  0.00     0.162 C 
BRANCH  19  21
HETATM   21  O4  UNL     1     134.629  97.980  59.235  1.00  0.00    -0.394 OA
ATOM     22  H4  UNL     1     135.184  98.490  58.657  1.00  0.00     0.210 HD
ENDBRANCH  19  21
ENDBRANCH  13  16
ENDBRANCH  10  13
ENDBRANCH   6   7
BRANCH   1  23
HETATM   23  O1  UNL     1     133.908  93.174  68.443  1.00  0.00    -0.355 OA
HETATM   24  C1  UNL     1     133.353  93.027  69.725  1.00  0.00     0.210 C 
ENDBRANCH   1  23
BRANCH   4  25
HETATM   25  C6  UNL     1     135.170  88.861  64.988  1.00  0.00     0.041 C 
HETATM   26  N1  UNL     1     134.118  88.385  64.404  1.00  0.00    -0.298 N 
HETATM   27  N2  UNL     1     134.027  87.376  63.478  1.00  0.00    -0.257 N 
ATOM     28  H1  UNL     1     133.234  88.821  64.667  1.00  0.00     0.187 HD
HETATM   29  C10 UNL     1     135.306  86.790  63.136  1.00  0.00     0.243 C 
HETATM   30  O2  UNL     1     135.415  86.199  62.065  1.00  0.00    -0.271 OA
HETATM   31  C11 UNL     1     136.411  86.927  64.086  1.00  0.00     0.093 C 
HETATM   32  C12 UNL     1     136.277  85.867  65.209  1.00  0.00     0.041 C 
HETATM   33  C16 UNL     1     136.500  88.279  64.732  1.00  0.00     0.055 C 
HETATM   34  C13 UNL     1     137.678  85.846  65.779  1.00  0.00    -0.030 C 
HETATM   35  C14 UNL     1     138.180  87.024  66.100  1.00  0.00    -0.030 C 
HETATM   36  C15 UNL     1     137.419  88.265  65.916  1.00  0.00     0.038 C 
BRANCH  27  37
HETATM   37  C7  UNL     1     132.777  86.973  62.927  1.00  0.00     0.103 C 
HETATM   38  C8  UNL     1     131.681  87.575  63.777  1.00  0.00     0.034 C 
HETATM   39  C9  UNL     1     132.622  87.317  61.468  1.00  0.00     0.034 C 
ENDBRANCH  27  37
ENDBRANCH   4  25
TORSDOF 8
ENDMDL
