MODEL 7
REMARK VINA RESULT: -9.546609186      0.830      1.402
REMARK  7 active torsions:
REMARK  status: ('A' for Active; 'I' for Inactive)
REMARK    1  A    between atoms: C2_2  and  N1_3 
REMARK    2  A    between atoms: C2_2  and  C5_11 
REMARK       I    between atoms: N1_3  and  C3_5 
REMARK    3  A    between atoms: C3_5  and  C4_7 
REMARK    4  A    between atoms: C5_11  and  O2_12 
REMARK    5  A    between atoms: C5_11  and  C19_30 
REMARK    6  A    between atoms: O2_12  and  C6_13 
REMARK    7  A    between atoms: N3_21  and  C12_22 
ROOT
HETATM    1  O2  UNL     1       1.322 -39.388  -9.861  1.00  0.00    -0.339 OA
ENDROOT
BRANCH   1   2
HETATM    2  C5  UNL     1       0.644 -39.469 -11.050  1.00  0.00     0.184 C 
BRANCH   2   3
HETATM    3  C2  UNL     1       0.641 -38.261 -11.907  1.00  0.00     0.114 C 
HETATM    4  C1  UNL     1       0.318 -36.979 -11.182  1.00  0.00     0.035 C 
BRANCH   3   5
HETATM    5  N1  UNL     1      -0.316 -38.397 -13.020  1.00  0.00    -0.346 N 
HETATM    6  C3  UNL     1       0.009 -37.798 -14.258  1.00  0.00     0.325 C 
HETATM    7  O1  UNL     1       1.103 -37.157 -14.407  1.00  0.00    -0.263 OA
ATOM      8  H1  UNL     1      -1.189 -38.909 -12.899  1.00  0.00     0.163 HD
BRANCH   6   9
HETATM    9  C4  UNL     1      -0.878 -37.871 -15.442  1.00  0.00     0.472 C 
HETATM   10  F1  UNL     1      -0.498 -38.876 -16.308  1.00  0.00    -0.162 F 
HETATM   11  F2  UNL     1      -0.802 -36.676 -16.161  1.00  0.00    -0.162 F 
HETATM   12  F3  UNL     1      -2.191 -38.003 -15.042  1.00  0.00    -0.162 F 
ENDBRANCH   6   9
ENDBRANCH   3   5
ENDBRANCH   2   3
BRANCH   2  13
HETATM   13  C19 UNL     1       0.950 -40.723 -11.828  1.00  0.00    -0.027 A 
HETATM   14  C20 UNL     1      -0.054 -41.449 -12.390  1.00  0.00     0.010 A 
HETATM   15  C21 UNL     1       0.261 -42.610 -13.106  1.00  0.00     0.001 A 
HETATM   16  C22 UNL     1       1.566 -43.022 -13.245  1.00  0.00     0.000 A 
HETATM   17  C23 UNL     1       2.560 -42.262 -12.662  1.00  0.00     0.001 A 
HETATM   18  C24 UNL     1       2.258 -41.131 -11.966  1.00  0.00     0.010 A 
ENDBRANCH   2  13
ENDBRANCH   1   2
BRANCH   1  19
HETATM   19  C6  UNL     1       0.998 -39.622  -8.580  1.00  0.00     0.070 A 
HETATM   20  C7  UNL     1       2.010 -39.751  -7.638  1.00  0.00     0.039 A 
HETATM   21  C8  UNL     1       1.732 -39.992  -6.306  1.00  0.00     0.035 A 
HETATM   22  C9  UNL     1       0.423 -40.111  -5.870  1.00  0.00     0.068 A 
HETATM   23  C10 UNL     1      -0.585 -39.985  -6.787  1.00  0.00     0.012 A 
HETATM   24  N3  UNL     1      -0.140 -40.341  -4.647  1.00  0.00    -0.256 N 
HETATM   25  C11 UNL     1      -1.760 -40.145  -6.088  1.00  0.00     0.121 A 
HETATM   26  C18 UNL     1      -0.292 -39.744  -8.119  1.00  0.00     0.052 A 
HETATM   27  N2  UNL     1      -1.463 -40.358  -4.798  1.00  0.00    -0.304 N 
ATOM     28  H2  UNL     1      -2.142 -40.509  -4.052  1.00  0.00     0.186 HD
BRANCH  24  29
HETATM   29  C12 UNL     1       0.570 -40.530  -3.424  1.00  0.00     0.057 A 
HETATM   30  C13 UNL     1       1.189 -39.485  -2.773  1.00  0.00     0.034 A 
HETATM   31  C14 UNL     1       1.879 -39.650  -1.591  1.00  0.00     0.044 A 
HETATM   32  C15 UNL     1       1.979 -40.893  -1.006  1.00  0.00     0.116 A 
HETATM   33  F4  UNL     1       2.655 -41.082   0.163  1.00  0.00    -0.206 F 
HETATM   34  C16 UNL     1       1.362 -41.949  -1.650  1.00  0.00     0.044 A 
HETATM   35  C17 UNL     1       0.671 -41.775  -2.835  1.00  0.00     0.034 A 
ENDBRANCH  24  29
ENDBRANCH   1  19
TORSDOF 7
ENDMDL
