MODEL 1
REMARK VINA RESULT: -12.066466741      0.000      0.000
REMARK  7 active torsions:
REMARK  status: ('A' for Active; 'I' for Inactive)
REMARK    1  A    between atoms: C2_2  and  N1_3 
REMARK    2  A    between atoms: C2_2  and  C5_11 
REMARK       I    between atoms: N1_3  and  C3_5 
REMARK    3  A    between atoms: C3_5  and  C4_7 
REMARK    4  A    between atoms: C5_11  and  O2_12 
REMARK    5  A    between atoms: C5_11  and  C19_30 
REMARK    6  A    between atoms: O2_12  and  C6_13 
REMARK    7  A    between atoms: N3_21  and  C12_22 
ROOT
HETATM    1  O2  UNL     1       0.382 -38.234  -9.280  1.00  0.00    -0.339 OA
ENDROOT
BRANCH   1   2
HETATM    2  C5  UNL     1      -0.018 -38.490 -10.566  1.00  0.00     0.184 C 
BRANCH   2   3
HETATM    3  C2  UNL     1      -0.057 -37.341 -11.500  1.00  0.00     0.114 C 
HETATM    4  C1  UNL     1      -0.644 -36.080 -10.917  1.00  0.00     0.035 C 
BRANCH   3   5
HETATM    5  N1  UNL     1      -0.820 -37.667 -12.717  1.00  0.00    -0.346 N 
HETATM    6  C3  UNL     1      -0.146 -37.634 -13.958  1.00  0.00     0.325 C 
HETATM    7  O1  UNL     1       1.092 -37.329 -14.022  1.00  0.00    -0.263 OA
ATOM      8  H1  UNL     1      -1.809 -37.910 -12.665  1.00  0.00     0.163 HD
BRANCH   6   9
HETATM    9  C4  UNL     1      -0.814 -37.943 -15.244  1.00  0.00     0.472 C 
HETATM   10  F1  UNL     1      -0.538 -36.994 -16.207  1.00  0.00    -0.162 F 
HETATM   11  F2  UNL     1      -2.200 -37.940 -15.067  1.00  0.00    -0.162 F 
HETATM   12  F3  UNL     1      -0.477 -39.214 -15.660  1.00  0.00    -0.162 F 
ENDBRANCH   6   9
ENDBRANCH   3   5
ENDBRANCH   2   3
BRANCH   2  13
HETATM   13  C19 UNL     1       0.651 -39.698 -11.171  1.00  0.00    -0.027 A 
HETATM   14  C20 UNL     1      -0.088 -40.768 -11.570  1.00  0.00     0.010 A 
HETATM   15  C21 UNL     1       0.563 -41.876 -12.127  1.00  0.00     0.001 A 
HETATM   16  C22 UNL     1       1.930 -41.894 -12.273  1.00  0.00     0.000 A 
HETATM   17  C23 UNL     1       2.649 -40.791 -11.857  1.00  0.00     0.001 A 
HETATM   18  C24 UNL     1       2.020 -39.711 -11.315  1.00  0.00     0.010 A 
ENDBRANCH   2  13
ENDBRANCH   1   2
BRANCH   1  19
HETATM   19  C6  UNL     1       0.242 -38.877  -8.110  1.00  0.00     0.070 A 
HETATM   20  C7  UNL     1       1.276 -38.833  -7.184  1.00  0.00     0.039 A 
HETATM   21  C8  UNL     1       1.184 -39.477  -5.965  1.00  0.00     0.035 A 
HETATM   22  C9  UNL     1       0.045 -40.189  -5.629  1.00  0.00     0.068 A 
HETATM   23  C10 UNL     1      -0.983 -40.241  -6.531  1.00  0.00     0.012 A 
HETATM   24  N3  UNL     1      -0.320 -40.906  -4.525  1.00  0.00    -0.256 N 
HETATM   25  C11 UNL     1      -1.968 -41.002  -5.944  1.00  0.00     0.121 A 
HETATM   26  C18 UNL     1      -0.876 -39.591  -7.750  1.00  0.00     0.052 A 
HETATM   27  N2  UNL     1      -1.542 -41.391  -4.734  1.00  0.00    -0.304 N 
ATOM     28  H2  UNL     1      -2.071 -41.966  -4.078  1.00  0.00     0.186 HD
BRANCH  24  29
HETATM   29  C12 UNL     1       0.474 -41.099  -3.356  1.00  0.00     0.057 A 
HETATM   30  C13 UNL     1       0.871 -42.353  -2.944  1.00  0.00     0.034 A 
HETATM   31  C14 UNL     1       1.637 -42.557  -1.817  1.00  0.00     0.044 A 
HETATM   32  C15 UNL     1       2.045 -41.492  -1.045  1.00  0.00     0.116 A 
HETATM   33  F4  UNL     1       2.805 -41.668   0.073  1.00  0.00    -0.206 F 
HETATM   34  C16 UNL     1       1.654 -40.229  -1.448  1.00  0.00     0.044 A 
HETATM   35  C17 UNL     1       0.884 -40.033  -2.580  1.00  0.00     0.034 A 
ENDBRANCH  24  29
ENDBRANCH   1  19
TORSDOF 7
ENDMDL
