MODEL 4
REMARK VINA RESULT: -9.766902372      1.215      1.979
REMARK  7 active torsions:
REMARK  status: ('A' for Active; 'I' for Inactive)
REMARK    1  A    between atoms: C2_2  and  N1_3 
REMARK    2  A    between atoms: C2_2  and  C5_11 
REMARK       I    between atoms: N1_3  and  C3_5 
REMARK    3  A    between atoms: C3_5  and  C4_7 
REMARK    4  A    between atoms: C5_11  and  O2_12 
REMARK    5  A    between atoms: C5_11  and  C19_30 
REMARK    6  A    between atoms: O2_12  and  C6_13 
REMARK    7  A    between atoms: N3_21  and  C12_22 
ROOT
HETATM    1  O2  UNL     1      -1.038 -39.007  -9.913  1.00  0.00    -0.339 OA
ENDROOT
BRANCH   1   2
HETATM    2  C5  UNL     1      -0.693 -39.029 -11.240  1.00  0.00     0.184 C 
BRANCH   2   3
HETATM    3  C2  UNL     1      -0.349 -37.732 -11.867  1.00  0.00     0.114 C 
HETATM    4  C1  UNL     1      -0.571 -36.530 -10.984  1.00  0.00     0.035 C 
BRANCH   3   5
HETATM    5  N1  UNL     1      -1.113 -37.520 -13.109  1.00  0.00    -0.346 N 
HETATM    6  C3  UNL     1      -0.458 -37.735 -14.342  1.00  0.00     0.325 C 
HETATM    7  O1  UNL     1       0.763 -38.103 -14.379  1.00  0.00    -0.263 OA
ATOM      8  H1  UNL     1      -2.089 -37.226 -13.079  1.00  0.00     0.163 HD
BRANCH   6   9
HETATM    9  C4  UNL     1      -1.129 -37.552 -15.651  1.00  0.00     0.472 C 
HETATM   10  F1  UNL     1      -0.988 -36.264 -16.124  1.00  0.00    -0.162 F 
HETATM   11  F2  UNL     1      -2.501 -37.778 -15.513  1.00  0.00    -0.162 F 
HETATM   12  F3  UNL     1      -0.669 -38.488 -16.554  1.00  0.00    -0.162 F 
ENDBRANCH   6   9
ENDBRANCH   3   5
ENDBRANCH   2   3
BRANCH   2  13
HETATM   13  C19 UNL     1       0.299 -40.112 -11.580  1.00  0.00    -0.027 A 
HETATM   14  C20 UNL     1       1.632 -39.840 -11.617  1.00  0.00     0.010 A 
HETATM   15  C21 UNL     1       2.528 -40.866 -11.939  1.00  0.00     0.001 A 
HETATM   16  C22 UNL     1       2.080 -42.136 -12.217  1.00  0.00     0.000 A 
HETATM   17  C23 UNL     1       0.721 -42.377 -12.171  1.00  0.00     0.001 A 
HETATM   18  C24 UNL     1      -0.155 -41.382 -11.858  1.00  0.00     0.010 A 
ENDBRANCH   2  13
ENDBRANCH   1   2
BRANCH   1  19
HETATM   19  C6  UNL     1      -0.376 -39.238  -8.768  1.00  0.00     0.070 A 
HETATM   20  C7  UNL     1      -1.084 -39.656  -7.649  1.00  0.00     0.039 A 
HETATM   21  C8  UNL     1      -0.452 -39.908  -6.446  1.00  0.00     0.035 A 
HETATM   22  C9  UNL     1       0.919 -39.750  -6.324  1.00  0.00     0.068 A 
HETATM   23  C10 UNL     1       1.629 -39.339  -7.418  1.00  0.00     0.012 A 
HETATM   24  N3  UNL     1       1.793 -39.921  -5.288  1.00  0.00    -0.256 N 
HETATM   25  C11 UNL     1       2.943 -39.268  -7.017  1.00  0.00     0.121 A 
HETATM   26  C18 UNL     1       0.982 -39.089  -8.618  1.00  0.00     0.052 A 
HETATM   27  N2  UNL     1       3.014 -39.625  -5.727  1.00  0.00    -0.304 N 
ATOM     28  H2  UNL     1       3.868 -39.664  -5.170  1.00  0.00     0.186 HD
BRANCH  24  29
HETATM   29  C12 UNL     1       1.450 -40.343  -3.969  1.00  0.00     0.057 A 
HETATM   30  C13 UNL     1       1.262 -41.672  -3.656  1.00  0.00     0.034 A 
HETATM   31  C14 UNL     1       0.931 -42.097  -2.388  1.00  0.00     0.044 A 
HETATM   32  C15 UNL     1       0.772 -41.189  -1.364  1.00  0.00     0.116 A 
HETATM   33  F4  UNL     1       0.446 -41.585  -0.101  1.00  0.00    -0.206 F 
HETATM   34  C16 UNL     1       0.959 -39.854  -1.665  1.00  0.00     0.044 A 
HETATM   35  C17 UNL     1       1.291 -39.435  -2.941  1.00  0.00     0.034 A 
ENDBRANCH  24  29
ENDBRANCH   1  19
TORSDOF 7
ENDMDL
