MODEL 17
REMARK VINA RESULT: -7.129544459      3.740     11.466
REMARK  7 active torsions:
REMARK  status: ('A' for Active; 'I' for Inactive)
REMARK    1  A    between atoms: C2_2  and  N1_3 
REMARK    2  A    between atoms: C2_2  and  C5_11 
REMARK       I    between atoms: N1_3  and  C3_5 
REMARK    3  A    between atoms: C3_5  and  C4_7 
REMARK    4  A    between atoms: C5_11  and  O2_12 
REMARK    5  A    between atoms: C5_11  and  C19_30 
REMARK    6  A    between atoms: O2_12  and  C6_13 
REMARK    7  A    between atoms: N3_21  and  C12_22 
ROOT
HETATM    1  O2  UNL     1       1.635 -39.412  -2.475  1.00  0.00    -0.339 OA
ENDROOT
BRANCH   1   2
HETATM    2  C5  UNL     1       1.075 -39.363  -1.224  1.00  0.00     0.184 C 
BRANCH   2   3
HETATM    3  C2  UNL     1       1.453 -40.437  -0.276  1.00  0.00     0.114 C 
HETATM    4  C1  UNL     1       0.597 -41.676  -0.359  1.00  0.00     0.035 C 
BRANCH   3   5
HETATM    5  N1  UNL     1       1.410 -39.959   1.118  1.00  0.00    -0.346 N 
HETATM    6  C3  UNL     1       2.315 -40.521   2.045  1.00  0.00     0.325 C 
HETATM    7  O1  UNL     1       3.148 -41.419   1.685  1.00  0.00    -0.263 OA
ATOM      8  H1  UNL     1       0.744 -39.242   1.404  1.00  0.00     0.163 HD
BRANCH   6   9
HETATM    9  C4  UNL     1       2.359 -40.116   3.470  1.00  0.00     0.472 C 
HETATM   10  F1  UNL     1       1.154 -40.337   4.104  1.00  0.00    -0.162 F 
HETATM   11  F2  UNL     1       2.614 -38.746   3.563  1.00  0.00    -0.162 F 
HETATM   12  F3  UNL     1       3.403 -40.751   4.110  1.00  0.00    -0.162 F 
ENDBRANCH   6   9
ENDBRANCH   3   5
ENDBRANCH   2   3
BRANCH   2  13
HETATM   13  C19 UNL     1       1.136 -37.996  -0.594  1.00  0.00    -0.027 A 
HETATM   14  C20 UNL     1       0.129 -37.561   0.210  1.00  0.00     0.010 A 
HETATM   15  C21 UNL     1       0.213 -36.284   0.779  1.00  0.00     0.001 A 
HETATM   16  C22 UNL     1       1.295 -35.471   0.535  1.00  0.00     0.000 A 
HETATM   17  C23 UNL     1       2.299 -35.943  -0.286  1.00  0.00     0.001 A 
HETATM   18  C24 UNL     1       2.221 -37.185  -0.842  1.00  0.00     0.010 A 
ENDBRANCH   2  13
ENDBRANCH   1   2
BRANCH   1  19
HETATM   19  C6  UNL     1       1.147 -39.576  -3.714  1.00  0.00     0.070 A 
HETATM   20  C7  UNL     1       1.955 -39.284  -4.805  1.00  0.00     0.039 A 
HETATM   21  C8  UNL     1       1.503 -39.435  -6.102  1.00  0.00     0.035 A 
HETATM   22  C9  UNL     1       0.218 -39.888  -6.351  1.00  0.00     0.068 A 
HETATM   23  C10 UNL     1      -0.590 -40.180  -5.286  1.00  0.00     0.012 A 
HETATM   24  N3  UNL     1      -0.485 -40.129  -7.498  1.00  0.00    -0.256 N 
HETATM   25  C11 UNL     1      -1.788 -40.599  -5.818  1.00  0.00     0.121 A 
HETATM   26  C18 UNL     1      -0.123 -40.023  -3.991  1.00  0.00     0.052 A 
HETATM   27  N2  UNL     1      -1.697 -40.560  -7.155  1.00  0.00    -0.304 N 
ATOM     28  H2  UNL     1      -2.438 -40.819  -7.806  1.00  0.00     0.186 HD
BRANCH  24  29
HETATM   29  C12 UNL     1       0.001 -39.949  -8.827  1.00  0.00     0.057 A 
HETATM   30  C13 UNL     1       0.943 -38.990  -9.133  1.00  0.00     0.034 A 
HETATM   31  C14 UNL     1       1.423 -38.802 -10.412  1.00  0.00     0.044 A 
HETATM   32  C15 UNL     1       0.969 -39.583 -11.452  1.00  0.00     0.116 A 
HETATM   33  F4  UNL     1       1.429 -39.417 -12.725  1.00  0.00    -0.206 F 
HETATM   34  C16 UNL     1       0.025 -40.548 -11.157  1.00  0.00     0.044 A 
HETATM   35  C17 UNL     1      -0.452 -40.730  -9.871  1.00  0.00     0.034 A 
ENDBRANCH  24  29
ENDBRANCH   1  19
TORSDOF 7
ENDMDL
