MODEL 15
REMARK VINA RESULT: -8.530491225      5.345     12.889
REMARK  7 active torsions:
REMARK  status: ('A' for Active; 'I' for Inactive)
REMARK    1  A    between atoms: C2_2  and  N1_3 
REMARK    2  A    between atoms: C2_2  and  C5_11 
REMARK       I    between atoms: N1_3  and  C3_5 
REMARK    3  A    between atoms: C3_5  and  C4_7 
REMARK    4  A    between atoms: C5_11  and  O2_12 
REMARK    5  A    between atoms: C5_11  and  C19_30 
REMARK    6  A    between atoms: O2_12  and  C6_13 
REMARK    7  A    between atoms: N3_21  and  C12_22 
ROOT
HETATM    1  O2  UNL     1       2.288 -40.316   1.134  1.00  0.00    -0.339 OA
ENDROOT
BRANCH   1   2
HETATM    2  C5  UNL     1       1.632 -39.825   2.233  1.00  0.00     0.184 C 
BRANCH   2   3
HETATM    3  C2  UNL     1       2.251 -40.081   3.555  1.00  0.00     0.114 C 
HETATM    4  C1  UNL     1       2.964 -38.894   4.153  1.00  0.00     0.035 C 
BRANCH   3   5
HETATM    5  N1  UNL     1       3.216 -41.193   3.487  1.00  0.00    -0.346 N 
HETATM    6  C3  UNL     1       3.311 -42.064   4.596  1.00  0.00     0.325 C 
HETATM    7  O1  UNL     1       2.580 -41.891   5.628  1.00  0.00    -0.263 OA
ATOM      8  H1  UNL     1       3.799 -41.330   2.663  1.00  0.00     0.163 HD
BRANCH   6   9
HETATM    9  C4  UNL     1       4.246 -43.212   4.637  1.00  0.00     0.472 C 
HETATM   10  F1  UNL     1       4.770 -43.493   3.392  1.00  0.00    -0.162 F 
HETATM   11  F2  UNL     1       3.565 -44.359   5.051  1.00  0.00    -0.162 F 
HETATM   12  F3  UNL     1       5.233 -42.986   5.573  1.00  0.00    -0.162 F 
ENDBRANCH   6   9
ENDBRANCH   3   5
ENDBRANCH   2   3
BRANCH   2  13
HETATM   13  C19 UNL     1       1.189 -38.394   2.075  1.00  0.00    -0.027 A 
HETATM   14  C20 UNL     1       2.098 -37.382   2.114  1.00  0.00     0.010 A 
HETATM   15  C21 UNL     1       1.655 -36.061   1.967  1.00  0.00     0.001 A 
HETATM   16  C22 UNL     1       0.322 -35.779   1.784  1.00  0.00     0.000 A 
HETATM   17  C23 UNL     1      -0.573 -36.829   1.750  1.00  0.00     0.001 A 
HETATM   18  C24 UNL     1      -0.147 -38.115   1.893  1.00  0.00     0.010 A 
ENDBRANCH   2  13
ENDBRANCH   1   2
BRANCH   1  19
HETATM   19  C6  UNL     1       1.954 -40.494  -0.154  1.00  0.00     0.070 A 
HETATM   20  C7  UNL     1       1.830 -39.386  -0.981  1.00  0.00     0.039 A 
HETATM   21  C8  UNL     1       1.488 -39.512  -2.314  1.00  0.00     0.035 A 
HETATM   22  C9  UNL     1       1.259 -40.761  -2.867  1.00  0.00     0.068 A 
HETATM   23  C10 UNL     1       1.378 -41.863  -2.064  1.00  0.00     0.012 A 
HETATM   24  N3  UNL     1       0.917 -41.182  -4.121  1.00  0.00    -0.256 N 
HETATM   25  C11 UNL     1       1.100 -42.949  -2.862  1.00  0.00     0.121 A 
HETATM   26  C18 UNL     1       1.720 -41.721  -0.729  1.00  0.00     0.052 A 
HETATM   27  N2  UNL     1       0.825 -42.510  -4.099  1.00  0.00    -0.304 N 
ATOM     28  H2  UNL     1       0.585 -43.099  -4.896  1.00  0.00     0.186 HD
BRANCH  24  29
HETATM   29  C12 UNL     1       0.697 -40.341  -5.252  1.00  0.00     0.057 A 
HETATM   30  C13 UNL     1       1.741 -39.805  -5.974  1.00  0.00     0.034 A 
HETATM   31  C14 UNL     1       1.546 -38.990  -7.069  1.00  0.00     0.044 A 
HETATM   32  C15 UNL     1       0.273 -38.675  -7.490  1.00  0.00     0.116 A 
HETATM   33  F4  UNL     1       0.055 -37.873  -8.570  1.00  0.00    -0.206 F 
HETATM   34  C16 UNL     1      -0.782 -39.207  -6.773  1.00  0.00     0.044 A 
HETATM   35  C17 UNL     1      -0.578 -40.023  -5.676  1.00  0.00     0.034 A 
ENDBRANCH  24  29
ENDBRANCH   1  19
TORSDOF 7
ENDMDL
