MODEL 2
REMARK VINA RESULT: -10.465531226      5.235     11.936
REMARK  7 active torsions:
REMARK  status: ('A' for Active; 'I' for Inactive)
REMARK    1  A    between atoms: C2_2  and  N1_3 
REMARK    2  A    between atoms: C2_2  and  C5_11 
REMARK       I    between atoms: N1_3  and  C3_5 
REMARK    3  A    between atoms: C3_5  and  C4_7 
REMARK    4  A    between atoms: C5_11  and  O2_12 
REMARK    5  A    between atoms: C5_11  and  C19_30 
REMARK    6  A    between atoms: O2_12  and  C6_13 
REMARK    7  A    between atoms: N3_21  and  C12_22 
ROOT
HETATM    1  O2  UNL     1       1.128 -40.121   0.926  1.00  0.00    -0.339 OA
ENDROOT
BRANCH   1   2
HETATM    2  C5  UNL     1       1.915 -39.391   1.780  1.00  0.00     0.184 C 
BRANCH   2   3
HETATM    3  C2  UNL     1       1.375 -38.094   2.249  1.00  0.00     0.114 C 
HETATM    4  C1  UNL     1      -0.129 -37.990   2.208  1.00  0.00     0.035 C 
BRANCH   3   5
HETATM    5  N1  UNL     1       1.920 -36.972   1.464  1.00  0.00    -0.346 N 
HETATM    6  C3  UNL     1       2.587 -35.935   2.153  1.00  0.00     0.325 C 
HETATM    7  O1  UNL     1       2.712 -35.969   3.423  1.00  0.00    -0.263 OA
ATOM      8  H1  UNL     1       1.819 -36.946   0.449  1.00  0.00     0.163 HD
BRANCH   6   9
HETATM    9  C4  UNL     1       3.173 -34.761   1.466  1.00  0.00     0.472 C 
HETATM   10  F1  UNL     1       4.528 -34.651   1.701  1.00  0.00    -0.162 F 
HETATM   11  F2  UNL     1       2.587 -33.590   1.952  1.00  0.00    -0.162 F 
HETATM   12  F3  UNL     1       2.886 -34.810   0.117  1.00  0.00    -0.162 F 
ENDBRANCH   6   9
ENDBRANCH   3   5
ENDBRANCH   2   3
BRANCH   2  13
HETATM   13  C19 UNL     1       2.496 -40.210   2.904  1.00  0.00    -0.027 A 
HETATM   14  C20 UNL     1       2.044 -40.053   4.177  1.00  0.00     0.010 A 
HETATM   15  C21 UNL     1       2.605 -40.826   5.201  1.00  0.00     0.001 A 
HETATM   16  C22 UNL     1       3.601 -41.737   4.934  1.00  0.00     0.000 A 
HETATM   17  C23 UNL     1       4.036 -41.871   3.631  1.00  0.00     0.001 A 
HETATM   18  C24 UNL     1       3.493 -41.121   2.632  1.00  0.00     0.010 A 
ENDBRANCH   2  13
ENDBRANCH   1   2
BRANCH   1  19
HETATM   19  C6  UNL     1       1.089 -40.279  -0.406  1.00  0.00     0.070 A 
HETATM   20  C7  UNL     1       0.943 -39.160  -1.217  1.00  0.00     0.039 A 
HETATM   21  C8  UNL     1       0.897 -39.266  -2.594  1.00  0.00     0.035 A 
HETATM   22  C9  UNL     1       0.997 -40.503  -3.209  1.00  0.00     0.068 A 
HETATM   23  C10 UNL     1       1.141 -41.614  -2.424  1.00  0.00     0.012 A 
HETATM   24  N3  UNL     1       0.984 -40.903  -4.515  1.00  0.00    -0.256 N 
HETATM   25  C11 UNL     1       1.215 -42.685  -3.285  1.00  0.00     0.121 A 
HETATM   26  C18 UNL     1       1.186 -41.493  -1.044  1.00  0.00     0.052 A 
HETATM   27  N2  UNL     1       1.118 -42.228  -4.541  1.00  0.00    -0.304 N 
ATOM     28  H2  UNL     1       1.143 -42.803  -5.383  1.00  0.00     0.186 HD
BRANCH  24  29
HETATM   29  C12 UNL     1       0.850 -40.048  -5.649  1.00  0.00     0.057 A 
HETATM   30  C13 UNL     1      -0.383 -39.700  -6.156  1.00  0.00     0.034 A 
HETATM   31  C14 UNL     1      -0.530 -38.874  -7.250  1.00  0.00     0.044 A 
HETATM   32  C15 UNL     1       0.574 -38.356  -7.890  1.00  0.00     0.116 A 
HETATM   33  F4  UNL     1       0.454 -37.537  -8.973  1.00  0.00    -0.206 F 
HETATM   34  C16 UNL     1       1.816 -38.697  -7.390  1.00  0.00     0.044 A 
HETATM   35  C17 UNL     1       1.955 -39.526  -6.292  1.00  0.00     0.034 A 
ENDBRANCH  24  29
ENDBRANCH   1  19
TORSDOF 7
ENDMDL
