MODEL 3
REMARK VINA RESULT: -9.795700803      1.202      2.094
REMARK  7 active torsions:
REMARK  status: ('A' for Active; 'I' for Inactive)
REMARK    1  A    between atoms: C2_2  and  N1_3 
REMARK    2  A    between atoms: C2_2  and  C5_11 
REMARK       I    between atoms: N1_3  and  C3_5 
REMARK    3  A    between atoms: C3_5  and  C4_7 
REMARK    4  A    between atoms: C5_11  and  O2_12 
REMARK    5  A    between atoms: C5_11  and  C19_30 
REMARK    6  A    between atoms: O2_12  and  C6_13 
REMARK    7  A    between atoms: N3_21  and  C12_22 
ROOT
HETATM    1  O2  UNL     1      -1.037 -38.841  -9.876  1.00  0.00    -0.339 OA
ENDROOT
BRANCH   1   2
HETATM    2  C5  UNL     1      -0.716 -38.892 -11.209  1.00  0.00     0.184 C 
BRANCH   2   3
HETATM    3  C2  UNL     1      -0.368 -37.611 -11.866  1.00  0.00     0.114 C 
HETATM    4  C1  UNL     1      -0.580 -36.388 -11.009  1.00  0.00     0.035 C 
BRANCH   3   5
HETATM    5  N1  UNL     1      -1.138 -37.422 -13.109  1.00  0.00    -0.346 N 
HETATM    6  C3  UNL     1      -0.494 -37.679 -14.340  1.00  0.00     0.325 C 
HETATM    7  O1  UNL     1       0.722 -38.065 -14.374  1.00  0.00    -0.263 OA
ATOM      8  H1  UNL     1      -2.110 -37.113 -13.081  1.00  0.00     0.163 HD
BRANCH   6   9
HETATM    9  C4  UNL     1      -1.171 -37.522 -15.649  1.00  0.00     0.472 C 
HETATM   10  F1  UNL     1      -2.531 -37.731 -15.552  1.00  0.00    -0.162 F 
HETATM   11  F2  UNL     1      -0.684 -38.473 -16.548  1.00  0.00    -0.162 F 
HETATM   12  F3  UNL     1      -0.875 -36.287 -16.189  1.00  0.00    -0.162 F 
ENDBRANCH   6   9
ENDBRANCH   3   5
ENDBRANCH   2   3
BRANCH   2  13
HETATM   13  C19 UNL     1       0.256 -39.992 -11.548  1.00  0.00    -0.027 A 
HETATM   14  C20 UNL     1      -0.190 -41.251 -11.808  1.00  0.00     0.010 A 
HETATM   15  C21 UNL     1       0.738 -42.253 -12.118  1.00  0.00     0.001 A 
HETATM   16  C22 UNL     1       2.085 -41.980 -12.162  1.00  0.00     0.000 A 
HETATM   17  C23 UNL     1       2.503 -40.692 -11.893  1.00  0.00     0.001 A 
HETATM   18  C24 UNL     1       1.604 -39.714 -11.591  1.00  0.00     0.010 A 
ENDBRANCH   2  13
ENDBRANCH   1   2
BRANCH   1  19
HETATM   19  C6  UNL     1      -0.372 -39.110  -8.742  1.00  0.00     0.070 A 
HETATM   20  C7  UNL     1      -1.081 -39.526  -7.623  1.00  0.00     0.039 A 
HETATM   21  C8  UNL     1      -0.446 -39.817  -6.430  1.00  0.00     0.035 A 
HETATM   22  C9  UNL     1       0.929 -39.700  -6.319  1.00  0.00     0.068 A 
HETATM   23  C10 UNL     1       1.642 -39.292  -7.413  1.00  0.00     0.012 A 
HETATM   24  N3  UNL     1       1.807 -39.915  -5.294  1.00  0.00    -0.256 N 
HETATM   25  C11 UNL     1       2.961 -39.266  -7.022  1.00  0.00     0.121 A 
HETATM   26  C18 UNL     1       0.992 -39.004  -8.602  1.00  0.00     0.052 A 
HETATM   27  N2  UNL     1       3.033 -39.647  -5.739  1.00  0.00    -0.304 N 
ATOM     28  H2  UNL     1       3.890 -39.720  -5.191  1.00  0.00     0.186 HD
BRANCH  24  29
HETATM   29  C12 UNL     1       1.464 -40.349  -3.979  1.00  0.00     0.057 A 
HETATM   30  C13 UNL     1       1.345 -39.464  -2.929  1.00  0.00     0.034 A 
HETATM   31  C14 UNL     1       1.015 -39.867  -1.652  1.00  0.00     0.044 A 
HETATM   32  C15 UNL     1       0.786 -41.196  -1.374  1.00  0.00     0.116 A 
HETATM   33  F4  UNL     1       0.457 -41.618  -0.120  1.00  0.00    -0.206 F 
HETATM   34  C16 UNL     1       0.902 -42.092  -2.420  1.00  0.00     0.044 A 
HETATM   35  C17 UNL     1       1.234 -41.681  -3.697  1.00  0.00     0.034 A 
ENDBRANCH  24  29
ENDBRANCH   1  19
TORSDOF 7
ENDMDL
