MODEL 6
REMARK VINA RESULT: -6.894428430      2.003      7.945
REMARK  20 active torsions:
REMARK  status: ('A' for Active; 'I' for Inactive)
REMARK    1  A    between atoms: O1_1  and  C1_3 
REMARK    2  A    between atoms: C1_3  and  C2_4 
REMARK    3  A    between atoms: C3_6  and  O3_7 
REMARK    4  A    between atoms: O3_7  and  C4_8 
REMARK    5  A    between atoms: C4_8  and  C5_9 
REMARK    6  A    between atoms: C5_9  and  O4_10 
REMARK    7  A    between atoms: O4_10  and  C6_11 
REMARK    8  A    between atoms: C6_11  and  C7_12 
REMARK    9  A    between atoms: C7_12  and  O5_13 
REMARK   10  A    between atoms: C8_16  and  C9_17 
REMARK   11  A    between atoms: C9_17  and  O7_18 
REMARK   12  A    between atoms: C10_20  and  O8_21 
REMARK   13  A    between atoms: C11_23  and  O9_24 
REMARK   14  A    between atoms: C12_27  and  C13_28 
REMARK   15  A    between atoms: C13_28  and  O11_29 
REMARK   16  A    between atoms: C14_31  and  O12_32 
REMARK   17  A    between atoms: C15_34  and  O13_35 
REMARK   18  A    between atoms: C16_37  and  O14_38 
REMARK   19  A    between atoms: C17_40  and  O15_41 
REMARK   20  A    between atoms: C18_43  and  O16_44 
ROOT
HETATM    1  C4  UNL     1     -17.217 -66.940 -51.347  1.00  0.00     0.217 C 
HETATM    2  O10 UNL     1     -17.460 -66.251 -52.489  1.00  0.00    -0.341 OA
HETATM    3  C12 UNL     1     -16.473 -66.454 -53.409  1.00  0.00     0.180 C 
HETATM    4  C14 UNL     1     -15.276 -66.997 -52.661  1.00  0.00     0.183 C 
HETATM    5  C15 UNL     1     -15.967 -67.800 -51.581  1.00  0.00     0.214 C 
ENDROOT
BRANCH   1   6
HETATM    6  O3  UNL     1     -18.212 -67.829 -50.982  1.00  0.00    -0.318 OA
BRANCH   6   7
HETATM    7  C3  UNL     1     -19.472 -67.269 -50.867  1.00  0.00     0.295 C 
HETATM    8  O2  UNL     1     -20.238 -67.792 -51.893  1.00  0.00    -0.348 OA
HETATM    9  C2  UNL     1     -21.290 -68.570 -51.515  1.00  0.00     0.179 C 
HETATM   10  C18 UNL     1     -22.250 -67.884 -50.570  1.00  0.00     0.180 C 
HETATM   11  C17 UNL     1     -21.544 -66.885 -49.680  1.00  0.00     0.183 C 
HETATM   12  C16 UNL     1     -20.109 -67.414 -49.533  1.00  0.00     0.204 C 
BRANCH   9  13
HETATM   13  C1  UNL     1     -22.080 -68.922 -52.762  1.00  0.00     0.198 C 
BRANCH  13  14
HETATM   14  O1  UNL     1     -23.441 -68.631 -52.551  1.00  0.00    -0.398 OA
ATOM     15  H1  UNL     1     -23.948 -68.935 -53.294  1.00  0.00     0.209 HD
ENDBRANCH  13  14
ENDBRANCH   9  13
BRANCH  10  16
HETATM   16  O16 UNL     1     -22.858 -68.822 -49.740  1.00  0.00    -0.390 OA
ATOM     17  H16 UNL     1     -22.614 -69.702 -50.005  1.00  0.00     0.210 HD
ENDBRANCH  10  16
BRANCH  11  18
HETATM   18  O15 UNL     1     -21.434 -65.695 -50.394  1.00  0.00    -0.390 OA
ATOM     19  H15 UNL     1     -21.330 -65.952 -51.303  1.00  0.00     0.210 HD
ENDBRANCH  11  18
BRANCH  12  20
HETATM   20  O14 UNL     1     -20.162 -68.714 -49.068  1.00  0.00    -0.388 OA
ATOM     21  H14 UNL     1     -19.341 -69.033 -48.710  1.00  0.00     0.210 HD
ENDBRANCH  12  20
ENDBRANCH   6   7
ENDBRANCH   1   6
BRANCH   1  22
HETATM   22  C5  UNL     1     -16.888 -66.081 -50.147  1.00  0.00     0.243 C 
BRANCH  22  23
HETATM   23  O4  UNL     1     -16.088 -66.739 -49.234  1.00  0.00    -0.345 OA
BRANCH  23  24
HETATM   24  C6  UNL     1     -15.198 -65.949 -48.572  1.00  0.00     0.215 C 
HETATM   25  O6  UNL     1     -13.987 -65.983 -49.194  1.00  0.00    -0.341 OA
HETATM   26  C8  UNL     1     -13.032 -66.522 -48.381  1.00  0.00     0.180 C 
HETATM   27  C10 UNL     1     -13.808 -67.449 -47.440  1.00  0.00     0.183 C 
HETATM   28  C11 UNL     1     -15.015 -66.569 -47.180  1.00  0.00     0.214 C 
BRANCH  24  29
HETATM   29  C7  UNL     1     -15.669 -64.534 -48.332  1.00  0.00     0.235 C 
BRANCH  29  30
HETATM   30  O5  UNL     1     -16.155 -64.371 -47.036  1.00  0.00    -0.395 OA
ATOM     31  H5  UNL     1     -16.340 -63.459 -46.847  1.00  0.00     0.209 HD
ENDBRANCH  29  30
ENDBRANCH  24  29
BRANCH  26  32
HETATM   32  C9  UNL     1     -11.965 -67.304 -49.117  1.00  0.00     0.198 C 
BRANCH  32  33
HETATM   33  O7  UNL     1     -12.292 -68.659 -48.981  1.00  0.00    -0.398 OA
ATOM     34  H7  UNL     1     -13.161 -68.769 -49.349  1.00  0.00     0.209 HD
ENDBRANCH  32  33
ENDBRANCH  26  32
BRANCH  27  35
HETATM   35  O8  UNL     1     -13.086 -67.691 -46.277  1.00  0.00    -0.390 OA
ATOM     36  H8  UNL     1     -13.667 -67.893 -45.553  1.00  0.00     0.210 HD
ENDBRANCH  27  35
BRANCH  28  37
HETATM   37  O9  UNL     1     -16.128 -67.320 -46.820  1.00  0.00    -0.387 OA
ATOM     38  H9  UNL     1     -16.929 -66.911 -47.127  1.00  0.00     0.210 HD
ENDBRANCH  28  37
ENDBRANCH  23  24
ENDBRANCH  22  23
ENDBRANCH   1  22
BRANCH   5  39
HETATM   39  O13 UNL     1     -16.281 -69.081 -51.962  1.00  0.00    -0.387 OA
ATOM     40  H13 UNL     1     -15.629 -69.453 -52.545  1.00  0.00     0.210 HD
ENDBRANCH   5  39
BRANCH   3  41
HETATM   41  C13 UNL     1     -16.841 -67.491 -54.469  1.00  0.00     0.198 C 
BRANCH  41  42
HETATM   42  O11 UNL     1     -18.067 -68.041 -54.119  1.00  0.00    -0.398 OA
ATOM     43  H11 UNL     1     -18.393 -67.569 -53.362  1.00  0.00     0.209 HD
ENDBRANCH  41  42
ENDBRANCH   3  41
BRANCH   4  44
HETATM   44  O12 UNL     1     -14.583 -65.921 -52.128  1.00  0.00    -0.390 OA
ATOM     45  H12 UNL     1     -14.923 -65.759 -51.256  1.00  0.00     0.210 HD
ENDBRANCH   4  44
TORSDOF 20
ENDMDL
