MODEL 1
REMARK VINA RESULT: -7.046408845      0.000      0.000
REMARK  20 active torsions:
REMARK  status: ('A' for Active; 'I' for Inactive)
REMARK    1  A    between atoms: O1_1  and  C1_3 
REMARK    2  A    between atoms: C1_3  and  C2_4 
REMARK    3  A    between atoms: C3_6  and  O3_7 
REMARK    4  A    between atoms: O3_7  and  C4_8 
REMARK    5  A    between atoms: C4_8  and  C5_9 
REMARK    6  A    between atoms: C5_9  and  O4_10 
REMARK    7  A    between atoms: O4_10  and  C6_11 
REMARK    8  A    between atoms: C6_11  and  C7_12 
REMARK    9  A    between atoms: C7_12  and  O5_13 
REMARK   10  A    between atoms: C8_16  and  C9_17 
REMARK   11  A    between atoms: C9_17  and  O7_18 
REMARK   12  A    between atoms: C10_20  and  O8_21 
REMARK   13  A    between atoms: C11_23  and  O9_24 
REMARK   14  A    between atoms: C12_27  and  C13_28 
REMARK   15  A    between atoms: C13_28  and  O11_29 
REMARK   16  A    between atoms: C14_31  and  O12_32 
REMARK   17  A    between atoms: C15_34  and  O13_35 
REMARK   18  A    between atoms: C16_37  and  O14_38 
REMARK   19  A    between atoms: C17_40  and  O15_41 
REMARK   20  A    between atoms: C18_43  and  O16_44 
ROOT
HETATM    1  C4  UNL     1     -15.647 -66.078 -48.132  1.00  0.00     0.217 C 
HETATM    2  O10 UNL     1     -15.136 -64.919 -47.647  1.00  0.00    -0.341 OA
HETATM    3  C12 UNL     1     -15.762 -64.546 -46.494  1.00  0.00     0.180 C 
HETATM    4  C14 UNL     1     -17.068 -65.307 -46.434  1.00  0.00     0.183 C 
HETATM    5  C15 UNL     1     -16.666 -66.600 -47.108  1.00  0.00     0.214 C 
ENDROOT
BRANCH   1   6
HETATM    6  O3  UNL     1     -14.727 -67.099 -48.287  1.00  0.00    -0.318 OA
BRANCH   6   7
HETATM    7  C3  UNL     1     -13.405 -66.698 -48.223  1.00  0.00     0.295 C 
HETATM    8  O2  UNL     1     -13.020 -66.796 -46.898  1.00  0.00    -0.348 OA
HETATM    9  C2  UNL     1     -12.050 -67.712 -46.624  1.00  0.00     0.179 C 
HETATM   10  C18 UNL     1     -10.783 -67.519 -47.426  1.00  0.00     0.180 C 
HETATM   11  C17 UNL     1     -11.065 -66.934 -48.791  1.00  0.00     0.183 C 
HETATM   12  C16 UNL     1     -12.484 -67.404 -49.150  1.00  0.00     0.204 C 
BRANCH   9  13
HETATM   13  C1  UNL     1     -11.670 -67.566 -45.163  1.00  0.00     0.198 C 
BRANCH  13  14
HETATM   14  O1  UNL     1     -11.249 -66.245 -44.919  1.00  0.00    -0.398 OA
ATOM     15  H1  UNL     1     -11.955 -65.759 -44.510  1.00  0.00     0.209 HD
ENDBRANCH  13  14
ENDBRANCH   9  13
BRANCH  10  16
HETATM   16  O16 UNL     1     -10.147 -68.742 -47.621  1.00  0.00    -0.390 OA
ATOM     17  H16 UNL     1     -10.789 -69.419 -47.801  1.00  0.00     0.210 HD
ENDBRANCH  10  16
BRANCH  11  18
HETATM   18  O15 UNL     1     -11.154 -65.552 -48.643  1.00  0.00    -0.390 OA
ATOM     19  H15 UNL     1     -11.089 -65.391 -47.709  1.00  0.00     0.210 HD
ENDBRANCH  11  18
BRANCH  12  20
HETATM   20  O14 UNL     1     -12.530 -68.781 -49.055  1.00  0.00    -0.388 OA
ATOM     21  H14 UNL     1     -12.359 -69.235 -49.873  1.00  0.00     0.210 HD
ENDBRANCH  12  20
ENDBRANCH   6   7
ENDBRANCH   1   6
BRANCH   1  22
HETATM   22  C5  UNL     1     -16.420 -65.938 -49.424  1.00  0.00     0.243 C 
BRANCH  22  23
HETATM   23  O4  UNL     1     -16.348 -67.074 -50.205  1.00  0.00    -0.345 OA
BRANCH  23  24
HETATM   24  C6  UNL     1     -16.594 -66.880 -51.530  1.00  0.00     0.215 C 
HETATM   25  O6  UNL     1     -17.937 -66.852 -51.759  1.00  0.00    -0.341 OA
HETATM   26  C8  UNL     1     -18.319 -67.885 -52.565  1.00  0.00     0.180 C 
HETATM   27  C10 UNL     1     -17.271 -68.975 -52.316  1.00  0.00     0.183 C 
HETATM   28  C11 UNL     1     -16.030 -68.105 -52.263  1.00  0.00     0.214 C 
BRANCH  24  29
HETATM   29  C7  UNL     1     -15.896 -65.683 -52.132  1.00  0.00     0.235 C 
BRANCH  29  30
HETATM   30  O5  UNL     1     -14.639 -66.024 -52.631  1.00  0.00    -0.395 OA
ATOM     31  H5  UNL     1     -14.259 -65.311 -53.129  1.00  0.00     0.209 HD
ENDBRANCH  29  30
ENDBRANCH  24  29
BRANCH  26  32
HETATM   32  C9  UNL     1     -19.704 -68.420 -52.268  1.00  0.00     0.198 C 
BRANCH  32  33
HETATM   33  O7  UNL     1     -19.534 -69.565 -51.480  1.00  0.00    -0.398 OA
ATOM     34  H7  UNL     1     -19.342 -69.265 -50.599  1.00  0.00     0.209 HD
ENDBRANCH  32  33
ENDBRANCH  26  32
BRANCH  27  35
HETATM   35  O8  UNL     1     -17.227 -69.872 -53.377  1.00  0.00    -0.390 OA
ATOM     36  H8  UNL     1     -17.111 -70.762 -53.064  1.00  0.00     0.210 HD
ENDBRANCH  27  35
BRANCH  28  37
HETATM   37  O9  UNL     1     -15.016 -68.703 -51.524  1.00  0.00    -0.387 OA
ATOM     38  H9  UNL     1     -15.373 -69.284 -50.863  1.00  0.00     0.210 HD
ENDBRANCH  28  37
ENDBRANCH  23  24
ENDBRANCH  22  23
ENDBRANCH   1  22
BRANCH   5  39
HETATM   39  O13 UNL     1     -16.118 -67.521 -46.251  1.00  0.00    -0.387 OA
ATOM     40  H13 UNL     1     -16.778 -68.059 -45.830  1.00  0.00     0.210 HD
ENDBRANCH   5  39
BRANCH   3  41
HETATM   41  C13 UNL     1     -14.978 -64.914 -45.236  1.00  0.00     0.198 C 
BRANCH  41  42
HETATM   42  O11 UNL     1     -13.663 -64.507 -45.418  1.00  0.00    -0.398 OA
ATOM     43  H11 UNL     1     -13.113 -65.035 -44.851  1.00  0.00     0.209 HD
ENDBRANCH  41  42
ENDBRANCH   3  41
BRANCH   4  44
HETATM   44  O12 UNL     1     -18.001 -64.611 -47.188  1.00  0.00    -0.390 OA
ATOM     45  H12 UNL     1     -18.377 -65.215 -47.816  1.00  0.00     0.210 HD
ENDBRANCH   4  44
TORSDOF 20
ENDMDL
