MODEL 4
REMARK VINA RESULT: -6.924723309      2.765      6.820
REMARK  20 active torsions:
REMARK  status: ('A' for Active; 'I' for Inactive)
REMARK    1  A    between atoms: O1_1  and  C1_3 
REMARK    2  A    between atoms: C1_3  and  C2_4 
REMARK    3  A    between atoms: C3_6  and  O3_7 
REMARK    4  A    between atoms: O3_7  and  C4_8 
REMARK    5  A    between atoms: C4_8  and  C5_9 
REMARK    6  A    between atoms: C5_9  and  O4_10 
REMARK    7  A    between atoms: O4_10  and  C6_11 
REMARK    8  A    between atoms: C6_11  and  C7_12 
REMARK    9  A    between atoms: C7_12  and  O5_13 
REMARK   10  A    between atoms: C8_16  and  C9_17 
REMARK   11  A    between atoms: C9_17  and  O7_18 
REMARK   12  A    between atoms: C10_20  and  O8_21 
REMARK   13  A    between atoms: C11_23  and  O9_24 
REMARK   14  A    between atoms: C12_27  and  C13_28 
REMARK   15  A    between atoms: C13_28  and  O11_29 
REMARK   16  A    between atoms: C14_31  and  O12_32 
REMARK   17  A    between atoms: C15_34  and  O13_35 
REMARK   18  A    between atoms: C16_37  and  O14_38 
REMARK   19  A    between atoms: C17_40  and  O15_41 
REMARK   20  A    between atoms: C18_43  and  O16_44 
ROOT
HETATM    1  C4  UNL     1     -18.728 -66.041 -50.756  1.00  0.00     0.217 C 
HETATM    2  O10 UNL     1     -18.095 -66.608 -49.700  1.00  0.00    -0.341 OA
HETATM    3  C12 UNL     1     -18.327 -65.911 -48.550  1.00  0.00     0.180 C 
HETATM    4  C14 UNL     1     -18.821 -64.540 -48.957  1.00  0.00     0.183 C 
HETATM    5  C15 UNL     1     -19.583 -64.884 -50.218  1.00  0.00     0.214 C 
ENDROOT
BRANCH   1   6
HETATM    6  O3  UNL     1     -19.611 -66.873 -51.419  1.00  0.00    -0.318 OA
BRANCH   6   7
HETATM    7  C3  UNL     1     -19.140 -68.155 -51.639  1.00  0.00     0.295 C 
HETATM    8  O2  UNL     1     -19.702 -68.961 -50.667  1.00  0.00    -0.348 OA
HETATM    9  C2  UNL     1     -20.555 -69.927 -51.111  1.00  0.00     0.179 C 
HETATM   10  C18 UNL     1     -19.948 -70.854 -52.138  1.00  0.00     0.180 C 
HETATM   11  C17 UNL     1     -18.914 -70.151 -52.989  1.00  0.00     0.183 C 
HETATM   12  C16 UNL     1     -19.345 -68.675 -53.016  1.00  0.00     0.204 C 
BRANCH   9  13
HETATM   13  C1  UNL     1     -20.945 -70.786 -49.922  1.00  0.00     0.198 C 
BRANCH  13  14
HETATM   14  O1  UNL     1     -20.940 -72.140 -50.303  1.00  0.00    -0.398 OA
ATOM     15  H1  UNL     1     -20.552 -72.661 -49.610  1.00  0.00     0.209 HD
ENDBRANCH  13  14
ENDBRANCH   9  13
BRANCH  10  16
HETATM   16  O16 UNL     1     -20.935 -71.332 -52.996  1.00  0.00    -0.390 OA
ATOM     17  H16 UNL     1     -21.766 -71.391 -52.538  1.00  0.00     0.210 HD
ENDBRANCH  10  16
BRANCH  11  18
HETATM   18  O15 UNL     1     -17.710 -70.177 -52.288  1.00  0.00    -0.390 OA
ATOM     19  H15 UNL     1     -17.940 -70.025 -51.379  1.00  0.00     0.210 HD
ENDBRANCH  11  18
BRANCH  12  20
HETATM   20  O14 UNL     1     -20.650 -68.604 -53.461  1.00  0.00    -0.388 OA
ATOM     21  H14 UNL     1     -21.300 -68.806 -52.798  1.00  0.00     0.210 HD
ENDBRANCH  12  20
ENDBRANCH   6   7
ENDBRANCH   1   6
BRANCH   1  22
HETATM   22  C5  UNL     1     -17.811 -65.413 -51.781  1.00  0.00     0.243 C 
BRANCH  22  23
HETATM   23  O4  UNL     1     -16.520 -65.269 -51.313  1.00  0.00    -0.345 OA
BRANCH  23  24
HETATM   24  C6  UNL     1     -15.602 -66.092 -51.889  1.00  0.00     0.215 C 
HETATM   25  O6  UNL     1     -15.176 -67.023 -50.989  1.00  0.00    -0.341 OA
HETATM   26  C8  UNL     1     -13.843 -66.884 -50.732  1.00  0.00     0.180 C 
HETATM   27  C10 UNL     1     -13.553 -65.403 -50.999  1.00  0.00     0.183 C 
HETATM   28  C11 UNL     1     -14.393 -65.216 -52.246  1.00  0.00     0.214 C 
BRANCH  24  29
HETATM   29  C7  UNL     1     -16.049 -66.725 -53.185  1.00  0.00     0.235 C 
BRANCH  29  30
HETATM   30  O5  UNL     1     -15.970 -68.116 -53.127  1.00  0.00    -0.395 OA
ATOM     31  H5  UNL     1     -16.484 -68.521 -53.815  1.00  0.00     0.209 HD
ENDBRANCH  29  30
ENDBRANCH  24  29
BRANCH  26  32
HETATM   32  C9  UNL     1     -13.447 -67.244 -49.316  1.00  0.00     0.198 C 
BRANCH  32  33
HETATM   33  O7  UNL     1     -12.751 -68.457 -49.388  1.00  0.00    -0.398 OA
ATOM     34  H7  UNL     1     -12.783 -68.844 -48.521  1.00  0.00     0.209 HD
ENDBRANCH  32  33
ENDBRANCH  26  32
BRANCH  27  35
HETATM   35  O8  UNL     1     -12.201 -65.201 -51.252  1.00  0.00    -0.390 OA
ATOM     36  H8  UNL     1     -11.901 -64.388 -50.862  1.00  0.00     0.210 HD
ENDBRANCH  27  35
BRANCH  28  37
HETATM   37  O9  UNL     1     -14.773 -63.889 -52.415  1.00  0.00    -0.387 OA
ATOM     38  H9  UNL     1     -14.026 -63.308 -52.331  1.00  0.00     0.210 HD
ENDBRANCH  28  37
ENDBRANCH  23  24
ENDBRANCH  22  23
ENDBRANCH   1  22
BRANCH   5  39
HETATM   39  O13 UNL     1     -20.883 -65.259 -49.992  1.00  0.00    -0.387 OA
ATOM     40  H13 UNL     1     -21.261 -64.815 -49.243  1.00  0.00     0.210 HD
ENDBRANCH   5  39
BRANCH   3  41
HETATM   41  C13 UNL     1     -19.417 -66.532 -47.678  1.00  0.00     0.198 C 
BRANCH  41  42
HETATM   42  O11 UNL     1     -19.774 -67.748 -48.245  1.00  0.00    -0.398 OA
ATOM     43  H11 UNL     1     -20.616 -68.002 -47.885  1.00  0.00     0.209 HD
ENDBRANCH  41  42
ENDBRANCH   3  41
BRANCH   4  44
HETATM   44  O12 UNL     1     -17.714 -63.753 -49.232  1.00  0.00    -0.390 OA
ATOM     45  H12 UNL     1     -17.908 -63.236 -50.005  1.00  0.00     0.210 HD
ENDBRANCH   4  44
TORSDOF 20
ENDMDL
