MODEL 2
REMARK VINA RESULT: -6.434355665      0.404      1.037
REMARK  8 active torsions:
REMARK  status: ('A' for Active; 'I' for Inactive)
REMARK       I    between atoms: C2_2  and  N1_4 
REMARK    1  A    between atoms: N1_4  and  C3_6 
REMARK    2  A    between atoms: C4_7  and  O2_8 
REMARK    3  A    between atoms: O2_8  and  C5_9 
REMARK    4  A    between atoms: C8_12  and  N2_13 
REMARK    5  A    between atoms: C11_19  and  C12_20 
REMARK    6  A    between atoms: C12_20  and  O6_21 
REMARK    7  A    between atoms: C13_23  and  O7_24 
REMARK    8  A    between atoms: C14_26  and  O8_27 
ROOT
HETATM    1  C3  UNL     1     -37.946  10.209   1.458  1.00  0.00     0.171 C 
HETATM    2  C4  UNL     1     -39.366  10.549   1.005  1.00  0.00     0.292 C 
HETATM    3  O5  UNL     1     -39.600   9.642  -0.051  1.00  0.00    -0.349 OA
HETATM    4  C11 UNL     1     -38.824   9.908  -1.144  1.00  0.00     0.179 C 
HETATM    5  C13 UNL     1     -37.366  10.076  -0.879  1.00  0.00     0.180 C 
HETATM    6  C14 UNL     1     -37.066  10.829   0.394  1.00  0.00     0.177 C 
ENDROOT
BRANCH   2   7
HETATM    7  O2  UNL     1     -40.294  10.477   2.004  1.00  0.00    -0.318 OA
BRANCH   7   8
HETATM    8  C5  UNL     1     -41.230  11.431   2.293  1.00  0.00     0.072 A 
HETATM    9  C6  UNL     1     -42.163  11.091   3.262  1.00  0.00     0.039 A 
HETATM   10  C7  UNL     1     -43.159  11.969   3.640  1.00  0.00     0.039 A 
HETATM   11  C8  UNL     1     -43.274  13.221   3.076  1.00  0.00     0.103 A 
HETATM   12  C9  UNL     1     -42.350  13.559   2.116  1.00  0.00     0.039 A 
HETATM   13  C10 UNL     1     -41.337  12.675   1.725  1.00  0.00     0.039 A 
BRANCH  11  14
HETATM   14  N2  UNL     1     -44.309  14.115   3.480  1.00  0.00    -0.116 N 
HETATM   15  O3  UNL     1     -44.181  15.335   3.259  1.00  0.00    -0.532 OA
HETATM   16  O4  UNL     1     -45.447  13.677   4.107  1.00  0.00    -0.532 OA
ENDBRANCH  11  14
ENDBRANCH   7   8
ENDBRANCH   2   7
BRANCH   1  17
HETATM   17  N1  UNL     1     -37.664  10.675   2.777  1.00  0.00    -0.349 N 
HETATM   18  C2  UNL     1     -36.670  10.132   3.637  1.00  0.00     0.214 C 
HETATM   19  C1  UNL     1     -36.470  10.711   5.001  1.00  0.00     0.117 C 
HETATM   20  O1  UNL     1     -35.990   9.175   3.211  1.00  0.00    -0.274 OA
ATOM     21  H1  UNL     1     -38.217  11.457   3.130  1.00  0.00     0.163 HD
ENDBRANCH   1  17
BRANCH   6  22
HETATM   22  O8  UNL     1     -35.721  10.724   0.699  1.00  0.00    -0.391 OA
ATOM     23  H8  UNL     1     -35.535  10.974   1.596  1.00  0.00     0.210 HD
ENDBRANCH   6  22
BRANCH   4  24
HETATM   24  C12 UNL     1     -38.994   8.772  -2.130  1.00  0.00     0.198 C 
BRANCH  24  25
HETATM   25  O6  UNL     1     -38.842   9.202  -3.445  1.00  0.00    -0.398 OA
ATOM     26  H6  UNL     1     -38.960   8.491  -4.064  1.00  0.00     0.209 HD
ENDBRANCH  24  25
ENDBRANCH   4  24
BRANCH   5  27
HETATM   27  O7  UNL     1     -36.831  10.840  -1.938  1.00  0.00    -0.390 OA
ATOM     28  H7  UNL     1     -36.890  10.313  -2.726  1.00  0.00     0.210 HD
ENDBRANCH   5  27
TORSDOF 8
ENDMDL
