MODEL 1
REMARK VINA RESULT: -6.563530202      0.000      0.000
REMARK  8 active torsions:
REMARK  status: ('A' for Active; 'I' for Inactive)
REMARK       I    between atoms: C2_2  and  N1_4 
REMARK    1  A    between atoms: N1_4  and  C3_6 
REMARK    2  A    between atoms: C4_7  and  O2_8 
REMARK    3  A    between atoms: O2_8  and  C5_9 
REMARK    4  A    between atoms: C8_12  and  N2_13 
REMARK    5  A    between atoms: C11_19  and  C12_20 
REMARK    6  A    between atoms: C12_20  and  O6_21 
REMARK    7  A    between atoms: C13_23  and  O7_24 
REMARK    8  A    between atoms: C14_26  and  O8_27 
ROOT
HETATM    1  C3  UNL     1     -37.944  10.079   1.377  1.00  0.00     0.171 C 
HETATM    2  C4  UNL     1     -39.369  10.338   0.890  1.00  0.00     0.292 C 
HETATM    3  O5  UNL     1     -39.517   9.441  -0.189  1.00  0.00    -0.349 OA
HETATM    4  C11 UNL     1     -38.731   9.780  -1.254  1.00  0.00     0.179 C 
HETATM    5  C13 UNL     1     -37.294  10.033  -0.946  1.00  0.00     0.180 C 
HETATM    6  C14 UNL     1     -37.077  10.776   0.350  1.00  0.00     0.177 C 
ENDROOT
BRANCH   2   7
HETATM    7  O2  UNL     1     -40.318  10.186   1.862  1.00  0.00    -0.318 OA
BRANCH   7   8
HETATM    8  C5  UNL     1     -41.160  11.163   2.314  1.00  0.00     0.072 A 
HETATM    9  C6  UNL     1     -41.062  12.391   1.673  1.00  0.00     0.039 A 
HETATM   10  C7  UNL     1     -41.859  13.457   2.039  1.00  0.00     0.039 A 
HETATM   11  C8  UNL     1     -42.786  13.355   3.055  1.00  0.00     0.103 A 
HETATM   12  C9  UNL     1     -42.882  12.140   3.690  1.00  0.00     0.039 A 
HETATM   13  C10 UNL     1     -42.079  11.053   3.326  1.00  0.00     0.039 A 
BRANCH  11  14
HETATM   14  N2  UNL     1     -43.600  14.468   3.419  1.00  0.00    -0.116 N 
HETATM   15  O3  UNL     1     -43.163  15.623   3.253  1.00  0.00    -0.532 OA
HETATM   16  O4  UNL     1     -44.855  14.310   3.949  1.00  0.00    -0.532 OA
ENDBRANCH  11  14
ENDBRANCH   7   8
ENDBRANCH   2   7
BRANCH   1  17
HETATM   17  N1  UNL     1     -37.727  10.534   2.712  1.00  0.00    -0.349 N 
HETATM   18  C2  UNL     1     -36.708  10.053   3.580  1.00  0.00     0.214 C 
HETATM   19  C1  UNL     1     -36.585  10.612   4.962  1.00  0.00     0.117 C 
HETATM   20  O1  UNL     1     -35.942   9.168   3.147  1.00  0.00    -0.274 OA
ATOM     21  H1  UNL     1     -38.350  11.258   3.071  1.00  0.00     0.163 HD
ENDBRANCH   1  17
BRANCH   6  22
HETATM   22  O8  UNL     1     -35.737  10.751   0.690  1.00  0.00    -0.391 OA
ATOM     23  H8  UNL     1     -35.277  10.022   0.289  1.00  0.00     0.210 HD
ENDBRANCH   6  22
BRANCH   4  24
HETATM   24  C12 UNL     1     -38.801   8.656  -2.267  1.00  0.00     0.198 C 
BRANCH  24  25
HETATM   25  O6  UNL     1     -38.647   9.123  -3.569  1.00  0.00    -0.398 OA
ATOM     26  H6  UNL     1     -38.139   8.523  -4.102  1.00  0.00     0.209 HD
ENDBRANCH  24  25
ENDBRANCH   4  24
BRANCH   5  27
HETATM   27  O7  UNL     1     -36.781  10.853  -1.973  1.00  0.00    -0.390 OA
ATOM     28  H7  UNL     1     -36.178  11.467  -1.572  1.00  0.00     0.210 HD
ENDBRANCH   5  27
TORSDOF 8
ENDMDL
