MODEL 3
REMARK VINA RESULT: -6.079059164      3.013      4.515
REMARK  8 active torsions:
REMARK  status: ('A' for Active; 'I' for Inactive)
REMARK       I    between atoms: C2_2  and  N1_4 
REMARK    1  A    between atoms: N1_4  and  C3_6 
REMARK    2  A    between atoms: C4_7  and  O2_8 
REMARK    3  A    between atoms: O2_8  and  C5_9 
REMARK    4  A    between atoms: C8_12  and  N2_13 
REMARK    5  A    between atoms: C11_19  and  C12_20 
REMARK    6  A    between atoms: C12_20  and  O6_21 
REMARK    7  A    between atoms: C13_23  and  O7_24 
REMARK    8  A    between atoms: C14_26  and  O8_27 
ROOT
HETATM    1  C3  UNL     1     -39.556   9.017   4.922  1.00  0.00     0.171 C 
HETATM    2  C4  UNL     1     -39.754  10.089   3.851  1.00  0.00     0.292 C 
HETATM    3  O5  UNL     1     -38.650   9.903   2.991  1.00  0.00    -0.349 OA
HETATM    4  C11 UNL     1     -37.467  10.238   3.588  1.00  0.00     0.179 C 
HETATM    5  C13 UNL     1     -37.224   9.634   4.930  1.00  0.00     0.180 C 
HETATM    6  C14 UNL     1     -38.456   9.577   5.799  1.00  0.00     0.177 C 
ENDROOT
BRANCH   2   7
HETATM    7  O2  UNL     1     -40.961  10.015   3.216  1.00  0.00    -0.318 OA
BRANCH   7   8
HETATM    8  C5  UNL     1     -41.959  10.947   3.290  1.00  0.00     0.072 A 
HETATM    9  C6  UNL     1     -41.656  12.202   2.781  1.00  0.00     0.039 A 
HETATM   10  C7  UNL     1     -42.581  13.227   2.799  1.00  0.00     0.039 A 
HETATM   11  C8  UNL     1     -43.845  13.054   3.322  1.00  0.00     0.103 A 
HETATM   12  C9  UNL     1     -44.145  11.811   3.826  1.00  0.00     0.039 A 
HETATM   13  C10 UNL     1     -43.215  10.765   3.813  1.00  0.00     0.039 A 
BRANCH  11  14
HETATM   14  N2  UNL     1     -44.787  14.124   3.332  1.00  0.00    -0.116 N 
HETATM   15  O3  UNL     1     -45.893  13.958   3.883  1.00  0.00    -0.532 OA
HETATM   16  O4  UNL     1     -44.518  15.338   2.753  1.00  0.00    -0.532 OA
ENDBRANCH  11  14
ENDBRANCH   7   8
ENDBRANCH   2   7
BRANCH   1  17
HETATM   17  N1  UNL     1     -40.758   8.719   5.631  1.00  0.00    -0.349 N 
HETATM   18  C2  UNL     1     -41.563   7.566   5.419  1.00  0.00     0.214 C 
HETATM   19  C1  UNL     1     -42.805   7.368   6.229  1.00  0.00     0.117 C 
HETATM   20  O1  UNL     1     -41.196   6.750   4.549  1.00  0.00    -0.274 OA
ATOM     21  H1  UNL     1     -41.062   9.383   6.343  1.00  0.00     0.163 HD
ENDBRANCH   1  17
BRANCH   6  22
HETATM   22  O8  UNL     1     -38.216   8.787   6.908  1.00  0.00    -0.391 OA
ATOM     23  H8  UNL     1     -37.601   8.087   6.725  1.00  0.00     0.210 HD
ENDBRANCH   6  22
BRANCH   4  24
HETATM   24  C12 UNL     1     -36.340   9.813   2.671  1.00  0.00     0.198 C 
BRANCH  24  25
HETATM   25  O6  UNL     1     -35.610   8.756   3.206  1.00  0.00    -0.398 OA
ATOM     26  H6  UNL     1     -34.979   9.053   3.851  1.00  0.00     0.209 HD
ENDBRANCH  24  25
ENDBRANCH   4  24
BRANCH   5  27
HETATM   27  O7  UNL     1     -36.294  10.457   5.599  1.00  0.00    -0.390 OA
ATOM     28  H7  UNL     1     -35.546  10.566   5.023  1.00  0.00     0.210 HD
ENDBRANCH   5  27
TORSDOF 8
ENDMDL
