MODEL 20
REMARK VINA RESULT: -4.500990855      5.518      6.569
REMARK  1 active torsions:
REMARK  status: ('A' for Active; 'I' for Inactive)
REMARK    1  A    between atoms: C1_2  and  C2_4 
ROOT
HETATM    1  C2  UNL     1      15.918  -8.847 -37.907  1.00  0.00     0.125 A 
HETATM    2  C3  UNL     1      16.710  -9.878 -37.448  1.00  0.00     0.124 A 
HETATM    3  N1  UNL     1      16.737 -11.088 -38.036  1.00  0.00    -0.372 N 
ATOM      4  H1  UNL     1      17.338 -11.822 -37.662  1.00  0.00     0.164 HD
HETATM    5  C4  UNL     1      15.979 -11.328 -39.109  1.00  0.00     0.104 A 
HETATM    6  C5  UNL     1      15.176 -10.321 -39.595  1.00  0.00     0.105 A 
HETATM    7  N2  UNL     1      15.163  -9.111 -38.989  1.00  0.00    -0.358 N 
ATOM      8  H2  UNL     1      14.562  -8.377 -39.363  1.00  0.00     0.165 HD
ENDROOT
BRANCH   1   9
HETATM    9  C1  UNL     1      15.919  -7.552 -37.240  1.00  0.00     0.228 C 
HETATM   10  O1  UNL     1      14.831  -7.083 -36.806  1.00  0.00    -0.643 OA
HETATM   11  O2  UNL     1      17.048  -6.798 -37.051  1.00  0.00    -0.643 OA
ENDBRANCH   1   9
TORSDOF 1
ENDMDL
