MODEL 9
REMARK VINA RESULT: -4.960116478      1.710      2.059
REMARK  1 active torsions:
REMARK  status: ('A' for Active; 'I' for Inactive)
REMARK    1  A    between atoms: C1_2  and  C2_4 
ROOT
HETATM    1  C2  UNL     1      12.772  -6.117 -35.067  1.00  0.00     0.125 A 
HETATM    2  C3  UNL     1      11.853  -7.003 -35.588  1.00  0.00     0.124 A 
HETATM    3  N1  UNL     1      10.525  -6.809 -35.492  1.00  0.00    -0.372 N 
ATOM      4  H1  UNL     1       9.881  -7.491 -35.891  1.00  0.00     0.164 HD
HETATM    5  C4  UNL     1      10.049  -5.725 -34.874  1.00  0.00     0.104 A 
HETATM    6  C5  UNL     1      10.938  -4.818 -34.343  1.00  0.00     0.105 A 
HETATM    7  N2  UNL     1      12.271  -5.031 -34.450  1.00  0.00    -0.358 N 
ATOM      8  H2  UNL     1      12.915  -4.349 -34.050  1.00  0.00     0.165 HD
ENDROOT
BRANCH   1   9
HETATM    9  C1  UNL     1      14.202  -6.365 -35.194  1.00  0.00     0.228 C 
HETATM   10  O1  UNL     1      14.691  -6.571 -36.338  1.00  0.00    -0.643 OA
HETATM   11  O2  UNL     1      15.064  -6.391 -34.128  1.00  0.00    -0.643 OA
ENDBRANCH   1   9
TORSDOF 1
ENDMDL
