MODEL 13
REMARK VINA RESULT: -4.815113652      1.577      2.617
REMARK  1 active torsions:
REMARK  status: ('A' for Active; 'I' for Inactive)
REMARK    1  A    between atoms: C1_2  and  C2_4 
ROOT
HETATM    1  C2  UNL     1      12.818  -6.137 -35.049  1.00  0.00     0.125 A 
HETATM    2  C3  UNL     1      12.508  -5.055 -34.253  1.00  0.00     0.124 A 
HETATM    3  N1  UNL     1      11.241  -4.685 -33.996  1.00  0.00    -0.372 N 
ATOM      4  H1  UNL     1      11.057  -3.877 -33.402  1.00  0.00     0.164 HD
HETATM    5  C4  UNL     1      10.222  -5.375 -34.517  1.00  0.00     0.104 A 
HETATM    6  C5  UNL     1      10.495  -6.462 -35.317  1.00  0.00     0.105 A 
HETATM    7  N2  UNL     1      11.778  -6.817 -35.564  1.00  0.00    -0.358 N 
ATOM      8  H2  UNL     1      11.962  -7.626 -36.158  1.00  0.00     0.165 HD
ENDROOT
BRANCH   1   9
HETATM    9  C1  UNL     1      14.206  -6.503 -35.302  1.00  0.00     0.228 C 
HETATM   10  O1  UNL     1      14.983  -6.678 -34.324  1.00  0.00    -0.643 OA
HETATM   11  O2  UNL     1      14.728  -6.672 -36.558  1.00  0.00    -0.643 OA
ENDBRANCH   1   9
TORSDOF 1
ENDMDL
