MODEL 11
REMARK VINA RESULT: -5.263747356      1.707      2.595
REMARK  1 active torsions:
REMARK  status: ('A' for Active; 'I' for Inactive)
REMARK    1  A    between atoms: C1_2  and  C2_4 
ROOT
HETATM    1  C2  UNL     1      37.205   0.530   4.603  1.00  0.00     0.109 A 
HETATM    2  C3  UNL     1      37.415  -0.587   5.377  1.00  0.00     0.037 A 
HETATM    3  C4  UNL     1      36.755  -1.778   5.095  1.00  0.00     0.004 A 
HETATM    4  C5  UNL     1      35.875  -1.868   4.036  1.00  0.00     0.017 A 
HETATM    5  C6  UNL     1      35.695  -0.721   3.288  1.00  0.00     0.088 A 
HETATM    6  N1  UNL     1      36.348   0.436   3.576  1.00  0.00    -0.360 N 
ATOM      7  H1  UNL     1      36.181   1.256   2.994  1.00  0.00     0.165 HD
ENDROOT
BRANCH   1   8
HETATM    8  C1  UNL     1      37.910   1.782   4.911  1.00  0.00     0.226 C 
HETATM    9  O1  UNL     1      37.310   2.888   4.926  1.00  0.00    -0.643 OA
HETATM   10  O2  UNL     1      39.261   1.808   5.200  1.00  0.00    -0.643 OA
ENDBRANCH   1   8
TORSDOF 1
ENDMDL
