MODEL 9
REMARK VINA RESULT: -5.394393584      1.694      2.307
REMARK  1 active torsions:
REMARK  status: ('A' for Active; 'I' for Inactive)
REMARK    1  A    between atoms: C1_2  and  C2_4 
ROOT
HETATM    1  C2  UNL     1      37.262   0.449   4.616  1.00  0.00     0.109 A 
HETATM    2  C3  UNL     1      36.266   0.397   3.670  1.00  0.00     0.037 A 
HETATM    3  C4  UNL     1      35.628  -0.802   3.378  1.00  0.00     0.004 A 
HETATM    4  C5  UNL     1      35.978  -1.969   4.027  1.00  0.00     0.017 A 
HETATM    5  C6  UNL     1      36.984  -1.869   4.968  1.00  0.00     0.088 A 
HETATM    6  N1  UNL     1      37.598  -0.689   5.243  1.00  0.00    -0.360 N 
ATOM      7  H1  UNL     1      38.336  -0.666   5.947  1.00  0.00     0.165 HD
ENDROOT
BRANCH   1   8
HETATM    8  C1  UNL     1      37.927   1.723   4.917  1.00  0.00     0.226 C 
HETATM    9  O1  UNL     1      37.304   2.816   4.882  1.00  0.00    -0.643 OA
HETATM   10  O2  UNL     1      39.267   1.787   5.253  1.00  0.00    -0.643 OA
ENDBRANCH   1   8
TORSDOF 1
ENDMDL
