MODEL 13
REMARK VINA RESULT: -5.218907909      7.986      8.907
REMARK  1 active torsions:
REMARK  status: ('A' for Active; 'I' for Inactive)
REMARK    1  A    between atoms: C1_2  and  C2_4 
ROOT
HETATM    1  C2  UNL     1      41.582   2.128   9.937  1.00  0.00     0.109 A 
HETATM    2  C3  UNL     1      41.081   2.527  11.154  1.00  0.00     0.037 A 
HETATM    3  C4  UNL     1      40.216   3.612  11.241  1.00  0.00     0.004 A 
HETATM    4  C5  UNL     1      39.841   4.313  10.114  1.00  0.00     0.017 A 
HETATM    5  C6  UNL     1      40.370   3.877   8.915  1.00  0.00     0.088 A 
HETATM    6  N1  UNL     1      41.214   2.814   8.845  1.00  0.00    -0.360 N 
ATOM      7  H1  UNL     1      41.578   2.530   7.936  1.00  0.00     0.165 HD
ENDROOT
BRANCH   1   8
HETATM    8  C1  UNL     1      42.494   0.979   9.857  1.00  0.00     0.226 C 
HETATM    9  O1  UNL     1      43.173   0.748   8.823  1.00  0.00    -0.643 OA
HETATM   10  O2  UNL     1      42.653   0.097  10.910  1.00  0.00    -0.643 OA
ENDBRANCH   1   8
TORSDOF 1
ENDMDL
