MODEL 7
REMARK VINA RESULT: -7.267093887      1.180      1.831
REMARK  5 active torsions:
REMARK  status: ('A' for Active; 'I' for Inactive)
REMARK    1  A    between atoms: C4_6  and  C5_7 
REMARK    2  A    between atoms: C5_7  and  O1_8 
REMARK    3  A    between atoms: O1_8  and  P1_9 
REMARK    4  A    between atoms: C6_13  and  C7_14 
REMARK    5  A    between atoms: C8_16  and  O6_17 
ROOT
HETATM    1  C1  UNL     1     -27.181  -4.037  -9.102  1.00  0.00     0.071 C 
HETATM    2  C2  UNL     1     -27.634  -5.129  -8.179  1.00  0.00     0.039 A 
HETATM    3  N1  UNL     1     -27.343  -6.383  -8.562  1.00  0.00    -0.367 N 
ATOM      4  H1  UNL     1     -26.842  -6.539  -9.437  1.00  0.00     0.165 HD
HETATM    5  C3  UNL     1     -27.701  -7.431  -7.811  1.00  0.00     0.098 A 
HETATM    6  C4  UNL     1     -28.385  -7.183  -6.625  1.00  0.00    -0.003 A 
HETATM    7  C6  UNL     1     -28.703  -5.897  -6.201  1.00  0.00     0.046 A 
HETATM    8  C8  UNL     1     -28.307  -4.837  -7.018  1.00  0.00     0.101 A 
ENDROOT
BRANCH   6   9
HETATM    9  C5  UNL     1     -28.797  -8.325  -5.755  1.00  0.00     0.223 C 
BRANCH   9  10
HETATM   10  O1  UNL     1     -29.825  -9.010  -6.405  1.00  0.00    -0.278 OA
BRANCH  10  11
HETATM   11  P1  UNL     1     -30.924  -9.672  -5.339  1.00  0.00     0.422 P 
HETATM   12  O2  UNL     1     -32.277  -9.702  -6.012  1.00  0.00    -0.617 OA
HETATM   13  O3  UNL     1     -30.544 -11.246  -4.887  1.00  0.00    -0.617 OA
HETATM   14  O4  UNL     1     -31.065  -8.654  -3.987  1.00  0.00    -0.617 OA
ENDBRANCH  10  11
ENDBRANCH   9  10
ENDBRANCH   6   9
BRANCH   7  15
HETATM   15  C7  UNL     1     -29.422  -5.665  -4.957  1.00  0.00     0.273 C 
HETATM   16  O5  UNL     1     -28.878  -5.663  -3.832  1.00  0.00    -0.301 OA
ENDBRANCH   7  15
BRANCH   8  17
HETATM   17  O6  UNL     1     -28.575  -3.543  -6.682  1.00  0.00    -0.358 OA
ATOM     18  H6  UNL     1     -27.983  -2.846  -6.939  1.00  0.00     0.217 HD
ENDBRANCH   8  17
TORSDOF 5
ENDMDL
