MODEL 2
REMARK VINA RESULT: -7.967559997      0.104      1.147
REMARK  5 active torsions:
REMARK  status: ('A' for Active; 'I' for Inactive)
REMARK    1  A    between atoms: C4_6  and  C5_7 
REMARK    2  A    between atoms: C5_7  and  O1_8 
REMARK    3  A    between atoms: O1_8  and  P1_9 
REMARK    4  A    between atoms: C6_13  and  C7_14 
REMARK    5  A    between atoms: C8_16  and  O6_17 
ROOT
HETATM    1  C1  UNL     1     -27.404  -4.168  -7.830  1.00  0.00     0.071 C 
HETATM    2  C2  UNL     1     -27.831  -5.531  -7.371  1.00  0.00     0.039 A 
HETATM    3  N1  UNL     1     -27.421  -6.563  -8.126  1.00  0.00    -0.367 N 
ATOM      4  H1  UNL     1     -26.853  -6.386  -8.955  1.00  0.00     0.165 HD
HETATM    5  C3  UNL     1     -27.746  -7.820  -7.805  1.00  0.00     0.098 A 
HETATM    6  C4  UNL     1     -28.522  -8.027  -6.669  1.00  0.00    -0.003 A 
HETATM    7  C6  UNL     1     -28.965  -6.980  -5.867  1.00  0.00     0.046 A 
HETATM    8  C8  UNL     1     -28.599  -5.686  -6.242  1.00  0.00     0.101 A 
ENDROOT
BRANCH   6   9
HETATM    9  C5  UNL     1     -28.902  -9.416  -6.273  1.00  0.00     0.223 C 
BRANCH   9  10
HETATM   10  O1  UNL     1     -30.010  -9.791  -7.034  1.00  0.00    -0.278 OA
BRANCH  10  11
HETATM   11  P1  UNL     1     -31.064 -10.769  -6.187  1.00  0.00     0.422 P 
HETATM   12  O2  UNL     1     -32.349 -10.003  -5.972  1.00  0.00    -0.617 OA
HETATM   13  O3  UNL     1     -31.447 -12.190  -6.999  1.00  0.00    -0.617 OA
HETATM   14  O4  UNL     1     -30.411 -11.086  -4.652  1.00  0.00    -0.617 OA
ENDBRANCH  10  11
ENDBRANCH   9  10
ENDBRANCH   6   9
BRANCH   7  15
HETATM   15  C7  UNL     1     -29.779  -7.222  -4.686  1.00  0.00     0.273 C 
HETATM   16  O5  UNL     1     -29.381  -7.028  -3.517  1.00  0.00    -0.301 OA
ENDBRANCH   7  15
BRANCH   8  17
HETATM   17  O6  UNL     1     -28.987  -4.599  -5.516  1.00  0.00    -0.358 OA
ATOM     18  H6  UNL     1     -28.757  -4.527  -4.598  1.00  0.00     0.217 HD
ENDBRANCH   8  17
TORSDOF 5
ENDMDL
