MODEL 8
REMARK VINA RESULT: -7.243641276      3.009      5.836
REMARK  5 active torsions:
REMARK  status: ('A' for Active; 'I' for Inactive)
REMARK    1  A    between atoms: C4_6  and  C5_7 
REMARK    2  A    between atoms: C5_7  and  O1_8 
REMARK    3  A    between atoms: O1_8  and  P1_9 
REMARK    4  A    between atoms: C6_13  and  C7_14 
REMARK    5  A    between atoms: C8_16  and  O6_17 
ROOT
HETATM    1  C1  UNL     1     -31.385 -10.790  -5.425  1.00  0.00     0.071 C 
HETATM    2  C2  UNL     1     -30.631  -9.492  -5.436  1.00  0.00     0.039 A 
HETATM    3  N1  UNL     1     -31.040  -8.565  -4.555  1.00  0.00    -0.367 N 
ATOM      4  H1  UNL     1     -31.822  -8.772  -3.933  1.00  0.00     0.165 HD
HETATM    5  C3  UNL     1     -30.437  -7.374  -4.482  1.00  0.00     0.098 A 
HETATM    6  C4  UNL     1     -29.374  -7.124  -5.346  1.00  0.00    -0.003 A 
HETATM    7  C6  UNL     1     -28.927  -8.062  -6.270  1.00  0.00     0.046 A 
HETATM    8  C8  UNL     1     -29.589  -9.290  -6.307  1.00  0.00     0.101 A 
ENDROOT
BRANCH   6   9
HETATM    9  C5  UNL     1     -28.669  -5.809  -5.292  1.00  0.00     0.223 C 
BRANCH   9  10
HETATM   10  O1  UNL     1     -29.290  -4.951  -6.201  1.00  0.00    -0.278 OA
BRANCH  10  11
HETATM   11  P1  UNL     1     -28.193  -4.099  -7.125  1.00  0.00     0.422 P 
HETATM   12  O2  UNL     1     -28.241  -2.649  -6.698  1.00  0.00    -0.617 OA
HETATM   13  O3  UNL     1     -26.611  -4.634  -6.937  1.00  0.00    -0.617 OA
HETATM   14  O4  UNL     1     -28.680  -4.154  -8.751  1.00  0.00    -0.617 OA
ENDBRANCH  10  11
ENDBRANCH   9  10
ENDBRANCH   6   9
BRANCH   7  15
HETATM   15  C7  UNL     1     -27.817  -7.775  -7.165  1.00  0.00     0.273 C 
HETATM   16  O5  UNL     1     -27.930  -7.693  -8.407  1.00  0.00    -0.301 OA
ENDBRANCH   7  15
BRANCH   8  17
HETATM   17  O6  UNL     1     -29.219 -10.270  -7.181  1.00  0.00    -0.358 OA
ATOM     18  H6  UNL     1     -29.654 -11.114  -7.169  1.00  0.00     0.217 HD
ENDBRANCH   8  17
TORSDOF 5
ENDMDL
