MODEL 1
REMARK VINA RESULT: -8.141418606      0.000      0.000
REMARK  5 active torsions:
REMARK  status: ('A' for Active; 'I' for Inactive)
REMARK    1  A    between atoms: C4_6  and  C5_7 
REMARK    2  A    between atoms: C5_7  and  O1_8 
REMARK    3  A    between atoms: O1_8  and  P1_9 
REMARK    4  A    between atoms: C6_13  and  C7_14 
REMARK    5  A    between atoms: C8_16  and  O6_17 
ROOT
HETATM    1  C1  UNL     1     -27.426  -4.194  -7.854  1.00  0.00     0.071 C 
HETATM    2  C2  UNL     1     -27.849  -5.557  -7.391  1.00  0.00     0.039 A 
HETATM    3  N1  UNL     1     -27.450  -6.589  -8.151  1.00  0.00    -0.367 N 
ATOM      4  H1  UNL     1     -26.892  -6.413  -8.987  1.00  0.00     0.165 HD
HETATM    5  C3  UNL     1     -27.773  -7.846  -7.827  1.00  0.00     0.098 A 
HETATM    6  C4  UNL     1     -28.536  -8.052  -6.681  1.00  0.00    -0.003 A 
HETATM    7  C6  UNL     1     -28.967  -7.005  -5.874  1.00  0.00     0.046 A 
HETATM    8  C8  UNL     1     -28.603  -5.712  -6.253  1.00  0.00     0.101 A 
ENDROOT
BRANCH   6   9
HETATM    9  C5  UNL     1     -28.912  -9.440  -6.281  1.00  0.00     0.223 C 
BRANCH   9  10
HETATM   10  O1  UNL     1     -30.055  -9.799  -6.999  1.00  0.00    -0.278 OA
BRANCH  10  11
HETATM   11  P1  UNL     1     -31.072 -10.791  -6.125  1.00  0.00     0.422 P 
HETATM   12  O2  UNL     1     -30.398 -11.120  -4.812  1.00  0.00    -0.617 OA
HETATM   13  O3  UNL     1     -32.553 -10.079  -5.774  1.00  0.00    -0.617 OA
HETATM   14  O4  UNL     1     -31.268 -12.255  -6.963  1.00  0.00    -0.617 OA
ENDBRANCH  10  11
ENDBRANCH   9  10
ENDBRANCH   6   9
BRANCH   7  15
HETATM   15  C7  UNL     1     -29.767  -7.246  -4.683  1.00  0.00     0.273 C 
HETATM   16  O5  UNL     1     -29.356  -7.049  -3.519  1.00  0.00    -0.301 OA
ENDBRANCH   7  15
BRANCH   8  17
HETATM   17  O6  UNL     1     -28.981  -4.624  -5.522  1.00  0.00    -0.358 OA
ATOM     18  H6  UNL     1     -28.830  -4.599  -4.584  1.00  0.00     0.217 HD
ENDBRANCH   8  17
TORSDOF 5
ENDMDL
