MODEL 3
REMARK VINA RESULT: -7.854220832      0.110      1.131
REMARK  5 active torsions:
REMARK  status: ('A' for Active; 'I' for Inactive)
REMARK    1  A    between atoms: C4_6  and  C5_7 
REMARK    2  A    between atoms: C5_7  and  O1_8 
REMARK    3  A    between atoms: O1_8  and  P1_9 
REMARK    4  A    between atoms: C6_13  and  C7_14 
REMARK    5  A    between atoms: C8_16  and  O6_17 
ROOT
HETATM    1  C1  UNL     1     -27.415  -4.152  -7.876  1.00  0.00     0.071 C 
HETATM    2  C2  UNL     1     -27.838  -5.516  -7.414  1.00  0.00     0.039 A 
HETATM    3  N1  UNL     1     -27.430  -6.548  -8.170  1.00  0.00    -0.367 N 
ATOM      4  H1  UNL     1     -26.867  -6.371  -9.002  1.00  0.00     0.165 HD
HETATM    5  C3  UNL     1     -27.752  -7.805  -7.846  1.00  0.00     0.098 A 
HETATM    6  C4  UNL     1     -28.522  -8.011  -6.706  1.00  0.00    -0.003 A 
HETATM    7  C6  UNL     1     -28.961  -6.965  -5.902  1.00  0.00     0.046 A 
HETATM    8  C8  UNL     1     -28.599  -5.671  -6.281  1.00  0.00     0.101 A 
ENDROOT
BRANCH   6   9
HETATM    9  C5  UNL     1     -28.898  -9.400  -6.307  1.00  0.00     0.223 C 
BRANCH   9  10
HETATM   10  O1  UNL     1     -30.037  -9.762  -7.028  1.00  0.00    -0.278 OA
BRANCH  10  11
HETATM   11  P1  UNL     1     -31.054 -10.758  -6.159  1.00  0.00     0.422 P 
HETATM   12  O2  UNL     1     -31.233 -12.043  -6.935  1.00  0.00    -0.617 OA
HETATM   13  O3  UNL     1     -30.451 -11.159  -4.642  1.00  0.00    -0.617 OA
HETATM   14  O4  UNL     1     -32.582 -10.026  -6.048  1.00  0.00    -0.617 OA
ENDBRANCH  10  11
ENDBRANCH   9  10
ENDBRANCH   6   9
BRANCH   7  15
HETATM   15  C7  UNL     1     -29.769  -7.207  -4.716  1.00  0.00     0.273 C 
HETATM   16  O5  UNL     1     -29.365  -7.010  -3.550  1.00  0.00    -0.301 OA
ENDBRANCH   7  15
BRANCH   8  17
HETATM   17  O6  UNL     1     -28.984  -4.584  -5.553  1.00  0.00    -0.358 OA
ATOM     18  H6  UNL     1     -29.498  -4.692  -4.761  1.00  0.00     0.217 HD
ENDBRANCH   8  17
TORSDOF 5
ENDMDL
