MODEL 3
REMARK VINA RESULT: -7.365462085      2.828      6.056
REMARK  6 active torsions:
REMARK  status: ('A' for Active; 'I' for Inactive)
REMARK    1  A    between atoms: C2_2  and  O1_3 
REMARK    2  A    between atoms: O1_3  and  C3_4 
REMARK    3  A    between atoms: C3_4  and  C4_5 
REMARK    4  A    between atoms: N4_20  and  C14_21 
REMARK    5  A    between atoms: C14_21  and  C15_22 
REMARK    6  A    between atoms: C15_22  and  O2_25 
ROOT
HETATM    1  C4  UNL     1     -13.652 -32.049 -11.076  1.00  0.00     0.108 A 
HETATM    2  N1  UNL     1     -13.645 -31.686  -9.788  1.00  0.00    -0.339 N 
ATOM      3  H1  UNL     1     -13.143 -32.178  -9.049  1.00  0.00     0.167 HD
HETATM    4  C5  UNL     1     -14.387 -30.585  -9.604  1.00  0.00     0.103 A 
HETATM    5  C6  UNL     1     -14.703 -29.813  -8.508  1.00  0.00     0.146 A 
HETATM    6  N2  UNL     1     -14.205 -30.147  -7.230  1.00  0.00    -0.080 NA
HETATM    7  N3  UNL     1     -15.484 -28.738  -8.636  1.00  0.00    -0.342 N 
ATOM      8  H3  UNL     1     -15.710 -28.174  -7.817  1.00  0.00     0.167 HD
HETATM    9  C7  UNL     1     -15.971 -28.396  -9.839  1.00  0.00     0.046 A 
HETATM   10  C8  UNL     1     -16.769 -27.277  -9.948  1.00  0.00     0.030 A 
HETATM   11  C9  UNL     1     -17.262 -26.921 -11.180  1.00  0.00     0.002 A 
HETATM   12  C10 UNL     1     -16.976 -27.660 -12.306  1.00  0.00     0.001 A 
HETATM   13  C11 UNL     1     -16.166 -28.800 -12.198  1.00  0.00     0.016 A 
HETATM   14  C12 UNL     1     -15.686 -29.137 -10.974  1.00  0.00     0.020 A 
HETATM   15  C13 UNL     1     -14.873 -30.267 -10.868  1.00  0.00     0.079 A 
HETATM   16  N4  UNL     1     -14.427 -31.163 -11.784  1.00  0.00    -0.329 N 
ENDROOT
BRANCH  16  17
HETATM   17  C14 UNL     1     -14.636 -31.314 -13.178  1.00  0.00     0.167 C 
BRANCH  17  18
HETATM   18  C15 UNL     1     -13.660 -30.708 -14.112  1.00  0.00     0.067 C 
HETATM   19  C16 UNL     1     -13.233 -29.306 -13.723  1.00  0.00     0.047 C 
HETATM   20  C17 UNL     1     -12.409 -31.435 -14.432  1.00  0.00     0.047 C 
BRANCH  18  21
HETATM   21  O2  UNL     1     -14.347 -30.544 -15.346  1.00  0.00    -0.389 OA
ATOM     22  H2  UNL     1     -15.238 -30.835 -15.191  1.00  0.00     0.210 HD
ENDBRANCH  18  21
ENDBRANCH  17  18
ENDBRANCH  16  17
BRANCH   1  23
HETATM   23  C3  UNL     1     -12.887 -33.242 -11.558  1.00  0.00     0.244 C 
BRANCH  23  24
HETATM   24  O1  UNL     1     -13.726 -34.388 -11.462  1.00  0.00    -0.384 OA
BRANCH  24  25
HETATM   25  C2  UNL     1     -13.111 -35.508 -11.936  1.00  0.00     0.163 C 
HETATM   26  C1  UNL     1     -12.133 -35.080 -13.012  1.00  0.00     0.033 C 
ENDBRANCH  24  25
ENDBRANCH  23  24
ENDBRANCH   1  23
TORSDOF 6
ENDMDL
