MODEL 7
REMARK VINA RESULT: -6.909579125      3.166      4.979
REMARK  6 active torsions:
REMARK  status: ('A' for Active; 'I' for Inactive)
REMARK    1  A    between atoms: C2_2  and  O1_3 
REMARK    2  A    between atoms: O1_3  and  C3_4 
REMARK    3  A    between atoms: C3_4  and  C4_5 
REMARK    4  A    between atoms: N4_20  and  C14_21 
REMARK    5  A    between atoms: C14_21  and  C15_22 
REMARK    6  A    between atoms: C15_22  and  O2_25 
ROOT
HETATM    1  C4  UNL     1     -15.714 -31.888 -11.679  1.00  0.00     0.108 A 
HETATM    2  N1  UNL     1     -15.315 -33.108 -11.299  1.00  0.00    -0.339 N 
ATOM      3  H1  UNL     1     -15.824 -33.709 -10.652  1.00  0.00     0.167 HD
HETATM    4  C5  UNL     1     -14.154 -33.428 -11.887  1.00  0.00     0.103 A 
HETATM    5  C6  UNL     1     -13.332 -34.533 -11.849  1.00  0.00     0.146 A 
HETATM    6  N2  UNL     1     -13.666 -35.646 -11.046  1.00  0.00    -0.080 NA
HETATM    7  N3  UNL     1     -12.209 -34.570 -12.569  1.00  0.00    -0.342 N 
ATOM      8  H3  UNL     1     -11.609 -35.394 -12.532  1.00  0.00     0.167 HD
HETATM    9  C7  UNL     1     -11.867 -33.528 -13.341  1.00  0.00     0.046 A 
HETATM   10  C8  UNL     1     -10.706 -33.592 -14.083  1.00  0.00     0.030 A 
HETATM   11  C9  UNL     1     -10.358 -32.528 -14.880  1.00  0.00     0.002 A 
HETATM   12  C10 UNL     1     -11.145 -31.401 -14.953  1.00  0.00     0.001 A 
HETATM   13  C11 UNL     1     -12.326 -31.333 -14.199  1.00  0.00     0.016 A 
HETATM   14  C12 UNL     1     -12.655 -32.391 -13.417  1.00  0.00     0.020 A 
HETATM   15  C13 UNL     1     -13.835 -32.326 -12.673  1.00  0.00     0.079 A 
HETATM   16  N4  UNL     1     -14.790 -31.369 -12.552  1.00  0.00    -0.329 N 
ENDROOT
BRANCH  16  17
HETATM   17  C14 UNL     1     -14.941 -30.071 -13.104  1.00  0.00     0.167 C 
BRANCH  17  18
HETATM   18  C15 UNL     1     -14.464 -28.907 -12.322  1.00  0.00     0.067 C 
HETATM   19  C16 UNL     1     -13.294 -28.183 -12.959  1.00  0.00     0.047 C 
HETATM   20  C17 UNL     1     -15.427 -27.850 -11.931  1.00  0.00     0.047 C 
BRANCH  18  21
HETATM   21  O2  UNL     1     -13.944 -29.435 -11.110  1.00  0.00    -0.389 OA
ATOM     22  H2  UNL     1     -14.206 -28.830 -10.427  1.00  0.00     0.210 HD
ENDBRANCH  18  21
ENDBRANCH  17  18
ENDBRANCH  16  17
BRANCH   1  23
HETATM   23  C3  UNL     1     -16.992 -31.291 -11.180  1.00  0.00     0.244 C 
BRANCH  23  24
HETATM   24  O1  UNL     1     -17.081 -31.517  -9.777  1.00  0.00    -0.384 OA
BRANCH  24  25
HETATM   25  C2  UNL     1     -16.444 -30.546  -9.064  1.00  0.00     0.163 C 
HETATM   26  C1  UNL     1     -17.058 -30.509  -7.679  1.00  0.00     0.033 C 
ENDBRANCH  24  25
ENDBRANCH  23  24
ENDBRANCH   1  23
TORSDOF 6
ENDMDL
