MODEL 1
REMARK VINA RESULT: -8.637376747      0.000      0.000
REMARK  6 active torsions:
REMARK  status: ('A' for Active; 'I' for Inactive)
REMARK    1  A    between atoms: C2_2  and  O1_3 
REMARK    2  A    between atoms: O1_3  and  C3_4 
REMARK    3  A    between atoms: C3_4  and  C4_5 
REMARK    4  A    between atoms: N4_20  and  C14_21 
REMARK    5  A    between atoms: C14_21  and  C15_22 
REMARK    6  A    between atoms: C15_22  and  O2_25 
ROOT
HETATM    1  C4  UNL     1     -15.346 -27.851 -10.968  1.00  0.00     0.108 A 
HETATM    2  N1  UNL     1     -14.291 -27.027 -10.982  1.00  0.00    -0.339 N 
ATOM      3  H1  UNL     1     -14.164 -26.237 -10.349  1.00  0.00     0.167 HD
HETATM    4  C5  UNL     1     -13.427 -27.383 -11.942  1.00  0.00     0.103 A 
HETATM    5  C6  UNL     1     -12.214 -26.892 -12.371  1.00  0.00     0.146 A 
HETATM    6  N2  UNL     1     -11.640 -25.760 -11.751  1.00  0.00    -0.080 NA
HETATM    7  N3  UNL     1     -11.560 -27.478 -13.377  1.00  0.00    -0.342 N 
ATOM      8  H3  UNL     1     -10.663 -27.105 -13.685  1.00  0.00     0.167 HD
HETATM    9  C7  UNL     1     -12.081 -28.556 -13.984  1.00  0.00     0.046 A 
HETATM   10  C8  UNL     1     -11.384 -29.148 -15.016  1.00  0.00     0.030 A 
HETATM   11  C9  UNL     1     -11.912 -30.256 -15.633  1.00  0.00     0.002 A 
HETATM   12  C10 UNL     1     -13.121 -30.785 -15.242  1.00  0.00     0.001 A 
HETATM   13  C11 UNL     1     -13.832 -30.184 -14.193  1.00  0.00     0.016 A 
HETATM   14  C12 UNL     1     -13.298 -29.091 -13.594  1.00  0.00     0.020 A 
HETATM   15  C13 UNL     1     -14.002 -28.497 -12.545  1.00  0.00     0.079 A 
HETATM   16  N4  UNL     1     -15.186 -28.794 -11.953  1.00  0.00    -0.329 N 
ENDROOT
BRANCH  16  17
HETATM   17  C14 UNL     1     -16.167 -29.791 -12.188  1.00  0.00     0.167 C 
BRANCH  17  18
HETATM   18  C15 UNL     1     -16.071 -31.071 -11.449  1.00  0.00     0.067 C 
HETATM   19  C16 UNL     1     -14.744 -31.268 -10.741  1.00  0.00     0.047 C 
HETATM   20  C17 UNL     1     -17.112 -31.416 -10.453  1.00  0.00     0.047 C 
BRANCH  18  21
HETATM   21  O2  UNL     1     -16.110 -32.096 -12.432  1.00  0.00    -0.389 OA
ATOM     22  H2  UNL     1     -15.208 -32.360 -12.571  1.00  0.00     0.210 HD
ENDBRANCH  18  21
ENDBRANCH  17  18
ENDBRANCH  16  17
BRANCH   1  23
HETATM   23  C3  UNL     1     -16.457 -27.685  -9.980  1.00  0.00     0.244 C 
BRANCH  23  24
HETATM   24  O1  UNL     1     -17.170 -26.494 -10.293  1.00  0.00    -0.384 OA
BRANCH  24  25
HETATM   25  C2  UNL     1     -17.692 -26.530 -11.552  1.00  0.00     0.163 C 
HETATM   26  C1  UNL     1     -18.458 -25.242 -11.773  1.00  0.00     0.033 C 
ENDBRANCH  24  25
ENDBRANCH  23  24
ENDBRANCH   1  23
TORSDOF 6
ENDMDL
