MODEL 5
REMARK VINA RESULT: -7.071955394      3.009      6.132
REMARK  6 active torsions:
REMARK  status: ('A' for Active; 'I' for Inactive)
REMARK    1  A    between atoms: C2_2  and  O1_3 
REMARK    2  A    between atoms: O1_3  and  C3_4 
REMARK    3  A    between atoms: C3_4  and  C4_5 
REMARK    4  A    between atoms: N4_20  and  C14_21 
REMARK    5  A    between atoms: C14_21  and  C15_22 
REMARK    6  A    between atoms: C15_22  and  O2_25 
ROOT
HETATM    1  C4  UNL     1     -14.099 -32.142 -10.322  1.00  0.00     0.108 A 
HETATM    2  N1  UNL     1     -14.975 -31.973  -9.324  1.00  0.00    -0.339 N 
ATOM      3  H1  UNL     1     -15.246 -32.699  -8.661  1.00  0.00     0.167 HD
HETATM    4  C5  UNL     1     -15.445 -30.717  -9.317  1.00  0.00     0.103 A 
HETATM    5  C6  UNL     1     -16.338 -30.032  -8.523  1.00  0.00     0.146 A 
HETATM    6  N2  UNL     1     -16.979 -30.679  -7.443  1.00  0.00    -0.080 NA
HETATM    7  N3  UNL     1     -16.611 -28.747  -8.760  1.00  0.00    -0.342 N 
ATOM      8  H3  UNL     1     -17.274 -28.251  -8.165  1.00  0.00     0.167 HD
HETATM    9  C7  UNL     1     -16.016 -28.107  -9.778  1.00  0.00     0.046 A 
HETATM   10  C8  UNL     1     -16.308 -26.777  -9.998  1.00  0.00     0.030 A 
HETATM   11  C9  UNL     1     -15.695 -26.118 -11.036  1.00  0.00     0.002 A 
HETATM   12  C10 UNL     1     -14.795 -26.758 -11.858  1.00  0.00     0.001 A 
HETATM   13  C11 UNL     1     -14.496 -28.110 -11.636  1.00  0.00     0.016 A 
HETATM   14  C12 UNL     1     -15.111 -28.747 -10.608  1.00  0.00     0.020 A 
HETATM   15  C13 UNL     1     -14.809 -30.091 -10.383  1.00  0.00     0.079 A 
HETATM   16  N4  UNL     1     -13.976 -30.960 -11.011  1.00  0.00    -0.329 N 
ENDROOT
BRANCH  16  17
HETATM   17  C14 UNL     1     -13.128 -30.848 -12.142  1.00  0.00     0.167 C 
BRANCH  17  18
HETATM   18  C15 UNL     1     -13.660 -31.231 -13.470  1.00  0.00     0.067 C 
HETATM   19  C16 UNL     1     -15.146 -31.536 -13.467  1.00  0.00     0.047 C 
HETATM   20  C17 UNL     1     -13.436 -30.336 -14.630  1.00  0.00     0.047 C 
BRANCH  18  21
HETATM   21  O2  UNL     1     -13.041 -32.467 -13.800  1.00  0.00    -0.389 OA
ATOM     22  H2  UNL     1     -12.868 -32.433 -14.733  1.00  0.00     0.210 HD
ENDBRANCH  18  21
ENDBRANCH  17  18
ENDBRANCH  16  17
BRANCH   1  23
HETATM   23  C3  UNL     1     -13.412 -33.451 -10.548  1.00  0.00     0.244 C 
BRANCH  23  24
HETATM   24  O1  UNL     1     -14.187 -34.220 -11.461  1.00  0.00    -0.384 OA
BRANCH  24  25
HETATM   25  C2  UNL     1     -13.812 -35.530 -11.468  1.00  0.00     0.163 C 
HETATM   26  C1  UNL     1     -12.632 -35.669 -12.409  1.00  0.00     0.033 C 
ENDBRANCH  24  25
ENDBRANCH  23  24
ENDBRANCH   1  23
TORSDOF 6
ENDMDL
