MODEL 10
REMARK VINA RESULT: -7.718149075      2.559      3.823
REMARK  4 active torsions:
REMARK  status: ('A' for Active; 'I' for Inactive)
REMARK    1  A    between atoms: C4_5  and  C5_6 
REMARK    2  A    between atoms: C8_9  and  S1_10 
REMARK    3  A    between atoms: S1_10  and  N1_11 
REMARK    4  A    between atoms: C11_18  and  C12_19 
ROOT
HETATM    1  C1  UNL     1       6.579  -0.876  16.307  1.00  0.00     0.055 C 
HETATM    2  C2  UNL     1       7.293   0.275  15.652  1.00  0.00     0.125 C 
HETATM    3  C3  UNL     1       6.427   1.508  15.557  1.00  0.00     0.055 C 
HETATM    4  O1  UNL     1       7.779  -0.012  14.380  1.00  0.00    -0.331 OA
HETATM    5  C4  UNL     1       8.966   0.675  14.195  1.00  0.00     0.095 C 
HETATM    6  C11 UNL     1       9.461   1.088  15.343  1.00  0.00     0.058 C 
HETATM    7  C18 UNL     1       8.527   0.650  16.392  1.00  0.00     0.197 C 
HETATM    8  O4  UNL     1       8.725   0.605  17.624  1.00  0.00    -0.289 OA
ENDROOT
BRANCH   5   9
HETATM    9  C5  UNL     1       9.601   0.921  12.877  1.00  0.00    -0.002 A 
HETATM   10  C6  UNL     1       8.814   1.232  11.788  1.00  0.00     0.016 A 
HETATM   11  C7  UNL     1       9.313   1.486  10.543  1.00  0.00     0.026 A 
HETATM   12  C8  UNL     1      10.691   1.428  10.360  1.00  0.00     0.079 A 
HETATM   13  C9  UNL     1      11.489   1.118  11.441  1.00  0.00     0.026 A 
HETATM   14  C10 UNL     1      10.964   0.861  12.710  1.00  0.00     0.016 A 
BRANCH  12  15
HETATM   15  S1  UNL     1      11.345   1.754   8.764  1.00  0.00     0.256 S 
HETATM   16  O2  UNL     1      12.695   1.068   8.691  1.00  0.00    -0.201 OA
HETATM   17  O3  UNL     1      10.396   1.121   7.760  1.00  0.00    -0.201 OA
BRANCH  15  18
HETATM   18  N1  UNL     1      11.521   3.439   8.469  1.00  0.00    -0.324 N 
ATOM     19  H12 UNL     1      12.279   3.829   7.909  1.00  0.00     0.169 HD
ATOM     20  H11 UNL     1      10.787   3.987   8.918  1.00  0.00     0.169 HD
ENDBRANCH  15  18
ENDBRANCH  12  15
ENDBRANCH   5   9
BRANCH   6  21
HETATM   21  C12 UNL     1      10.670   1.838  15.670  1.00  0.00    -0.017 A 
HETATM   22  C13 UNL     1      11.852   1.178  16.022  1.00  0.00     0.012 A 
HETATM   23  C14 UNL     1      13.018   1.815  16.322  1.00  0.00     0.004 A 
HETATM   24  C15 UNL     1      13.029   3.180  16.275  1.00  0.00     0.042 A 
HETATM   25  C16 UNL     1      11.893   3.882  15.935  1.00  0.00     0.117 A 
HETATM   26  F1  UNL     1      11.956   5.259  15.901  1.00  0.00    -0.206 F 
HETATM   27  C17 UNL     1      10.730   3.214  15.636  1.00  0.00     0.054 A 
ENDBRANCH   6  21
TORSDOF 4
ENDMDL
