MODEL 7
REMARK VINA RESULT: -7.776212814      3.912      5.973
REMARK  4 active torsions:
REMARK  status: ('A' for Active; 'I' for Inactive)
REMARK    1  A    between atoms: C4_5  and  C5_6 
REMARK    2  A    between atoms: C8_9  and  S1_10 
REMARK    3  A    between atoms: S1_10  and  N1_11 
REMARK    4  A    between atoms: C11_18  and  C12_19 
ROOT
HETATM    1  C1  UNL     1      11.141   2.966   8.749  1.00  0.00     0.055 C 
HETATM    2  C2  UNL     1      11.131   2.006   9.908  1.00  0.00     0.125 C 
HETATM    3  C3  UNL     1      11.847   0.716   9.590  1.00  0.00     0.055 C 
HETATM    4  O1  UNL     1       9.857   1.691  10.370  1.00  0.00    -0.331 OA
HETATM    5  C4  UNL     1       9.915   1.512  11.741  1.00  0.00     0.095 C 
HETATM    6  C11 UNL     1      11.019   2.025  12.241  1.00  0.00     0.058 C 
HETATM    7  C18 UNL     1      11.775   2.591  11.113  1.00  0.00     0.197 C 
HETATM    8  O4  UNL     1      12.740   3.383  11.158  1.00  0.00    -0.289 OA
ENDROOT
BRANCH   5   9
HETATM    9  C5  UNL     1       8.873   0.829  12.546  1.00  0.00    -0.002 A 
HETATM   10  C6  UNL     1       7.842   1.564  13.093  1.00  0.00     0.016 A 
HETATM   11  C7  UNL     1       6.836   1.018  13.836  1.00  0.00     0.026 A 
HETATM   12  C8  UNL     1       6.848  -0.356  14.054  1.00  0.00     0.079 A 
HETATM   13  C9  UNL     1       7.873  -1.103  13.512  1.00  0.00     0.026 A 
HETATM   14  C10 UNL     1       8.897  -0.529  12.754  1.00  0.00     0.016 A 
BRANCH  12  15
HETATM   15  S1  UNL     1       5.558  -1.072  15.005  1.00  0.00     0.256 S 
HETATM   16  O2  UNL     1       5.772  -2.573  14.983  1.00  0.00    -0.201 OA
HETATM   17  O3  UNL     1       5.717  -0.554  16.426  1.00  0.00    -0.201 OA
BRANCH  15  18
HETATM   18  N1  UNL     1       4.003  -0.688  14.379  1.00  0.00    -0.324 N 
ATOM     19  H12 UNL     1       3.258  -1.377  14.278  1.00  0.00     0.169 HD
ATOM     20  H11 UNL     1       3.923   0.297  14.127  1.00  0.00     0.169 HD
ENDBRANCH  15  18
ENDBRANCH  12  15
ENDBRANCH   5   9
BRANCH   6  21
HETATM   21  C12 UNL     1      11.531   2.092  13.606  1.00  0.00    -0.017 A 
HETATM   22  C13 UNL     1      12.136   0.982  14.203  1.00  0.00     0.012 A 
HETATM   23  C14 UNL     1      12.649   0.981  15.465  1.00  0.00     0.004 A 
HETATM   24  C15 UNL     1      12.565   2.137  16.188  1.00  0.00     0.042 A 
HETATM   25  C16 UNL     1      11.978   3.263  15.650  1.00  0.00     0.117 A 
HETATM   26  F1  UNL     1      11.919   4.405  16.419  1.00  0.00    -0.206 F 
HETATM   27  C17 UNL     1      11.470   3.236  14.374  1.00  0.00     0.054 A 
ENDBRANCH   6  21
TORSDOF 4
ENDMDL
