MODEL 8
REMARK VINA RESULT: -7.759771961      2.671      3.853
REMARK  4 active torsions:
REMARK  status: ('A' for Active; 'I' for Inactive)
REMARK    1  A    between atoms: C4_5  and  C5_6 
REMARK    2  A    between atoms: C8_9  and  S1_10 
REMARK    3  A    between atoms: S1_10  and  N1_11 
REMARK    4  A    between atoms: C11_18  and  C12_19 
ROOT
HETATM    1  C1  UNL     1       6.419   0.067  16.683  1.00  0.00     0.055 C 
HETATM    2  C2  UNL     1       7.189   1.109  15.919  1.00  0.00     0.125 C 
HETATM    3  C3  UNL     1       6.388   2.371  15.702  1.00  0.00     0.055 C 
HETATM    4  O1  UNL     1       7.655   0.674  14.682  1.00  0.00    -0.331 OA
HETATM    5  C4  UNL     1       8.875   1.277  14.432  1.00  0.00     0.095 C 
HETATM    6  C11 UNL     1       9.395   1.774  15.534  1.00  0.00     0.058 C 
HETATM    7  C18 UNL     1       8.444   1.490  16.620  1.00  0.00     0.197 C 
HETATM    8  O4  UNL     1       8.644   1.556  17.851  1.00  0.00    -0.289 OA
ENDROOT
BRANCH   5   9
HETATM    9  C5  UNL     1       9.516   1.359  13.096  1.00  0.00    -0.002 A 
HETATM   10  C6  UNL     1       8.731   1.402  11.963  1.00  0.00     0.016 A 
HETATM   11  C7  UNL     1       9.234   1.490  10.698  1.00  0.00     0.026 A 
HETATM   12  C8  UNL     1      10.616   1.539  10.540  1.00  0.00     0.079 A 
HETATM   13  C9  UNL     1      11.412   1.498  11.664  1.00  0.00     0.026 A 
HETATM   14  C10 UNL     1      10.882   1.407  12.954  1.00  0.00     0.016 A 
BRANCH  12  15
HETATM   15  S1  UNL     1      11.276   1.655   8.917  1.00  0.00     0.256 S 
HETATM   16  O2  UNL     1      12.610   0.934   8.930  1.00  0.00    -0.201 OA
HETATM   17  O3  UNL     1      10.311   0.927   7.995  1.00  0.00    -0.201 OA
BRANCH  15  18
HETATM   18  N1  UNL     1      11.491   3.287   8.421  1.00  0.00    -0.324 N 
ATOM     19  H12 UNL     1      10.712   3.913   8.215  1.00  0.00     0.169 HD
ATOM     20  H11 UNL     1      12.476   3.544   8.360  1.00  0.00     0.169 HD
ENDBRANCH  15  18
ENDBRANCH  12  15
ENDBRANCH   5   9
BRANCH   6  21
HETATM   21  C12 UNL     1      10.643   2.488  15.787  1.00  0.00    -0.017 A 
HETATM   22  C13 UNL     1      10.726   3.873  15.616  1.00  0.00     0.012 A 
HETATM   23  C14 UNL     1      11.853   4.602  15.850  1.00  0.00     0.004 A 
HETATM   24  C15 UNL     1      12.966   3.935  16.278  1.00  0.00     0.042 A 
HETATM   25  C16 UNL     1      12.941   2.570  16.463  1.00  0.00     0.117 A 
HETATM   26  F1  UNL     1      14.091   1.944  16.896  1.00  0.00    -0.206 F 
HETATM   27  C17 UNL     1      11.791   1.859  16.220  1.00  0.00     0.054 A 
ENDBRANCH   6  21
TORSDOF 4
ENDMDL
