MODEL 11
REMARK VINA RESULT: -7.716714736      3.931      6.818
REMARK  4 active torsions:
REMARK  status: ('A' for Active; 'I' for Inactive)
REMARK    1  A    between atoms: C4_5  and  C5_6 
REMARK    2  A    between atoms: C8_9  and  S1_10 
REMARK    3  A    between atoms: S1_10  and  N1_11 
REMARK    4  A    between atoms: C11_18  and  C12_19 
ROOT
HETATM    1  C1  UNL     1       8.020  -3.522  11.215  1.00  0.00     0.055 C 
HETATM    2  C2  UNL     1       8.905  -2.465  11.819  1.00  0.00     0.125 C 
HETATM    3  C3  UNL     1      10.072  -3.057  12.572  1.00  0.00     0.055 C 
HETATM    4  O1  UNL     1       8.240  -1.589  12.671  1.00  0.00    -0.331 OA
HETATM    5  C4  UNL     1       8.813  -0.335  12.551  1.00  0.00     0.095 C 
HETATM    6  C11 UNL     1       9.538  -0.246  11.457  1.00  0.00     0.058 C 
HETATM    7  C18 UNL     1       9.456  -1.551  10.784  1.00  0.00     0.197 C 
HETATM    8  O4  UNL     1       9.778  -1.830   9.609  1.00  0.00    -0.289 OA
ENDROOT
BRANCH   5   9
HETATM    9  C5  UNL     1       8.638   0.768  13.529  1.00  0.00    -0.002 A 
HETATM   10  C6  UNL     1       9.417   0.802  14.666  1.00  0.00     0.016 A 
HETATM   11  C7  UNL     1       9.333   1.784  15.610  1.00  0.00     0.026 A 
HETATM   12  C8  UNL     1       8.411   2.808  15.416  1.00  0.00     0.079 A 
HETATM   13  C9  UNL     1       7.626   2.785  14.283  1.00  0.00     0.026 A 
HETATM   14  C10 UNL     1       7.723   1.773  13.325  1.00  0.00     0.016 A 
BRANCH  12  15
HETATM   15  S1  UNL     1       8.294   4.078  16.623  1.00  0.00     0.256 S 
HETATM   16  O2  UNL     1       7.840   3.422  17.912  1.00  0.00    -0.201 OA
HETATM   17  O3  UNL     1       9.693   4.645  16.804  1.00  0.00    -0.201 OA
BRANCH  15  18
HETATM   18  N1  UNL     1       7.184   5.307  16.162  1.00  0.00    -0.324 N 
ATOM     19  H12 UNL     1       7.318   6.292  16.390  1.00  0.00     0.169 HD
ATOM     20  H11 UNL     1       6.389   4.933  15.643  1.00  0.00     0.169 HD
ENDBRANCH  15  18
ENDBRANCH  12  15
ENDBRANCH   5   9
BRANCH   6  21
HETATM   21  C12 UNL     1      10.324   0.848  10.895  1.00  0.00    -0.017 A 
HETATM   22  C13 UNL     1      11.301   1.497  11.656  1.00  0.00     0.012 A 
HETATM   23  C14 UNL     1      12.080   2.512  11.190  1.00  0.00     0.004 A 
HETATM   24  C15 UNL     1      11.891   2.919   9.898  1.00  0.00     0.042 A 
HETATM   25  C16 UNL     1      10.941   2.315   9.102  1.00  0.00     0.117 A 
HETATM   26  F1  UNL     1      10.790   2.760   7.807  1.00  0.00    -0.206 F 
HETATM   27  C17 UNL     1      10.170   1.292   9.599  1.00  0.00     0.054 A 
ENDBRANCH   6  21
TORSDOF 4
ENDMDL
