MODEL 14
REMARK VINA RESULT: -7.581855276      3.568      6.693
REMARK  4 active torsions:
REMARK  status: ('A' for Active; 'I' for Inactive)
REMARK    1  A    between atoms: C4_5  and  C5_6 
REMARK    2  A    between atoms: C8_9  and  S1_10 
REMARK    3  A    between atoms: S1_10  and  N1_11 
REMARK    4  A    between atoms: C11_18  and  C12_19 
ROOT
HETATM    1  C1  UNL     1      12.210   1.079   8.191  1.00  0.00     0.055 C 
HETATM    2  C2  UNL     1      11.370   1.415   9.393  1.00  0.00     0.125 C 
HETATM    3  C3  UNL     1      10.513   2.638   9.168  1.00  0.00     0.055 C 
HETATM    4  O1  UNL     1      12.103   1.609  10.559  1.00  0.00    -0.331 OA
HETATM    5  C4  UNL     1      11.358   1.150  11.631  1.00  0.00     0.095 C 
HETATM    6  C11 UNL     1      10.379   0.367  11.230  1.00  0.00     0.058 C 
HETATM    7  C18 UNL     1      10.465   0.296   9.763  1.00  0.00     0.197 C 
HETATM    8  O4  UNL     1       9.903  -0.519   9.001  1.00  0.00    -0.289 OA
ENDROOT
BRANCH   5   9
HETATM    9  C5  UNL     1      11.621   1.496  13.050  1.00  0.00    -0.002 A 
HETATM   10  C6  UNL     1      12.210   0.566  13.881  1.00  0.00     0.016 A 
HETATM   11  C7  UNL     1      12.499   0.802  15.194  1.00  0.00     0.026 A 
HETATM   12  C8  UNL     1      12.185   2.050  15.724  1.00  0.00     0.079 A 
HETATM   13  C9  UNL     1      11.597   2.988  14.904  1.00  0.00     0.026 A 
HETATM   14  C10 UNL     1      11.306   2.732  13.561  1.00  0.00     0.016 A 
BRANCH  12  15
HETATM   15  S1  UNL     1      12.555   2.367  17.411  1.00  0.00     0.256 S 
HETATM   16  O2  UNL     1      13.563   1.321  17.846  1.00  0.00    -0.201 OA
HETATM   17  O3  UNL     1      13.192   3.746  17.472  1.00  0.00    -0.201 OA
BRANCH  15  18
HETATM   18  N1  UNL     1      11.156   2.288  18.406  1.00  0.00    -0.324 N 
ATOM     19  H12 UNL     1      10.491   1.516  18.372  1.00  0.00     0.169 HD
ATOM     20  H11 UNL     1      11.077   3.097  19.023  1.00  0.00     0.169 HD
ENDBRANCH  15  18
ENDBRANCH  12  15
ENDBRANCH   5   9
BRANCH   6  21
HETATM   21  C12 UNL     1       9.342  -0.351  11.964  1.00  0.00    -0.017 A 
HETATM   22  C13 UNL     1       9.186  -1.733  11.822  1.00  0.00     0.012 A 
HETATM   23  C14 UNL     1       8.252  -2.466  12.489  1.00  0.00     0.004 A 
HETATM   24  C15 UNL     1       7.418  -1.806  13.347  1.00  0.00     0.042 A 
HETATM   25  C16 UNL     1       7.526  -0.444  13.526  1.00  0.00     0.117 A 
HETATM   26  F1  UNL     1       6.661   0.175  14.403  1.00  0.00    -0.206 F 
HETATM   27  C17 UNL     1       8.478   0.270  12.841  1.00  0.00     0.054 A 
ENDBRANCH   6  21
TORSDOF 4
ENDMDL
