MODEL 5
REMARK VINA RESULT: -8.257900693      2.623      4.218
REMARK  4 active torsions:
REMARK  status: ('A' for Active; 'I' for Inactive)
REMARK    1  A    between atoms: C4_5  and  C5_6 
REMARK    2  A    between atoms: C8_9  and  S1_10 
REMARK    3  A    between atoms: S1_10  and  N1_11 
REMARK    4  A    between atoms: C11_18  and  C12_19 
ROOT
HETATM    1  C1  UNL     1       5.789   3.360  16.738  1.00  0.00     0.055 C 
HETATM    2  C2  UNL     1       6.991   3.778  15.935  1.00  0.00     0.125 C 
HETATM    3  C3  UNL     1       6.907   5.217  15.484  1.00  0.00     0.055 C 
HETATM    4  O1  UNL     1       7.225   2.987  14.814  1.00  0.00    -0.331 OA
HETATM    5  C4  UNL     1       8.591   2.892  14.618  1.00  0.00     0.095 C 
HETATM    6  C11 UNL     1       9.253   3.249  15.698  1.00  0.00     0.058 C 
HETATM    7  C18 UNL     1       8.251   3.624  16.707  1.00  0.00     0.197 C 
HETATM    8  O4  UNL     1       8.420   3.779  17.935  1.00  0.00    -0.289 OA
ENDROOT
BRANCH   5   9
HETATM    9  C5  UNL     1       9.232   2.450  13.355  1.00  0.00    -0.002 A 
HETATM   10  C6  UNL     1       8.475   1.820  12.389  1.00  0.00     0.016 A 
HETATM   11  C7  UNL     1       8.978   1.392  11.195  1.00  0.00     0.026 A 
HETATM   12  C8  UNL     1      10.329   1.602  10.935  1.00  0.00     0.079 A 
HETATM   13  C9  UNL     1      11.096   2.231  11.891  1.00  0.00     0.026 A 
HETATM   14  C10 UNL     1      10.568   2.664  13.110  1.00  0.00     0.016 A 
BRANCH  12  15
HETATM   15  S1  UNL     1      10.987   1.058   9.401  1.00  0.00     0.256 S 
HETATM   16  O2  UNL     1      10.526  -0.373   9.205  1.00  0.00    -0.201 OA
HETATM   17  O3  UNL     1      10.382   1.942   8.322  1.00  0.00    -0.201 OA
BRANCH  15  18
HETATM   18  N1  UNL     1      12.704   1.134   9.371  1.00  0.00    -0.324 N 
ATOM     19  H12 UNL     1      13.220   1.973   9.104  1.00  0.00     0.169 HD
ATOM     20  H11 UNL     1      13.133   0.251   9.648  1.00  0.00     0.169 HD
ENDBRANCH  15  18
ENDBRANCH  12  15
ENDBRANCH   5   9
BRANCH   6  21
HETATM   21  C12 UNL     1      10.682   3.316  15.988  1.00  0.00    -0.017 A 
HETATM   22  C13 UNL     1      11.370   4.532  15.938  1.00  0.00     0.012 A 
HETATM   23  C14 UNL     1      12.697   4.668  16.212  1.00  0.00     0.004 A 
HETATM   24  C15 UNL     1      13.395   3.545  16.557  1.00  0.00     0.042 A 
HETATM   25  C16 UNL     1      12.768   2.319  16.621  1.00  0.00     0.117 A 
HETATM   26  F1  UNL     1      13.516   1.216  16.974  1.00  0.00    -0.206 F 
HETATM   27  C17 UNL     1      11.428   2.211  16.340  1.00  0.00     0.054 A 
ENDBRANCH   6  21
TORSDOF 4
ENDMDL
