MODEL 3
REMARK VINA RESULT: -8.416728406      2.531      4.303
REMARK  4 active torsions:
REMARK  status: ('A' for Active; 'I' for Inactive)
REMARK    1  A    between atoms: C4_5  and  C5_6 
REMARK    2  A    between atoms: C8_9  and  S1_10 
REMARK    3  A    between atoms: S1_10  and  N1_11 
REMARK    4  A    between atoms: C11_18  and  C12_19 
ROOT
HETATM    1  C1  UNL     1       5.940   3.352  16.514  1.00  0.00     0.055 C 
HETATM    2  C2  UNL     1       7.242   3.645  15.820  1.00  0.00     0.125 C 
HETATM    3  C3  UNL     1       7.446   5.122  15.583  1.00  0.00     0.055 C 
HETATM    4  O1  UNL     1       7.395   2.986  14.604  1.00  0.00    -0.331 OA
HETATM    5  C4  UNL     1       8.732   2.664  14.441  1.00  0.00     0.095 C 
HETATM    6  C11 UNL     1       9.382   2.738  15.583  1.00  0.00     0.058 C 
HETATM    7  C18 UNL     1       8.406   3.152  16.603  1.00  0.00     0.197 C 
HETATM    8  O4  UNL     1       8.528   3.102  17.845  1.00  0.00    -0.289 OA
ENDROOT
BRANCH   5   9
HETATM    9  C5  UNL     1       9.355   2.288  13.148  1.00  0.00    -0.002 A 
HETATM   10  C6  UNL     1       8.596   1.664  12.180  1.00  0.00     0.016 A 
HETATM   11  C7  UNL     1       9.084   1.295  10.960  1.00  0.00     0.026 A 
HETATM   12  C8  UNL     1      10.419   1.562  10.675  1.00  0.00     0.079 A 
HETATM   13  C9  UNL     1      11.188   2.186  11.634  1.00  0.00     0.026 A 
HETATM   14  C10 UNL     1      10.676   2.558  12.879  1.00  0.00     0.016 A 
BRANCH  12  15
HETATM   15  S1  UNL     1      11.057   1.094   9.108  1.00  0.00     0.256 S 
HETATM   16  O2  UNL     1      10.450  -0.253   8.767  1.00  0.00    -0.201 OA
HETATM   17  O3  UNL     1      10.582   2.136   8.107  1.00  0.00    -0.201 OA
BRANCH  15  18
HETATM   18  N1  UNL     1      12.773   0.984   9.114  1.00  0.00    -0.324 N 
ATOM     19  H12 UNL     1      13.358   1.450   9.807  1.00  0.00     0.169 HD
ATOM     20  H11 UNL     1      13.124   0.403   8.352  1.00  0.00     0.169 HD
ENDBRANCH  15  18
ENDBRANCH  12  15
ENDBRANCH   5   9
BRANCH   6  21
HETATM   21  C12 UNL     1      10.780   2.496  15.925  1.00  0.00    -0.017 A 
HETATM   22  C13 UNL     1      11.298   1.198  15.958  1.00  0.00     0.012 A 
HETATM   23  C14 UNL     1      12.594   0.902  16.253  1.00  0.00     0.004 A 
HETATM   24  C15 UNL     1      13.436   1.941  16.534  1.00  0.00     0.042 A 
HETATM   25  C16 UNL     1      12.980   3.242  16.517  1.00  0.00     0.117 A 
HETATM   26  F1  UNL     1      13.869   4.255  16.806  1.00  0.00    -0.206 F 
HETATM   27  C17 UNL     1      11.667   3.511  16.215  1.00  0.00     0.054 A 
ENDBRANCH   6  21
TORSDOF 4
ENDMDL
