MODEL 3
REMARK VINA RESULT: -9.981897172      1.414      1.931
REMARK  10 active torsions:
REMARK  status: ('A' for Active; 'I' for Inactive)
REMARK    1  A    between atoms: N4_10  and  C5_11 
REMARK    2  A    between atoms: C6_13  and  C7_14 
REMARK    3  A    between atoms: C7_14  and  O2_15 
REMARK    4  A    between atoms: O2_15  and  P1_16 
REMARK    5  A    between atoms: P1_16  and  O5_19 
REMARK    6  A    between atoms: O5_19  and  P2_20 
REMARK    7  A    between atoms: P2_20  and  O8_23 
REMARK    8  A    between atoms: O8_23  and  P3_24 
REMARK    9  A    between atoms: C8_28  and  O12_29 
REMARK   10  A    between atoms: C9_31  and  O13_32 
ROOT
HETATM    1  C5  UNL     1       5.499 -11.663  24.173  1.00  0.00     0.262 C 
HETATM    2  O1  UNL     1       5.882 -10.931  25.294  1.00  0.00    -0.353 OA
HETATM    3  C6  UNL     1       6.562 -11.924  26.031  1.00  0.00     0.180 C 
HETATM    4  C8  UNL     1       7.545 -12.440  25.013  1.00  0.00     0.182 C 
HETATM    5  C9  UNL     1       6.798 -12.219  23.691  1.00  0.00     0.198 C 
ENDROOT
BRANCH   1   6
HETATM    6  N4  UNL     1       4.817 -10.868  23.185  1.00  0.00    -0.297 N 
HETATM    7  C2  UNL     1       3.830  -9.998  23.418  1.00  0.00     0.146 A 
HETATM    8  N2  UNL     1       3.231  -9.639  24.567  1.00  0.00    -0.314 N 
HETATM    9  C3  UNL     1       3.404  -9.410  22.239  1.00  0.00     0.146 A 
HETATM   10  C1  UNL     1       2.247  -8.728  24.544  1.00  0.00     0.196 A 
ATOM     11  H2  UNL     1       3.524 -10.057  25.450  1.00  0.00     0.170 HD
HETATM   12  N1  UNL     1       1.645  -8.384  25.808  1.00  0.00    -0.063 NA
HETATM   13  N5  UNL     1       1.824  -8.145  23.391  1.00  0.00    -0.295 N 
HETATM   14  C10 UNL     1       2.395  -8.477  22.228  1.00  0.00     0.278 A 
ATOM     15  H5  UNL     1       1.072  -7.457  23.412  1.00  0.00     0.171 HD
HETATM   16  O14 UNL     1       1.998  -7.937  21.172  1.00  0.00    -0.265 OA
HETATM   17  N3  UNL     1       4.183  -9.966  21.273  1.00  0.00    -0.345 N 
HETATM   18  C4  UNL     1       5.038 -10.852  21.858  1.00  0.00     0.188 A 
ATOM     19  H3  UNL     1       4.136  -9.756  20.276  1.00  0.00     0.167 HD
ENDBRANCH   1   6
BRANCH   5  20
HETATM   20  O13 UNL     1       6.584 -13.437  23.086  1.00  0.00    -0.388 OA
ATOM     21  H13 UNL     1       7.271 -13.604  22.450  1.00  0.00     0.210 HD
ENDBRANCH   5  20
BRANCH   3  22
HETATM   22  C7  UNL     1       7.217 -11.260  27.197  1.00  0.00     0.216 C 
BRANCH  22  23
HETATM   23  O2  UNL     1       7.915 -10.165  26.802  1.00  0.00    -0.287 OA
BRANCH  23  24
HETATM   24  P1  UNL     1       8.685  -9.303  27.984  1.00  0.00     0.417 P 
HETATM   25  O3  UNL     1       8.595 -10.445  28.976  1.00  0.00    -0.624 OA
HETATM   26  O4  UNL     1      10.393  -9.415  28.014  1.00  0.00    -0.624 OA
BRANCH  24  27
HETATM   27  O5  UNL     1       7.934  -8.207  28.865  1.00  0.00    -0.180 OA
BRANCH  27  28
HETATM   28  P2  UNL     1       7.131  -8.320  30.141  1.00  0.00     0.428 P 
HETATM   29  O6  UNL     1       5.811  -8.509  29.136  1.00  0.00    -0.624 OA
HETATM   30  O7  UNL     1       7.441  -6.787  30.646  1.00  0.00    -0.624 OA
BRANCH  28  31
HETATM   31  O8  UNL     1       6.139  -8.648  31.301  1.00  0.00    -0.173 OA
BRANCH  31  32
HETATM   32  P3  UNL     1       7.006  -8.703  32.790  1.00  0.00     0.431 P 
HETATM   33  O9  UNL     1       6.185  -9.950  33.144  1.00  0.00    -0.616 OA
HETATM   34  O10 UNL     1       8.392  -9.569  32.847  1.00  0.00    -0.616 OA
HETATM   35  O11 UNL     1       6.502  -7.792  33.996  1.00  0.00    -0.616 OA
ENDBRANCH  31  32
ENDBRANCH  28  31
ENDBRANCH  27  28
ENDBRANCH  24  27
ENDBRANCH  23  24
ENDBRANCH  22  23
ENDBRANCH   3  22
BRANCH   4  36
HETATM   36  O12 UNL     1       7.751 -13.797  25.252  1.00  0.00    -0.390 OA
ATOM     37  H12 UNL     1       7.825 -14.239  24.414  1.00  0.00     0.210 HD
ENDBRANCH   4  36
TORSDOF 10
ENDMDL
