MODEL 1
REMARK VINA RESULT: -10.212812443      0.000      0.000
REMARK  10 active torsions:
REMARK  status: ('A' for Active; 'I' for Inactive)
REMARK    1  A    between atoms: N4_10  and  C5_11 
REMARK    2  A    between atoms: C6_13  and  C7_14 
REMARK    3  A    between atoms: C7_14  and  O2_15 
REMARK    4  A    between atoms: O2_15  and  P1_16 
REMARK    5  A    between atoms: P1_16  and  O5_19 
REMARK    6  A    between atoms: O5_19  and  P2_20 
REMARK    7  A    between atoms: P2_20  and  O8_23 
REMARK    8  A    between atoms: O8_23  and  P3_24 
REMARK    9  A    between atoms: C8_28  and  O12_29 
REMARK   10  A    between atoms: C9_31  and  O13_32 
ROOT
HETATM    1  C5  UNL     1       5.832 -11.333  24.890  1.00  0.00     0.262 C 
HETATM    2  O1  UNL     1       5.477 -10.963  26.185  1.00  0.00    -0.353 OA
HETATM    3  C6  UNL     1       6.604 -11.419  26.902  1.00  0.00     0.180 C 
HETATM    4  C8  UNL     1       7.731 -10.770  26.143  1.00  0.00     0.182 C 
HETATM    5  C9  UNL     1       7.162 -10.679  24.720  1.00  0.00     0.198 C 
ENDROOT
BRANCH   1   6
HETATM    6  N4  UNL     1       4.867 -10.927  23.901  1.00  0.00    -0.297 N 
HETATM    7  C2  UNL     1       4.078  -9.850  23.965  1.00  0.00     0.146 A 
HETATM    8  N2  UNL     1       3.969  -8.898  24.909  1.00  0.00    -0.314 N 
HETATM    9  C3  UNL     1       3.271  -9.764  22.844  1.00  0.00     0.146 A 
HETATM   10  C1  UNL     1       3.090  -7.899  24.743  1.00  0.00     0.196 A 
ATOM     11  H2  UNL     1       4.550  -8.937  25.746  1.00  0.00     0.170 HD
HETATM   12  N1  UNL     1       3.019  -6.910  25.789  1.00  0.00    -0.063 NA
HETATM   13  N5  UNL     1       2.293  -7.808  23.644  1.00  0.00    -0.295 N 
HETATM   14  C10 UNL     1       2.373  -8.736  22.684  1.00  0.00     0.278 A 
ATOM     15  H5  UNL     1       1.636  -7.034  23.552  1.00  0.00     0.171 HD
HETATM   16  O14 UNL     1       1.637  -8.644  21.677  1.00  0.00    -0.265 OA
HETATM   17  N3  UNL     1       3.607 -10.846  22.091  1.00  0.00    -0.345 N 
HETATM   18  C4  UNL     1       4.577 -11.546  22.743  1.00  0.00     0.188 A 
ATOM     19  H3  UNL     1       3.201 -11.092  21.188  1.00  0.00     0.167 HD
ENDBRANCH   1   6
BRANCH   5  20
HETATM   20  O13 UNL     1       7.945 -11.433  23.874  1.00  0.00    -0.388 OA
ATOM     21  H13 UNL     1       7.693 -12.347  23.935  1.00  0.00     0.210 HD
ENDBRANCH   5  20
BRANCH   3  22
HETATM   22  C7  UNL     1       6.481 -10.928  28.306  1.00  0.00     0.216 C 
BRANCH  22  23
HETATM   23  O2  UNL     1       7.704 -10.779  28.876  1.00  0.00    -0.287 OA
BRANCH  23  24
HETATM   24  P1  UNL     1       8.125  -9.255  29.355  1.00  0.00     0.417 P 
HETATM   25  O3  UNL     1       9.563  -9.434  28.913  1.00  0.00    -0.624 OA
HETATM   26  O4  UNL     1       7.926  -8.012  28.195  1.00  0.00    -0.624 OA
BRANCH  24  27
HETATM   27  O5  UNL     1       8.424  -8.893  30.879  1.00  0.00    -0.180 OA
BRANCH  27  28
HETATM   28  P2  UNL     1       7.554  -8.297  31.962  1.00  0.00     0.428 P 
HETATM   29  O6  UNL     1       6.671  -9.710  31.843  1.00  0.00    -0.624 OA
HETATM   30  O7  UNL     1       7.026  -7.037  31.050  1.00  0.00    -0.624 OA
BRANCH  28  31
HETATM   31  O8  UNL     1       6.638  -7.974  33.185  1.00  0.00    -0.173 OA
BRANCH  31  32
HETATM   32  P3  UNL     1       7.587  -7.997  34.624  1.00  0.00     0.431 P 
HETATM   33  O9  UNL     1       8.711  -7.339  33.813  1.00  0.00    -0.616 OA
HETATM   34  O10 UNL     1       7.513  -6.702  35.620  1.00  0.00    -0.616 OA
HETATM   35  O11 UNL     1       8.372  -9.332  34.994  1.00  0.00    -0.616 OA
ENDBRANCH  31  32
ENDBRANCH  28  31
ENDBRANCH  27  28
ENDBRANCH  24  27
ENDBRANCH  23  24
ENDBRANCH  22  23
ENDBRANCH   3  22
BRANCH   4  36
HETATM   36  O12 UNL     1       8.835 -11.618  26.188  1.00  0.00    -0.390 OA
ATOM     37  H12 UNL     1       9.595 -11.134  25.888  1.00  0.00     0.210 HD
ENDBRANCH   4  36
TORSDOF 10
ENDMDL
