MODEL 2
REMARK VINA RESULT: -10.046796793      1.914      2.342
REMARK  10 active torsions:
REMARK  status: ('A' for Active; 'I' for Inactive)
REMARK    1  A    between atoms: N4_10  and  C5_11 
REMARK    2  A    between atoms: C6_13  and  C7_14 
REMARK    3  A    between atoms: C7_14  and  O2_15 
REMARK    4  A    between atoms: O2_15  and  P1_16 
REMARK    5  A    between atoms: P1_16  and  O5_19 
REMARK    6  A    between atoms: O5_19  and  P2_20 
REMARK    7  A    between atoms: P2_20  and  O8_23 
REMARK    8  A    between atoms: O8_23  and  P3_24 
REMARK    9  A    between atoms: C8_28  and  O12_29 
REMARK   10  A    between atoms: C9_31  and  O13_32 
ROOT
HETATM    1  C5  UNL     1       5.506 -11.650  24.184  1.00  0.00     0.262 C 
HETATM    2  O1  UNL     1       5.889 -10.918  25.304  1.00  0.00    -0.353 OA
HETATM    3  C6  UNL     1       6.568 -11.911  26.042  1.00  0.00     0.180 C 
HETATM    4  C8  UNL     1       7.550 -12.429  25.024  1.00  0.00     0.182 C 
HETATM    5  C9  UNL     1       6.803 -12.208  23.702  1.00  0.00     0.198 C 
ENDROOT
BRANCH   1   6
HETATM    6  N4  UNL     1       4.824 -10.855  23.195  1.00  0.00    -0.297 N 
HETATM    7  C2  UNL     1       3.830  -9.993  23.425  1.00  0.00     0.146 A 
HETATM    8  N2  UNL     1       3.221  -9.644  24.572  1.00  0.00    -0.314 N 
HETATM    9  C3  UNL     1       3.408  -9.402  22.247  1.00  0.00     0.146 A 
HETATM   10  C1  UNL     1       2.230  -8.739  24.547  1.00  0.00     0.196 A 
ATOM     11  H2  UNL     1       3.510 -10.064  25.455  1.00  0.00     0.170 HD
HETATM   12  N1  UNL     1       1.617  -8.407  25.809  1.00  0.00    -0.063 NA
HETATM   13  N5  UNL     1       1.811  -8.154  23.394  1.00  0.00    -0.295 N 
HETATM   14  C10 UNL     1       2.392  -8.476  22.233  1.00  0.00     0.278 A 
ATOM     15  H5  UNL     1       1.055  -7.471  23.414  1.00  0.00     0.171 HD
HETATM   16  O14 UNL     1       1.999  -7.933  21.177  1.00  0.00    -0.265 OA
HETATM   17  N3  UNL     1       4.197  -9.948  21.283  1.00  0.00    -0.345 N 
HETATM   18  C4  UNL     1       5.054 -10.830  21.870  1.00  0.00     0.188 A 
ATOM     19  H3  UNL     1       4.155  -9.732  20.287  1.00  0.00     0.167 HD
ENDBRANCH   1   6
BRANCH   5  20
HETATM   20  O13 UNL     1       6.588 -13.426  23.097  1.00  0.00    -0.388 OA
ATOM     21  H13 UNL     1       6.708 -13.344  22.158  1.00  0.00     0.210 HD
ENDBRANCH   5  20
BRANCH   3  22
HETATM   22  C7  UNL     1       7.224 -11.248  27.207  1.00  0.00     0.216 C 
BRANCH  22  23
HETATM   23  O2  UNL     1       7.916 -10.149  26.813  1.00  0.00    -0.287 OA
BRANCH  23  24
HETATM   24  P1  UNL     1       8.692  -9.291  27.993  1.00  0.00     0.417 P 
HETATM   25  O3  UNL     1       8.614 -10.439  28.979  1.00  0.00    -0.624 OA
HETATM   26  O4  UNL     1      10.400  -9.396  28.009  1.00  0.00    -0.624 OA
BRANCH  24  27
HETATM   27  O5  UNL     1       7.944  -8.203  28.888  1.00  0.00    -0.180 OA
BRANCH  27  28
HETATM   28  P2  UNL     1       7.129  -8.331  30.155  1.00  0.00     0.428 P 
HETATM   29  O6  UNL     1       5.827  -8.563  29.135  1.00  0.00    -0.624 OA
HETATM   30  O7  UNL     1       7.390  -6.787  30.654  1.00  0.00    -0.624 OA
BRANCH  28  31
HETATM   31  O8  UNL     1       6.132  -8.680  31.305  1.00  0.00    -0.173 OA
BRANCH  31  32
HETATM   32  P3  UNL     1       6.096 -10.389  31.524  1.00  0.00     0.431 P 
HETATM   33  O9  UNL     1       5.479 -10.131  32.905  1.00  0.00    -0.616 OA
HETATM   34  O10 UNL     1       4.759 -11.202  31.051  1.00  0.00    -0.616 OA
HETATM   35  O11 UNL     1       7.417 -11.117  32.036  1.00  0.00    -0.616 OA
ENDBRANCH  31  32
ENDBRANCH  28  31
ENDBRANCH  27  28
ENDBRANCH  24  27
ENDBRANCH  23  24
ENDBRANCH  22  23
ENDBRANCH   3  22
BRANCH   4  36
HETATM   36  O12 UNL     1       7.754 -13.786  25.263  1.00  0.00    -0.390 OA
ATOM     37  H12 UNL     1       8.564 -14.045  24.840  1.00  0.00     0.210 HD
ENDBRANCH   4  36
TORSDOF 10
ENDMDL
