MODEL 7
REMARK VINA RESULT: -7.334142280      3.061      8.407
REMARK  5 active torsions:
REMARK  status: ('A' for Active; 'I' for Inactive)
REMARK    1  A    between atoms: S1_2  and  C2_5 
REMARK    2  A    between atoms: C5_8  and  C6_9 
REMARK    3  A    between atoms: C8_13  and  N2_14 
REMARK    4  A    between atoms: N2_14  and  C9_16 
REMARK    5  A    between atoms: C9_16  and  C10_17 
ROOT
HETATM    1  C6  UNL     1     -32.785  75.991   7.624  1.00  0.00     0.037 A 
HETATM    2  C7  UNL     1     -32.740  77.314   7.248  1.00  0.00     0.122 A 
HETATM    3  N1  UNL     1     -33.474  78.228   7.889  1.00  0.00    -0.200 N 
ATOM      4  H1  UNL     1     -33.415  79.199   7.584  1.00  0.00     0.183 HD
HETATM    5  C8  UNL     1     -34.309  77.922   8.942  1.00  0.00     0.691 A 
HETATM    6  N3  UNL     1     -34.361  76.661   9.311  1.00  0.00    -0.125 N 
HETATM    7  C14 UNL     1     -35.019  76.007  10.271  1.00  0.00     0.225 A 
HETATM    8  N4  UNL     1     -34.712  74.685  10.247  1.00  0.00    -0.293 N 
ATOM      9  H4  UNL     1     -35.078  73.967  10.871  1.00  0.00     0.187 HD
HETATM   10  N5  UNL     1     -33.856  74.505   9.267  1.00  0.00    -0.283 N 
ATOM     11  H5  UNL     1     -33.437  73.616   8.996  1.00  0.00     0.188 HD
HETATM   12  C15 UNL     1     -33.625  75.699   8.681  1.00  0.00     0.156 A 
ENDROOT
BRANCH   1  13
HETATM   13  C5  UNL     1     -32.004  74.970   6.955  1.00  0.00    -0.021 A 
HETATM   14  C4  UNL     1     -31.967  73.655   7.353  1.00  0.00     0.014 A 
HETATM   15  C3  UNL     1     -31.206  72.720   6.682  1.00  0.00     0.024 A 
HETATM   16  C2  UNL     1     -30.459  73.090   5.584  1.00  0.00     0.058 A 
HETATM   17  C17 UNL     1     -30.496  74.393   5.188  1.00  0.00     0.024 A 
HETATM   18  C16 UNL     1     -31.253  75.342   5.849  1.00  0.00     0.014 A 
BRANCH  16  19
HETATM   19  S1  UNL     1     -29.474  71.947   4.688  1.00  0.00     0.171 S 
HETATM   20  C1  UNL     1     -28.773  70.774   5.838  1.00  0.00     0.167 C 
HETATM   21  O1  UNL     1     -30.392  71.191   3.757  1.00  0.00    -0.223 OA
HETATM   22  O2  UNL     1     -28.419  72.619   3.883  1.00  0.00    -0.223 OA
ENDBRANCH  16  19
ENDBRANCH   1  13
BRANCH   5  23
HETATM   23  N2  UNL     1     -35.001  78.972   9.523  1.00  0.00    -0.198 N 
ATOM     24  H2  UNL     1     -34.626  79.305  10.411  1.00  0.00     0.183 HD
BRANCH  23  25
HETATM   25  C9  UNL     1     -36.148  79.646   9.062  1.00  0.00     0.143 C 
BRANCH  25  26
HETATM   26  C10 UNL     1     -36.081  80.021   7.603  1.00  0.00     0.090 A 
HETATM   27  C11 UNL     1     -36.997  79.566   6.683  1.00  0.00     0.040 A 
HETATM   28  C12 UNL     1     -36.617  80.110   5.482  1.00  0.00     0.027 A 
HETATM   29  C13 UNL     1     -35.491  80.871   5.720  1.00  0.00     0.142 A 
HETATM   30  O3  UNL     1     -35.216  80.786   6.986  1.00  0.00    -0.321 OA
ENDBRANCH  25  26
ENDBRANCH  23  25
ENDBRANCH   5  23
TORSDOF 5
ENDMDL
