MODEL 6
REMARK VINA RESULT: -7.476520357      4.260      8.292
REMARK  5 active torsions:
REMARK  status: ('A' for Active; 'I' for Inactive)
REMARK    1  A    between atoms: S1_2  and  C2_5 
REMARK    2  A    between atoms: C5_8  and  C6_9 
REMARK    3  A    between atoms: C8_13  and  N2_14 
REMARK    4  A    between atoms: N2_14  and  C9_16 
REMARK    5  A    between atoms: C9_16  and  C10_17 
ROOT
HETATM    1  C6  UNL     1     -33.253  75.300   8.627  1.00  0.00     0.037 A 
HETATM    2  C7  UNL     1     -33.203  74.858   9.930  1.00  0.00     0.122 A 
HETATM    3  N1  UNL     1     -33.994  75.399  10.861  1.00  0.00    -0.200 N 
ATOM      4  H1  UNL     1     -33.930  75.045  11.815  1.00  0.00     0.183 HD
HETATM    5  C8  UNL     1     -34.890  76.410  10.595  1.00  0.00     0.691 A 
HETATM    6  N3  UNL     1     -34.948  76.841   9.354  1.00  0.00    -0.125 N 
HETATM    7  C14 UNL     1     -35.684  77.765   8.731  1.00  0.00     0.225 A 
HETATM    8  N4  UNL     1     -35.369  77.820   7.412  1.00  0.00    -0.293 N 
ATOM      9  H4  UNL     1     -35.782  78.438   6.715  1.00  0.00     0.187 HD
HETATM   10  N5  UNL     1     -34.429  76.925   7.202  1.00  0.00    -0.283 N 
ATOM     11  H5  UNL     1     -33.983  76.727   6.307  1.00  0.00     0.188 HD
HETATM   12  C15 UNL     1     -34.157  76.313   8.374  1.00  0.00     0.156 A 
ENDROOT
BRANCH   1  13
HETATM   13  C5  UNL     1     -32.413  74.740   7.588  1.00  0.00    -0.021 A 
HETATM   14  C4  UNL     1     -31.886  75.476   6.553  1.00  0.00     0.014 A 
HETATM   15  C3  UNL     1     -31.090  74.896   5.587  1.00  0.00     0.024 A 
HETATM   16  C2  UNL     1     -30.804  73.548   5.640  1.00  0.00     0.058 A 
HETATM   17  C17 UNL     1     -31.324  72.818   6.666  1.00  0.00     0.024 A 
HETATM   18  C16 UNL     1     -32.123  73.384   7.641  1.00  0.00     0.014 A 
BRANCH  16  19
HETATM   19  S1  UNL     1     -29.797  72.753   4.442  1.00  0.00     0.171 S 
HETATM   20  C1  UNL     1     -29.792  70.999   4.773  1.00  0.00     0.167 C 
HETATM   21  O1  UNL     1     -30.444  72.969   3.094  1.00  0.00    -0.223 OA
HETATM   22  O2  UNL     1     -28.417  73.306   4.406  1.00  0.00    -0.223 OA
ENDBRANCH  16  19
ENDBRANCH   1  13
BRANCH   5  23
HETATM   23  N2  UNL     1     -35.658  76.866  11.654  1.00  0.00    -0.198 N 
ATOM     24  H2  UNL     1     -35.484  77.830  11.937  1.00  0.00     0.183 HD
BRANCH  23  25
HETATM   25  C9  UNL     1     -36.644  76.188  12.396  1.00  0.00     0.143 C 
BRANCH  25  26
HETATM   26  C10 UNL     1     -37.266  75.031  11.655  1.00  0.00     0.090 A 
HETATM   27  C11 UNL     1     -38.442  75.155  10.952  1.00  0.00     0.040 A 
HETATM   28  C12 UNL     1     -38.688  73.914  10.421  1.00  0.00     0.027 A 
HETATM   29  C13 UNL     1     -37.656  73.090  10.822  1.00  0.00     0.142 A 
HETATM   30  O3  UNL     1     -36.844  73.797  11.547  1.00  0.00    -0.321 OA
ENDBRANCH  25  26
ENDBRANCH  23  25
ENDBRANCH   5  23
TORSDOF 5
ENDMDL
