MODEL 4
REMARK VINA RESULT: -7.562242774      3.564      8.822
REMARK  5 active torsions:
REMARK  status: ('A' for Active; 'I' for Inactive)
REMARK    1  A    between atoms: S1_2  and  C2_5 
REMARK    2  A    between atoms: C5_8  and  C6_9 
REMARK    3  A    between atoms: C8_13  and  N2_14 
REMARK    4  A    between atoms: N2_14  and  C9_16 
REMARK    5  A    between atoms: C9_16  and  C10_17 
ROOT
HETATM    1  C6  UNL     1     -32.746  76.310   7.209  1.00  0.00     0.037 A 
HETATM    2  C7  UNL     1     -34.103  76.259   7.432  1.00  0.00     0.122 A 
HETATM    3  N1  UNL     1     -34.757  77.327   7.894  1.00  0.00    -0.200 N 
ATOM      4  H1  UNL     1     -35.764  77.252   8.045  1.00  0.00     0.183 HD
HETATM    5  C8  UNL     1     -34.140  78.526   8.178  1.00  0.00     0.691 A 
HETATM    6  N3  UNL     1     -32.843  78.589   7.970  1.00  0.00    -0.125 N 
HETATM    7  C14 UNL     1     -31.933  79.555   8.106  1.00  0.00     0.225 A 
HETATM    8  N4  UNL     1     -30.704  79.112   7.736  1.00  0.00    -0.293 N 
ATOM      9  H4  UNL     1     -29.838  79.650   7.745  1.00  0.00     0.187 HD
HETATM   10  N5  UNL     1     -30.841  77.860   7.364  1.00  0.00    -0.283 N 
ATOM     11  H5  UNL     1     -30.094  77.251   7.032  1.00  0.00     0.188 HD
HETATM   12  C15 UNL     1     -32.140  77.518   7.497  1.00  0.00     0.156 A 
ENDROOT
BRANCH   1  13
HETATM   13  C5  UNL     1     -32.001  75.174   6.708  1.00  0.00    -0.021 A 
HETATM   14  C4  UNL     1     -31.995  73.938   7.312  1.00  0.00     0.014 A 
HETATM   15  C3  UNL     1     -31.267  72.886   6.795  1.00  0.00     0.024 A 
HETATM   16  C2  UNL     1     -30.521  73.055   5.648  1.00  0.00     0.058 A 
HETATM   17  C17 UNL     1     -30.527  74.278   5.048  1.00  0.00     0.024 A 
HETATM   18  C16 UNL     1     -31.250  75.342   5.553  1.00  0.00     0.014 A 
BRANCH  16  19
HETATM   19  S1  UNL     1     -29.576  71.755   4.942  1.00  0.00     0.171 S 
HETATM   20  C1  UNL     1     -27.949  72.377   4.555  1.00  0.00     0.167 C 
HETATM   21  O1  UNL     1     -29.425  70.683   5.995  1.00  0.00    -0.223 OA
HETATM   22  O2  UNL     1     -30.233  71.164   3.745  1.00  0.00    -0.223 OA
ENDBRANCH  16  19
ENDBRANCH   1  13
BRANCH   5  23
HETATM   23  N2  UNL     1     -34.944  79.555   8.638  1.00  0.00    -0.198 N 
ATOM     24  H2  UNL     1     -34.479  80.239   9.236  1.00  0.00     0.183 HD
BRANCH  23  25
HETATM   25  C9  UNL     1     -36.311  79.793   8.399  1.00  0.00     0.143 C 
BRANCH  25  26
HETATM   26  C10 UNL     1     -36.631  80.064   6.950  1.00  0.00     0.090 A 
HETATM   27  C11 UNL     1     -37.001  81.309   6.499  1.00  0.00     0.040 A 
HETATM   28  C12 UNL     1     -37.206  81.169   5.150  1.00  0.00     0.027 A 
HETATM   29  C13 UNL     1     -36.953  79.849   4.837  1.00  0.00     0.142 A 
HETATM   30  O3  UNL     1     -36.617  79.239   5.933  1.00  0.00    -0.321 OA
ENDBRANCH  25  26
ENDBRANCH  23  25
ENDBRANCH   5  23
TORSDOF 5
ENDMDL
