MODEL 1
REMARK VINA RESULT: -8.370936660      0.000      0.000
REMARK  5 active torsions:
REMARK  status: ('A' for Active; 'I' for Inactive)
REMARK    1  A    between atoms: S1_2  and  C2_5 
REMARK    2  A    between atoms: C5_8  and  C6_9 
REMARK    3  A    between atoms: C8_13  and  N2_14 
REMARK    4  A    between atoms: N2_14  and  C9_16 
REMARK    5  A    between atoms: C9_16  and  C10_17 
ROOT
HETATM    1  C6  UNL     1     -31.985  75.569   6.899  1.00  0.00     0.037 A 
HETATM    2  C7  UNL     1     -31.241  75.219   5.796  1.00  0.00     0.122 A 
HETATM    3  N1  UNL     1     -30.900  73.946   5.582  1.00  0.00    -0.200 N 
ATOM      4  H1  UNL     1     -30.349  73.724   4.753  1.00  0.00     0.183 HD
HETATM    5  C8  UNL     1     -31.254  72.918   6.428  1.00  0.00     0.691 A 
HETATM    6  N3  UNL     1     -31.965  73.239   7.487  1.00  0.00    -0.125 N 
HETATM    7  C14 UNL     1     -32.493  72.536   8.491  1.00  0.00     0.225 A 
HETATM    8  N4  UNL     1     -33.167  73.350   9.344  1.00  0.00    -0.293 N 
ATOM      9  H4  UNL     1     -33.661  73.066  10.189  1.00  0.00     0.187 HD
HETATM   10  N5  UNL     1     -33.063  74.572   8.873  1.00  0.00    -0.283 N 
ATOM     11  H5  UNL     1     -33.465  75.409   9.294  1.00  0.00     0.188 HD
HETATM   12  C15 UNL     1     -32.334  74.529   7.738  1.00  0.00     0.156 A 
ENDROOT
BRANCH   1  13
HETATM   13  C5  UNL     1     -32.376  76.939   7.166  1.00  0.00    -0.021 A 
HETATM   14  C4  UNL     1     -33.675  77.333   7.386  1.00  0.00     0.014 A 
HETATM   15  C3  UNL     1     -33.996  78.651   7.636  1.00  0.00     0.024 A 
HETATM   16  C2  UNL     1     -33.008  79.613   7.671  1.00  0.00     0.058 A 
HETATM   17  C17 UNL     1     -31.721  79.223   7.454  1.00  0.00     0.024 A 
HETATM   18  C16 UNL     1     -31.382  77.907   7.202  1.00  0.00     0.014 A 
BRANCH  16  19
HETATM   19  S1  UNL     1     -33.354  81.305   7.985  1.00  0.00     0.171 S 
HETATM   20  C1  UNL     1     -34.323  81.950   6.632  1.00  0.00     0.167 C 
HETATM   21  O1  UNL     1     -34.200  81.369   9.234  1.00  0.00    -0.223 OA
HETATM   22  O2  UNL     1     -32.117  82.104   8.200  1.00  0.00    -0.223 OA
ENDBRANCH  16  19
ENDBRANCH   1  13
BRANCH   5  23
HETATM   23  N2  UNL     1     -30.843  71.643   6.077  1.00  0.00    -0.198 N 
ATOM     24  H2  UNL     1     -31.167  70.894   6.690  1.00  0.00     0.183 HD
BRANCH  23  25
HETATM   25  C9  UNL     1     -30.043  71.231   4.993  1.00  0.00     0.143 C 
BRANCH  25  26
HETATM   26  C10 UNL     1     -28.567  71.224   5.304  1.00  0.00     0.090 A 
HETATM   27  C11 UNL     1     -28.015  70.369   6.230  1.00  0.00     0.040 A 
HETATM   28  C12 UNL     1     -26.672  70.650   6.238  1.00  0.00     0.027 A 
HETATM   29  C13 UNL     1     -26.464  71.660   5.320  1.00  0.00     0.142 A 
HETATM   30  O3  UNL     1     -27.613  71.963   4.797  1.00  0.00    -0.321 OA
ENDBRANCH  25  26
ENDBRANCH  23  25
ENDBRANCH   5  23
TORSDOF 5
ENDMDL
