MODEL 6
REMARK VINA RESULT: -7.389063234      3.354      6.654
REMARK  10 active torsions:
REMARK  status: ('A' for Active; 'I' for Inactive)
REMARK       I    between atoms: C2_2  and  N1_4 
REMARK    1  A    between atoms: N1_4  and  C3_6 
REMARK    2  A    between atoms: C4_7  and  O2_8 
REMARK    3  A    between atoms: C5_11  and  C6_12 
REMARK    4  A    between atoms: C6_12  and  O4_13 
REMARK    5  A    between atoms: C7_15  and  O5_16 
REMARK    6  A    between atoms: C8_18  and  O6_19 
REMARK    7  A    between atoms: O6_19  and  C9_20 
REMARK    8  A    between atoms: C10_22  and  C11_23 
REMARK    9  A    between atoms: C13_27  and  O10_28 
REMARK   10  A    between atoms: C14_30  and  O11_31 
ROOT
HETATM    1  C3  UNL     1     -18.333 -15.076   7.438  1.00  0.00     0.171 C 
HETATM    2  C4  UNL     1     -17.605 -15.586   8.690  1.00  0.00     0.282 C 
HETATM    3  O3  UNL     1     -17.664 -14.656   9.708  1.00  0.00    -0.349 OA
HETATM    4  C5  UNL     1     -18.848 -13.947   9.757  1.00  0.00     0.179 C 
HETATM    5  C7  UNL     1     -19.990 -14.766   9.178  1.00  0.00     0.180 C 
HETATM    6  C8  UNL     1     -19.787 -14.963   7.669  1.00  0.00     0.183 C 
ENDROOT
BRANCH   6   7
HETATM    7  O6  UNL     1     -20.266 -13.820   7.058  1.00  0.00    -0.348 OA
BRANCH   7   8
HETATM    8  C9  UNL     1     -21.274 -14.070   6.133  1.00  0.00     0.298 C 
HETATM    9  O7  UNL     1     -22.500 -14.246   6.772  1.00  0.00    -0.311 OA
HETATM   10  C10 UNL     1     -23.708 -13.806   6.297  1.00  0.00     0.147 C 
HETATM   11  C12 UNL     1     -23.732 -12.756   5.502  1.00  0.00     0.051 C 
HETATM   12  C13 UNL     1     -22.468 -12.095   5.155  1.00  0.00     0.177 C 
HETATM   13  C14 UNL     1     -21.300 -13.037   5.048  1.00  0.00     0.206 C 
BRANCH  10  14
HETATM   14  C11 UNL     1     -24.934 -14.516   6.686  1.00  0.00     0.233 C 
HETATM   15  O8  UNL     1     -25.955 -14.471   5.988  1.00  0.00    -0.642 OA
HETATM   16  O9  UNL     1     -24.896 -15.238   7.872  1.00  0.00    -0.642 OA
ENDBRANCH  10  14
BRANCH  12  17
HETATM   17  O10 UNL     1     -22.667 -11.466   3.904  1.00  0.00    -0.389 OA
ATOM     18  H10 UNL     1     -22.256 -12.020   3.251  1.00  0.00     0.210 HD
ENDBRANCH  12  17
BRANCH  13  19
HETATM   19  O11 UNL     1     -20.135 -12.241   5.046  1.00  0.00    -0.388 OA
ATOM     20  H11 UNL     1     -19.761 -12.158   4.177  1.00  0.00     0.210 HD
ENDBRANCH  13  19
ENDBRANCH   7   8
ENDBRANCH   6   7
BRANCH   1  21
HETATM   21  N1  UNL     1     -17.910 -15.894   6.351  1.00  0.00    -0.349 N 
HETATM   22  C2  UNL     1     -17.589 -15.385   5.077  1.00  0.00     0.214 C 
HETATM   23  C1  UNL     1     -17.145 -16.224   3.930  1.00  0.00     0.117 C 
HETATM   24  O1  UNL     1     -17.701 -14.133   4.958  1.00  0.00    -0.274 OA
ATOM     25  H1  UNL     1     -17.836 -16.900   6.504  1.00  0.00     0.163 HD
ENDBRANCH   1  21
BRANCH   5  26
HETATM   26  O5  UNL     1     -21.179 -14.143   9.464  1.00  0.00    -0.390 OA
ATOM     27  H5  UNL     1     -20.999 -13.286   9.834  1.00  0.00     0.210 HD
ENDBRANCH   5  26
BRANCH   2  28
HETATM   28  O2  UNL     1     -18.019 -16.847   9.047  1.00  0.00    -0.369 OA
ATOM     29  H2  UNL     1     -17.589 -17.152   9.837  1.00  0.00     0.212 HD
ENDBRANCH   2  28
BRANCH   4  30
HETATM   30  C6  UNL     1     -19.187 -13.704  11.215  1.00  0.00     0.198 C 
BRANCH  30  31
HETATM   31  O4  UNL     1     -19.683 -12.399  11.399  1.00  0.00    -0.398 OA
ATOM     32  H4  UNL     1     -18.983 -11.761  11.328  1.00  0.00     0.209 HD
ENDBRANCH  30  31
ENDBRANCH   4  30
TORSDOF 10
ENDMDL
