MODEL 1
REMARK VINA RESULT: -7.984457776      0.000      0.000
REMARK  10 active torsions:
REMARK  status: ('A' for Active; 'I' for Inactive)
REMARK       I    between atoms: C2_2  and  N1_4 
REMARK    1  A    between atoms: N1_4  and  C3_6 
REMARK    2  A    between atoms: C4_7  and  O2_8 
REMARK    3  A    between atoms: C5_11  and  C6_12 
REMARK    4  A    between atoms: C6_12  and  O4_13 
REMARK    5  A    between atoms: C7_15  and  O5_16 
REMARK    6  A    between atoms: C8_18  and  O6_19 
REMARK    7  A    between atoms: O6_19  and  C9_20 
REMARK    8  A    between atoms: C10_22  and  C11_23 
REMARK    9  A    between atoms: C13_27  and  O10_28 
REMARK   10  A    between atoms: C14_30  and  O11_31 
ROOT
HETATM    1  C3  UNL     1     -16.987 -17.981   4.090  1.00  0.00     0.171 C 
HETATM    2  C4  UNL     1     -17.474 -19.085   3.140  1.00  0.00     0.282 C 
HETATM    3  O3  UNL     1     -16.985 -20.317   3.524  1.00  0.00    -0.349 OA
HETATM    4  C5  UNL     1     -16.886 -20.485   4.890  1.00  0.00     0.179 C 
HETATM    5  C7  UNL     1     -17.910 -19.624   5.614  1.00  0.00     0.180 C 
HETATM    6  C8  UNL     1     -17.568 -18.137   5.439  1.00  0.00     0.183 C 
ENDROOT
BRANCH   6   7
HETATM    7  O6  UNL     1     -16.611 -17.842   6.392  1.00  0.00    -0.348 OA
BRANCH   7   8
HETATM    8  C9  UNL     1     -16.726 -16.556   6.909  1.00  0.00     0.298 C 
HETATM    9  O7  UNL     1     -17.542 -15.768   6.098  1.00  0.00    -0.311 OA
HETATM   10  C10 UNL     1     -18.429 -14.826   6.549  1.00  0.00     0.147 C 
HETATM   11  C12 UNL     1     -18.947 -14.969   7.752  1.00  0.00     0.051 C 
HETATM   12  C13 UNL     1     -18.559 -16.129   8.563  1.00  0.00     0.177 C 
HETATM   13  C14 UNL     1     -17.137 -16.571   8.349  1.00  0.00     0.206 C 
BRANCH  10  14
HETATM   14  C11 UNL     1     -18.773 -13.690   5.683  1.00  0.00     0.233 C 
HETATM   15  O8  UNL     1     -17.996 -13.289   4.807  1.00  0.00    -0.642 OA
HETATM   16  O9  UNL     1     -20.007 -13.088   5.891  1.00  0.00    -0.642 OA
ENDBRANCH  10  14
BRANCH  12  17
HETATM   17  O10 UNL     1     -18.725 -15.753   9.916  1.00  0.00    -0.389 OA
ATOM     18  H10 UNL     1     -18.283 -14.920  10.025  1.00  0.00     0.210 HD
ENDBRANCH  12  17
BRANCH  13  19
HETATM   19  O11 UNL     1     -17.021 -17.856   8.919  1.00  0.00    -0.388 OA
ATOM     20  H11 UNL     1     -17.168 -17.845   9.858  1.00  0.00     0.210 HD
ENDBRANCH  13  19
ENDBRANCH   7   8
ENDBRANCH   6   7
BRANCH   1  21
HETATM   21  N1  UNL     1     -17.209 -16.739   3.429  1.00  0.00    -0.349 N 
HETATM   22  C2  UNL     1     -16.262 -16.136   2.576  1.00  0.00     0.214 C 
HETATM   23  C1  UNL     1     -16.475 -14.840   1.876  1.00  0.00     0.117 C 
HETATM   24  O1  UNL     1     -15.185 -16.779   2.432  1.00  0.00    -0.274 OA
ATOM     25  H1  UNL     1     -18.098 -16.262   3.580  1.00  0.00     0.163 HD
ENDBRANCH   1  21
BRANCH   5  26
HETATM   26  O5  UNL     1     -17.953 -19.994   6.934  1.00  0.00    -0.390 OA
ATOM     27  H5  UNL     1     -18.629 -20.650   7.052  1.00  0.00     0.210 HD
ENDBRANCH   5  26
BRANCH   2  28
HETATM   28  O2  UNL     1     -18.837 -19.044   2.961  1.00  0.00    -0.369 OA
ATOM     29  H2  UNL     1     -19.073 -18.666   2.122  1.00  0.00     0.212 HD
ENDBRANCH   2  28
BRANCH   4  30
HETATM   30  C6  UNL     1     -17.230 -21.926   5.211  1.00  0.00     0.198 C 
BRANCH  30  31
HETATM   31  O4  UNL     1     -18.482 -22.270   4.670  1.00  0.00    -0.398 OA
ATOM     32  H4  UNL     1     -18.770 -23.114   5.000  1.00  0.00     0.209 HD
ENDBRANCH  30  31
ENDBRANCH   4  30
TORSDOF 10
ENDMDL
