MODEL 5
REMARK VINA RESULT: -7.549653405      1.497      5.038
REMARK  10 active torsions:
REMARK  status: ('A' for Active; 'I' for Inactive)
REMARK       I    between atoms: C2_2  and  N1_4 
REMARK    1  A    between atoms: N1_4  and  C3_6 
REMARK    2  A    between atoms: C4_7  and  O2_8 
REMARK    3  A    between atoms: C5_11  and  C6_12 
REMARK    4  A    between atoms: C6_12  and  O4_13 
REMARK    5  A    between atoms: C7_15  and  O5_16 
REMARK    6  A    between atoms: C8_18  and  O6_19 
REMARK    7  A    between atoms: O6_19  and  C9_20 
REMARK    8  A    between atoms: C10_22  and  C11_23 
REMARK    9  A    between atoms: C13_27  and  O10_28 
REMARK   10  A    between atoms: C14_30  and  O11_31 
ROOT
HETATM    1  C3  UNL     1     -17.251 -16.822   3.573  1.00  0.00     0.171 C 
HETATM    2  C4  UNL     1     -16.167 -16.594   2.511  1.00  0.00     0.282 C 
HETATM    3  O3  UNL     1     -16.543 -15.604   1.627  1.00  0.00    -0.349 OA
HETATM    4  C5  UNL     1     -17.265 -14.578   2.202  1.00  0.00     0.179 C 
HETATM    5  C7  UNL     1     -16.907 -14.426   3.672  1.00  0.00     0.180 C 
HETATM    6  C8  UNL     1     -17.388 -15.652   4.462  1.00  0.00     0.183 C 
ENDROOT
BRANCH   6   7
HETATM    7  O6  UNL     1     -18.725 -15.435   4.741  1.00  0.00    -0.348 OA
BRANCH   7   8
HETATM    8  C9  UNL     1     -19.100 -15.864   6.011  1.00  0.00     0.298 C 
HETATM    9  O7  UNL     1     -18.106 -16.661   6.576  1.00  0.00    -0.311 OA
HETATM   10  C10 UNL     1     -17.753 -16.660   7.901  1.00  0.00     0.147 C 
HETATM   11  C12 UNL     1     -17.944 -15.564   8.606  1.00  0.00     0.051 C 
HETATM   12  C13 UNL     1     -18.527 -14.386   7.951  1.00  0.00     0.177 C 
HETATM   13  C14 UNL     1     -19.527 -14.721   6.879  1.00  0.00     0.206 C 
BRANCH  10  14
HETATM   14  C11 UNL     1     -17.174 -17.874   8.490  1.00  0.00     0.233 C 
HETATM   15  O8  UNL     1     -16.717 -18.781   7.783  1.00  0.00    -0.642 OA
HETATM   16  O9  UNL     1     -17.164 -17.961   9.877  1.00  0.00    -0.642 OA
ENDBRANCH  10  14
BRANCH  12  17
HETATM   17  O10 UNL     1     -19.170 -13.635   8.962  1.00  0.00    -0.389 OA
ATOM     18  H10 UNL     1     -19.554 -12.877   8.537  1.00  0.00     0.210 HD
ENDBRANCH  12  17
BRANCH  13  19
HETATM   19  O11 UNL     1     -19.736 -13.540   6.135  1.00  0.00    -0.388 OA
ATOM     20  H11 UNL     1     -20.073 -13.721   5.266  1.00  0.00     0.210 HD
ENDBRANCH  13  19
ENDBRANCH   7   8
ENDBRANCH   6   7
BRANCH   1  21
HETATM   21  N1  UNL     1     -16.969 -18.075   4.190  1.00  0.00    -0.349 N 
HETATM   22  C2  UNL     1     -17.745 -19.233   3.982  1.00  0.00     0.214 C 
HETATM   23  C1  UNL     1     -17.466 -20.550   4.616  1.00  0.00     0.117 C 
HETATM   24  O1  UNL     1     -18.725 -19.087   3.198  1.00  0.00    -0.274 OA
ATOM     25  H1  UNL     1     -16.165 -18.138   4.814  1.00  0.00     0.163 HD
ENDBRANCH   1  21
BRANCH   5  26
HETATM   26  O5  UNL     1     -17.449 -13.258   4.147  1.00  0.00    -0.390 OA
ATOM     27  H5  UNL     1     -17.522 -13.312   5.093  1.00  0.00     0.210 HD
ENDBRANCH   5  26
BRANCH   2  28
HETATM   28  O2  UNL     1     -14.925 -16.413   3.074  1.00  0.00    -0.369 OA
ATOM     29  H2  UNL     1     -14.953 -16.474   4.022  1.00  0.00     0.212 HD
ENDBRANCH   2  28
BRANCH   4  30
HETATM   30  C6  UNL     1     -16.862 -13.283   1.524  1.00  0.00     0.198 C 
BRANCH  30  31
HETATM   31  O4  UNL     1     -15.535 -12.944   1.848  1.00  0.00    -0.398 OA
ATOM     32  H4  UNL     1     -15.319 -12.080   1.518  1.00  0.00     0.209 HD
ENDBRANCH  30  31
ENDBRANCH   4  30
TORSDOF 10
ENDMDL
