MODEL 2
REMARK VINA RESULT: -7.855979252      1.863      5.410
REMARK  10 active torsions:
REMARK  status: ('A' for Active; 'I' for Inactive)
REMARK       I    between atoms: C2_2  and  N1_4 
REMARK    1  A    between atoms: N1_4  and  C3_6 
REMARK    2  A    between atoms: C4_7  and  O2_8 
REMARK    3  A    between atoms: C5_11  and  C6_12 
REMARK    4  A    between atoms: C6_12  and  O4_13 
REMARK    5  A    between atoms: C7_15  and  O5_16 
REMARK    6  A    between atoms: C8_18  and  O6_19 
REMARK    7  A    between atoms: O6_19  and  C9_20 
REMARK    8  A    between atoms: C10_22  and  C11_23 
REMARK    9  A    between atoms: C13_27  and  O10_28 
REMARK   10  A    between atoms: C14_30  and  O11_31 
ROOT
HETATM    1  C3  UNL     1     -17.554 -18.314   6.577  1.00  0.00     0.171 C 
HETATM    2  C4  UNL     1     -17.954 -18.618   8.027  1.00  0.00     0.282 C 
HETATM    3  O3  UNL     1     -17.196 -17.880   8.913  1.00  0.00    -0.349 OA
HETATM    4  C5  UNL     1     -16.878 -16.614   8.466  1.00  0.00     0.179 C 
HETATM    5  C7  UNL     1     -17.933 -16.105   7.497  1.00  0.00     0.180 C 
HETATM    6  C8  UNL     1     -17.902 -16.929   6.201  1.00  0.00     0.183 C 
ENDROOT
BRANCH   6   7
HETATM    7  O6  UNL     1     -16.894 -16.392   5.423  1.00  0.00    -0.348 OA
BRANCH   7   8
HETATM    8  C9  UNL     1     -17.345 -15.889   4.206  1.00  0.00     0.298 C 
HETATM    9  O7  UNL     1     -17.007 -14.543   4.073  1.00  0.00    -0.311 OA
HETATM   10  C10 UNL     1     -16.618 -13.939   2.906  1.00  0.00     0.147 C 
HETATM   11  C12 UNL     1     -16.036 -14.671   1.978  1.00  0.00     0.051 C 
HETATM   12  C13 UNL     1     -15.824 -16.102   2.226  1.00  0.00     0.177 C 
HETATM   13  C14 UNL     1     -16.904 -16.741   3.056  1.00  0.00     0.206 C 
BRANCH  10  14
HETATM   14  C11 UNL     1     -16.861 -12.502   2.725  1.00  0.00     0.233 C 
HETATM   15  O8  UNL     1     -17.984 -12.011   2.894  1.00  0.00    -0.642 OA
HETATM   16  O9  UNL     1     -15.775 -11.719   2.356  1.00  0.00    -0.642 OA
ENDBRANCH  10  14
BRANCH  12  17
HETATM   17  O10 UNL     1     -15.782 -16.733   0.962  1.00  0.00    -0.389 OA
ATOM     18  H10 UNL     1     -15.415 -17.598   1.099  1.00  0.00     0.210 HD
ENDBRANCH  12  17
BRANCH  13  19
HETATM   19  O11 UNL     1     -16.405 -17.990   3.482  1.00  0.00    -0.388 OA
ATOM     20  H11 UNL     1     -16.413 -18.634   2.784  1.00  0.00     0.210 HD
ENDBRANCH  13  19
ENDBRANCH   7   8
ENDBRANCH   6   7
BRANCH   1  21
HETATM   21  N1  UNL     1     -18.092 -19.358   5.771  1.00  0.00    -0.349 N 
HETATM   22  C2  UNL     1     -17.483 -20.622   5.633  1.00  0.00     0.214 C 
HETATM   23  C1  UNL     1     -18.031 -21.725   4.797  1.00  0.00     0.117 C 
HETATM   24  O1  UNL     1     -16.411 -20.772   6.282  1.00  0.00    -0.274 OA
ATOM     25  H1  UNL     1     -18.963 -19.183   5.269  1.00  0.00     0.163 HD
ENDBRANCH   1  21
BRANCH   5  26
HETATM   26  O5  UNL     1     -17.723 -14.768   7.266  1.00  0.00    -0.390 OA
ATOM     27  H5  UNL     1     -17.806 -14.597   6.335  1.00  0.00     0.210 HD
ENDBRANCH   5  26
BRANCH   2  28
HETATM   28  O2  UNL     1     -19.312 -18.515   8.218  1.00  0.00    -0.369 OA
ATOM     29  H2  UNL     1     -19.532 -18.357   9.129  1.00  0.00     0.212 HD
ENDBRANCH   2  28
BRANCH   4  30
HETATM   30  C6  UNL     1     -16.901 -15.677   9.658  1.00  0.00     0.198 C 
BRANCH  30  31
HETATM   31  O4  UNL     1     -18.222 -15.332   9.995  1.00  0.00    -0.398 OA
ATOM     32  H4  UNL     1     -18.373 -14.404   9.858  1.00  0.00     0.209 HD
ENDBRANCH  30  31
ENDBRANCH   4  30
TORSDOF 10
ENDMDL
