MODEL 3
REMARK VINA RESULT: -8.016792787      1.721      3.370
REMARK  10 active torsions:
REMARK  status: ('A' for Active; 'I' for Inactive)
REMARK    1  A    between atoms: N2_5  and  C4_6 
REMARK    2  A    between atoms: C5_8  and  C6_9 
REMARK    3  A    between atoms: C6_9  and  O2_10 
REMARK    4  A    between atoms: O2_10  and  P1_11 
REMARK    5  A    between atoms: P1_11  and  O5_14 
REMARK    6  A    between atoms: O5_14  and  P2_15 
REMARK    7  A    between atoms: P2_15  and  O8_18 
REMARK    8  A    between atoms: O8_18  and  P3_19 
REMARK    9  A    between atoms: C7_23  and  O12_24 
REMARK   10  A    between atoms: C8_26  and  O13_27 
ROOT
HETATM    1  C4  UNL     1       5.030  11.422  36.515  1.00  0.00     0.263 C 
HETATM    2  O1  UNL     1       5.734  12.425  37.125  1.00  0.00    -0.353 OA
HETATM    3  C5  UNL     1       7.070  12.151  37.086  1.00  0.00     0.180 C 
HETATM    4  C7  UNL     1       7.269  10.831  36.378  1.00  0.00     0.182 C 
HETATM    5  C8  UNL     1       5.995  10.744  35.562  1.00  0.00     0.198 C 
ENDROOT
BRANCH   3   6
HETATM    6  C6  UNL     1       7.843  13.193  36.294  1.00  0.00     0.216 C 
BRANCH   6   7
HETATM    7  O2  UNL     1       7.020  14.262  35.936  1.00  0.00    -0.287 OA
BRANCH   7   8
HETATM    8  P1  UNL     1       7.880  15.510  35.227  1.00  0.00     0.417 P 
HETATM    9  O3  UNL     1       9.304  15.115  34.943  1.00  0.00    -0.624 OA
HETATM   10  O4  UNL     1       7.854  16.832  36.290  1.00  0.00    -0.624 OA
BRANCH   8  11
HETATM   11  O5  UNL     1       7.069  15.995  33.820  1.00  0.00    -0.180 OA
BRANCH  11  12
HETATM   12  P2  UNL     1       7.495  15.045  32.506  1.00  0.00     0.428 P 
HETATM   13  O6  UNL     1       6.410  15.170  31.443  1.00  0.00    -0.624 OA
HETATM   14  O7  UNL     1       7.636  13.447  33.009  1.00  0.00    -0.624 OA
BRANCH  12  15
HETATM   15  O8  UNL     1       8.962  15.521  31.815  1.00  0.00    -0.173 OA
BRANCH  15  16
HETATM   16  P3  UNL     1       8.955  17.161  31.428  1.00  0.00     0.431 P 
HETATM   17  O9  UNL     1       7.978  17.469  30.324  1.00  0.00    -0.616 OA
HETATM   18  O10 UNL     1       8.592  18.139  32.738  1.00  0.00    -0.616 OA
HETATM   19  O11 UNL     1      10.503  17.540  30.833  1.00  0.00    -0.616 OA
ENDBRANCH  15  16
ENDBRANCH  12  15
ENDBRANCH  11  12
ENDBRANCH   8  11
ENDBRANCH   7   8
ENDBRANCH   6   7
ENDBRANCH   3   6
BRANCH   4  20
HETATM   20  O12 UNL     1       7.285   9.806  37.325  1.00  0.00    -0.390 OA
ATOM     21  H12 UNL     1       7.247   8.970  36.875  1.00  0.00     0.210 HD
ENDBRANCH   4  20
BRANCH   1  22
HETATM   22  N2  UNL     1       3.829  11.857  35.849  1.00  0.00    -0.280 N 
HETATM   23  C3  UNL     1       3.811  12.502  34.673  1.00  0.00     0.102 A 
HETATM   24  C2  UNL     1       2.628  12.898  34.073  1.00  0.00     0.062 A 
HETATM   25  C1  UNL     1       1.426  12.622  34.703  1.00  0.00     0.121 A 
HETATM   26  N1  UNL     1       0.210  13.024  34.098  1.00  0.00    -0.083 NA
HETATM   27  N3  UNL     1       1.482  11.976  35.879  1.00  0.00    -0.297 N 
HETATM   28  C9  UNL     1       2.654  11.595  36.450  1.00  0.00     0.329 A 
ATOM     29  H3  UNL     1       0.610  11.761  36.362  1.00  0.00     0.171 HD
HETATM   30  O14 UNL     1       2.642  10.986  37.566  1.00  0.00    -0.246 OA
ENDBRANCH   1  22
BRANCH   5  31
HETATM   31  O13 UNL     1       5.636   9.427  35.302  1.00  0.00    -0.388 OA
ATOM     32  H13 UNL     1       5.347   9.305  34.406  1.00  0.00     0.210 HD
ENDBRANCH   5  31
TORSDOF 10
ENDMDL
