MODEL 9
REMARK VINA RESULT: -7.620871834      3.943      6.299
REMARK  10 active torsions:
REMARK  status: ('A' for Active; 'I' for Inactive)
REMARK    1  A    between atoms: N2_5  and  C4_6 
REMARK    2  A    between atoms: C5_8  and  C6_9 
REMARK    3  A    between atoms: C6_9  and  O2_10 
REMARK    4  A    between atoms: O2_10  and  P1_11 
REMARK    5  A    between atoms: P1_11  and  O5_14 
REMARK    6  A    between atoms: O5_14  and  P2_15 
REMARK    7  A    between atoms: P2_15  and  O8_18 
REMARK    8  A    between atoms: O8_18  and  P3_19 
REMARK    9  A    between atoms: C7_23  and  O12_24 
REMARK   10  A    between atoms: C8_26  and  O13_27 
ROOT
HETATM    1  C4  UNL     1      10.818  16.006  38.198  1.00  0.00     0.263 C 
HETATM    2  O1  UNL     1       9.739  15.232  38.527  1.00  0.00    -0.353 OA
HETATM    3  C5  UNL     1       8.587  15.950  38.381  1.00  0.00     0.180 C 
HETATM    4  C7  UNL     1       8.943  17.339  37.908  1.00  0.00     0.182 C 
HETATM    5  C8  UNL     1      10.298  17.093  37.277  1.00  0.00     0.198 C 
ENDROOT
BRANCH   3   6
HETATM    6  C6  UNL     1       7.671  15.350  37.327  1.00  0.00     0.216 C 
BRANCH   6   7
HETATM    7  O2  UNL     1       8.289  14.280  36.676  1.00  0.00    -0.287 OA
BRANCH   7   8
HETATM    8  P1  UNL     1       7.270  13.536  35.578  1.00  0.00     0.417 P 
HETATM    9  O3  UNL     1       5.897  14.154  35.584  1.00  0.00    -0.624 OA
HETATM   10  O4  UNL     1       7.160  11.895  35.995  1.00  0.00    -0.624 OA
BRANCH   8  11
HETATM   11  O5  UNL     1       7.984  13.606  34.043  1.00  0.00    -0.180 OA
BRANCH  11  12
HETATM   12  P2  UNL     1       8.205  15.190  33.538  1.00  0.00     0.428 P 
HETATM   13  O6  UNL     1       9.453  15.746  34.214  1.00  0.00    -0.624 OA
HETATM   14  O7  UNL     1       6.857  16.095  33.972  1.00  0.00    -0.624 OA
BRANCH  12  15
HETATM   15  O8  UNL     1       8.416  15.310  31.866  1.00  0.00    -0.173 OA
BRANCH  15  16
HETATM   16  P3  UNL     1       8.654  16.909  31.390  1.00  0.00     0.431 P 
HETATM   17  O9  UNL     1       8.246  17.878  32.468  1.00  0.00    -0.616 OA
HETATM   18  O10 UNL     1      10.242  17.235  30.967  1.00  0.00    -0.616 OA
HETATM   19  O11 UNL     1       7.631  17.192  30.061  1.00  0.00    -0.616 OA
ENDBRANCH  15  16
ENDBRANCH  12  15
ENDBRANCH  11  12
ENDBRANCH   8  11
ENDBRANCH   7   8
ENDBRANCH   6   7
ENDBRANCH   3   6
BRANCH   4  20
HETATM   20  O12 UNL     1       9.091  18.172  39.018  1.00  0.00    -0.390 OA
ATOM     21  H12 UNL     1       9.757  18.823  38.829  1.00  0.00     0.210 HD
ENDBRANCH   4  20
BRANCH   1  22
HETATM   22  N2  UNL     1      11.915  15.279  37.608  1.00  0.00    -0.280 N 
HETATM   23  C3  UNL     1      11.769  14.203  36.821  1.00  0.00     0.102 A 
HETATM   24  C2  UNL     1      12.856  13.540  36.279  1.00  0.00     0.062 A 
HETATM   25  C1  UNL     1      14.133  14.000  36.554  1.00  0.00     0.121 A 
HETATM   26  N1  UNL     1      15.253  13.329  36.004  1.00  0.00    -0.083 NA
HETATM   27  N3  UNL     1      14.241  15.080  37.345  1.00  0.00    -0.297 N 
HETATM   28  C9  UNL     1      13.161  15.716  37.867  1.00  0.00     0.329 A 
ATOM     29  H3  UNL     1      15.171  15.437  37.562  1.00  0.00     0.171 HD
HETATM   30  O14 UNL     1      13.328  16.734  38.610  1.00  0.00    -0.246 OA
ENDBRANCH   1  22
BRANCH   5  31
HETATM   31  O13 UNL     1      11.096  18.230  37.307  1.00  0.00    -0.388 OA
ATOM     32  H13 UNL     1      10.584  19.028  37.259  1.00  0.00     0.210 HD
ENDBRANCH   5  31
TORSDOF 10
ENDMDL
