MODEL 2
REMARK VINA RESULT: -8.231149650      0.717      1.243
REMARK  10 active torsions:
REMARK  status: ('A' for Active; 'I' for Inactive)
REMARK    1  A    between atoms: N2_5  and  C4_6 
REMARK    2  A    between atoms: C5_8  and  C6_9 
REMARK    3  A    between atoms: C6_9  and  O2_10 
REMARK    4  A    between atoms: O2_10  and  P1_11 
REMARK    5  A    between atoms: P1_11  and  O5_14 
REMARK    6  A    between atoms: O5_14  and  P2_15 
REMARK    7  A    between atoms: P2_15  and  O8_18 
REMARK    8  A    between atoms: O8_18  and  P3_19 
REMARK    9  A    between atoms: C7_23  and  O12_24 
REMARK   10  A    between atoms: C8_26  and  O13_27 
ROOT
HETATM    1  C4  UNL     1       7.202  12.763  36.323  1.00  0.00     0.263 C 
HETATM    2  O1  UNL     1       7.123  13.867  37.128  1.00  0.00    -0.353 OA
HETATM    3  C5  UNL     1       8.220  14.658  36.947  1.00  0.00     0.180 C 
HETATM    4  C7  UNL     1       9.116  14.009  35.919  1.00  0.00     0.182 C 
HETATM    5  C8  UNL     1       8.123  13.136  35.178  1.00  0.00     0.198 C 
ENDROOT
BRANCH   3   6
HETATM    6  C6  UNL     1       7.852  16.029  36.404  1.00  0.00     0.216 C 
BRANCH   6   7
HETATM    7  O2  UNL     1       8.760  16.442  35.428  1.00  0.00    -0.287 OA
BRANCH   7   8
HETATM    8  P1  UNL     1       7.996  16.931  34.022  1.00  0.00     0.417 P 
HETATM    9  O3  UNL     1       8.229  18.390  33.739  1.00  0.00    -0.624 OA
HETATM   10  O4  UNL     1       6.334  16.641  34.204  1.00  0.00    -0.624 OA
BRANCH   8  11
HETATM   11  O5  UNL     1       8.528  15.949  32.747  1.00  0.00    -0.180 OA
BRANCH  11  12
HETATM   12  P2  UNL     1       7.732  16.313  31.317  1.00  0.00     0.428 P 
HETATM   13  O6  UNL     1       8.404  17.524  30.680  1.00  0.00    -0.624 OA
HETATM   14  O7  UNL     1       6.122  16.656  31.659  1.00  0.00    -0.624 OA
BRANCH  12  15
HETATM   15  O8  UNL     1       7.785  15.039  30.207  1.00  0.00    -0.173 OA
BRANCH  15  16
HETATM   16  P3  UNL     1       7.509  13.558  30.960  1.00  0.00     0.431 P 
HETATM   17  O9  UNL     1       8.740  13.052  31.664  1.00  0.00    -0.616 OA
HETATM   18  O10 UNL     1       6.256  13.613  32.071  1.00  0.00    -0.616 OA
HETATM   19  O11 UNL     1       7.148  12.435  29.735  1.00  0.00    -0.616 OA
ENDBRANCH  15  16
ENDBRANCH  12  15
ENDBRANCH  11  12
ENDBRANCH   8  11
ENDBRANCH   7   8
ENDBRANCH   6   7
ENDBRANCH   3   6
BRANCH   4  20
HETATM   20  O12 UNL     1      10.047  13.201  36.572  1.00  0.00    -0.390 OA
ATOM     21  H12 UNL     1      10.903  13.609  36.516  1.00  0.00     0.210 HD
ENDBRANCH   4  20
BRANCH   1  22
HETATM   22  N2  UNL     1       5.929  12.275  35.855  1.00  0.00    -0.280 N 
HETATM   23  C3  UNL     1       4.886  13.061  35.550  1.00  0.00     0.102 A 
HETATM   24  C2  UNL     1       3.684  12.542  35.103  1.00  0.00     0.062 A 
HETATM   25  C1  UNL     1       3.551  11.170  34.965  1.00  0.00     0.121 A 
HETATM   26  N1  UNL     1       2.324  10.628  34.508  1.00  0.00    -0.083 NA
HETATM   27  N3  UNL     1       4.615  10.414  35.279  1.00  0.00    -0.297 N 
HETATM   28  C9  UNL     1       5.786  10.944  35.716  1.00  0.00     0.329 A 
ATOM     29  H3  UNL     1       4.541   9.401  35.186  1.00  0.00     0.171 HD
HETATM   30  O14 UNL     1       6.759  10.176  35.999  1.00  0.00    -0.246 OA
ENDBRANCH   1  22
BRANCH   5  31
HETATM   31  O13 UNL     1       8.733  12.023  34.613  1.00  0.00    -0.388 OA
ATOM     32  H13 UNL     1       9.045  12.194  33.733  1.00  0.00     0.210 HD
ENDBRANCH   5  31
TORSDOF 10
ENDMDL
