MODEL 14
REMARK VINA RESULT: -7.510291023      4.148      6.113
REMARK  10 active torsions:
REMARK  status: ('A' for Active; 'I' for Inactive)
REMARK    1  A    between atoms: N2_5  and  C4_6 
REMARK    2  A    between atoms: C5_8  and  C6_9 
REMARK    3  A    between atoms: C6_9  and  O2_10 
REMARK    4  A    between atoms: O2_10  and  P1_11 
REMARK    5  A    between atoms: P1_11  and  O5_14 
REMARK    6  A    between atoms: O5_14  and  P2_15 
REMARK    7  A    between atoms: P2_15  and  O8_18 
REMARK    8  A    between atoms: O8_18  and  P3_19 
REMARK    9  A    between atoms: C7_23  and  O12_24 
REMARK   10  A    between atoms: C8_26  and  O13_27 
ROOT
HETATM    1  C4  UNL     1      11.040  16.151  38.341  1.00  0.00     0.263 C 
HETATM    2  O1  UNL     1       9.890  15.505  38.703  1.00  0.00    -0.353 OA
HETATM    3  C5  UNL     1       8.832  16.365  38.645  1.00  0.00     0.180 C 
HETATM    4  C7  UNL     1       9.336  17.717  38.200  1.00  0.00     0.182 C 
HETATM    5  C8  UNL     1      10.617  17.330  37.488  1.00  0.00     0.198 C 
ENDROOT
BRANCH   3   6
HETATM    6  C6  UNL     1       7.795  15.927  37.623  1.00  0.00     0.216 C 
BRANCH   6   7
HETATM    7  O2  UNL     1       8.401  15.300  36.533  1.00  0.00    -0.287 OA
BRANCH   7   8
HETATM    8  P1  UNL     1       7.298  14.915  35.335  1.00  0.00     0.417 P 
HETATM    9  O3  UNL     1       6.033  14.332  35.907  1.00  0.00    -0.624 OA
HETATM   10  O4  UNL     1       8.027  13.791  34.295  1.00  0.00    -0.624 OA
BRANCH   8  11
HETATM   11  O5  UNL     1       6.990  16.305  34.416  1.00  0.00    -0.180 OA
BRANCH  11  12
HETATM   12  P2  UNL     1       8.409  17.101  34.008  1.00  0.00     0.428 P 
HETATM   13  O6  UNL     1       9.572  16.127  34.155  1.00  0.00    -0.624 OA
HETATM   14  O7  UNL     1       8.615  18.413  35.038  1.00  0.00    -0.624 OA
BRANCH  12  15
HETATM   15  O8  UNL     1       8.396  17.665  32.415  1.00  0.00    -0.173 OA
BRANCH  15  16
HETATM   16  P3  UNL     1       7.722  16.532  31.367  1.00  0.00     0.431 P 
HETATM   17  O9  UNL     1       7.766  16.999  29.936  1.00  0.00    -0.616 OA
HETATM   18  O10 UNL     1       8.472  15.036  31.453  1.00  0.00    -0.616 OA
HETATM   19  O11 UNL     1       6.080  16.381  31.784  1.00  0.00    -0.616 OA
ENDBRANCH  15  16
ENDBRANCH  12  15
ENDBRANCH  11  12
ENDBRANCH   8  11
ENDBRANCH   7   8
ENDBRANCH   6   7
ENDBRANCH   3   6
BRANCH   4  20
HETATM   20  O12 UNL     1       9.644  18.481  39.328  1.00  0.00    -0.390 OA
ATOM     21  H12 UNL     1       9.619  17.921  40.095  1.00  0.00     0.210 HD
ENDBRANCH   4  20
BRANCH   1  22
HETATM   22  N2  UNL     1      12.005  15.317  37.668  1.00  0.00    -0.280 N 
HETATM   23  C3  UNL     1      11.686  14.269  36.895  1.00  0.00     0.102 A 
HETATM   24  C2  UNL     1      12.651  13.499  36.270  1.00  0.00     0.062 A 
HETATM   25  C1  UNL     1      13.987  13.820  36.444  1.00  0.00     0.121 A 
HETATM   26  N1  UNL     1      14.984  13.039  35.808  1.00  0.00    -0.083 NA
HETATM   27  N3  UNL     1      14.270  14.876  37.224  1.00  0.00    -0.297 N 
HETATM   28  C9  UNL     1      13.307  15.618  37.829  1.00  0.00     0.329 A 
ATOM     29  H3  UNL     1      15.246  15.132  37.367  1.00  0.00     0.171 HD
HETATM   30  O14 UNL     1      13.637  16.607  38.556  1.00  0.00    -0.246 OA
ENDBRANCH   1  22
BRANCH   5  31
HETATM   31  O13 UNL     1      11.552  18.357  37.512  1.00  0.00    -0.388 OA
ATOM     32  H13 UNL     1      11.435  18.965  36.792  1.00  0.00     0.210 HD
ENDBRANCH   5  31
TORSDOF 10
ENDMDL
