MODEL 1
REMARK VINA RESULT: -8.353649012      0.000      0.000
REMARK  10 active torsions:
REMARK  status: ('A' for Active; 'I' for Inactive)
REMARK    1  A    between atoms: N2_5  and  C4_6 
REMARK    2  A    between atoms: C5_8  and  C6_9 
REMARK    3  A    between atoms: C6_9  and  O2_10 
REMARK    4  A    between atoms: O2_10  and  P1_11 
REMARK    5  A    between atoms: P1_11  and  O5_14 
REMARK    6  A    between atoms: O5_14  and  P2_15 
REMARK    7  A    between atoms: P2_15  and  O8_18 
REMARK    8  A    between atoms: O8_18  and  P3_19 
REMARK    9  A    between atoms: C7_23  and  O12_24 
REMARK   10  A    between atoms: C8_26  and  O13_27 
ROOT
HETATM    1  C4  UNL     1       7.113  12.878  36.168  1.00  0.00     0.263 C 
HETATM    2  O1  UNL     1       7.040  13.953  37.011  1.00  0.00    -0.353 OA
HETATM    3  C5  UNL     1       8.092  14.795  36.790  1.00  0.00     0.180 C 
HETATM    4  C7  UNL     1       8.947  14.214  35.689  1.00  0.00     0.182 C 
HETATM    5  C8  UNL     1       7.947  13.323  34.982  1.00  0.00     0.198 C 
ENDROOT
BRANCH   3   6
HETATM    6  C6  UNL     1       7.637  16.165  36.314  1.00  0.00     0.216 C 
BRANCH   6   7
HETATM    7  O2  UNL     1       8.452  16.633  35.282  1.00  0.00    -0.287 OA
BRANCH   7   8
HETATM    8  P1  UNL     1       7.655  17.722  34.294  1.00  0.00     0.417 P 
HETATM    9  O3  UNL     1       7.208  18.942  35.054  1.00  0.00    -0.624 OA
HETATM   10  O4  UNL     1       6.308  16.935  33.629  1.00  0.00    -0.624 OA
BRANCH   8  11
HETATM   11  O5  UNL     1       8.675  18.126  33.001  1.00  0.00    -0.180 OA
BRANCH  11  12
HETATM   12  P2  UNL     1       8.634  16.959  31.797  1.00  0.00     0.428 P 
HETATM   13  O6  UNL     1       9.923  17.049  30.989  1.00  0.00    -0.624 OA
HETATM   14  O7  UNL     1       7.306  17.243  30.806  1.00  0.00    -0.624 OA
BRANCH  12  15
HETATM   15  O8  UNL     1       8.514  15.393  32.421  1.00  0.00    -0.173 OA
BRANCH  15  16
HETATM   16  P3  UNL     1       7.753  14.356  31.333  1.00  0.00     0.431 P 
HETATM   17  O9  UNL     1       7.819  14.880  29.923  1.00  0.00    -0.616 OA
HETATM   18  O10 UNL     1       8.396  12.809  31.347  1.00  0.00    -0.616 OA
HETATM   19  O11 UNL     1       6.108  14.303  31.761  1.00  0.00    -0.616 OA
ENDBRANCH  15  16
ENDBRANCH  12  15
ENDBRANCH  11  12
ENDBRANCH   8  11
ENDBRANCH   7   8
ENDBRANCH   6   7
ENDBRANCH   3   6
BRANCH   4  20
HETATM   20  O12 UNL     1       9.949  13.427  36.260  1.00  0.00    -0.390 OA
ATOM     21  H12 UNL     1      10.624  13.268  35.610  1.00  0.00     0.210 HD
ENDBRANCH   4  20
BRANCH   1  22
HETATM   22  N2  UNL     1       5.835  12.351  35.761  1.00  0.00    -0.280 N 
HETATM   23  C3  UNL     1       4.743  13.101  35.551  1.00  0.00     0.102 A 
HETATM   24  C2  UNL     1       3.537  12.545  35.160  1.00  0.00     0.062 A 
HETATM   25  C1  UNL     1       3.453  11.175  34.979  1.00  0.00     0.121 A 
HETATM   26  N1  UNL     1       2.223  10.596  34.579  1.00  0.00    -0.083 NA
HETATM   27  N3  UNL     1       4.565  10.456  35.199  1.00  0.00    -0.297 N 
HETATM   28  C9  UNL     1       5.739  11.021  35.582  1.00  0.00     0.329 A 
ATOM     29  H3  UNL     1       4.527   9.444  35.072  1.00  0.00     0.171 HD
HETATM   30  O14 UNL     1       6.759  10.287  35.775  1.00  0.00    -0.246 OA
ENDBRANCH   1  22
BRANCH   5  31
HETATM   31  O13 UNL     1       8.565  12.253  34.346  1.00  0.00    -0.388 OA
ATOM     32  H13 UNL     1       8.088  11.971  33.575  1.00  0.00     0.210 HD
ENDBRANCH   5  31
TORSDOF 10
ENDMDL
