MODEL 1
REMARK VINA RESULT: -8.082745660      0.000      0.000
REMARK  7 active torsions:
REMARK  status: ('A' for Active; 'I' for Inactive)
REMARK    1  A    between atoms: C4_6  and  C5_7 
REMARK    2  A    between atoms: C5_7  and  O1_8 
REMARK    3  A    between atoms: O1_8  and  P1_9 
REMARK    4  A    between atoms: C6_13  and  C7_14 
REMARK    5  A    between atoms: C7_14  and  N2_15 
REMARK    6  A    between atoms: C8_17  and  C9_18 
REMARK    7  A    between atoms: C10_21  and  O7_22 
ROOT
HETATM    1  C1  UNL     1      22.661 -32.900 -54.379  1.00  0.00     0.071 C 
HETATM    2  C2  UNL     1      23.095 -33.596 -53.109  1.00  0.00     0.039 A 
HETATM    3  N1  UNL     1      22.528 -33.341 -51.925  1.00  0.00    -0.367 N 
ATOM      4  H1  UNL     1      21.741 -32.693 -51.898  1.00  0.00     0.165 HD
HETATM    5  C3  UNL     1      22.940 -33.894 -50.761  1.00  0.00     0.098 A 
HETATM    6  C4  UNL     1      24.020 -34.780 -50.823  1.00  0.00    -0.004 A 
HETATM    7  C6  UNL     1      24.618 -35.077 -52.018  1.00  0.00     0.024 A 
HETATM    8  C10 UNL     1      24.185 -34.493 -53.195  1.00  0.00     0.100 A 
ENDROOT
BRANCH   7   9
HETATM    9  C7  UNL     1      25.831 -35.982 -52.010  1.00  0.00     0.102 C 
BRANCH   9  10
HETATM   10  N2  UNL     1      26.787 -35.523 -52.918  1.00  0.00    -0.369 N 
HETATM   11  C8  UNL     1      27.648 -36.225 -53.697  1.00  0.00     0.172 C 
ATOM     12  H2  UNL     1      26.847 -34.509 -53.010  1.00  0.00     0.164 HD
BRANCH  11  13
HETATM   13  C9  UNL     1      27.079 -37.095 -54.721  1.00  0.00     0.214 C 
HETATM   14  O5  UNL     1      26.640 -36.587 -55.802  1.00  0.00    -0.643 OA
HETATM   15  O6  UNL     1      26.979 -38.469 -54.619  1.00  0.00    -0.643 OA
ENDBRANCH  11  13
ENDBRANCH   9  10
ENDBRANCH   7   9
BRANCH   6  16
HETATM   16  C5  UNL     1      24.532 -35.272 -49.488  1.00  0.00     0.223 C 
BRANCH  16  17
HETATM   17  O1  UNL     1      25.728 -34.674 -49.237  1.00  0.00    -0.278 OA
BRANCH  17  18
HETATM   18  P1  UNL     1      26.759 -35.429 -48.179  1.00  0.00     0.422 P 
HETATM   19  O2  UNL     1      27.265 -36.765 -48.766  1.00  0.00    -0.617 OA
HETATM   20  O3  UNL     1      25.948 -35.855 -46.714  1.00  0.00    -0.617 OA
HETATM   21  O4  UNL     1      28.148 -34.579 -47.781  1.00  0.00    -0.617 OA
ENDBRANCH  17  18
ENDBRANCH  16  17
ENDBRANCH   6  16
BRANCH   8  22
HETATM   22  O7  UNL     1      24.726 -34.701 -54.430  1.00  0.00    -0.358 OA
ATOM     23  H7  UNL     1      24.690 -35.585 -54.777  1.00  0.00     0.217 HD
ENDBRANCH   8  22
TORSDOF 7
ENDMDL
