MODEL 3
REMARK VINA RESULT: -7.667865142      1.523      2.125
REMARK  7 active torsions:
REMARK  status: ('A' for Active; 'I' for Inactive)
REMARK    1  A    between atoms: C4_6  and  C5_7 
REMARK    2  A    between atoms: C5_7  and  O1_8 
REMARK    3  A    between atoms: O1_8  and  P1_9 
REMARK    4  A    between atoms: C6_13  and  C7_14 
REMARK    5  A    between atoms: C7_14  and  N2_15 
REMARK    6  A    between atoms: C8_17  and  C9_18 
REMARK    7  A    between atoms: C10_21  and  O7_22 
ROOT
HETATM    1  C1  UNL     1      23.651 -33.699 -54.069  1.00  0.00     0.071 C 
HETATM    2  C2  UNL     1      24.347 -34.547 -53.028  1.00  0.00     0.039 A 
HETATM    3  N1  UNL     1      24.077 -34.439 -51.723  1.00  0.00    -0.367 N 
ATOM      4  H1  UNL     1      23.337 -33.800 -51.435  1.00  0.00     0.165 HD
HETATM    5  C3  UNL     1      24.731 -35.132 -50.761  1.00  0.00     0.098 A 
HETATM    6  C4  UNL     1      25.741 -36.004 -51.179  1.00  0.00    -0.004 A 
HETATM    7  C6  UNL     1      26.037 -36.152 -52.507  1.00  0.00     0.024 A 
HETATM    8  C10 UNL     1      25.361 -35.426 -53.472  1.00  0.00     0.100 A 
ENDROOT
BRANCH   7   9
HETATM    9  C7  UNL     1      27.193 -37.051 -52.890  1.00  0.00     0.102 C 
BRANCH   9  10
HETATM   10  N2  UNL     1      26.730 -38.329 -53.210  1.00  0.00    -0.369 N 
HETATM   11  C8  UNL     1      26.157 -38.781 -54.354  1.00  0.00     0.172 C 
ATOM     12  H2  UNL     1      26.839 -39.027 -52.474  1.00  0.00     0.164 HD
BRANCH  11  13
HETATM   13  C9  UNL     1      26.964 -38.758 -55.569  1.00  0.00     0.214 C 
HETATM   14  O5  UNL     1      26.998 -37.703 -56.280  1.00  0.00    -0.643 OA
HETATM   15  O6  UNL     1      27.728 -39.814 -56.026  1.00  0.00    -0.643 OA
ENDBRANCH  11  13
ENDBRANCH   9  10
ENDBRANCH   7   9
BRANCH   6  16
HETATM   16  C5  UNL     1      26.534 -36.657 -50.069  1.00  0.00     0.223 C 
BRANCH  16  17
HETATM   17  O1  UNL     1      25.907 -36.411 -48.887  1.00  0.00    -0.278 OA
BRANCH  17  18
HETATM   18  P1  UNL     1      26.826 -35.835 -47.632  1.00  0.00     0.422 P 
HETATM   19  O2  UNL     1      26.559 -34.332 -47.402  1.00  0.00    -0.617 OA
HETATM   20  O3  UNL     1      28.512 -35.947 -47.991  1.00  0.00    -0.617 OA
HETATM   21  O4  UNL     1      26.559 -36.555 -46.141  1.00  0.00    -0.617 OA
ENDBRANCH  17  18
ENDBRANCH  16  17
ENDBRANCH   6  16
BRANCH   8  22
HETATM   22  O7  UNL     1      25.596 -35.481 -54.815  1.00  0.00    -0.358 OA
ATOM     23  H7  UNL     1      25.260 -36.235 -55.285  1.00  0.00     0.217 HD
ENDBRANCH   8  22
TORSDOF 7
ENDMDL
