MODEL 4
REMARK VINA RESULT: -7.456190563      2.481      5.688
REMARK  7 active torsions:
REMARK  status: ('A' for Active; 'I' for Inactive)
REMARK    1  A    between atoms: C4_6  and  C5_7 
REMARK    2  A    between atoms: C5_7  and  O1_8 
REMARK    3  A    between atoms: O1_8  and  P1_9 
REMARK    4  A    between atoms: C6_13  and  C7_14 
REMARK    5  A    between atoms: C7_14  and  N2_15 
REMARK    6  A    between atoms: C8_17  and  C9_18 
REMARK    7  A    between atoms: C10_21  and  O7_22 
ROOT
HETATM    1  C1  UNL     1      22.596 -33.567 -51.140  1.00  0.00     0.071 C 
HETATM    2  C2  UNL     1      23.805 -34.337 -51.622  1.00  0.00     0.039 A 
HETATM    3  N1  UNL     1      24.153 -34.384 -52.912  1.00  0.00    -0.367 N 
ATOM      4  H1  UNL     1      23.610 -33.835 -53.578  1.00  0.00     0.165 HD
HETATM    5  C3  UNL     1      25.187 -35.120 -53.385  1.00  0.00     0.098 A 
HETATM    6  C4  UNL     1      25.918 -35.863 -52.453  1.00  0.00    -0.004 A 
HETATM    7  C6  UNL     1      25.601 -35.829 -51.122  1.00  0.00     0.024 A 
HETATM    8  C10 UNL     1      24.534 -35.077 -50.664  1.00  0.00     0.100 A 
ENDROOT
BRANCH   7   9
HETATM    9  C7  UNL     1      26.380 -36.716 -50.175  1.00  0.00     0.102 C 
BRANCH   9  10
HETATM   10  N2  UNL     1      25.950 -36.521 -48.861  1.00  0.00    -0.369 N 
HETATM   11  C8  UNL     1      26.678 -36.341 -47.729  1.00  0.00     0.172 C 
ATOM     12  H2  UNL     1      24.938 -36.512 -48.731  1.00  0.00     0.164 HD
BRANCH  11  13
HETATM   13  C9  UNL     1      27.512 -35.147 -47.645  1.00  0.00     0.214 C 
HETATM   14  O5  UNL     1      26.962 -34.002 -47.567  1.00  0.00    -0.643 OA
HETATM   15  O6  UNL     1      28.893 -35.151 -47.633  1.00  0.00    -0.643 OA
ENDBRANCH  11  13
ENDBRANCH   9  10
ENDBRANCH   7   9
BRANCH   6  16
HETATM   16  C5  UNL     1      26.976 -36.771 -53.037  1.00  0.00     0.223 C 
BRANCH  16  17
HETATM   17  O1  UNL     1      26.459 -38.025 -53.145  1.00  0.00    -0.278 OA
BRANCH  17  18
HETATM   18  P1  UNL     1      26.340 -38.681 -54.664  1.00  0.00     0.422 P 
HETATM   19  O2  UNL     1      27.269 -39.906 -54.806  1.00  0.00    -0.617 OA
HETATM   20  O3  UNL     1      26.873 -37.565 -55.869  1.00  0.00    -0.617 OA
HETATM   21  O4  UNL     1      24.820 -39.239 -55.101  1.00  0.00    -0.617 OA
ENDBRANCH  17  18
ENDBRANCH  16  17
ENDBRANCH   6  16
BRANCH   8  22
HETATM   22  O7  UNL     1      24.121 -34.995 -49.365  1.00  0.00    -0.358 OA
ATOM     23  H7  UNL     1      24.119 -34.134 -48.963  1.00  0.00     0.217 HD
ENDBRANCH   8  22
TORSDOF 7
ENDMDL
