MODEL 6
REMARK VINA RESULT: -7.362532479      2.467      5.605
REMARK  7 active torsions:
REMARK  status: ('A' for Active; 'I' for Inactive)
REMARK    1  A    between atoms: C4_6  and  C5_7 
REMARK    2  A    between atoms: C5_7  and  O1_8 
REMARK    3  A    between atoms: O1_8  and  P1_9 
REMARK    4  A    between atoms: C6_13  and  C7_14 
REMARK    5  A    between atoms: C7_14  and  N2_15 
REMARK    6  A    between atoms: C8_17  and  C9_18 
REMARK    7  A    between atoms: C10_21  and  O7_22 
ROOT
HETATM    1  C1  UNL     1      22.504 -33.442 -52.874  1.00  0.00     0.071 C 
HETATM    2  C2  UNL     1      23.765 -34.275 -52.873  1.00  0.00     0.039 A 
HETATM    3  N1  UNL     1      24.348 -34.688 -54.003  1.00  0.00    -0.367 N 
ATOM      4  H1  UNL     1      23.951 -34.381 -54.891  1.00  0.00     0.165 HD
HETATM    5  C3  UNL     1      25.437 -35.493 -54.036  1.00  0.00     0.098 A 
HETATM    6  C4  UNL     1      25.964 -35.901 -52.807  1.00  0.00    -0.004 A 
HETATM    7  C6  UNL     1      25.404 -35.487 -51.629  1.00  0.00     0.024 A 
HETATM    8  C10 UNL     1      24.286 -34.672 -51.620  1.00  0.00     0.100 A 
ENDROOT
BRANCH   7   9
HETATM    9  C7  UNL     1      25.973 -36.026 -50.334  1.00  0.00     0.102 C 
BRANCH   9  10
HETATM   10  N2  UNL     1      26.086 -35.004 -49.389  1.00  0.00    -0.369 N 
HETATM   11  C8  UNL     1      26.175 -35.081 -48.037  1.00  0.00     0.172 C 
ATOM     12  H2  UNL     1      26.106 -34.059 -49.772  1.00  0.00     0.164 HD
BRANCH  11  13
HETATM   13  C9  UNL     1      27.344 -35.746 -47.473  1.00  0.00     0.214 C 
HETATM   14  O5  UNL     1      27.194 -36.586 -46.529  1.00  0.00    -0.643 OA
HETATM   15  O6  UNL     1      28.644 -35.545 -47.896  1.00  0.00    -0.643 OA
ENDBRANCH  11  13
ENDBRANCH   9  10
ENDBRANCH   7   9
BRANCH   6  16
HETATM   16  C5  UNL     1      27.095 -36.902 -52.888  1.00  0.00     0.223 C 
BRANCH  16  17
HETATM   17  O1  UNL     1      26.563 -38.143 -53.053  1.00  0.00    -0.278 OA
BRANCH  17  18
HETATM   18  P1  UNL     1      26.592 -38.797 -54.577  1.00  0.00     0.422 P 
HETATM   19  O2  UNL     1      27.292 -40.173 -54.570  1.00  0.00    -0.617 OA
HETATM   20  O3  UNL     1      27.521 -37.821 -55.658  1.00  0.00    -0.617 OA
HETATM   21  O4  UNL     1      25.095 -39.078 -55.280  1.00  0.00    -0.617 OA
ENDBRANCH  17  18
ENDBRANCH  16  17
ENDBRANCH   6  16
BRANCH   8  22
HETATM   22  O7  UNL     1      23.638 -34.226 -50.505  1.00  0.00    -0.358 OA
ATOM     23  H7  UNL     1      22.723 -33.988 -50.600  1.00  0.00     0.217 HD
ENDBRANCH   8  22
TORSDOF 7
ENDMDL
