MODEL 2
REMARK VINA RESULT: -8.012355643      0.148      1.051
REMARK  7 active torsions:
REMARK  status: ('A' for Active; 'I' for Inactive)
REMARK    1  A    between atoms: C4_6  and  C5_7 
REMARK    2  A    between atoms: C5_7  and  O1_8 
REMARK    3  A    between atoms: O1_8  and  P1_9 
REMARK    4  A    between atoms: C6_13  and  C7_14 
REMARK    5  A    between atoms: C7_14  and  N2_15 
REMARK    6  A    between atoms: C8_17  and  C9_18 
REMARK    7  A    between atoms: C10_21  and  O7_22 
ROOT
HETATM    1  C1  UNL     1      22.709 -32.825 -54.372  1.00  0.00     0.071 C 
HETATM    2  C2  UNL     1      23.093 -33.560 -53.108  1.00  0.00     0.039 A 
HETATM    3  N1  UNL     1      22.480 -33.341 -51.940  1.00  0.00    -0.367 N 
ATOM      4  H1  UNL     1      21.692 -32.693 -51.924  1.00  0.00     0.165 HD
HETATM    5  C3  UNL     1      22.846 -33.930 -50.778  1.00  0.00     0.098 A 
HETATM    6  C4  UNL     1      23.927 -34.815 -50.825  1.00  0.00    -0.004 A 
HETATM    7  C6  UNL     1      24.571 -35.076 -52.004  1.00  0.00     0.024 A 
HETATM    8  C10 UNL     1      24.185 -34.455 -53.178  1.00  0.00     0.100 A 
ENDROOT
BRANCH   7   9
HETATM    9  C7  UNL     1      25.783 -35.982 -51.975  1.00  0.00     0.102 C 
BRANCH   9  10
HETATM   10  N2  UNL     1      26.749 -35.532 -52.878  1.00  0.00    -0.369 N 
HETATM   11  C8  UNL     1      27.611 -36.243 -53.650  1.00  0.00     0.172 C 
ATOM     12  H2  UNL     1      26.817 -34.519 -52.973  1.00  0.00     0.164 HD
BRANCH  11  13
HETATM   13  C9  UNL     1      27.042 -37.111 -54.674  1.00  0.00     0.214 C 
HETATM   14  O5  UNL     1      26.624 -36.605 -55.765  1.00  0.00    -0.643 OA
HETATM   15  O6  UNL     1      26.922 -38.483 -54.565  1.00  0.00    -0.643 OA
ENDBRANCH  11  13
ENDBRANCH   9  10
ENDBRANCH   7   9
BRANCH   6  16
HETATM   16  C5  UNL     1      24.386 -35.348 -49.486  1.00  0.00     0.223 C 
BRANCH  16  17
HETATM   17  O1  UNL     1      25.478 -34.640 -49.090  1.00  0.00    -0.278 OA
BRANCH  17  18
HETATM   18  P1  UNL     1      26.573 -35.401 -48.103  1.00  0.00     0.422 P 
HETATM   19  O2  UNL     1      27.742 -34.455 -47.751  1.00  0.00    -0.617 OA
HETATM   20  O3  UNL     1      27.304 -36.747 -48.904  1.00  0.00    -0.617 OA
HETATM   21  O4  UNL     1      25.982 -35.928 -46.625  1.00  0.00    -0.617 OA
ENDBRANCH  17  18
ENDBRANCH  16  17
ENDBRANCH   6  16
BRANCH   8  22
HETATM   22  O7  UNL     1      24.775 -34.626 -54.397  1.00  0.00    -0.358 OA
ATOM     23  H7  UNL     1      25.685 -34.901 -54.405  1.00  0.00     0.217 HD
ENDBRANCH   8  22
TORSDOF 7
ENDMDL
