MODEL 14
REMARK VINA RESULT: -5.613883567      3.829      5.045
REMARK  2 active torsions:
REMARK  status: ('A' for Active; 'I' for Inactive)
REMARK    1  A    between atoms: C5_5  and  O1_6 
REMARK    2  A    between atoms: O1_6  and  P1_7 
ROOT
HETATM    1  C1  UNL     1     104.675  70.666  14.153  1.00  0.00     0.048 C 
HETATM    2  C2  UNL     1     103.456  70.446  13.315  1.00  0.00    -0.062 A 
HETATM    3  C3  UNL     1     103.373  70.965  12.059  1.00  0.00     0.009 A 
HETATM    4  C4  UNL     1     102.258  70.778  11.258  1.00  0.00     0.038 A 
HETATM    5  C5  UNL     1     101.183  70.046  11.730  1.00  0.00     0.082 A 
HETATM    6  C6  UNL     1     101.259  69.522  12.989  1.00  0.00     0.038 A 
HETATM    7  C7  UNL     1     102.386  69.714  13.790  1.00  0.00     0.009 A 
ENDROOT
BRANCH   5   8
HETATM    8  O1  UNL     1     100.105  69.898  10.886  1.00  0.00    -0.240 OA
BRANCH   8   9
HETATM    9  P1  UNL     1      99.854  68.585   9.844  1.00  0.00     0.427 P 
HETATM   10  O2  UNL     1      98.545  68.653   9.104  1.00  0.00    -0.617 OA
HETATM   11  O3  UNL     1     101.118  68.596   8.695  1.00  0.00    -0.617 OA
HETATM   12  O4  UNL     1     100.012  67.112  10.694  1.00  0.00    -0.617 OA
ENDBRANCH   8   9
ENDBRANCH   5   8
TORSDOF 2
ENDMDL
