MODEL 2
REMARK VINA RESULT: -8.931782385      0.084      1.341
REMARK  2 active torsions:
REMARK  status: ('A' for Active; 'I' for Inactive)
REMARK    1  A    between atoms: C5_5  and  O1_6 
REMARK    2  A    between atoms: O1_6  and  P1_7 
ROOT
HETATM    1  C1  UNL     1      99.401  68.446   9.478  1.00  0.00     0.048 C 
HETATM    2  C2  UNL     1     100.185  69.115  10.562  1.00  0.00    -0.062 A 
HETATM    3  C3  UNL     1     101.020  70.153  10.276  1.00  0.00     0.009 A 
HETATM    4  C4  UNL     1     101.760  70.793  11.257  1.00  0.00     0.038 A 
HETATM    5  C5  UNL     1     101.663  70.382  12.574  1.00  0.00     0.082 A 
HETATM    6  C6  UNL     1     100.828  69.342  12.869  1.00  0.00     0.038 A 
HETATM    7  C7  UNL     1     100.086  68.702  11.875  1.00  0.00     0.009 A 
ENDROOT
BRANCH   5   8
HETATM    8  O1  UNL     1     102.425  71.059  13.501  1.00  0.00    -0.240 OA
BRANCH   8   9
HETATM    9  P1  UNL     1     104.090  70.850  13.736  1.00  0.00     0.427 P 
HETATM   10  O2  UNL     1     104.926  71.426  12.626  1.00  0.00    -0.617 OA
HETATM   11  O3  UNL     1     104.505  71.650  15.188  1.00  0.00    -0.617 OA
HETATM   12  O4  UNL     1     104.451  69.200  13.996  1.00  0.00    -0.617 OA
ENDBRANCH   8   9
ENDBRANCH   5   8
TORSDOF 2
ENDMDL
