MODEL 5
REMARK VINA RESULT: -8.828438089      0.088      1.335
REMARK  2 active torsions:
REMARK  status: ('A' for Active; 'I' for Inactive)
REMARK    1  A    between atoms: C5_5  and  O1_6 
REMARK    2  A    between atoms: O1_6  and  P1_7 
ROOT
HETATM    1  C1  UNL     1      99.490  68.413   9.527  1.00  0.00     0.048 C 
HETATM    2  C2  UNL     1     100.264  69.106  10.604  1.00  0.00    -0.062 A 
HETATM    3  C3  UNL     1     101.047  70.182  10.312  1.00  0.00     0.009 A 
HETATM    4  C4  UNL     1     101.776  70.846  11.286  1.00  0.00     0.038 A 
HETATM    5  C5  UNL     1     101.721  70.419  12.602  1.00  0.00     0.082 A 
HETATM    6  C6  UNL     1     100.938  69.340  12.901  1.00  0.00     0.038 A 
HETATM    7  C7  UNL     1     100.206  68.677  11.914  1.00  0.00     0.009 A 
ENDROOT
BRANCH   5   8
HETATM    8  O1  UNL     1     102.469  71.120  13.521  1.00  0.00    -0.240 OA
BRANCH   8   9
HETATM    9  P1  UNL     1     104.131  70.922  13.783  1.00  0.00     0.427 P 
HETATM   10  O2  UNL     1     104.623  71.602  15.032  1.00  0.00    -0.617 OA
HETATM   11  O3  UNL     1     104.429  69.247  13.933  1.00  0.00    -0.617 OA
HETATM   12  O4  UNL     1     105.014  71.429  12.410  1.00  0.00    -0.617 OA
ENDBRANCH   8   9
ENDBRANCH   5   8
TORSDOF 2
ENDMDL
