MODEL 15
REMARK VINA RESULT: -5.562208092      3.826      5.224
REMARK  2 active torsions:
REMARK  status: ('A' for Active; 'I' for Inactive)
REMARK    1  A    between atoms: C5_5  and  O1_6 
REMARK    2  A    between atoms: O1_6  and  P1_7 
ROOT
HETATM    1  C1  UNL     1     104.633  70.589  14.236  1.00  0.00     0.048 C 
HETATM    2  C2  UNL     1     103.450  70.420  13.336  1.00  0.00    -0.062 A 
HETATM    3  C3  UNL     1     102.362  69.711  13.747  1.00  0.00     0.009 A 
HETATM    4  C4  UNL     1     101.251  69.536  12.938  1.00  0.00     0.038 A 
HETATM    5  C5  UNL     1     101.225  70.090  11.670  1.00  0.00     0.082 A 
HETATM    6  C6  UNL     1     102.312  70.803  11.252  1.00  0.00     0.038 A 
HETATM    7  C7  UNL     1     103.428  70.975  12.073  1.00  0.00     0.009 A 
ENDROOT
BRANCH   5   8
HETATM    8  O1  UNL     1     100.092  69.879  10.916  1.00  0.00    -0.240 OA
BRANCH   8   9
HETATM    9  P1  UNL     1      99.855  68.583   9.851  1.00  0.00     0.427 P 
HETATM   10  O2  UNL     1      98.556  68.662   9.095  1.00  0.00    -0.617 OA
HETATM   11  O3  UNL     1     101.134  68.611   8.719  1.00  0.00    -0.617 OA
HETATM   12  O4  UNL     1     100.003  67.096  10.681  1.00  0.00    -0.617 OA
ENDBRANCH   8   9
ENDBRANCH   5   8
TORSDOF 2
ENDMDL
