MODEL 4
REMARK VINA RESULT: -8.866246023      0.107      1.903
REMARK  2 active torsions:
REMARK  status: ('A' for Active; 'I' for Inactive)
REMARK    1  A    between atoms: C5_5  and  O1_6 
REMARK    2  A    between atoms: O1_6  and  P1_7 
ROOT
HETATM    1  C1  UNL     1      99.353  68.387   9.591  1.00  0.00     0.048 C 
HETATM    2  C2  UNL     1     100.186  69.090  10.615  1.00  0.00    -0.062 A 
HETATM    3  C3  UNL     1     100.097  68.752  11.932  1.00  0.00     0.009 A 
HETATM    4  C4  UNL     1     100.854  69.385  12.905  1.00  0.00     0.038 A 
HETATM    5  C5  UNL     1     101.734  70.393  12.551  1.00  0.00     0.082 A 
HETATM    6  C6  UNL     1     101.828  70.736  11.232  1.00  0.00     0.038 A 
HETATM    7  C7  UNL     1     101.062  70.095  10.257  1.00  0.00     0.009 A 
ENDROOT
BRANCH   5   8
HETATM    8  O1  UNL     1     102.457  70.981  13.565  1.00  0.00    -0.240 OA
BRANCH   8   9
HETATM    9  P1  UNL     1     104.133  70.850  13.771  1.00  0.00     0.427 P 
HETATM   10  O2  UNL     1     104.921  71.430  12.628  1.00  0.00    -0.617 OA
HETATM   11  O3  UNL     1     104.542  71.708  15.191  1.00  0.00    -0.617 OA
HETATM   12  O4  UNL     1     104.572  69.226  14.068  1.00  0.00    -0.617 OA
ENDBRANCH   8   9
ENDBRANCH   5   8
TORSDOF 2
ENDMDL
