MODEL 3
REMARK VINA RESULT: -8.921349389      0.077      1.361
REMARK  2 active torsions:
REMARK  status: ('A' for Active; 'I' for Inactive)
REMARK    1  A    between atoms: C5_5  and  O1_6 
REMARK    2  A    between atoms: O1_6  and  P1_7 
ROOT
HETATM    1  C1  UNL     1      99.361  68.374   9.567  1.00  0.00     0.048 C 
HETATM    2  C2  UNL     1     100.185  69.080  10.597  1.00  0.00    -0.062 A 
HETATM    3  C3  UNL     1     100.095  68.736  11.912  1.00  0.00     0.009 A 
HETATM    4  C4  UNL     1     100.844  69.370  12.890  1.00  0.00     0.038 A 
HETATM    5  C5  UNL     1     101.716  70.387  12.542  1.00  0.00     0.082 A 
HETATM    6  C6  UNL     1     101.811  70.737  11.225  1.00  0.00     0.038 A 
HETATM    7  C7  UNL     1     101.054  70.093  10.245  1.00  0.00     0.009 A 
ENDROOT
BRANCH   5   8
HETATM    8  O1  UNL     1     102.431  70.977  13.561  1.00  0.00    -0.240 OA
BRANCH   8   9
HETATM    9  P1  UNL     1     104.091  70.772  13.835  1.00  0.00     0.427 P 
HETATM   10  O2  UNL     1     104.497  69.330  13.983  1.00  0.00    -0.617 OA
HETATM   11  O3  UNL     1     104.915  71.423  12.488  1.00  0.00    -0.617 OA
HETATM   12  O4  UNL     1     104.591  71.701  15.179  1.00  0.00    -0.617 OA
ENDBRANCH   8   9
ENDBRANCH   5   8
TORSDOF 2
ENDMDL
