MODEL 13
REMARK VINA RESULT: -5.625248738      3.620      5.207
REMARK  2 active torsions:
REMARK  status: ('A' for Active; 'I' for Inactive)
REMARK    1  A    between atoms: C5_5  and  O1_6 
REMARK    2  A    between atoms: O1_6  and  P1_7 
ROOT
HETATM    1  C1  UNL     1     105.216  71.425  14.169  1.00  0.00     0.048 C 
HETATM    2  C2  UNL     1     104.053  70.777  13.486  1.00  0.00    -0.062 A 
HETATM    3  C3  UNL     1     103.279  69.870  14.145  1.00  0.00     0.009 A 
HETATM    4  C4  UNL     1     102.196  69.252  13.541  1.00  0.00     0.038 A 
HETATM    5  C5  UNL     1     101.872  69.552  12.230  1.00  0.00     0.082 A 
HETATM    6  C6  UNL     1     102.643  70.461  11.563  1.00  0.00     0.038 A 
HETATM    7  C7  UNL     1     103.733  71.080  12.178  1.00  0.00     0.009 A 
ENDROOT
BRANCH   5   8
HETATM    8  O1  UNL     1     100.784  68.904  11.688  1.00  0.00    -0.240 OA
BRANCH   8   9
HETATM    9  P1  UNL     1     100.106  69.236  10.171  1.00  0.00     0.427 P 
HETATM   10  O2  UNL     1      98.999  68.289   9.793  1.00  0.00    -0.617 OA
HETATM   11  O3  UNL     1      99.460  70.815  10.234  1.00  0.00    -0.617 OA
HETATM   12  O4  UNL     1     101.323  69.280   8.972  1.00  0.00    -0.617 OA
ENDBRANCH   8   9
ENDBRANCH   5   8
TORSDOF 2
ENDMDL
