MODEL 1
REMARK VINA RESULT: -8.988319911      0.000      0.000
REMARK  2 active torsions:
REMARK  status: ('A' for Active; 'I' for Inactive)
REMARK    1  A    between atoms: C5_5  and  O1_6 
REMARK    2  A    between atoms: O1_6  and  P1_7 
ROOT
HETATM    1  C1  UNL     1      99.457  68.416   9.499  1.00  0.00     0.048 C 
HETATM    2  C2  UNL     1     100.235  69.094  10.581  1.00  0.00    -0.062 A 
HETATM    3  C3  UNL     1     101.040  70.156  10.296  1.00  0.00     0.009 A 
HETATM    4  C4  UNL     1     101.774  70.806  11.276  1.00  0.00     0.038 A 
HETATM    5  C5  UNL     1     101.701  70.380  12.590  1.00  0.00     0.082 A 
HETATM    6  C6  UNL     1     100.896  69.317  12.883  1.00  0.00     0.038 A 
HETATM    7  C7  UNL     1     100.159  68.667  11.892  1.00  0.00     0.009 A 
ENDROOT
BRANCH   5   8
HETATM    8  O1  UNL     1     102.455  71.068  13.515  1.00  0.00    -0.240 OA
BRANCH   8   9
HETATM    9  P1  UNL     1     104.098  70.801  13.829  1.00  0.00     0.427 P 
HETATM   10  O2  UNL     1     104.448  69.344  13.975  1.00  0.00    -0.617 OA
HETATM   11  O3  UNL     1     104.979  71.432  12.508  1.00  0.00    -0.617 OA
HETATM   12  O4  UNL     1     104.598  71.700  15.193  1.00  0.00    -0.617 OA
ENDBRANCH   8   9
ENDBRANCH   5   8
TORSDOF 2
ENDMDL
