MODEL 3
REMARK VINA RESULT: -6.053902156      2.703      5.417
REMARK  11 active torsions:
REMARK  status: ('A' for Active; 'I' for Inactive)
REMARK    1  A    between atoms: C2_2  and  N1_3 
REMARK    2  A    between atoms: C2_2  and  C11_22 
REMARK    3  A    between atoms: N1_3  and  S1_5 
REMARK    4  A    between atoms: S1_5  and  C3_8 
REMARK    5  A    between atoms: C3_8  and  C4_9 
REMARK    6  A    between atoms: C4_9  and  C5_10 
REMARK    7  A    between atoms: C5_10  and  O3_11 
REMARK    8  A    between atoms: O3_11  and  C6_12 
REMARK    9  A    between atoms: C6_12  and  N2_13 
REMARK   10  A    between atoms: C15_26  and  O6_27 
REMARK   11  A    between atoms: O6_27  and  C16_28 
ROOT
HETATM    1  S1  UNL     1       7.585   8.678  25.590  1.00  0.00     0.227 S 
HETATM    2  O1  UNL     1       6.577   8.164  26.616  1.00  0.00    -0.206 OA
HETATM    3  O2  UNL     1       7.971  10.079  26.114  1.00  0.00    -0.206 OA
ENDROOT
BRANCH   1   4
HETATM    4  N1  UNL     1       8.974   7.760  25.545  1.00  0.00    -0.311 N 
ATOM      5  H1  UNL     1       9.533   7.739  24.692  1.00  0.00     0.172 HD
BRANCH   4   6
HETATM    6  C2  UNL     1       9.392   7.010  26.666  1.00  0.00     0.121 C 
HETATM    7  C1  UNL     1      10.480   7.772  27.451  1.00  0.00     0.038 C 
BRANCH   6   8
HETATM    8  C11 UNL     1      10.064   5.765  26.191  1.00  0.00    -0.033 A 
HETATM    9  C12 UNL     1      11.340   5.772  25.675  1.00  0.00     0.009 A 
HETATM   10  C13 UNL     1      11.913   4.614  25.248  1.00  0.00     0.003 A 
HETATM   11  C14 UNL     1      11.259   3.407  25.308  1.00  0.00     0.037 A 
HETATM   12  C15 UNL     1       9.962   3.358  25.825  1.00  0.00     0.069 A 
HETATM   13  C21 UNL     1       9.410   4.554  26.251  1.00  0.00     0.046 A 
BRANCH  12  14
HETATM   14  O6  UNL     1       9.358   2.138  25.862  1.00  0.00    -0.346 OA
BRANCH  14  15
HETATM   15  C16 UNL     1       8.052   1.820  26.208  1.00  0.00     0.129 C 
HETATM   16  C17 UNL     1       8.017   0.969  27.486  1.00  0.00     0.032 C 
HETATM   17  C18 UNL     1       8.292  -0.449  27.034  1.00  0.00     0.002 C 
HETATM   18  C19 UNL     1       8.363  -0.406  25.520  1.00  0.00     0.002 C 
HETATM   19  C20 UNL     1       7.510   0.793  25.205  1.00  0.00     0.032 C 
ENDBRANCH  14  15
ENDBRANCH  12  14
ENDBRANCH   6   8
ENDBRANCH   4   6
ENDBRANCH   1   4
BRANCH   1  20
HETATM   20  C3  UNL     1       6.710   8.953  24.094  1.00  0.00     0.165 C 
BRANCH  20  21
HETATM   21  C4  UNL     1       7.535   9.663  23.082  1.00  0.00     0.043 C 
BRANCH  21  22
HETATM   22  C5  UNL     1       7.971   8.717  21.955  1.00  0.00     0.170 C 
BRANCH  22  23
HETATM   23  O3  UNL     1       8.137   7.469  22.518  1.00  0.00    -0.371 OA
BRANCH  23  24
HETATM   24  C6  UNL     1       9.411   6.974  22.308  1.00  0.00     0.302 C 
BRANCH  24  25
HETATM   25  N2  UNL     1       9.336   5.522  22.293  1.00  0.00    -0.288 N 
HETATM   26  C7  UNL     1       8.240   4.870  22.727  1.00  0.00     0.103 A 
HETATM   27  C8  UNL     1       8.194   3.489  22.702  1.00  0.00     0.092 A 
HETATM   28  C9  UNL     1       9.273   2.793  22.231  1.00  0.00     0.250 A 
HETATM   29  O4  UNL     1       9.258   1.530  22.196  1.00  0.00    -0.268 OA
HETATM   30  N3  UNL     1      10.358   3.468  21.801  1.00  0.00    -0.275 N 
HETATM   31  C10 UNL     1      10.390   4.823  21.832  1.00  0.00     0.330 A 
ATOM     32  H3  UNL     1      11.165   2.953  21.448  1.00  0.00     0.173 HD
HETATM   33  O5  UNL     1      11.426   5.425  21.420  1.00  0.00    -0.246 OA
ENDBRANCH  24  25
ENDBRANCH  23  24
ENDBRANCH  22  23
ENDBRANCH  21  22
ENDBRANCH  20  21
ENDBRANCH   1  20
TORSDOF 11
ENDMDL
