MODEL 1
REMARK VINA RESULT: -6.496124372      0.000      0.000
REMARK  11 active torsions:
REMARK  status: ('A' for Active; 'I' for Inactive)
REMARK    1  A    between atoms: C2_2  and  N1_3 
REMARK    2  A    between atoms: C2_2  and  C11_22 
REMARK    3  A    between atoms: N1_3  and  S1_5 
REMARK    4  A    between atoms: S1_5  and  C3_8 
REMARK    5  A    between atoms: C3_8  and  C4_9 
REMARK    6  A    between atoms: C4_9  and  C5_10 
REMARK    7  A    between atoms: C5_10  and  O3_11 
REMARK    8  A    between atoms: O3_11  and  C6_12 
REMARK    9  A    between atoms: C6_12  and  N2_13 
REMARK   10  A    between atoms: C15_26  and  O6_27 
REMARK   11  A    between atoms: O6_27  and  C16_28 
ROOT
HETATM    1  S1  UNL     1       9.631   1.313  25.471  1.00  0.00     0.227 S 
HETATM    2  O1  UNL     1      10.300   0.063  24.902  1.00  0.00    -0.206 OA
HETATM    3  O2  UNL     1       8.975   0.824  26.781  1.00  0.00    -0.206 OA
ENDROOT
BRANCH   1   4
HETATM    4  N1  UNL     1      10.730   2.499  25.873  1.00  0.00    -0.311 N 
ATOM      5  H1  UNL     1      11.279   2.403  26.727  1.00  0.00     0.172 HD
BRANCH   4   6
HETATM    6  C2  UNL     1      10.915   3.632  25.052  1.00  0.00     0.121 C 
HETATM    7  C1  UNL     1      12.416   3.850  24.761  1.00  0.00     0.038 C 
BRANCH   6   8
HETATM    8  C11 UNL     1      10.492   4.848  25.806  1.00  0.00    -0.033 A 
HETATM    9  C12 UNL     1      11.295   5.960  25.916  1.00  0.00     0.009 A 
HETATM   10  C13 UNL     1      10.871   7.046  26.618  1.00  0.00     0.003 A 
HETATM   11  C14 UNL     1       9.647   7.084  27.241  1.00  0.00     0.037 A 
HETATM   12  C15 UNL     1       8.802   5.975  27.153  1.00  0.00     0.069 A 
HETATM   13  C21 UNL     1       9.264   4.888  26.431  1.00  0.00     0.046 A 
BRANCH  12  14
HETATM   14  O6  UNL     1       7.600   6.062  27.788  1.00  0.00    -0.346 OA
BRANCH  14  15
HETATM   15  C16 UNL     1       7.251   6.821  28.897  1.00  0.00     0.129 C 
HETATM   16  C17 UNL     1       7.753   6.162  30.190  1.00  0.00     0.032 C 
HETATM   17  C18 UNL     1       6.724   5.106  30.530  1.00  0.00     0.002 C 
HETATM   18  C19 UNL     1       5.611   5.253  29.510  1.00  0.00     0.002 C 
HETATM   19  C20 UNL     1       5.738   6.702  29.122  1.00  0.00     0.032 C 
ENDBRANCH  14  15
ENDBRANCH  12  14
ENDBRANCH   6   8
ENDBRANCH   4   6
ENDBRANCH   1   4
BRANCH   1  20
HETATM   20  C3  UNL     1       8.303   1.725  24.399  1.00  0.00     0.165 C 
BRANCH  20  21
HETATM   21  C4  UNL     1       8.460   1.119  23.052  1.00  0.00     0.043 C 
BRANCH  21  22
HETATM   22  C5  UNL     1       9.358   1.980  22.153  1.00  0.00     0.170 C 
BRANCH  22  23
HETATM   23  O3  UNL     1       8.657   3.133  21.868  1.00  0.00    -0.371 OA
BRANCH  23  24
HETATM   24  C6  UNL     1       9.488   4.233  21.781  1.00  0.00     0.302 C 
BRANCH  24  25
HETATM   25  N2  UNL     1       8.877   5.323  22.526  1.00  0.00    -0.288 N 
HETATM   26  C7  UNL     1       7.655   5.197  23.078  1.00  0.00     0.103 A 
HETATM   27  C8  UNL     1       7.096   6.248  23.781  1.00  0.00     0.092 A 
HETATM   28  C9  UNL     1       7.798   7.415  23.909  1.00  0.00     0.250 A 
HETATM   29  O4  UNL     1       7.311   8.391  24.546  1.00  0.00    -0.268 OA
HETATM   30  N3  UNL     1       9.019   7.516  23.347  1.00  0.00    -0.275 N 
HETATM   31  C10 UNL     1       9.555   6.478  22.660  1.00  0.00     0.330 A 
ATOM     32  H3  UNL     1       9.547   8.384  23.440  1.00  0.00     0.173 HD
HETATM   33  O5  UNL     1      10.706   6.607  22.145  1.00  0.00    -0.246 OA
ENDBRANCH  24  25
ENDBRANCH  23  24
ENDBRANCH  22  23
ENDBRANCH  21  22
ENDBRANCH  20  21
ENDBRANCH   1  20
TORSDOF 11
ENDMDL
