MODEL 4
REMARK VINA RESULT: -5.978471819      1.326      2.368
REMARK  11 active torsions:
REMARK  status: ('A' for Active; 'I' for Inactive)
REMARK    1  A    between atoms: C2_2  and  N1_3 
REMARK    2  A    between atoms: C2_2  and  C11_22 
REMARK    3  A    between atoms: N1_3  and  S1_5 
REMARK    4  A    between atoms: S1_5  and  C3_8 
REMARK    5  A    between atoms: C3_8  and  C4_9 
REMARK    6  A    between atoms: C4_9  and  C5_10 
REMARK    7  A    between atoms: C5_10  and  O3_11 
REMARK    8  A    between atoms: O3_11  and  C6_12 
REMARK    9  A    between atoms: C6_12  and  N2_13 
REMARK   10  A    between atoms: C15_26  and  O6_27 
REMARK   11  A    between atoms: O6_27  and  C16_28 
ROOT
HETATM    1  S1  UNL     1       9.231   1.434  25.604  1.00  0.00     0.227 S 
HETATM    2  O1  UNL     1      10.083   0.914  24.448  1.00  0.00    -0.206 OA
HETATM    3  O2  UNL     1       9.366   0.344  26.689  1.00  0.00    -0.206 OA
ENDROOT
BRANCH   1   4
HETATM    4  N1  UNL     1       9.822   2.854  26.244  1.00  0.00    -0.311 N 
ATOM      5  H1  UNL     1       9.814   2.989  27.254  1.00  0.00     0.172 HD
BRANCH   4   6
HETATM    6  C2  UNL     1      10.334   3.873  25.411  1.00  0.00     0.121 C 
HETATM    7  C1  UNL     1      11.859   3.712  25.235  1.00  0.00     0.038 C 
BRANCH   6   8
HETATM    8  C11 UNL     1      10.166   5.187  26.099  1.00  0.00    -0.033 A 
HETATM    9  C12 UNL     1      11.178   6.117  26.161  1.00  0.00     0.009 A 
HETATM   10  C13 UNL     1      10.983   7.301  26.804  1.00  0.00     0.003 A 
HETATM   11  C14 UNL     1       9.793   7.618  27.410  1.00  0.00     0.037 A 
HETATM   12  C15 UNL     1       8.740   6.700  27.370  1.00  0.00     0.069 A 
HETATM   13  C21 UNL     1       8.972   5.507  26.708  1.00  0.00     0.046 A 
BRANCH  12  14
HETATM   14  O6  UNL     1       7.581   7.063  27.987  1.00  0.00    -0.346 OA
BRANCH  14  15
HETATM   15  C16 UNL     1       7.360   7.367  29.323  1.00  0.00     0.129 C 
HETATM   16  C17 UNL     1       7.861   6.233  30.230  1.00  0.00     0.032 C 
HETATM   17  C18 UNL     1       6.755   5.200  30.234  1.00  0.00     0.002 C 
HETATM   18  C19 UNL     1       5.612   5.799  29.437  1.00  0.00     0.002 C 
HETATM   19  C20 UNL     1       5.855   7.275  29.609  1.00  0.00     0.032 C 
ENDBRANCH  14  15
ENDBRANCH  12  14
ENDBRANCH   6   8
ENDBRANCH   4   6
ENDBRANCH   1   4
BRANCH   1  20
HETATM   20  C3  UNL     1       7.557   1.380  25.080  1.00  0.00     0.165 C 
BRANCH  20  21
HETATM   21  C4  UNL     1       6.740   2.459  25.695  1.00  0.00     0.043 C 
BRANCH  21  22
HETATM   22  C5  UNL     1       5.986   3.265  24.629  1.00  0.00     0.170 C 
BRANCH  22  23
HETATM   23  O3  UNL     1       6.801   4.318  24.269  1.00  0.00    -0.371 OA
BRANCH  23  24
HETATM   24  C6  UNL     1       6.917   4.433  22.896  1.00  0.00     0.302 C 
BRANCH  24  25
HETATM   25  N2  UNL     1       8.300   4.759  22.584  1.00  0.00    -0.288 N 
HETATM   26  C7  UNL     1       8.783   6.005  22.751  1.00  0.00     0.103 A 
HETATM   27  C8  UNL     1      10.101   6.289  22.448  1.00  0.00     0.092 A 
HETATM   28  C9  UNL     1      10.908   5.289  21.977  1.00  0.00     0.250 A 
HETATM   29  O4  UNL     1      12.117   5.521  21.692  1.00  0.00    -0.268 OA
HETATM   30  N3  UNL     1      10.402   4.050  21.819  1.00  0.00    -0.275 N 
HETATM   31  C10 UNL     1       9.106   3.786  22.120  1.00  0.00     0.330 A 
ATOM     32  H3  UNL     1      11.000   3.302  21.468  1.00  0.00     0.173 HD
HETATM   33  O5  UNL     1       8.664   2.610  21.960  1.00  0.00    -0.246 OA
ENDBRANCH  24  25
ENDBRANCH  23  24
ENDBRANCH  22  23
ENDBRANCH  21  22
ENDBRANCH  20  21
ENDBRANCH   1  20
TORSDOF 11
ENDMDL
