MODEL 2
REMARK VINA RESULT: -6.547933165      1.451      1.748
REMARK  2 active torsions:
REMARK  status: ('A' for Active; 'I' for Inactive)
REMARK    1  A    between atoms: N4_10  and  C5_11 
REMARK    2  A    between atoms: C9_21  and  O6_22 
ROOT
HETATM    1  N1  UNL     1      19.969 -19.755  -6.174  1.00  0.00    -0.063 NA
HETATM    2  C1  UNL     1      19.904 -18.567  -5.402  1.00  0.00     0.196 A 
HETATM    3  N2  UNL     1      18.894 -18.344  -4.541  1.00  0.00    -0.314 N 
ATOM      4  H2  UNL     1      18.170 -19.057  -4.455  1.00  0.00     0.170 HD
HETATM    5  C2  UNL     1      18.786 -17.245  -3.794  1.00  0.00     0.146 A 
HETATM    6  C3  UNL     1      19.797 -16.294  -3.939  1.00  0.00     0.146 A 
HETATM    7  N3  UNL     1      19.518 -15.256  -3.104  1.00  0.00    -0.345 N 
ATOM      8  H3  UNL     1      20.066 -14.405  -2.978  1.00  0.00     0.167 HD
HETATM    9  C4  UNL     1      18.378 -15.578  -2.484  1.00  0.00     0.188 A 
HETATM   10  N4  UNL     1      17.925 -16.765  -2.883  1.00  0.00    -0.297 N 
HETATM   11  C10 UNL     1      20.823 -16.542  -4.828  1.00  0.00     0.278 A 
HETATM   12  O7  UNL     1      21.728 -15.654  -4.935  1.00  0.00    -0.265 OA
HETATM   13  N5  UNL     1      20.904 -17.662  -5.569  1.00  0.00    -0.295 N 
ATOM     14  H5  UNL     1      21.673 -17.823  -6.220  1.00  0.00     0.171 HD
ENDROOT
BRANCH  10  15
HETATM   15  C5  UNL     1      16.734 -17.421  -2.428  1.00  0.00     0.262 C 
HETATM   16  O1  UNL     1      15.573 -16.794  -2.776  1.00  0.00    -0.353 OA
HETATM   17  C6  UNL     1      14.989 -16.272  -1.614  1.00  0.00     0.180 C 
HETATM   18  C7  UNL     1      13.569 -15.922  -1.772  1.00  0.00     0.216 C 
HETATM   19  C8  UNL     1      15.344 -17.194  -0.512  1.00  0.00     0.198 C 
HETATM   20  O2  UNL     1      12.668 -16.946  -1.712  1.00  0.00    -0.287 OA
HETATM   21  P1  UNL     1      12.951 -17.752  -0.228  1.00  0.00     0.408 P 
HETATM   22  O3  UNL     1      12.880 -16.710   0.853  1.00  0.00    -0.624 OA
HETATM   23  O4  UNL     1      11.869 -19.010   0.004  1.00  0.00    -0.624 OA
HETATM   24  O5  UNL     1      14.549 -18.292  -0.356  1.00  0.00    -0.279 OA
HETATM   25  C9  UNL     1      16.741 -17.660  -0.943  1.00  0.00     0.199 C 
BRANCH  25  26
HETATM   26  O6  UNL     1      16.989 -18.957  -0.582  1.00  0.00    -0.388 OA
ATOM     27  H6  UNL     1      17.822 -19.089  -0.146  1.00  0.00     0.210 HD
ENDBRANCH  25  26
ENDBRANCH  10  15
TORSDOF 2
ENDMDL
