MODEL 3
REMARK VINA RESULT: -6.475810118      3.338      6.940
REMARK  2 active torsions:
REMARK  status: ('A' for Active; 'I' for Inactive)
REMARK    1  A    between atoms: N4_10  and  C5_11 
REMARK    2  A    between atoms: C9_21  and  O6_22 
ROOT
HETATM    1  N1  UNL     1      12.624 -16.869  -4.480  1.00  0.00    -0.063 NA
HETATM    2  C1  UNL     1      13.283 -16.787  -3.227  1.00  0.00     0.196 A 
HETATM    3  N2  UNL     1      14.625 -16.826  -3.136  1.00  0.00    -0.314 N 
ATOM      4  H2  UNL     1      15.162 -16.916  -3.999  1.00  0.00     0.170 HD
HETATM    5  C2  UNL     1      15.292 -16.754  -1.985  1.00  0.00     0.146 A 
HETATM    6  C3  UNL     1      14.523 -16.630  -0.827  1.00  0.00     0.146 A 
HETATM    7  N3  UNL     1      15.371 -16.571   0.235  1.00  0.00    -0.345 N 
ATOM      8  H3  UNL     1      15.117 -16.480   1.218  1.00  0.00     0.167 HD
HETATM    9  C4  UNL     1      16.605 -16.657  -0.273  1.00  0.00     0.188 A 
HETATM   10  N4  UNL     1      16.579 -16.766  -1.600  1.00  0.00    -0.297 N 
HETATM   11  C10 UNL     1      13.148 -16.592  -0.942  1.00  0.00     0.278 A 
HETATM   12  O7  UNL     1      12.477 -16.479   0.133  1.00  0.00    -0.265 OA
HETATM   13  N5  UNL     1      12.503 -16.668  -2.120  1.00  0.00    -0.295 N 
ATOM     14  H5  UNL     1      11.484 -16.638  -2.180  1.00  0.00     0.171 HD
ENDROOT
BRANCH  10  15
HETATM   15  C5  UNL     1      17.713 -16.878  -2.470  1.00  0.00     0.262 C 
HETATM   16  O1  UNL     1      17.472 -17.553  -3.631  1.00  0.00    -0.353 OA
HETATM   17  C6  UNL     1      18.166 -18.771  -3.584  1.00  0.00     0.180 C 
HETATM   18  C7  UNL     1      18.320 -19.414  -4.898  1.00  0.00     0.216 C 
HETATM   19  C8  UNL     1      19.395 -18.527  -2.797  1.00  0.00     0.198 C 
HETATM   20  O2  UNL     1      19.306 -18.933  -5.711  1.00  0.00    -0.287 OA
HETATM   21  P1  UNL     1      20.758 -19.008  -4.805  1.00  0.00     0.408 P 
HETATM   22  O3  UNL     1      20.895 -20.424  -4.320  1.00  0.00    -0.624 OA
HETATM   23  O4  UNL     1      22.073 -18.495  -5.708  1.00  0.00    -0.624 OA
HETATM   24  O5  UNL     1      20.459 -18.006  -3.475  1.00  0.00    -0.279 OA
HETATM   25  C9  UNL     1      18.906 -17.484  -1.784  1.00  0.00     0.199 C 
BRANCH  25  26
HETATM   26  O6  UNL     1      19.883 -16.585  -1.452  1.00  0.00    -0.388 OA
ATOM     27  H6  UNL     1      20.769 -16.914  -1.553  1.00  0.00     0.210 HD
ENDBRANCH  25  26
ENDBRANCH  10  15
TORSDOF 2
ENDMDL
