MODEL 1
REMARK VINA RESULT: -6.601215739      0.000      0.000
REMARK  2 active torsions:
REMARK  status: ('A' for Active; 'I' for Inactive)
REMARK    1  A    between atoms: N4_10  and  C5_11 
REMARK    2  A    between atoms: C9_21  and  O6_22 
ROOT
HETATM    1  N1  UNL     1      18.269 -19.885  -5.373  1.00  0.00    -0.063 NA
HETATM    2  C1  UNL     1      18.331 -18.734  -4.546  1.00  0.00     0.196 A 
HETATM    3  N2  UNL     1      17.392 -18.489  -3.614  1.00  0.00    -0.314 N 
ATOM      4  H2  UNL     1      16.628 -19.157  -3.514  1.00  0.00     0.170 HD
HETATM    5  C2  UNL     1      17.403 -17.423  -2.813  1.00  0.00     0.146 A 
HETATM    6  C3  UNL     1      18.466 -16.534  -2.978  1.00  0.00     0.146 A 
HETATM    7  N3  UNL     1      18.307 -15.522  -2.082  1.00  0.00    -0.345 N 
ATOM      8  H3  UNL     1      18.918 -14.716  -1.952  1.00  0.00     0.167 HD
HETATM    9  C4  UNL     1      17.188 -15.800  -1.406  1.00  0.00     0.188 A 
HETATM   10  N4  UNL     1      16.632 -16.934  -1.829  1.00  0.00    -0.297 N 
HETATM   11  C10 UNL     1      19.418 -16.804  -3.940  1.00  0.00     0.278 A 
HETATM   12  O7  UNL     1      20.373 -15.972  -4.063  1.00  0.00    -0.265 OA
HETATM   13  N5  UNL     1      19.379 -17.889  -4.734  1.00  0.00    -0.295 N 
ATOM     14  H5  UNL     1      20.095 -18.067  -5.439  1.00  0.00     0.171 HD
ENDROOT
BRANCH  10  15
HETATM   15  C5  UNL     1      15.428 -17.533  -1.330  1.00  0.00     0.262 C 
HETATM   16  O1  UNL     1      14.311 -17.251  -2.060  1.00  0.00    -0.353 OA
HETATM   17  C6  UNL     1      13.483 -16.420  -1.293  1.00  0.00     0.180 C 
HETATM   18  C7  UNL     1      12.095 -16.358  -1.779  1.00  0.00     0.216 C 
HETATM   19  C8  UNL     1      13.692 -16.804   0.121  1.00  0.00     0.198 C 
HETATM   20  O2  UNL     1      11.277 -17.401  -1.453  1.00  0.00    -0.287 OA
HETATM   21  P1  UNL     1      11.336 -17.546   0.252  1.00  0.00     0.408 P 
HETATM   22  O3  UNL     1      10.987 -16.196   0.815  1.00  0.00    -0.624 OA
HETATM   23  O4  UNL     1      10.325 -18.765   0.801  1.00  0.00    -0.624 OA
HETATM   24  O5  UNL     1      12.965 -17.864   0.579  1.00  0.00    -0.279 OA
HETATM   25  C9  UNL     1      15.175 -17.196   0.113  1.00  0.00     0.199 C 
BRANCH  25  26
HETATM   26  O6  UNL     1      15.446 -18.216   0.986  1.00  0.00    -0.388 OA
ATOM     27  H6  UNL     1      15.071 -18.100   1.851  1.00  0.00     0.210 HD
ENDBRANCH  25  26
ENDBRANCH  10  15
TORSDOF 2
ENDMDL
