MODEL 3
REMARK VINA RESULT: -7.343151977      1.039      1.040
REMARK  4 active torsions:
REMARK  status: ('A' for Active; 'I' for Inactive)
REMARK    1  A    between atoms: O1_2  and  C2_3 
REMARK    2  A    between atoms: C2_3  and  C3_5 
REMARK    3  A    between atoms: C7_9  and  C8_10 
REMARK       I    between atoms: C8_10  and  N1_12 
REMARK    4  A    between atoms: N1_12  and  C9_14 
ROOT
HETATM    1  C8  UNL     1     -15.407  -8.835  23.390  1.00  0.00     0.257 C 
HETATM    2  O3  UNL     1     -15.997  -9.867  22.927  1.00  0.00    -0.267 OA
HETATM    3  N1  UNL     1     -15.886  -7.582  22.952  1.00  0.00    -0.307 N 
ATOM      4  H1  UNL     1     -15.445  -6.729  23.296  1.00  0.00     0.170 HD
ENDROOT
BRANCH   3   5
HETATM    5  C9  UNL     1     -16.991  -7.485  22.022  1.00  0.00     0.140 A 
HETATM    6  N2  UNL     1     -16.800  -7.098  20.759  1.00  0.00    -0.337 N 
HETATM    7  C10 UNL     1     -17.840  -7.019  19.921  1.00  0.00     0.183 A 
ATOM      8  H2  UNL     1     -15.862  -6.865  20.433  1.00  0.00     0.168 HD
HETATM    9  N3  UNL     1     -19.069  -7.319  20.325  1.00  0.00    -0.337 N 
HETATM   10  C11 UNL     1     -19.295  -7.716  21.605  1.00  0.00     0.138 A 
ATOM     11  H3  UNL     1     -19.848  -7.251  19.670  1.00  0.00     0.168 HD
HETATM   12  N4  UNL     1     -20.395  -8.075  22.284  1.00  0.00    -0.337 N 
HETATM   13  C13 UNL     1     -18.235  -7.801  22.469  1.00  0.00     0.122 A 
HETATM   14  C12 UNL     1     -20.008  -8.373  23.538  1.00  0.00     0.182 A 
ATOM     15  H4  UNL     1     -21.346  -8.115  21.919  1.00  0.00     0.168 HD
HETATM   16  N5  UNL     1     -18.677  -8.205  23.658  1.00  0.00    -0.346 N 
ATOM     17  H5  UNL     1     -18.117  -8.357  24.496  1.00  0.00     0.167 HD
ENDBRANCH   3   5
BRANCH   1  18
HETATM   18  C7  UNL     1     -14.312  -9.015  24.312  1.00  0.00     0.033 A 
HETATM   19  C6  UNL     1     -14.442  -9.870  25.417  1.00  0.00     0.017 A 
HETATM   20  C5  UNL     1     -13.403 -10.027  26.274  1.00  0.00     0.002 A 
HETATM   21  C4  UNL     1     -12.217  -9.346  26.057  1.00  0.00     0.017 A 
HETATM   22  C3  UNL     1     -12.039  -8.498  24.989  1.00  0.00     0.040 A 
HETATM   23  C14 UNL     1     -13.116  -8.352  24.127  1.00  0.00     0.034 A 
BRANCH  22  24
HETATM   24  C2  UNL     1     -10.789  -7.780  24.761  1.00  0.00     0.292 C 
HETATM   25  O2  UNL     1     -10.047  -7.501  25.733  1.00  0.00    -0.259 OA
BRANCH  24  26
HETATM   26  O1  UNL     1     -10.381  -7.387  23.504  1.00  0.00    -0.323 OA
HETATM   27  C1  UNL     1     -10.011  -6.065  23.167  1.00  0.00     0.213 C 
ENDBRANCH  24  26
ENDBRANCH  22  24
ENDBRANCH   1  18
TORSDOF 4
ENDMDL
