MODEL 1
REMARK VINA RESULT: -7.765031428      0.000      0.000
REMARK  4 active torsions:
REMARK  status: ('A' for Active; 'I' for Inactive)
REMARK    1  A    between atoms: O1_2  and  C2_3 
REMARK    2  A    between atoms: C2_3  and  C3_5 
REMARK    3  A    between atoms: C7_9  and  C8_10 
REMARK       I    between atoms: C8_10  and  N1_12 
REMARK    4  A    between atoms: N1_12  and  C9_14 
ROOT
HETATM    1  C8  UNL     1     -15.529  -8.669  23.328  1.00  0.00     0.257 C 
HETATM    2  O3  UNL     1     -16.250  -9.657  22.968  1.00  0.00    -0.267 OA
HETATM    3  N1  UNL     1     -15.901  -7.400  22.832  1.00  0.00    -0.307 N 
ATOM      4  H1  UNL     1     -15.353  -6.580  23.094  1.00  0.00     0.170 HD
ENDROOT
BRANCH   3   5
HETATM    5  C9  UNL     1     -17.044  -7.243  21.959  1.00  0.00     0.140 A 
HETATM    6  N2  UNL     1     -17.039  -7.733  20.718  1.00  0.00    -0.337 N 
HETATM    7  C10 UNL     1     -18.110  -7.573  19.933  1.00  0.00     0.183 A 
ATOM      8  H2  UNL     1     -16.219  -8.230  20.368  1.00  0.00     0.168 HD
HETATM    9  N3  UNL     1     -19.188  -6.931  20.367  1.00  0.00    -0.337 N 
HETATM   10  C11 UNL     1     -19.224  -6.421  21.627  1.00  0.00     0.138 A 
ATOM     11  H3  UNL     1     -19.994  -6.820  19.752  1.00  0.00     0.168 HD
HETATM   12  N4  UNL     1     -20.145  -5.743  22.327  1.00  0.00    -0.337 N 
HETATM   13  C13 UNL     1     -18.131  -6.581  22.438  1.00  0.00     0.122 A 
HETATM   14  C12 UNL     1     -19.620  -5.497  23.541  1.00  0.00     0.182 A 
ATOM     15  H4  UNL     1     -21.071  -5.466  22.001  1.00  0.00     0.168 HD
HETATM   16  N5  UNL     1     -18.378  -6.010  23.614  1.00  0.00    -0.346 N 
ATOM     17  H5  UNL     1     -17.748  -5.970  24.415  1.00  0.00     0.167 HD
ENDBRANCH   3   5
BRANCH   1  18
HETATM   18  C7  UNL     1     -14.405  -8.908  24.201  1.00  0.00     0.033 A 
HETATM   19  C6  UNL     1     -14.518  -9.790  25.286  1.00  0.00     0.017 A 
HETATM   20  C5  UNL     1     -13.452 -10.004  26.096  1.00  0.00     0.002 A 
HETATM   21  C4  UNL     1     -12.255  -9.352  25.851  1.00  0.00     0.017 A 
HETATM   22  C3  UNL     1     -12.092  -8.479  24.801  1.00  0.00     0.040 A 
HETATM   23  C14 UNL     1     -13.197  -8.276  23.986  1.00  0.00     0.034 A 
BRANCH  22  24
HETATM   24  C2  UNL     1     -10.831  -7.792  24.543  1.00  0.00     0.292 C 
HETATM   25  O2  UNL     1      -9.970  -7.713  25.452  1.00  0.00    -0.259 OA
BRANCH  24  26
HETATM   26  O1  UNL     1     -10.538  -7.216  23.325  1.00  0.00    -0.323 OA
HETATM   27  C1  UNL     1      -9.906  -5.960  23.173  1.00  0.00     0.213 C 
ENDBRANCH  24  26
ENDBRANCH  22  24
ENDBRANCH   1  18
TORSDOF 4
ENDMDL
