MODEL 2
REMARK VINA RESULT: -7.651614467      1.832      2.354
REMARK  4 active torsions:
REMARK  status: ('A' for Active; 'I' for Inactive)
REMARK    1  A    between atoms: O1_2  and  C2_3 
REMARK    2  A    between atoms: C2_3  and  C3_5 
REMARK    3  A    between atoms: C7_9  and  C8_10 
REMARK       I    between atoms: C8_10  and  N1_12 
REMARK    4  A    between atoms: N1_12  and  C9_14 
ROOT
HETATM    1  C8  UNL     1     -14.764  -9.664  24.180  1.00  0.00     0.257 C 
HETATM    2  O3  UNL     1     -14.758 -10.857  23.727  1.00  0.00    -0.267 OA
HETATM    3  N1  UNL     1     -15.826  -8.834  23.762  1.00  0.00    -0.307 N 
ATOM      4  H1  UNL     1     -15.872  -7.872  24.099  1.00  0.00     0.170 HD
ENDROOT
BRANCH   3   5
HETATM    5  C9  UNL     1     -16.850  -9.322  22.863  1.00  0.00     0.140 A 
HETATM    6  N2  UNL     1     -17.450 -10.496  23.071  1.00  0.00    -0.337 N 
HETATM    7  C10 UNL     1     -18.394 -10.922  22.224  1.00  0.00     0.183 A 
ATOM      8  H2  UNL     1     -17.189 -11.067  23.875  1.00  0.00     0.168 HD
HETATM    9  N3  UNL     1     -18.749 -10.194  21.172  1.00  0.00    -0.337 N 
HETATM   10  C11 UNL     1     -18.158  -8.994  20.934  1.00  0.00     0.138 A 
ATOM     11  H3  UNL     1     -19.472 -10.538  20.539  1.00  0.00     0.168 HD
HETATM   12  N4  UNL     1     -18.302  -8.061  19.981  1.00  0.00    -0.337 N 
HETATM   13  C13 UNL     1     -17.190  -8.550  21.797  1.00  0.00     0.122 A 
HETATM   14  C12 UNL     1     -17.437  -7.069  20.262  1.00  0.00     0.182 A 
ATOM     15  H4  UNL     1     -18.946  -8.097  19.191  1.00  0.00     0.168 HD
HETATM   16  N5  UNL     1     -16.748  -7.366  21.380  1.00  0.00    -0.346 N 
ATOM     17  H5  UNL     1     -16.028  -6.795  21.821  1.00  0.00     0.167 HD
ENDBRANCH   3   5
BRANCH   1  18
HETATM   18  C7  UNL     1     -13.706  -9.253  25.071  1.00  0.00     0.033 A 
HETATM   19  C6  UNL     1     -13.751  -9.585  26.434  1.00  0.00     0.017 A 
HETATM   20  C5  UNL     1     -12.749  -9.191  27.258  1.00  0.00     0.002 A 
HETATM   21  C4  UNL     1     -11.685  -8.461  26.754  1.00  0.00     0.017 A 
HETATM   22  C3  UNL     1     -11.595  -8.110  25.427  1.00  0.00     0.040 A 
HETATM   23  C14 UNL     1     -12.632  -8.524  24.604  1.00  0.00     0.034 A 
BRANCH  22  24
HETATM   24  C2  UNL     1     -10.474  -7.341  24.897  1.00  0.00     0.292 C 
HETATM   25  O2  UNL     1      -9.608  -6.883  25.681  1.00  0.00    -0.259 OA
BRANCH  24  26
HETATM   26  O1  UNL     1     -10.321  -7.090  23.550  1.00  0.00    -0.323 OA
HETATM   27  C1  UNL     1      -9.938  -5.839  23.014  1.00  0.00     0.213 C 
ENDBRANCH  24  26
ENDBRANCH  22  24
ENDBRANCH   1  18
TORSDOF 4
ENDMDL
