MODEL 7
REMARK VINA RESULT: -8.242943932      1.515      2.010
REMARK  9 active torsions:
REMARK  status: ('A' for Active; 'I' for Inactive)
REMARK       I    between atoms: C2_2  and  N1_4 
REMARK    1  A    between atoms: N1_4  and  C3_6 
REMARK    2  A    between atoms: C5_8  and  N2_9 
REMARK    3  A    between atoms: N2_9  and  C6_11 
REMARK    4  A    between atoms: C8_13  and  N3_14 
REMARK    5  A    between atoms: N3_14  and  C9_16 
REMARK    6  A    between atoms: C18_31  and  N8_32 
REMARK    7  A    between atoms: N8_32  and  C20_34 
REMARK    8  A    between atoms: C20_34  and  C21_35 
REMARK    9  A    between atoms: C21_35  and  N9_36 
ROOT
HETATM    1  C6  UNL     1      19.278  68.380  32.521  1.00  0.00     0.110 A 
HETATM    2  C7  UNL     1      20.163  69.124  31.771  1.00  0.00     0.098 A 
HETATM    3  C8  UNL     1      21.304  69.730  32.321  1.00  0.00     0.129 A 
HETATM    4  N4  UNL     1      21.487  69.544  33.627  1.00  0.00    -0.223 N 
HETATM    5  N5  UNL     1      22.428  69.946  34.453  1.00  0.00    -0.300 N 
ATOM      6  H5  UNL     1      23.221  70.521  34.169  1.00  0.00     0.186 HD
HETATM    7  C12 UNL     1      22.232  69.522  35.708  1.00  0.00     0.134 A 
HETATM    8  C13 UNL     1      21.063  68.779  35.699  1.00  0.00     0.107 A 
HETATM    9  C14 UNL     1      20.482  68.134  36.824  1.00  0.00     0.105 C 
HETATM   10  N6  UNL     1      20.032  67.606  37.749  1.00  0.00    -0.191 NA
HETATM   11  C15 UNL     1      20.619  68.811  34.383  1.00  0.00     0.153 A 
HETATM   12  N7  UNL     1      19.533  68.240  33.833  1.00  0.00    -0.326 N 
ATOM     13  H7  UNL     1      18.897  67.696  34.416  1.00  0.00     0.169 HD
ENDROOT
BRANCH   3  14
HETATM   14  N3  UNL     1      22.177  70.464  31.510  1.00  0.00    -0.364 N 
ATOM     15  H3  UNL     1      23.021  70.778  31.990  1.00  0.00     0.162 HD
BRANCH  14  16
HETATM   16  C9  UNL     1      22.113  70.851  30.157  1.00  0.00     0.129 A 
HETATM   17  C10 UNL     1      23.110  71.796  29.559  1.00  0.00     0.000 A 
HETATM   18  C11 UNL     1      21.747  72.138  29.613  1.00  0.00     0.000 A 
ENDBRANCH  14  16
ENDBRANCH   3  14
BRANCH   1  19
HETATM   19  N2  UNL     1      18.154  67.782  31.886  1.00  0.00    -0.342 N 
ATOM     20  H2  UNL     1      17.935  68.116  30.948  1.00  0.00     0.167 HD
BRANCH  19  21
HETATM   21  C5  UNL     1      17.316  66.790  32.398  1.00  0.00     0.035 A 
HETATM   22  C4  UNL     1      17.304  66.336  33.717  1.00  0.00     0.061 A 
HETATM   23  C3  UNL     1      16.470  65.345  34.184  1.00  0.00     0.063 A 
HETATM   24  C18 UNL     1      15.599  64.785  33.250  1.00  0.00     0.057 A 
HETATM   25  C17 UNL     1      15.567  65.194  31.934  1.00  0.00     0.034 A 
HETATM   26  C16 UNL     1      16.417  66.187  31.513  1.00  0.00     0.032 A 
BRANCH  23  27
HETATM   27  N1  UNL     1      16.385  64.868  35.489  1.00  0.00    -0.325 N 
HETATM   28  C2  UNL     1      16.527  65.690  36.626  1.00  0.00     0.218 C 
HETATM   29  C1  UNL     1      16.415  65.049  37.996  1.00  0.00     0.117 C 
HETATM   30  O1  UNL     1      16.739  66.918  36.584  1.00  0.00    -0.274 OA
ATOM     31  H1  UNL     1      16.211  63.873  35.630  1.00  0.00     0.169 HD
ENDBRANCH  23  27
BRANCH  24  32
HETATM   32  N8  UNL     1      14.734  63.744  33.654  1.00  0.00    -0.382 N 
HETATM   33  C19 UNL     1      13.585  63.952  34.501  1.00  0.00     0.150 C 
BRANCH  32  34
HETATM   34  C20 UNL     1      15.021  62.413  33.179  1.00  0.00     0.149 C 
BRANCH  34  35
HETATM   35  C21 UNL     1      15.981  61.616  33.982  1.00  0.00     0.249 C 
BRANCH  35  36
HETATM   36  N9  UNL     1      17.360  61.702  33.618  1.00  0.00    -0.078 N 
ATOM     37  H93 UNL     1      17.499  62.499  32.996  1.00  0.00     0.274 HD
ATOM     38  H92 UNL     1      17.908  61.996  34.427  1.00  0.00     0.274 HD
ATOM     39  H91 UNL     1      17.784  60.871  33.204  1.00  0.00     0.274 HD
ENDBRANCH  35  36
ENDBRANCH  34  35
ENDBRANCH  32  34
ENDBRANCH  24  32
ENDBRANCH  19  21
ENDBRANCH   1  19
TORSDOF 9
ENDMDL
