MODEL 4
REMARK VINA RESULT: -8.337623005      1.600      4.278
REMARK  9 active torsions:
REMARK  status: ('A' for Active; 'I' for Inactive)
REMARK       I    between atoms: C2_2  and  N1_4 
REMARK    1  A    between atoms: N1_4  and  C3_6 
REMARK    2  A    between atoms: C5_8  and  N2_9 
REMARK    3  A    between atoms: N2_9  and  C6_11 
REMARK    4  A    between atoms: C8_13  and  N3_14 
REMARK    5  A    between atoms: N3_14  and  C9_16 
REMARK    6  A    between atoms: C18_31  and  N8_32 
REMARK    7  A    between atoms: N8_32  and  C20_34 
REMARK    8  A    between atoms: C20_34  and  C21_35 
REMARK    9  A    between atoms: C21_35  and  N9_36 
ROOT
HETATM    1  C6  UNL     1      18.206  67.437  33.893  1.00  0.00     0.110 A 
HETATM    2  C7  UNL     1      18.431  67.169  35.226  1.00  0.00     0.098 A 
HETATM    3  C8  UNL     1      19.544  67.666  35.924  1.00  0.00     0.129 A 
HETATM    4  N4  UNL     1      20.382  68.422  35.217  1.00  0.00    -0.223 N 
HETATM    5  N5  UNL     1      21.494  69.046  35.538  1.00  0.00    -0.300 N 
ATOM      6  H5  UNL     1      21.905  69.023  36.471  1.00  0.00     0.186 HD
HETATM    7  C12 UNL     1      22.029  69.715  34.509  1.00  0.00     0.134 A 
HETATM    8  C13 UNL     1      21.194  69.509  33.423  1.00  0.00     0.107 A 
HETATM    9  C14 UNL     1      21.382  70.044  32.120  1.00  0.00     0.105 C 
HETATM   10  N6  UNL     1      21.546  70.498  31.070  1.00  0.00    -0.191 NA
HETATM   11  C15 UNL     1      20.172  68.696  33.896  1.00  0.00     0.153 A 
HETATM   12  N7  UNL     1      19.099  68.208  33.249  1.00  0.00    -0.326 N 
ATOM     13  H7  UNL     1      18.961  68.424  32.262  1.00  0.00     0.169 HD
ENDROOT
BRANCH   3  14
HETATM   14  N3  UNL     1      19.717  67.373  37.281  1.00  0.00    -0.364 N 
ATOM     15  H3  UNL     1      20.690  67.231  37.552  1.00  0.00     0.162 HD
BRANCH  14  16
HETATM   16  C9  UNL     1      18.803  67.236  38.344  1.00  0.00     0.129 A 
HETATM   17  C10 UNL     1      19.051  66.291  39.480  1.00  0.00     0.000 A 
HETATM   18  C11 UNL     1      17.937  66.119  38.640  1.00  0.00     0.000 A 
ENDBRANCH  14  16
ENDBRANCH   3  14
BRANCH   1  19
HETATM   19  N2  UNL     1      17.045  66.911  33.260  1.00  0.00    -0.342 N 
ATOM     20  H2  UNL     1      16.422  67.592  32.826  1.00  0.00     0.167 HD
BRANCH  19  21
HETATM   21  C5  UNL     1      16.658  65.574  33.166  1.00  0.00     0.035 A 
HETATM   22  C4  UNL     1      15.835  64.899  34.068  1.00  0.00     0.061 A 
HETATM   23  C3  UNL     1      15.485  63.573  33.950  1.00  0.00     0.063 A 
HETATM   24  C18 UNL     1      16.005  62.897  32.847  1.00  0.00     0.057 A 
HETATM   25  C17 UNL     1      16.823  63.513  31.924  1.00  0.00     0.034 A 
HETATM   26  C16 UNL     1      17.146  64.838  32.082  1.00  0.00     0.032 A 
BRANCH  23  27
HETATM   27  N1  UNL     1      14.646  62.850  34.793  1.00  0.00    -0.325 N 
HETATM   28  C2  UNL     1      13.286  63.167  34.993  1.00  0.00     0.218 C 
HETATM   29  C1  UNL     1      12.478  62.302  35.941  1.00  0.00     0.117 C 
HETATM   30  O1  UNL     1      12.697  64.117  34.441  1.00  0.00    -0.274 OA
ATOM     31  H1  UNL     1      15.034  62.049  35.292  1.00  0.00     0.169 HD
ENDBRANCH  23  27
BRANCH  24  32
HETATM   32  N8  UNL     1      15.709  61.526  32.678  1.00  0.00    -0.382 N 
HETATM   33  C19 UNL     1      14.823  61.027  31.655  1.00  0.00     0.150 C 
BRANCH  32  34
HETATM   34  C20 UNL     1      16.340  60.588  33.573  1.00  0.00     0.149 C 
BRANCH  34  35
HETATM   35  C21 UNL     1      15.455  59.582  34.210  1.00  0.00     0.249 C 
BRANCH  35  36
HETATM   36  N9  UNL     1      15.627  59.360  35.611  1.00  0.00    -0.078 N 
ATOM     37  H93 UNL     1      16.451  59.865  35.937  1.00  0.00     0.274 HD
ATOM     38  H92 UNL     1      14.892  59.845  36.125  1.00  0.00     0.274 HD
ATOM     39  H91 UNL     1      15.678  58.390  35.924  1.00  0.00     0.274 HD
ENDBRANCH  35  36
ENDBRANCH  34  35
ENDBRANCH  32  34
ENDBRANCH  24  32
ENDBRANCH  19  21
ENDBRANCH   1  19
TORSDOF 9
ENDMDL
