MODEL 3
REMARK VINA RESULT: -8.338309176      1.809      4.628
REMARK  9 active torsions:
REMARK  status: ('A' for Active; 'I' for Inactive)
REMARK       I    between atoms: C2_2  and  N1_4 
REMARK    1  A    between atoms: N1_4  and  C3_6 
REMARK    2  A    between atoms: C5_8  and  N2_9 
REMARK    3  A    between atoms: N2_9  and  C6_11 
REMARK    4  A    between atoms: C8_13  and  N3_14 
REMARK    5  A    between atoms: N3_14  and  C9_16 
REMARK    6  A    between atoms: C18_31  and  N8_32 
REMARK    7  A    between atoms: N8_32  and  C20_34 
REMARK    8  A    between atoms: C20_34  and  C21_35 
REMARK    9  A    between atoms: C21_35  and  N9_36 
ROOT
HETATM    1  C6  UNL     1      18.371  67.639  33.672  1.00  0.00     0.110 A 
HETATM    2  C7  UNL     1      18.642  67.324  34.985  1.00  0.00     0.098 A 
HETATM    3  C8  UNL     1      19.767  67.813  35.668  1.00  0.00     0.129 A 
HETATM    4  N4  UNL     1      20.570  68.612  34.966  1.00  0.00    -0.223 N 
HETATM    5  N5  UNL     1      21.680  69.243  35.278  1.00  0.00    -0.300 N 
ATOM      6  H5  UNL     1      22.120  69.191  36.197  1.00  0.00     0.186 HD
HETATM    7  C12 UNL     1      22.172  69.960  34.260  1.00  0.00     0.134 A 
HETATM    8  C13 UNL     1      21.307  69.781  33.193  1.00  0.00     0.107 A 
HETATM    9  C14 UNL     1      21.446  70.370  31.907  1.00  0.00     0.105 C 
HETATM   10  N6  UNL     1      21.569  70.867  30.870  1.00  0.00    -0.191 NA
HETATM   11  C15 UNL     1      20.314  68.932  33.664  1.00  0.00     0.153 A 
HETATM   12  N7  UNL     1      19.230  68.450  33.032  1.00  0.00    -0.326 N 
ATOM     13  H7  UNL     1      19.058  68.702  32.059  1.00  0.00     0.169 HD
ENDROOT
BRANCH   3  14
HETATM   14  N3  UNL     1      19.987  67.471  37.007  1.00  0.00    -0.364 N 
ATOM     15  H3  UNL     1      20.946  67.186  37.208  1.00  0.00     0.162 HD
BRANCH  14  16
HETATM   16  C9  UNL     1      19.137  67.445  38.130  1.00  0.00     0.129 A 
HETATM   17  C10 UNL     1      19.453  66.619  39.339  1.00  0.00     0.000 A 
HETATM   18  C11 UNL     1      18.292  66.366  38.587  1.00  0.00     0.000 A 
ENDBRANCH  14  16
ENDBRANCH   3  14
BRANCH   1  19
HETATM   19  N2  UNL     1      17.199  67.117  33.055  1.00  0.00    -0.342 N 
ATOM     20  H2  UNL     1      16.721  67.737  32.401  1.00  0.00     0.167 HD
BRANCH  19  21
HETATM   21  C5  UNL     1      16.629  65.858  33.240  1.00  0.00     0.035 A 
HETATM   22  C4  UNL     1      16.048  65.073  32.242  1.00  0.00     0.061 A 
HETATM   23  C3  UNL     1      15.482  63.838  32.465  1.00  0.00     0.063 A 
HETATM   24  C18 UNL     1      15.509  63.378  33.781  1.00  0.00     0.057 A 
HETATM   25  C17 UNL     1      16.070  64.110  34.806  1.00  0.00     0.034 A 
HETATM   26  C16 UNL     1      16.623  65.337  34.537  1.00  0.00     0.032 A 
BRANCH  23  27
HETATM   27  N1  UNL     1      14.916  62.992  31.515  1.00  0.00    -0.325 N 
HETATM   28  C2  UNL     1      15.676  62.250  30.586  1.00  0.00     0.218 C 
HETATM   29  C1  UNL     1      14.940  61.366  29.599  1.00  0.00     0.117 C 
HETATM   30  O1  UNL     1      16.921  62.271  30.520  1.00  0.00    -0.274 OA
ATOM     31  H1  UNL     1      13.901  62.905  31.488  1.00  0.00     0.169 HD
ENDBRANCH  23  27
BRANCH  24  32
HETATM   32  N8  UNL     1      14.922  62.130  34.086  1.00  0.00    -0.382 N 
HETATM   33  C19 UNL     1      13.527  61.970  34.416  1.00  0.00     0.150 C 
BRANCH  32  34
HETATM   34  C20 UNL     1      15.770  60.964  34.052  1.00  0.00     0.149 C 
BRANCH  34  35
HETATM   35  C21 UNL     1      15.177  59.699  34.552  1.00  0.00     0.249 C 
BRANCH  35  36
HETATM   36  N9  UNL     1      15.609  59.242  35.835  1.00  0.00    -0.078 N 
ATOM     37  H93 UNL     1      16.202  59.951  36.267  1.00  0.00     0.274 HD
ATOM     38  H92 UNL     1      14.818  59.239  36.480  1.00  0.00     0.274 HD
ATOM     39  H91 UNL     1      16.080  58.338  35.871  1.00  0.00     0.274 HD
ENDBRANCH  35  36
ENDBRANCH  34  35
ENDBRANCH  32  34
ENDBRANCH  24  32
ENDBRANCH  19  21
ENDBRANCH   1  19
TORSDOF 9
ENDMDL
