MODEL 9
REMARK VINA RESULT: -8.510970521      2.729      6.000
REMARK  9 active torsions:
REMARK  status: ('A' for Active; 'I' for Inactive)
REMARK       I    between atoms: C2_2  and  N1_4 
REMARK    1  A    between atoms: N1_4  and  C3_6 
REMARK    2  A    between atoms: C5_8  and  N2_9 
REMARK    3  A    between atoms: N2_9  and  C6_11 
REMARK    4  A    between atoms: C8_13  and  N3_14 
REMARK    5  A    between atoms: N3_14  and  C9_16 
REMARK    6  A    between atoms: C18_31  and  N8_32 
REMARK    7  A    between atoms: N8_32  and  C20_34 
REMARK    8  A    between atoms: C20_34  and  C21_35 
REMARK    9  A    between atoms: C21_35  and  N9_36 
ROOT
HETATM    1  C6  UNL     1      10.129  -1.897  32.206  1.00  0.00     0.110 A 
HETATM    2  C7  UNL     1      10.503  -1.602  30.929  1.00  0.00     0.098 A 
HETATM    3  C8  UNL     1      10.728  -2.590  29.970  1.00  0.00     0.129 A 
HETATM    4  N4  UNL     1      10.557  -3.875  30.368  1.00  0.00    -0.223 N 
HETATM    5  N5  UNL     1      10.679  -5.035  29.769  1.00  0.00    -0.300 N 
ATOM      6  H5  UNL     1      10.952  -5.136  28.791  1.00  0.00     0.186 HD
HETATM    7  C12 UNL     1      10.410  -6.068  30.567  1.00  0.00     0.134 A 
HETATM    8  C13 UNL     1      10.084  -5.548  31.790  1.00  0.00     0.107 A 
HETATM    9  C14 UNL     1       9.712  -6.226  33.002  1.00  0.00     0.105 C 
HETATM   10  N6  UNL     1       9.420  -6.789  33.970  1.00  0.00    -0.191 NA
HETATM   11  C15 UNL     1      10.183  -4.157  31.643  1.00  0.00     0.153 A 
HETATM   12  N7  UNL     1       9.978  -3.178  32.530  1.00  0.00    -0.326 N 
ATOM     13  H7  UNL     1       9.698  -3.420  33.480  1.00  0.00     0.169 HD
ENDROOT
BRANCH   3  14
HETATM   14  N3  UNL     1      11.130  -2.247  28.672  1.00  0.00    -0.364 N 
ATOM     15  H3  UNL     1      11.440  -1.282  28.560  1.00  0.00     0.162 HD
BRANCH  14  16
HETATM   16  C9  UNL     1      11.173  -3.023  27.494  1.00  0.00     0.129 A 
HETATM   17  C10 UNL     1      12.298  -2.815  26.529  1.00  0.00     0.000 A 
HETATM   18  C11 UNL     1      12.080  -4.051  27.112  1.00  0.00     0.000 A 
ENDBRANCH  14  16
ENDBRANCH   3  14
BRANCH   1  19
HETATM   19  N2  UNL     1       9.930  -0.821  33.112  1.00  0.00    -0.342 N 
ATOM     20  H2  UNL     1       9.163  -0.919  33.777  1.00  0.00     0.167 HD
BRANCH  19  21
HETATM   21  C5  UNL     1      10.686   0.372  33.186  1.00  0.00     0.035 A 
HETATM   22  C4  UNL     1      10.059   1.559  32.768  1.00  0.00     0.061 A 
HETATM   23  C3  UNL     1      10.684   2.777  32.799  1.00  0.00     0.063 A 
HETATM   24  C18 UNL     1      12.017   2.857  33.271  1.00  0.00     0.057 A 
HETATM   25  C17 UNL     1      12.605   1.701  33.671  1.00  0.00     0.034 A 
HETATM   26  C16 UNL     1      11.977   0.461  33.642  1.00  0.00     0.032 A 
BRANCH  23  27
HETATM   27  N1  UNL     1      10.076   3.977  32.399  1.00  0.00    -0.325 N 
HETATM   28  C2  UNL     1       9.597   4.226  31.117  1.00  0.00     0.218 C 
HETATM   29  C1  UNL     1       8.964   5.564  30.830  1.00  0.00     0.117 C 
HETATM   30  O1  UNL     1       9.638   3.434  30.151  1.00  0.00    -0.274 OA
ATOM     31  H1  UNL     1       9.978   4.716  33.096  1.00  0.00     0.169 HD
ENDBRANCH  23  27
BRANCH  24  32
HETATM   32  N8  UNL     1      12.707   4.104  33.312  1.00  0.00    -0.382 N 
HETATM   33  C19 UNL     1      12.886   4.842  34.520  1.00  0.00     0.150 C 
BRANCH  32  34
HETATM   34  C20 UNL     1      13.245   4.628  32.085  1.00  0.00     0.152 C 
BRANCH  34  35
HETATM   35  C21 UNL     1      13.289   6.138  32.056  1.00  0.00     0.291 C 
BRANCH  35  36
HETATM   36  N9  UNL     1      12.248   6.643  31.174  1.00  0.00     0.081 N 
HETATM   37  C22 UNL     1      12.052   8.079  31.385  1.00  0.00     0.309 C 
HETATM   38  C23 UNL     1      12.500   6.428  29.793  1.00  0.00     0.309 C 
ENDBRANCH  35  36
ENDBRANCH  34  35
ENDBRANCH  32  34
ENDBRANCH  24  32
ENDBRANCH  19  21
ENDBRANCH   1  19
TORSDOF 9
ENDMDL
