MODEL 10
REMARK VINA RESULT: -8.507393508      2.786     10.166
REMARK  9 active torsions:
REMARK  status: ('A' for Active; 'I' for Inactive)
REMARK       I    between atoms: C2_2  and  N1_4 
REMARK    1  A    between atoms: N1_4  and  C3_6 
REMARK    2  A    between atoms: C5_8  and  N2_9 
REMARK    3  A    between atoms: N2_9  and  C6_11 
REMARK    4  A    between atoms: C8_13  and  N3_14 
REMARK    5  A    between atoms: N3_14  and  C9_16 
REMARK    6  A    between atoms: C18_31  and  N8_32 
REMARK    7  A    between atoms: N8_32  and  C20_34 
REMARK    8  A    between atoms: C20_34  and  C21_35 
REMARK    9  A    between atoms: C21_35  and  N9_36 
ROOT
HETATM    1  C6  UNL     1       9.778   2.915  31.674  1.00  0.00     0.110 A 
HETATM    2  C7  UNL     1      10.732   3.297  32.569  1.00  0.00     0.098 A 
HETATM    3  C8  UNL     1      11.596   4.367  32.330  1.00  0.00     0.129 A 
HETATM    4  N4  UNL     1      11.443   5.020  31.150  1.00  0.00    -0.223 N 
HETATM    5  N5  UNL     1      12.054   6.036  30.590  1.00  0.00    -0.300 N 
ATOM      6  H5  UNL     1      12.825   6.539  31.029  1.00  0.00     0.186 HD
HETATM    7  C12 UNL     1      11.563   6.345  29.390  1.00  0.00     0.134 A 
HETATM    8  C13 UNL     1      10.548   5.462  29.138  1.00  0.00     0.107 A 
HETATM    9  C14 UNL     1       9.692   5.356  27.989  1.00  0.00     0.105 C 
HETATM   10  N6  UNL     1       9.015   5.283  27.052  1.00  0.00    -0.191 NA
HETATM   11  C15 UNL     1      10.488   4.631  30.267  1.00  0.00     0.153 A 
HETATM   12  N7  UNL     1       9.682   3.599  30.538  1.00  0.00    -0.326 N 
ATOM     13  H7  UNL     1       8.974   3.330  29.855  1.00  0.00     0.169 HD
ENDROOT
BRANCH   3  14
HETATM   14  N3  UNL     1      12.576   4.717  33.267  1.00  0.00    -0.364 N 
ATOM     15  H3  UNL     1      13.248   3.980  33.482  1.00  0.00     0.162 HD
BRANCH  14  16
HETATM   16  C9  UNL     1      12.783   5.927  33.963  1.00  0.00     0.129 A 
HETATM   17  C10 UNL     1      14.065   6.125  34.710  1.00  0.00     0.000 A 
HETATM   18  C11 UNL     1      13.692   6.989  33.696  1.00  0.00     0.000 A 
ENDBRANCH  14  16
ENDBRANCH   3  14
BRANCH   1  19
HETATM   19  N2  UNL     1       8.952   1.809  32.006  1.00  0.00    -0.342 N 
ATOM     20  H2  UNL     1       7.972   2.013  32.203  1.00  0.00     0.167 HD
BRANCH  19  21
HETATM   21  C5  UNL     1       9.348   0.453  32.091  1.00  0.00     0.035 A 
HETATM   22  C4  UNL     1      10.067  -0.076  31.006  1.00  0.00     0.061 A 
HETATM   23  C3  UNL     1      10.512  -1.371  30.975  1.00  0.00     0.063 A 
HETATM   24  C18 UNL     1      10.243  -2.221  32.075  1.00  0.00     0.057 A 
HETATM   25  C17 UNL     1       9.547  -1.691  33.113  1.00  0.00     0.034 A 
HETATM   26  C16 UNL     1       9.093  -0.378  33.153  1.00  0.00     0.032 A 
BRANCH  23  27
HETATM   27  N1  UNL     1      11.243  -1.920  29.909  1.00  0.00    -0.325 N 
HETATM   28  C2  UNL     1      10.714  -2.193  28.651  1.00  0.00     0.218 C 
HETATM   29  C1  UNL     1      11.619  -2.782  27.600  1.00  0.00     0.117 C 
HETATM   30  O1  UNL     1       9.532  -1.995  28.292  1.00  0.00    -0.274 OA
ATOM     31  H1  UNL     1      12.228  -2.132  30.067  1.00  0.00     0.169 HD
ENDBRANCH  23  27
BRANCH  24  32
HETATM   32  N8  UNL     1      10.680  -3.578  32.078  1.00  0.00    -0.382 N 
HETATM   33  C19 UNL     1      11.842  -4.007  32.785  1.00  0.00     0.150 C 
BRANCH  32  34
HETATM   34  C20 UNL     1       9.911  -4.546  31.342  1.00  0.00     0.152 C 
BRANCH  34  35
HETATM   35  C21 UNL     1      10.245  -5.971  31.713  1.00  0.00     0.291 C 
BRANCH  35  36
HETATM   36  N9  UNL     1      10.344  -6.782  30.510  1.00  0.00     0.081 N 
HETATM   37  C22 UNL     1      11.335  -6.217  29.592  1.00  0.00     0.309 C 
HETATM   38  C23 UNL     1      10.687  -8.140  30.750  1.00  0.00     0.309 C 
ENDBRANCH  35  36
ENDBRANCH  34  35
ENDBRANCH  32  34
ENDBRANCH  24  32
ENDBRANCH  19  21
ENDBRANCH   1  19
TORSDOF 9
ENDMDL
