MODEL 8
REMARK VINA RESULT: -8.519213986      3.274      8.600
REMARK  9 active torsions:
REMARK  status: ('A' for Active; 'I' for Inactive)
REMARK       I    between atoms: C2_2  and  N1_4 
REMARK    1  A    between atoms: N1_4  and  C3_6 
REMARK    2  A    between atoms: C5_8  and  N2_9 
REMARK    3  A    between atoms: N2_9  and  C6_11 
REMARK    4  A    between atoms: C8_13  and  N3_14 
REMARK    5  A    between atoms: N3_14  and  C9_16 
REMARK    6  A    between atoms: C18_31  and  N8_32 
REMARK    7  A    between atoms: N8_32  and  C20_34 
REMARK    8  A    between atoms: C20_34  and  C21_35 
REMARK    9  A    between atoms: C21_35  and  N9_36 
ROOT
HETATM    1  C6  UNL     1      10.237  -4.846  30.993  1.00  0.00     0.110 A 
HETATM    2  C7  UNL     1      10.585  -4.329  29.781  1.00  0.00     0.098 A 
HETATM    3  C8  UNL     1      10.743  -2.958  29.572  1.00  0.00     0.129 A 
HETATM    4  N4  UNL     1      10.532  -2.150  30.641  1.00  0.00    -0.223 N 
HETATM    5  N5  UNL     1      10.578  -0.852  30.822  1.00  0.00    -0.300 N 
ATOM      6  H5  UNL     1      10.815  -0.191  30.083  1.00  0.00     0.186 HD
HETATM    7  C12 UNL     1      10.285  -0.487  32.070  1.00  0.00     0.134 A 
HETATM    8  C13 UNL     1      10.024  -1.635  32.767  1.00  0.00     0.107 A 
HETATM    9  C14 UNL     1       9.659  -1.803  34.147  1.00  0.00     0.105 C 
HETATM   10  N6  UNL     1       9.359  -1.918  35.260  1.00  0.00    -0.191 NA
HETATM   11  C15 UNL     1      10.186  -2.678  31.844  1.00  0.00     0.153 A 
HETATM   12  N7  UNL     1      10.046  -3.998  32.000  1.00  0.00    -0.326 N 
ATOM     13  H7  UNL     1       9.785  -4.365  32.915  1.00  0.00     0.169 HD
ENDROOT
BRANCH   3  14
HETATM   14  N3  UNL     1      11.084  -2.463  28.306  1.00  0.00    -0.364 N 
ATOM     15  H3  UNL     1      11.156  -1.448  28.247  1.00  0.00     0.162 HD
BRANCH  14  16
HETATM   16  C9  UNL     1      11.343  -3.146  27.098  1.00  0.00     0.129 A 
HETATM   17  C10 UNL     1      12.602  -2.841  26.348  1.00  0.00     0.000 A 
HETATM   18  C11 UNL     1      12.333  -4.122  26.796  1.00  0.00     0.000 A 
ENDBRANCH  14  16
ENDBRANCH   3  14
BRANCH   1  19
HETATM   19  N2  UNL     1      10.094  -6.255  31.104  1.00  0.00    -0.342 N 
ATOM     20  H2  UNL     1      10.058  -6.781  30.231  1.00  0.00     0.167 HD
BRANCH  19  21
HETATM   21  C5  UNL     1       9.997  -7.002  32.301  1.00  0.00     0.035 A 
HETATM   22  C4  UNL     1      10.312  -8.371  32.233  1.00  0.00     0.061 A 
HETATM   23  C3  UNL     1      10.264  -9.196  33.325  1.00  0.00     0.063 A 
HETATM   24  C18 UNL     1       9.882  -8.661  34.579  1.00  0.00     0.057 A 
HETATM   25  C17 UNL     1       9.582  -7.338  34.624  1.00  0.00     0.034 A 
HETATM   26  C16 UNL     1       9.629  -6.493  33.521  1.00  0.00     0.032 A 
BRANCH  23  27
HETATM   27  N1  UNL     1      10.586 -10.562  33.285  1.00  0.00    -0.325 N 
HETATM   28  C2  UNL     1       9.765 -11.548  32.745  1.00  0.00     0.218 C 
HETATM   29  C1  UNL     1      10.243 -12.978  32.771  1.00  0.00     0.117 C 
HETATM   30  O1  UNL     1       8.642 -11.366  32.228  1.00  0.00    -0.274 OA
ATOM     31  H1  UNL     1      11.482 -10.851  33.678  1.00  0.00     0.169 HD
ENDBRANCH  23  27
BRANCH  24  32
HETATM   32  N8  UNL     1       9.810  -9.489  35.738  1.00  0.00    -0.382 N 
HETATM   33  C19 UNL     1       8.609 -10.149  36.134  1.00  0.00     0.150 C 
BRANCH  32  34
HETATM   34  C20 UNL     1      10.999  -9.665  36.528  1.00  0.00     0.152 C 
BRANCH  34  35
HETATM   35  C21 UNL     1      10.756  -9.493  38.008  1.00  0.00     0.291 C 
BRANCH  35  36
HETATM   36  N9  UNL     1      11.277  -8.208  38.447  1.00  0.00     0.081 N 
HETATM   37  C22 UNL     1      12.450  -7.834  37.655  1.00  0.00     0.309 C 
HETATM   38  C23 UNL     1      10.337  -7.144  38.376  1.00  0.00     0.309 C 
ENDBRANCH  35  36
ENDBRANCH  34  35
ENDBRANCH  32  34
ENDBRANCH  24  32
ENDBRANCH  19  21
ENDBRANCH   1  19
TORSDOF 9
ENDMDL
