MODEL 1
REMARK VINA RESULT: -9.056626618      0.000      0.000
REMARK  9 active torsions:
REMARK  status: ('A' for Active; 'I' for Inactive)
REMARK       I    between atoms: C2_2  and  N1_4 
REMARK    1  A    between atoms: N1_4  and  C3_6 
REMARK    2  A    between atoms: C5_8  and  N2_9 
REMARK    3  A    between atoms: N2_9  and  C6_11 
REMARK    4  A    between atoms: C8_13  and  N3_14 
REMARK    5  A    between atoms: N3_14  and  C9_16 
REMARK    6  A    between atoms: C18_31  and  N8_32 
REMARK    7  A    between atoms: N8_32  and  C20_34 
REMARK    8  A    between atoms: C20_34  and  C21_35 
REMARK    9  A    between atoms: C21_35  and  N9_36 
ROOT
HETATM    1  C6  UNL     1      10.106  -6.402  31.680  1.00  0.00     0.110 A 
HETATM    2  C7  UNL     1      10.206  -7.699  32.086  1.00  0.00     0.098 A 
HETATM    3  C8  UNL     1      10.849  -8.674  31.322  1.00  0.00     0.129 A 
HETATM    4  N4  UNL     1      11.378  -8.269  30.140  1.00  0.00    -0.223 N 
HETATM    5  N5  UNL     1      12.030  -8.882  29.181  1.00  0.00    -0.300 N 
ATOM      6  H5  UNL     1      12.259  -9.875  29.202  1.00  0.00     0.186 HD
HETATM    7  C12 UNL     1      12.363  -8.072  28.175  1.00  0.00     0.134 A 
HETATM    8  C13 UNL     1      11.894  -6.828  28.497  1.00  0.00     0.107 A 
HETATM    9  C14 UNL     1      11.985  -5.597  27.759  1.00  0.00     0.105 C 
HETATM   10  N6  UNL     1      12.063  -4.617  27.149  1.00  0.00    -0.191 NA
HETATM   11  C15 UNL     1      11.273  -6.974  29.746  1.00  0.00     0.153 A 
HETATM   12  N7  UNL     1      10.648  -6.073  30.510  1.00  0.00    -0.326 N 
ATOM     13  H7  UNL     1      10.584  -5.108  30.188  1.00  0.00     0.169 HD
ENDROOT
BRANCH   3  14
HETATM   14  N3  UNL     1      10.915 -10.001  31.766  1.00  0.00    -0.364 N 
ATOM     15  H3  UNL     1      11.848 -10.412  31.752  1.00  0.00     0.162 HD
BRANCH  14  16
HETATM   16  C9  UNL     1       9.896 -10.861  32.229  1.00  0.00     0.129 A 
HETATM   17  C10 UNL     1      10.275 -12.090  32.994  1.00  0.00     0.000 A 
HETATM   18  C11 UNL     1       9.459 -11.125  33.557  1.00  0.00     0.000 A 
ENDBRANCH  14  16
ENDBRANCH   3  14
BRANCH   1  19
HETATM   19  N2  UNL     1       9.425  -5.485  32.525  1.00  0.00    -0.342 N 
ATOM     20  H2  UNL     1       8.749  -5.881  33.178  1.00  0.00     0.167 HD
BRANCH  19  21
HETATM   21  C5  UNL     1       9.589  -4.081  32.553  1.00  0.00     0.035 A 
HETATM   22  C4  UNL     1      10.201  -3.482  31.438  1.00  0.00     0.061 A 
HETATM   23  C3  UNL     1      10.408  -2.131  31.344  1.00  0.00     0.063 A 
HETATM   24  C18 UNL     1       9.993  -1.293  32.408  1.00  0.00     0.057 A 
HETATM   25  C17 UNL     1       9.404  -1.891  33.475  1.00  0.00     0.034 A 
HETATM   26  C16 UNL     1       9.190  -3.260  33.578  1.00  0.00     0.032 A 
BRANCH  23  27
HETATM   27  N1  UNL     1      11.004  -1.508  30.237  1.00  0.00    -0.325 N 
HETATM   28  C2  UNL     1      10.626  -1.724  28.915  1.00  0.00     0.218 C 
HETATM   29  C1  UNL     1      11.357  -0.983  27.825  1.00  0.00     0.117 C 
HETATM   30  O1  UNL     1       9.718  -2.491  28.527  1.00  0.00    -0.274 OA
ATOM     31  H1  UNL     1      11.766  -0.852  30.413  1.00  0.00     0.169 HD
ENDBRANCH  23  27
BRANCH  24  32
HETATM   32  N8  UNL     1      10.198   0.116  32.354  1.00  0.00    -0.382 N 
HETATM   33  C19 UNL     1       9.284   0.999  31.705  1.00  0.00     0.150 C 
BRANCH  32  34
HETATM   34  C20 UNL     1      11.369   0.662  32.987  1.00  0.00     0.152 C 
BRANCH  34  35
HETATM   35  C21 UNL     1      11.048   1.726  34.009  1.00  0.00     0.291 C 
BRANCH  35  36
HETATM   36  N9  UNL     1      11.961   2.848  33.854  1.00  0.00     0.081 N 
HETATM   37  C22 UNL     1      13.293   2.376  33.471  1.00  0.00     0.309 C 
HETATM   38  C23 UNL     1      11.541   3.812  32.898  1.00  0.00     0.309 C 
ENDBRANCH  35  36
ENDBRANCH  34  35
ENDBRANCH  32  34
ENDBRANCH  24  32
ENDBRANCH  19  21
ENDBRANCH   1  19
TORSDOF 9
ENDMDL
