MODEL 2
REMARK VINA RESULT: -7.374993931      3.725      4.862
REMARK  14 active torsions:
REMARK  status: ('A' for Active; 'I' for Inactive)
REMARK    1  A    between atoms: O1_1  and  C1_3 
REMARK    2  A    between atoms: C1_3  and  C2_4 
REMARK    3  A    between atoms: C3_6  and  S1_7 
REMARK    4  A    between atoms: S1_7  and  C4_8 
REMARK    5  A    between atoms: C5_10  and  C6_11 
REMARK    6  A    between atoms: C6_11  and  O4_12 
REMARK    7  A    between atoms: C7_14  and  O5_15 
REMARK    8  A    between atoms: C8_17  and  N1_18 
REMARK    9  A    between atoms: C10_20  and  C11_21 
REMARK   10  A    between atoms: C17_31  and  O6_32 
REMARK   11  A    between atoms: C18_34  and  O7_35 
REMARK   12  A    between atoms: C19_37  and  N4_38 
REMARK   13  A    between atoms: C21_40  and  C22_41 
REMARK   14  A    between atoms: C28_52  and  O8_53 
ROOT
HETATM    1  C2  UNL     1     -18.429   8.298  -2.543  1.00  0.00     0.177 C 
HETATM    2  O2  UNL     1     -17.214   8.082  -3.163  1.00  0.00    -0.363 OA
HETATM    3  C3  UNL     1     -16.128   8.288  -2.328  1.00  0.00     0.216 C 
HETATM    4  C18 UNL     1     -16.260   9.574  -1.540  1.00  0.00     0.184 C 
HETATM    5  C19 UNL     1     -17.318   9.272  -0.475  1.00  0.00     0.172 C 
HETATM    6  C28 UNL     1     -18.378   8.433  -1.072  1.00  0.00     0.176 C 
ENDROOT
BRANCH   3   7
HETATM    7  S1  UNL     1     -14.568   8.150  -3.205  1.00  0.00    -0.100 SA
BRANCH   7   8
HETATM    8  C4  UNL     1     -13.515   7.006  -2.233  1.00  0.00     0.216 C 
HETATM    9  O3  UNL     1     -13.584   7.213  -0.898  1.00  0.00    -0.363 OA
HETATM   10  C5  UNL     1     -12.424   7.553  -0.235  1.00  0.00     0.177 C 
HETATM   11  C7  UNL     1     -11.239   6.707  -0.554  1.00  0.00     0.176 C 
HETATM   12  C8  UNL     1     -11.318   6.049  -1.911  1.00  0.00     0.169 C 
HETATM   13  C17 UNL     1     -12.122   6.931  -2.808  1.00  0.00     0.184 C 
BRANCH  10  14
HETATM   14  C6  UNL     1     -12.121   9.027  -0.291  1.00  0.00     0.198 C 
BRANCH  14  15
HETATM   15  O4  UNL     1     -11.822   9.459   0.999  1.00  0.00    -0.398 OA
ATOM     16  H4  UNL     1     -11.054  10.015   0.956  1.00  0.00     0.209 HD
ENDBRANCH  14  15
ENDBRANCH  10  14
BRANCH  11  17
HETATM   17  O5  UNL     1     -10.070   7.461  -0.416  1.00  0.00    -0.391 OA
ATOM     18  H5  UNL     1      -9.805   7.479   0.496  1.00  0.00     0.210 HD
ENDBRANCH  11  17
BRANCH  12  19
HETATM   19  N1  UNL     1      -9.999   5.727  -2.404  1.00  0.00    -0.275 N 
HETATM   20  C9  UNL     1      -9.236   4.669  -2.087  1.00  0.00     0.140 A 
HETATM   21  C10 UNL     1      -8.031   4.730  -2.782  1.00  0.00     0.073 A 
HETATM   22  N2  UNL     1      -8.119   5.855  -3.511  1.00  0.00    -0.282 N 
HETATM   23  N3  UNL     1      -9.287   6.431  -3.277  1.00  0.00    -0.020 NA
ATOM     24  H2  UNL     1      -7.401   6.208  -4.144  1.00  0.00     0.184 HD
BRANCH  21  25
HETATM   25  C11 UNL     1      -6.940   3.768  -2.709  1.00  0.00    -0.004 A 
HETATM   26  C12 UNL     1      -6.018   3.833  -1.690  1.00  0.00     0.014 A 
HETATM   27  C13 UNL     1      -4.979   2.902  -1.638  1.00  0.00     0.004 A 
HETATM   28  C14 UNL     1      -4.854   1.917  -2.585  1.00  0.00     0.042 A 
HETATM   29  C15 UNL     1      -5.775   1.847  -3.610  1.00  0.00     0.117 A 
HETATM   30  F1  UNL     1      -5.698   0.885  -4.583  1.00  0.00    -0.206 F 
HETATM   31  C16 UNL     1      -6.806   2.777  -3.655  1.00  0.00     0.056 A 
ENDBRANCH  21  25
ENDBRANCH  12  19
BRANCH  13  32
HETATM   32  O6  UNL     1     -12.246   6.256  -4.047  1.00  0.00    -0.390 OA
ATOM     33  H6  UNL     1     -12.299   5.331  -3.836  1.00  0.00     0.210 HD
ENDBRANCH  13  32
ENDBRANCH   7   8
ENDBRANCH   3   7
BRANCH   4  34
HETATM   34  O7  UNL     1     -15.010   9.769  -0.908  1.00  0.00    -0.390 OA
ATOM     35  H7  UNL     1     -14.971   9.126  -0.208  1.00  0.00     0.210 HD
ENDBRANCH   4  34
BRANCH   1  36
HETATM   36  C1  UNL     1     -19.175   9.402  -3.259  1.00  0.00     0.198 C 
BRANCH  36  37
HETATM   37  O1  UNL     1     -20.519   9.081  -3.435  1.00  0.00    -0.398 OA
ATOM     38  H1  UNL     1     -20.948   8.909  -2.605  1.00  0.00     0.209 HD
ENDBRANCH  36  37
ENDBRANCH   1  36
BRANCH   5  39
HETATM   39  N4  UNL     1     -17.755  10.458   0.188  1.00  0.00    -0.277 N 
HETATM   40  C20 UNL     1     -17.690  10.743   1.486  1.00  0.00     0.144 A 
HETATM   41  C21 UNL     1     -18.238  12.017   1.691  1.00  0.00     0.076 A 
HETATM   42  N5  UNL     1     -18.611  12.437   0.470  1.00  0.00    -0.284 N 
HETATM   43  N6  UNL     1     -18.315  11.503  -0.384  1.00  0.00    -0.240 N 
ATOM     44  H5  UNL     1     -19.050  13.332   0.252  1.00  0.00     0.188 HD
ATOM     45  H6  UNL     1     -18.497  11.572  -1.386  1.00  0.00     0.208 HD
BRANCH  41  46
HETATM   46  C22 UNL     1     -18.361  12.706   2.968  1.00  0.00    -0.004 A 
HETATM   47  C23 UNL     1     -19.533  13.338   3.291  1.00  0.00     0.014 A 
HETATM   48  C24 UNL     1     -19.699  14.013   4.502  1.00  0.00     0.004 A 
HETATM   49  C25 UNL     1     -18.644  14.031   5.380  1.00  0.00     0.042 A 
HETATM   50  C26 UNL     1     -17.465  13.396   5.055  1.00  0.00     0.117 A 
HETATM   51  F2  UNL     1     -16.443  13.439   5.950  1.00  0.00    -0.206 F 
HETATM   52  C27 UNL     1     -17.309  12.725   3.842  1.00  0.00     0.056 A 
ENDBRANCH  41  46
ENDBRANCH   5  39
BRANCH   6  53
HETATM   53  O8  UNL     1     -19.628   8.969  -0.671  1.00  0.00    -0.391 OA
ATOM     54  H8  UNL     1     -19.454   9.540   0.068  1.00  0.00     0.210 HD
ENDBRANCH   6  53
TORSDOF 14
ENDMDL
