MODEL 1
REMARK VINA RESULT: -7.953782751      0.000      0.000
REMARK  14 active torsions:
REMARK  status: ('A' for Active; 'I' for Inactive)
REMARK    1  A    between atoms: O1_1  and  C1_3 
REMARK    2  A    between atoms: C1_3  and  C2_4 
REMARK    3  A    between atoms: C3_6  and  S1_7 
REMARK    4  A    between atoms: S1_7  and  C4_8 
REMARK    5  A    between atoms: C5_10  and  C6_11 
REMARK    6  A    between atoms: C6_11  and  O4_12 
REMARK    7  A    between atoms: C7_14  and  O5_15 
REMARK    8  A    between atoms: C8_17  and  N1_18 
REMARK    9  A    between atoms: C10_20  and  C11_21 
REMARK   10  A    between atoms: C17_31  and  O6_32 
REMARK   11  A    between atoms: C18_34  and  O7_35 
REMARK   12  A    between atoms: C19_37  and  N4_38 
REMARK   13  A    between atoms: C21_40  and  C22_41 
REMARK   14  A    between atoms: C28_52  and  O8_53 
ROOT
HETATM    1  C2  UNL     1     -16.986   7.191  -0.993  1.00  0.00     0.177 C 
HETATM    2  O2  UNL     1     -16.204   7.361  -2.118  1.00  0.00    -0.363 OA
HETATM    3  C3  UNL     1     -15.327   8.430  -2.020  1.00  0.00     0.216 C 
HETATM    4  C18 UNL     1     -16.009   9.670  -1.482  1.00  0.00     0.184 C 
HETATM    5  C19 UNL     1     -16.205   9.391   0.010  1.00  0.00     0.172 C 
HETATM    6  C28 UNL     1     -16.576   7.972   0.192  1.00  0.00     0.176 C 
ENDROOT
BRANCH   3   7
HETATM    7  S1  UNL     1     -14.439   8.716  -3.553  1.00  0.00    -0.100 SA
BRANCH   7   8
HETATM    8  C4  UNL     1     -12.691   8.256  -3.245  1.00  0.00     0.216 C 
HETATM    9  O3  UNL     1     -12.427   6.952  -3.493  1.00  0.00    -0.363 OA
HETATM   10  C5  UNL     1     -11.971   6.176  -2.449  1.00  0.00     0.177 C 
HETATM   11  C7  UNL     1     -10.863   6.772  -1.650  1.00  0.00     0.176 C 
HETATM   12  C8  UNL     1     -10.827   8.281  -1.706  1.00  0.00     0.169 C 
HETATM   13  C17 UNL     1     -12.222   8.772  -1.907  1.00  0.00     0.184 C 
BRANCH  10  14
HETATM   14  C6  UNL     1     -13.079   5.626  -1.591  1.00  0.00     0.198 C 
BRANCH  14  15
HETATM   15  O4  UNL     1     -13.627   4.523  -2.241  1.00  0.00    -0.398 OA
ATOM     16  H4  UNL     1     -14.083   3.994  -1.597  1.00  0.00     0.209 HD
ENDBRANCH  14  15
ENDBRANCH  10  14
BRANCH  11  17
HETATM   17  O5  UNL     1     -10.930   6.310  -0.332  1.00  0.00    -0.391 OA
ATOM     18  H5  UNL     1     -10.313   5.598  -0.210  1.00  0.00     0.210 HD
ENDBRANCH  11  17
BRANCH  12  19
HETATM   19  N1  UNL     1     -10.157   8.824  -0.548  1.00  0.00    -0.275 N 
HETATM   20  C9  UNL     1      -8.943   9.395  -0.490  1.00  0.00     0.140 A 
HETATM   21  C10 UNL     1      -8.666   9.786   0.818  1.00  0.00     0.073 A 
HETATM   22  N2  UNL     1      -9.755   9.424   1.515  1.00  0.00    -0.282 N 
HETATM   23  N3  UNL     1     -10.626   8.858   0.694  1.00  0.00    -0.020 NA
ATOM     24  H2  UNL     1      -9.891   9.563   2.517  1.00  0.00     0.184 HD
BRANCH  21  25
HETATM   25  C11 UNL     1      -7.452  10.439   1.287  1.00  0.00    -0.004 A 
HETATM   26  C12 UNL     1      -6.218   9.880   1.044  1.00  0.00     0.014 A 
HETATM   27  C13 UNL     1      -5.067  10.522   1.504  1.00  0.00     0.004 A 
HETATM   28  C14 UNL     1      -5.135  11.705   2.196  1.00  0.00     0.042 A 
HETATM   29  C15 UNL     1      -6.370  12.270   2.443  1.00  0.00     0.117 A 
HETATM   30  F1  UNL     1      -6.498  13.449   3.131  1.00  0.00    -0.206 F 
HETATM   31  C16 UNL     1      -7.511  11.625   1.983  1.00  0.00     0.056 A 
ENDBRANCH  21  25
ENDBRANCH  12  19
BRANCH  13  32
HETATM   32  O6  UNL     1     -12.149  10.181  -2.035  1.00  0.00    -0.390 OA
ATOM     33  H6  UNL     1     -11.337  10.360  -2.494  1.00  0.00     0.210 HD
ENDBRANCH  13  32
ENDBRANCH   7   8
ENDBRANCH   3   7
BRANCH   4  34
HETATM   34  O7  UNL     1     -15.077  10.720  -1.638  1.00  0.00    -0.390 OA
ATOM     35  H7  UNL     1     -15.082  10.936  -2.564  1.00  0.00     0.210 HD
ENDBRANCH   4  34
BRANCH   1  36
HETATM   36  C1  UNL     1     -18.447   7.318  -1.366  1.00  0.00     0.198 C 
BRANCH  36  37
HETATM   37  O1  UNL     1     -19.228   6.375  -0.703  1.00  0.00    -0.398 OA
ATOM     38  H1  UNL     1     -19.803   6.784  -0.066  1.00  0.00     0.209 HD
ENDBRANCH  36  37
ENDBRANCH   1  36
BRANCH   5  39
HETATM   39  N4  UNL     1     -17.072  10.349   0.618  1.00  0.00    -0.277 N 
HETATM   40  C20 UNL     1     -16.969  10.897   1.827  1.00  0.00     0.144 A 
HETATM   41  C21 UNL     1     -18.040  11.783   2.007  1.00  0.00     0.076 A 
HETATM   42  N5  UNL     1     -18.746  11.715   0.865  1.00  0.00    -0.284 N 
HETATM   43  N6  UNL     1     -18.153  10.868   0.076  1.00  0.00    -0.240 N 
ATOM     44  H5  UNL     1     -19.597  12.237   0.654  1.00  0.00     0.188 HD
ATOM     45  H6  UNL     1     -18.488  10.633  -0.858  1.00  0.00     0.208 HD
BRANCH  41  46
HETATM   46  C22 UNL     1     -18.302  12.587   3.192  1.00  0.00    -0.004 A 
HETATM   47  C23 UNL     1     -19.538  13.152   3.373  1.00  0.00     0.014 A 
HETATM   48  C24 UNL     1     -19.837  13.931   4.492  1.00  0.00     0.004 A 
HETATM   49  C25 UNL     1     -18.849  14.125   5.426  1.00  0.00     0.042 A 
HETATM   50  C26 UNL     1     -17.607  13.558   5.243  1.00  0.00     0.117 A 
HETATM   51  F2  UNL     1     -16.655  13.774   6.190  1.00  0.00    -0.206 F 
HETATM   52  C27 UNL     1     -17.318  12.780   4.122  1.00  0.00     0.056 A 
ENDBRANCH  41  46
ENDBRANCH   5  39
BRANCH   6  53
HETATM   53  O8  UNL     1     -17.660   7.924   1.104  1.00  0.00    -0.391 OA
ATOM     54  H8  UNL     1     -17.284   7.958   1.976  1.00  0.00     0.210 HD
ENDBRANCH   6  53
TORSDOF 14
ENDMDL
