MODEL 3
REMARK VINA RESULT: -7.344399254      1.648      2.627
REMARK  14 active torsions:
REMARK  status: ('A' for Active; 'I' for Inactive)
REMARK    1  A    between atoms: O1_1  and  C1_3 
REMARK    2  A    between atoms: C1_3  and  C2_4 
REMARK    3  A    between atoms: C3_6  and  S1_7 
REMARK    4  A    between atoms: S1_7  and  C4_8 
REMARK    5  A    between atoms: C5_10  and  C6_11 
REMARK    6  A    between atoms: C6_11  and  O4_12 
REMARK    7  A    between atoms: C7_14  and  O5_15 
REMARK    8  A    between atoms: C8_17  and  N1_18 
REMARK    9  A    between atoms: C10_20  and  C11_21 
REMARK   10  A    between atoms: C17_31  and  O6_32 
REMARK   11  A    between atoms: C18_34  and  O7_35 
REMARK   12  A    between atoms: C19_37  and  N4_38 
REMARK   13  A    between atoms: C21_40  and  C22_41 
REMARK   14  A    between atoms: C28_52  and  O8_53 
ROOT
HETATM    1  C2  UNL     1     -16.869  11.359  -2.964  1.00  0.00     0.177 C 
HETATM    2  O2  UNL     1     -16.245  10.127  -2.944  1.00  0.00    -0.363 OA
HETATM    3  C3  UNL     1     -16.974   9.152  -2.283  1.00  0.00     0.216 C 
HETATM    4  C18 UNL     1     -17.512   9.653  -0.960  1.00  0.00     0.184 C 
HETATM    5  C19 UNL     1     -18.662  10.591  -1.335  1.00  0.00     0.172 C 
HETATM    6  C28 UNL     1     -18.284  11.362  -2.538  1.00  0.00     0.176 C 
ENDROOT
BRANCH   3   7
HETATM    7  S1  UNL     1     -16.068   7.610  -2.143  1.00  0.00    -0.100 SA
BRANCH   7   8
HETATM    8  C4  UNL     1     -14.301   8.007  -2.433  1.00  0.00     0.216 C 
HETATM    9  O3  UNL     1     -13.702   7.181  -3.321  1.00  0.00    -0.363 OA
HETATM   10  C5  UNL     1     -12.628   6.434  -2.887  1.00  0.00     0.177 C 
HETATM   11  C7  UNL     1     -11.594   7.192  -2.126  1.00  0.00     0.176 C 
HETATM   12  C8  UNL     1     -12.131   8.434  -1.457  1.00  0.00     0.169 C 
HETATM   13  C17 UNL     1     -13.568   8.201  -1.128  1.00  0.00     0.184 C 
BRANCH  10  14
HETATM   14  C6  UNL     1     -13.033   5.154  -2.205  1.00  0.00     0.198 C 
BRANCH  14  15
HETATM   15  O4  UNL     1     -12.158   4.149  -2.611  1.00  0.00    -0.398 OA
ATOM     16  H4  UNL     1     -12.474   3.323  -2.265  1.00  0.00     0.209 HD
ENDBRANCH  14  15
ENDBRANCH  10  14
BRANCH  11  17
HETATM   17  O5  UNL     1     -10.969   6.344  -1.207  1.00  0.00    -0.391 OA
ATOM     18  H5  UNL     1     -10.895   6.781  -0.366  1.00  0.00     0.210 HD
ENDBRANCH  11  17
BRANCH  12  19
HETATM   19  N1  UNL     1     -11.308   8.810  -0.331  1.00  0.00    -0.275 N 
HETATM   20  C9  UNL     1     -10.372   9.771  -0.279  1.00  0.00     0.140 A 
HETATM   21  C10 UNL     1      -9.805   9.811   0.993  1.00  0.00     0.073 A 
HETATM   22  N2  UNL     1     -10.442   8.844   1.676  1.00  0.00    -0.282 N 
HETATM   23  N3  UNL     1     -11.325   8.264   0.879  1.00  0.00    -0.020 NA
ATOM     24  H2  UNL     1     -10.271   8.598   2.650  1.00  0.00     0.184 HD
BRANCH  21  25
HETATM   25  C11 UNL     1      -8.757  10.715   1.446  1.00  0.00    -0.004 A 
HETATM   26  C12 UNL     1      -9.066  11.818   2.208  1.00  0.00     0.014 A 
HETATM   27  C13 UNL     1      -8.046  12.672   2.632  1.00  0.00     0.004 A 
HETATM   28  C14 UNL     1      -6.735  12.437   2.305  1.00  0.00     0.042 A 
HETATM   29  C15 UNL     1      -6.418  11.332   1.540  1.00  0.00     0.117 A 
HETATM   30  F1  UNL     1      -5.126  11.050   1.183  1.00  0.00    -0.206 F 
HETATM   31  C16 UNL     1      -7.439  10.488   1.122  1.00  0.00     0.056 A 
ENDBRANCH  21  25
ENDBRANCH  12  19
BRANCH  13  32
HETATM   32  O6  UNL     1     -14.066   9.406  -0.575  1.00  0.00    -0.390 OA
ATOM     33  H6  UNL     1     -13.444   9.664   0.095  1.00  0.00     0.210 HD
ENDBRANCH  13  32
ENDBRANCH   7   8
ENDBRANCH   3   7
BRANCH   4  34
HETATM   34  O7  UNL     1     -18.037   8.517  -0.303  1.00  0.00    -0.390 OA
ATOM     35  H7  UNL     1     -18.447   8.843   0.491  1.00  0.00     0.210 HD
ENDBRANCH   4  34
BRANCH   1  36
HETATM   36  C1  UNL     1     -15.993  12.382  -2.274  1.00  0.00     0.198 C 
BRANCH  36  37
HETATM   37  O1  UNL     1     -14.673  11.946  -2.183  1.00  0.00    -0.398 OA
ATOM     38  H1  UNL     1     -14.071  12.576  -2.563  1.00  0.00     0.209 HD
ENDBRANCH  36  37
ENDBRANCH   1  36
BRANCH   5  39
HETATM   39  N4  UNL     1     -19.110  11.354  -0.216  1.00  0.00    -0.277 N 
HETATM   40  C20 UNL     1     -18.454  11.617   0.913  1.00  0.00     0.144 A 
HETATM   41  C21 UNL     1     -19.276  12.401   1.734  1.00  0.00     0.076 A 
HETATM   42  N5  UNL     1     -20.411  12.570   1.033  1.00  0.00    -0.284 N 
HETATM   43  N6  UNL     1     -20.280  11.945  -0.100  1.00  0.00    -0.240 N 
ATOM     44  H5  UNL     1     -21.231  13.095   1.337  1.00  0.00     0.188 HD
ATOM     45  H6  UNL     1     -21.004  11.917  -0.818  1.00  0.00     0.208 HD
BRANCH  41  46
HETATM   46  C22 UNL     1     -18.941  12.905   3.058  1.00  0.00    -0.004 A 
HETATM   47  C23 UNL     1     -19.894  13.547   3.805  1.00  0.00     0.014 A 
HETATM   48  C24 UNL     1     -19.621  14.049   5.078  1.00  0.00     0.004 A 
HETATM   49  C25 UNL     1     -18.352  13.884   5.578  1.00  0.00     0.042 A 
HETATM   50  C26 UNL     1     -17.394  13.239   4.826  1.00  0.00     0.117 A 
HETATM   51  F2  UNL     1     -16.149  13.098   5.356  1.00  0.00    -0.206 F 
HETATM   52  C27 UNL     1     -17.677  12.741   3.555  1.00  0.00     0.056 A 
ENDBRANCH  41  46
ENDBRANCH   5  39
BRANCH   6  53
HETATM   53  O8  UNL     1     -18.634  12.717  -2.309  1.00  0.00    -0.391 OA
ATOM     54  H8  UNL     1     -19.484  12.849  -2.712  1.00  0.00     0.210 HD
ENDBRANCH   6  53
TORSDOF 14
ENDMDL
