MODEL 1
REMARK VINA RESULT: -7.395462455      0.000      0.000
REMARK  14 active torsions:
REMARK  status: ('A' for Active; 'I' for Inactive)
REMARK    1  A    between atoms: O1_1  and  C1_3 
REMARK    2  A    between atoms: C1_3  and  C2_4 
REMARK    3  A    between atoms: C3_6  and  S1_7 
REMARK    4  A    between atoms: S1_7  and  C4_8 
REMARK    5  A    between atoms: C5_10  and  C6_11 
REMARK    6  A    between atoms: C6_11  and  O4_12 
REMARK    7  A    between atoms: C7_14  and  O5_15 
REMARK    8  A    between atoms: C8_17  and  N1_18 
REMARK    9  A    between atoms: C10_20  and  C11_21 
REMARK   10  A    between atoms: C17_31  and  O6_32 
REMARK   11  A    between atoms: C18_34  and  O7_35 
REMARK   12  A    between atoms: C19_37  and  N4_38 
REMARK   13  A    between atoms: C21_40  and  C22_41 
REMARK   14  A    between atoms: C28_52  and  O8_53 
ROOT
HETATM    1  C2  UNL     1      23.489 -28.025  40.394  1.00  0.00     0.177 C 
HETATM    2  O2  UNL     1      23.899 -27.310  39.286  1.00  0.00    -0.363 OA
HETATM    3  C3  UNL     1      22.856 -26.955  38.446  1.00  0.00     0.216 C 
HETATM    4  C18 UNL     1      21.922 -28.118  38.187  1.00  0.00     0.184 C 
HETATM    5  C19 UNL     1      21.130 -28.279  39.486  1.00  0.00     0.172 C 
HETATM    6  C28 UNL     1      22.031 -28.048  40.634  1.00  0.00     0.176 C 
ENDROOT
BRANCH   3   7
HETATM    7  S1  UNL     1      23.440 -26.164  36.944  1.00  0.00    -0.100 SA
BRANCH   7   8
HETATM    8  C4  UNL     1      22.605 -24.535  36.846  1.00  0.00     0.216 C 
HETATM    9  O3  UNL     1      21.264 -24.606  37.011  1.00  0.00    -0.363 OA
HETATM   10  C5  UNL     1      20.462 -24.174  35.977  1.00  0.00     0.177 C 
HETATM   11  C7  UNL     1      20.829 -22.851  35.398  1.00  0.00     0.176 C 
HETATM   12  C8  UNL     1      22.283 -22.492  35.594  1.00  0.00     0.169 C 
HETATM   13  C17 UNL     1      23.071 -23.759  35.639  1.00  0.00     0.184 C 
BRANCH  10  14
HETATM   14  C6  UNL     1      20.231 -25.227  34.926  1.00  0.00     0.198 C 
BRANCH  14  15
HETATM   15  O4  UNL     1      19.411 -26.213  35.470  1.00  0.00    -0.398 OA
ATOM     16  H4  UNL     1      18.631 -26.280  34.932  1.00  0.00     0.209 HD
ENDBRANCH  14  15
ENDBRANCH  10  14
BRANCH  11  17
HETATM   17  O5  UNL     1      20.468 -22.809  34.049  1.00  0.00    -0.391 OA
ATOM     18  H5  UNL     1      19.525 -22.896  33.966  1.00  0.00     0.210 HD
ENDBRANCH  11  17
BRANCH  12  19
HETATM   19  N1  UNL     1      22.719 -21.545  34.594  1.00  0.00    -0.275 N 
HETATM   20  C9  UNL     1      22.631 -20.206  34.634  1.00  0.00     0.140 A 
HETATM   21  C10 UNL     1      23.166 -19.662  33.469  1.00  0.00     0.073 A 
HETATM   22  N2  UNL     1      23.566 -20.726  32.753  1.00  0.00    -0.282 N 
HETATM   23  N3  UNL     1      23.295 -21.830  33.432  1.00  0.00    -0.020 NA
ATOM     24  H2  UNL     1      24.008 -20.690  31.835  1.00  0.00     0.184 HD
BRANCH  21  25
HETATM   25  C11 UNL     1      23.255 -18.247  33.135  1.00  0.00    -0.004 A 
HETATM   26  C12 UNL     1      22.479 -17.323  33.795  1.00  0.00     0.014 A 
HETATM   27  C13 UNL     1      22.579 -15.971  33.459  1.00  0.00     0.004 A 
HETATM   28  C14 UNL     1      23.438 -15.539  32.481  1.00  0.00     0.042 A 
HETATM   29  C15 UNL     1      24.219 -16.462  31.814  1.00  0.00     0.117 A 
HETATM   30  F1  UNL     1      25.093 -16.087  30.828  1.00  0.00    -0.206 F 
HETATM   31  C16 UNL     1      24.114 -17.805  32.154  1.00  0.00     0.056 A 
ENDBRANCH  21  25
ENDBRANCH  12  19
BRANCH  13  32
HETATM   32  O6  UNL     1      24.416 -23.398  35.901  1.00  0.00    -0.390 OA
ATOM     33  H6  UNL     1      24.717 -22.931  35.131  1.00  0.00     0.210 HD
ENDBRANCH  13  32
ENDBRANCH   7   8
ENDBRANCH   3   7
BRANCH   4  34
HETATM   34  O7  UNL     1      21.048 -27.688  37.162  1.00  0.00    -0.390 OA
ATOM     35  H7  UNL     1      21.090 -26.739  37.167  1.00  0.00     0.210 HD
ENDBRANCH   4  34
BRANCH   1  36
HETATM   36  C1  UNL     1      24.157 -29.383  40.397  1.00  0.00     0.198 C 
BRANCH  36  37
HETATM   37  O1  UNL     1      24.634 -29.715  41.663  1.00  0.00    -0.398 OA
ATOM     38  H1  UNL     1      25.580 -29.637  41.712  1.00  0.00     0.209 HD
ENDBRANCH  36  37
ENDBRANCH   1  36
BRANCH   5  39
HETATM   39  N4  UNL     1      20.389 -29.499  39.506  1.00  0.00    -0.277 N 
HETATM   40  C20 UNL     1      20.546 -30.566  38.727  1.00  0.00     0.144 A 
HETATM   41  C21 UNL     1      19.599 -31.531  39.097  1.00  0.00     0.076 A 
HETATM   42  N5  UNL     1      18.907 -30.973  40.105  1.00  0.00    -0.284 N 
HETATM   43  N6  UNL     1      19.394 -29.786  40.318  1.00  0.00    -0.240 N 
ATOM     44  H5  UNL     1      18.135 -31.405  40.614  1.00  0.00     0.188 HD
ATOM     45  H6  UNL     1      19.043 -29.150  41.034  1.00  0.00     0.208 HD
BRANCH  41  46
HETATM   46  C22 UNL     1      19.429 -32.846  38.495  1.00  0.00    -0.004 A 
HETATM   47  C23 UNL     1      18.802 -33.842  39.197  1.00  0.00     0.014 A 
HETATM   48  C24 UNL     1      18.616 -35.118  38.663  1.00  0.00     0.004 A 
HETATM   49  C25 UNL     1      19.084 -35.362  37.395  1.00  0.00     0.042 A 
HETATM   50  C26 UNL     1      19.715 -34.361  36.690  1.00  0.00     0.117 A 
HETATM   51  F2  UNL     1      20.165 -34.642  35.438  1.00  0.00    -0.206 F 
HETATM   52  C27 UNL     1      19.896 -33.088  37.232  1.00  0.00     0.056 A 
ENDBRANCH  41  46
ENDBRANCH   5  39
BRANCH   6  53
HETATM   53  O8  UNL     1      21.793 -29.074  41.582  1.00  0.00    -0.391 OA
ATOM     54  H8  UNL     1      20.906 -29.380  41.434  1.00  0.00     0.210 HD
ENDBRANCH   6  53
TORSDOF 14
ENDMDL
