MODEL 2
REMARK VINA RESULT: -7.223848182      1.452      1.588
REMARK  14 active torsions:
REMARK  status: ('A' for Active; 'I' for Inactive)
REMARK    1  A    between atoms: O1_1  and  C1_3 
REMARK    2  A    between atoms: C1_3  and  C2_4 
REMARK    3  A    between atoms: C3_6  and  S1_7 
REMARK    4  A    between atoms: S1_7  and  C4_8 
REMARK    5  A    between atoms: C5_10  and  C6_11 
REMARK    6  A    between atoms: C6_11  and  O4_12 
REMARK    7  A    between atoms: C7_14  and  O5_15 
REMARK    8  A    between atoms: C8_17  and  N1_18 
REMARK    9  A    between atoms: C10_20  and  C11_21 
REMARK   10  A    between atoms: C17_31  and  O6_32 
REMARK   11  A    between atoms: C18_34  and  O7_35 
REMARK   12  A    between atoms: C19_37  and  N4_38 
REMARK   13  A    between atoms: C21_40  and  C22_41 
REMARK   14  A    between atoms: C28_52  and  O8_53 
ROOT
HETATM    1  C2  UNL     1      21.438 -27.237  40.730  1.00  0.00     0.177 C 
HETATM    2  O2  UNL     1      22.245 -26.288  40.135  1.00  0.00    -0.363 OA
HETATM    3  C3  UNL     1      22.280 -26.387  38.753  1.00  0.00     0.216 C 
HETATM    4  C18 UNL     1      22.476 -27.817  38.296  1.00  0.00     0.184 C 
HETATM    5  C19 UNL     1      21.126 -28.494  38.544  1.00  0.00     0.172 C 
HETATM    6  C28 UNL     1      20.560 -27.992  39.813  1.00  0.00     0.176 C 
ENDROOT
BRANCH   3   7
HETATM    7  S1  UNL     1      23.454 -25.242  38.025  1.00  0.00    -0.100 SA
BRANCH   7   8
HETATM    8  C4  UNL     1      22.482 -23.828  37.378  1.00  0.00     0.216 C 
HETATM    9  O3  UNL     1      21.148 -24.055  37.362  1.00  0.00    -0.363 OA
HETATM   10  C5  UNL     1      20.500 -24.013  36.147  1.00  0.00     0.177 C 
HETATM   11  C7  UNL     1      20.821 -22.832  35.296  1.00  0.00     0.176 C 
HETATM   12  C8  UNL     1      22.171 -22.226  35.594  1.00  0.00     0.169 C 
HETATM   13  C17 UNL     1      23.069 -23.312  36.087  1.00  0.00     0.184 C 
BRANCH  10  14
HETATM   14  C6  UNL     1      20.571 -25.314  35.392  1.00  0.00     0.198 C 
BRANCH  14  15
HETATM   15  O4  UNL     1      19.957 -26.298  36.162  1.00  0.00    -0.398 OA
ATOM     16  H4  UNL     1      20.548 -27.038  36.225  1.00  0.00     0.209 HD
ENDBRANCH  14  15
ENDBRANCH  10  14
BRANCH  11  17
HETATM   17  O5  UNL     1      20.701 -23.177  33.946  1.00  0.00    -0.391 OA
ATOM     18  H5  UNL     1      20.444 -22.414  33.441  1.00  0.00     0.210 HD
ENDBRANCH  11  17
BRANCH  12  19
HETATM   19  N1  UNL     1      22.674 -21.499  34.452  1.00  0.00    -0.275 N 
HETATM   20  C9  UNL     1      22.714 -20.169  34.274  1.00  0.00     0.140 A 
HETATM   21  C10 UNL     1      23.274 -19.875  33.033  1.00  0.00     0.073 A 
HETATM   22  N2  UNL     1      23.557 -21.074  32.498  1.00  0.00    -0.282 N 
HETATM   23  N3  UNL     1      23.197 -22.022  33.349  1.00  0.00    -0.020 NA
ATOM     24  H2  UNL     1      23.981 -21.230  31.584  1.00  0.00     0.184 HD
BRANCH  21  25
HETATM   25  C11 UNL     1      23.489 -18.548  32.473  1.00  0.00    -0.004 A 
HETATM   26  C12 UNL     1      22.458 -17.870  31.866  1.00  0.00     0.014 A 
HETATM   27  C13 UNL     1      22.685 -16.598  31.334  1.00  0.00     0.004 A 
HETATM   28  C14 UNL     1      23.920 -16.005  31.403  1.00  0.00     0.042 A 
HETATM   29  C15 UNL     1      24.959 -16.680  32.011  1.00  0.00     0.117 A 
HETATM   30  F1  UNL     1      26.213 -16.136  32.108  1.00  0.00    -0.206 F 
HETATM   31  C16 UNL     1      24.725 -17.945  32.537  1.00  0.00     0.056 A 
ENDBRANCH  21  25
ENDBRANCH  12  19
BRANCH  13  32
HETATM   32  O6  UNL     1      24.301 -22.703  36.434  1.00  0.00    -0.390 OA
ATOM     33  H6  UNL     1      24.090 -22.030  37.069  1.00  0.00     0.210 HD
ENDBRANCH  13  32
ENDBRANCH   7   8
ENDBRANCH   3   7
BRANCH   4  34
HETATM   34  O7  UNL     1      22.710 -27.748  36.904  1.00  0.00    -0.390 OA
ATOM     35  H7  UNL     1      21.967 -27.282  36.539  1.00  0.00     0.210 HD
ENDBRANCH   4  34
BRANCH   1  36
HETATM   36  C1  UNL     1      22.266 -28.090  41.667  1.00  0.00     0.198 C 
BRANCH  36  37
HETATM   37  O1  UNL     1      21.597 -28.329  42.866  1.00  0.00    -0.398 OA
ATOM     38  H1  UNL     1      22.012 -29.023  43.365  1.00  0.00     0.209 HD
ENDBRANCH  36  37
ENDBRANCH   1  36
BRANCH   5  39
HETATM   39  N4  UNL     1      21.214 -29.913  38.414  1.00  0.00    -0.277 N 
HETATM   40  C20 UNL     1      20.608 -30.694  37.522  1.00  0.00     0.144 A 
HETATM   41  C21 UNL     1      20.981 -32.023  37.768  1.00  0.00     0.076 A 
HETATM   42  N5  UNL     1      21.812 -31.964  38.822  1.00  0.00    -0.284 N 
HETATM   43  N6  UNL     1      21.926 -30.717  39.175  1.00  0.00    -0.240 N 
ATOM     44  H5  UNL     1      22.273 -32.757  39.268  1.00  0.00     0.188 HD
ATOM     45  H6  UNL     1      22.502 -30.399  39.954  1.00  0.00     0.208 HD
BRANCH  41  46
HETATM   46  C22 UNL     1      20.540 -33.192  37.020  1.00  0.00    -0.004 A 
HETATM   47  C23 UNL     1      19.852 -34.190  37.660  1.00  0.00     0.014 A 
HETATM   48  C24 UNL     1      19.409 -35.331  36.987  1.00  0.00     0.004 A 
HETATM   49  C25 UNL     1      19.683 -35.436  35.645  1.00  0.00     0.042 A 
HETATM   50  C26 UNL     1      20.376 -34.432  35.004  1.00  0.00     0.117 A 
HETATM   51  F2  UNL     1      20.629 -34.574  33.675  1.00  0.00    -0.206 F 
HETATM   52  C27 UNL     1      20.814 -33.296  35.684  1.00  0.00     0.056 A 
ENDBRANCH  41  46
ENDBRANCH   5  39
BRANCH   6  53
HETATM   53  O8  UNL     1      20.078 -29.109  40.542  1.00  0.00    -0.391 OA
ATOM     54  H8  UNL     1      20.386 -29.884  40.086  1.00  0.00     0.210 HD
ENDBRANCH   6  53
TORSDOF 14
ENDMDL
