MODEL 3
REMARK VINA RESULT: -7.174263683      1.704     12.517
REMARK  14 active torsions:
REMARK  status: ('A' for Active; 'I' for Inactive)
REMARK    1  A    between atoms: O1_1  and  C1_3 
REMARK    2  A    between atoms: C1_3  and  C2_4 
REMARK    3  A    between atoms: C3_6  and  S1_7 
REMARK    4  A    between atoms: S1_7  and  C4_8 
REMARK    5  A    between atoms: C5_10  and  C6_11 
REMARK    6  A    between atoms: C6_11  and  O4_12 
REMARK    7  A    between atoms: C7_14  and  O5_15 
REMARK    8  A    between atoms: C8_17  and  N1_18 
REMARK    9  A    between atoms: C10_20  and  C11_21 
REMARK   10  A    between atoms: C17_31  and  O6_32 
REMARK   11  A    between atoms: C18_34  and  O7_35 
REMARK   12  A    between atoms: C19_37  and  N4_38 
REMARK   13  A    between atoms: C21_40  and  C22_41 
REMARK   14  A    between atoms: C28_52  and  O8_53 
ROOT
HETATM    1  C2  UNL     1      20.386 -23.417  36.230  1.00  0.00     0.177 C 
HETATM    2  O2  UNL     1      21.139 -24.189  37.092  1.00  0.00    -0.363 OA
HETATM    3  C3  UNL     1      22.285 -23.551  37.539  1.00  0.00     0.216 C 
HETATM    4  C18 UNL     1      23.036 -22.883  36.407  1.00  0.00     0.184 C 
HETATM    5  C19 UNL     1      22.201 -21.647  36.062  1.00  0.00     0.172 C 
HETATM    6  C28 UNL     1      20.767 -21.992  36.152  1.00  0.00     0.176 C 
ENDROOT
BRANCH   3   7
HETATM    7  S1  UNL     1      23.316 -24.634  38.532  1.00  0.00    -0.100 SA
BRANCH   7   8
HETATM    8  C4  UNL     1      22.312 -26.123  38.905  1.00  0.00     0.216 C 
HETATM    9  O3  UNL     1      22.185 -26.367  40.230  1.00  0.00    -0.363 OA
HETATM   10  C5  UNL     1      22.669 -27.563  40.716  1.00  0.00     0.177 C 
HETATM   11  C7  UNL     1      22.272 -28.772  39.939  1.00  0.00     0.176 C 
HETATM   12  C8  UNL     1      21.942 -28.477  38.495  1.00  0.00     0.169 C 
HETATM   13  C17 UNL     1      22.751 -27.297  38.066  1.00  0.00     0.184 C 
BRANCH  10  14
HETATM   14  C6  UNL     1      24.143 -27.525  41.023  1.00  0.00     0.198 C 
BRANCH  14  15
HETATM   15  O4  UNL     1      24.347 -28.143  42.254  1.00  0.00    -0.398 OA
ATOM     16  H4  UNL     1      23.762 -27.745  42.887  1.00  0.00     0.209 HD
ENDBRANCH  14  15
ENDBRANCH  10  14
BRANCH  11  17
HETATM   17  O5  UNL     1      23.264 -29.750  40.049  1.00  0.00    -0.391 OA
ATOM     18  H5  UNL     1      24.121 -29.339  40.059  1.00  0.00     0.210 HD
ENDBRANCH  11  17
BRANCH  12  19
HETATM   19  N1  UNL     1      22.112 -29.654  37.677  1.00  0.00    -0.275 N 
HETATM   20  C9  UNL     1      21.242 -30.661  37.491  1.00  0.00     0.140 A 
HETATM   21  C10 UNL     1      21.790 -31.606  36.627  1.00  0.00     0.073 A 
HETATM   22  N2  UNL     1      23.003 -31.117  36.318  1.00  0.00    -0.282 N 
HETATM   23  N3  UNL     1      23.176 -29.964  36.946  1.00  0.00    -0.020 NA
ATOM     24  H2  UNL     1      23.681 -31.561  35.700  1.00  0.00     0.184 HD
BRANCH  21  25
HETATM   25  C11 UNL     1      21.159 -32.840  36.181  1.00  0.00    -0.004 A 
HETATM   26  C12 UNL     1      21.476 -33.384  34.958  1.00  0.00     0.014 A 
HETATM   27  C13 UNL     1      20.859 -34.568  34.548  1.00  0.00     0.004 A 
HETATM   28  C14 UNL     1      19.938 -35.206  35.340  1.00  0.00     0.042 A 
HETATM   29  C15 UNL     1      19.616 -34.664  36.568  1.00  0.00     0.117 A 
HETATM   30  F1  UNL     1      18.703 -35.258  37.400  1.00  0.00    -0.206 F 
HETATM   31  C16 UNL     1      20.234 -33.486  36.968  1.00  0.00     0.056 A 
ENDBRANCH  21  25
ENDBRANCH  12  19
BRANCH  13  32
HETATM   32  O6  UNL     1      22.366 -26.994  36.737  1.00  0.00    -0.390 OA
ATOM     33  H6  UNL     1      21.701 -27.632  36.506  1.00  0.00     0.210 HD
ENDBRANCH  13  32
ENDBRANCH   7   8
ENDBRANCH   3   7
BRANCH   4  34
HETATM   34  O7  UNL     1      24.271 -22.468  36.955  1.00  0.00    -0.390 OA
ATOM     35  H7  UNL     1      24.922 -23.067  36.608  1.00  0.00     0.210 HD
ENDBRANCH   4  34
BRANCH   1  36
HETATM   36  C1  UNL     1      20.267 -24.119  34.894  1.00  0.00     0.198 C 
BRANCH  36  37
HETATM   37  O1  UNL     1      20.795 -25.407  34.945  1.00  0.00    -0.398 OA
ATOM     38  H1  UNL     1      20.113 -26.066  34.889  1.00  0.00     0.209 HD
ENDBRANCH  36  37
ENDBRANCH   1  36
BRANCH   5  39
HETATM   39  N4  UNL     1      22.626 -21.046  34.838  1.00  0.00    -0.277 N 
HETATM   40  C20 UNL     1      22.994 -19.784  34.630  1.00  0.00     0.144 A 
HETATM   41  C21 UNL     1      23.330 -19.636  33.277  1.00  0.00     0.076 A 
HETATM   42  N5  UNL     1      23.139 -20.851  32.734  1.00  0.00    -0.284 N 
HETATM   43  N6  UNL     1      22.727 -21.650  33.674  1.00  0.00    -0.240 N 
ATOM     44  H5  UNL     1      23.290 -21.102  31.757  1.00  0.00     0.188 HD
ATOM     45  H6  UNL     1      22.508 -22.635  33.525  1.00  0.00     0.208 HD
BRANCH  41  46
HETATM   46  C22 UNL     1      23.784 -18.412  32.632  1.00  0.00    -0.004 A 
HETATM   47  C23 UNL     1      22.873 -17.569  32.051  1.00  0.00     0.014 A 
HETATM   48  C24 UNL     1      23.259 -16.386  31.420  1.00  0.00     0.004 A 
HETATM   49  C25 UNL     1      24.596 -16.076  31.391  1.00  0.00     0.042 A 
HETATM   50  C26 UNL     1      25.512 -16.924  31.974  1.00  0.00     0.117 A 
HETATM   51  F2  UNL     1      26.827 -16.583  31.924  1.00  0.00    -0.206 F 
HETATM   52  C27 UNL     1      25.117 -18.104  32.603  1.00  0.00     0.056 A 
ENDBRANCH  41  46
ENDBRANCH   5  39
BRANCH   6  53
HETATM   53  O8  UNL     1      20.123 -21.463  35.005  1.00  0.00    -0.391 OA
ATOM     54  H8  UNL     1      19.728 -20.641  35.270  1.00  0.00     0.210 HD
ENDBRANCH   6  53
TORSDOF 14
ENDMDL
