MODEL 3
REMARK VINA RESULT: -6.369429977      5.000     10.315
REMARK  13 active torsions:
REMARK  status: ('A' for Active; 'I' for Inactive)
REMARK    1  A    between atoms: O1_1  and  C1_3 
REMARK    2  A    between atoms: C1_3  and  C2_4 
REMARK    3  A    between atoms: C3_6  and  S1_7 
REMARK    4  A    between atoms: S1_7  and  C4_8 
REMARK    5  A    between atoms: C5_10  and  C6_11 
REMARK    6  A    between atoms: C6_11  and  O4_12 
REMARK    7  A    between atoms: C7_14  and  O5_15 
REMARK    8  A    between atoms: C8_17  and  N1_18 
REMARK    9  A    between atoms: C10_20  and  C11_21 
REMARK   10  A    between atoms: C17_32  and  O6_33 
REMARK   11  A    between atoms: C18_35  and  O7_36 
REMARK   12  A    between atoms: C19_38  and  O8_39 
REMARK   13  A    between atoms: C20_41  and  O9_42 
ROOT
HETATM    1  C4  UNL     1       7.247  -8.716  -0.062  1.00  0.00     0.216 C 
HETATM    2  O3  UNL     1       7.477  -9.254   1.199  1.00  0.00    -0.363 OA
HETATM    3  C5  UNL     1       6.782  -8.580   2.194  1.00  0.00     0.177 C 
HETATM    4  C7  UNL     1       5.292  -8.830   1.935  1.00  0.00     0.176 C 
HETATM    5  C8  UNL     1       4.981  -8.129   0.627  1.00  0.00     0.172 C 
HETATM    6  C17 UNL     1       5.787  -8.813  -0.455  1.00  0.00     0.184 C 
ENDROOT
BRANCH   1   7
HETATM    7  S1  UNL     1       8.197  -9.719  -1.259  1.00  0.00    -0.100 SA
BRANCH   7   8
HETATM    8  C3  UNL     1       9.725 -10.330  -0.509  1.00  0.00     0.217 C 
HETATM    9  O2  UNL     1      10.812 -10.197  -1.383  1.00  0.00    -0.363 OA
HETATM   10  C2  UNL     1      11.983 -10.186  -0.628  1.00  0.00     0.178 C 
HETATM   11  C20 UNL     1      12.109 -11.421   0.231  1.00  0.00     0.180 C 
HETATM   12  C19 UNL     1      10.979 -12.384   0.029  1.00  0.00     0.181 C 
HETATM   13  C18 UNL     1       9.630 -11.770  -0.111  1.00  0.00     0.188 C 
BRANCH  10  14
HETATM   14  C1  UNL     1      13.209 -10.048  -1.478  1.00  0.00     0.198 C 
BRANCH  14  15
HETATM   15  O1  UNL     1      13.076 -10.676  -2.708  1.00  0.00    -0.398 OA
ATOM     16  H1  UNL     1      13.447 -11.551  -2.713  1.00  0.00     0.209 HD
ENDBRANCH  14  15
ENDBRANCH  10  14
BRANCH  11  17
HETATM   17  O9  UNL     1      13.290 -12.108  -0.096  1.00  0.00    -0.390 OA
ATOM     18  H9  UNL     1      13.430 -12.816   0.521  1.00  0.00     0.210 HD
ENDBRANCH  11  17
BRANCH  12  19
HETATM   19  O8  UNL     1      11.299 -13.184  -1.087  1.00  0.00    -0.390 OA
ATOM     20  H8  UNL     1      12.113 -12.907  -1.492  1.00  0.00     0.210 HD
ENDBRANCH  12  19
BRANCH  13  21
HETATM   21  O7  UNL     1       8.926 -11.820   1.111  1.00  0.00    -0.389 OA
ATOM     22  H7  UNL     1       9.565 -11.724   1.807  1.00  0.00     0.210 HD
ENDBRANCH  13  21
ENDBRANCH   7   8
ENDBRANCH   1   7
BRANCH   6  23
HETATM   23  O6  UNL     1       5.618  -8.091  -1.632  1.00  0.00    -0.390 OA
ATOM     24  H6  UNL     1       5.085  -7.331  -1.430  1.00  0.00     0.210 HD
ENDBRANCH   6  23
BRANCH   3  25
HETATM   25  C6  UNL     1       7.104  -9.223   3.522  1.00  0.00     0.198 C 
BRANCH  25  26
HETATM   26  O4  UNL     1       7.601 -10.512   3.358  1.00  0.00    -0.398 OA
ATOM     27  H4  UNL     1       6.991 -11.063   2.880  1.00  0.00     0.209 HD
ENDBRANCH  25  26
ENDBRANCH   3  25
BRANCH   5  28
HETATM   28  N1  UNL     1       3.559  -8.156   0.326  1.00  0.00    -0.277 N 
HETATM   29  C9  UNL     1       2.564  -7.731   1.119  1.00  0.00     0.144 A 
HETATM   30  C10 UNL     1       1.353  -7.926   0.472  1.00  0.00     0.076 A 
HETATM   31  N2  UNL     1       1.695  -8.482  -0.729  1.00  0.00    -0.284 N 
HETATM   32  N3  UNL     1       3.006  -8.599  -0.772  1.00  0.00    -0.240 N 
ATOM     33  H2  UNL     1       1.047  -8.759  -1.466  1.00  0.00     0.188 HD
ATOM     34  H3  UNL     1       3.523  -8.987  -1.561  1.00  0.00     0.208 HD
BRANCH  30  35
HETATM   35  C11 UNL     1       0.018  -7.619   0.938  1.00  0.00    -0.004 A 
HETATM   36  C12 UNL     1      -0.696  -8.518   1.684  1.00  0.00     0.014 A 
HETATM   37  C13 UNL     1      -1.989  -8.211   2.129  1.00  0.00     0.004 A 
HETATM   38  C14 UNL     1      -2.551  -7.002   1.820  1.00  0.00     0.042 A 
HETATM   39  C15 UNL     1      -1.839  -6.086   1.065  1.00  0.00     0.117 A 
HETATM   40  F1  UNL     1      -2.411  -4.904   0.773  1.00  0.00    -0.206 F 
HETATM   41  C16 UNL     1      -0.551  -6.411   0.631  1.00  0.00     0.056 A 
ENDBRANCH  30  35
ENDBRANCH   5  28
BRANCH   4  42
HETATM   42  O5  UNL     1       5.170 -10.210   1.786  1.00  0.00    -0.391 OA
ATOM     43  H5  UNL     1       4.325 -10.345   1.372  1.00  0.00     0.210 HD
ENDBRANCH   4  42
TORSDOF 13
ENDMDL
