MODEL 2
REMARK VINA RESULT: -6.372677377      4.638      8.969
REMARK  13 active torsions:
REMARK  status: ('A' for Active; 'I' for Inactive)
REMARK    1  A    between atoms: O1_1  and  C1_3 
REMARK    2  A    between atoms: C1_3  and  C2_4 
REMARK    3  A    between atoms: C3_6  and  S1_7 
REMARK    4  A    between atoms: S1_7  and  C4_8 
REMARK    5  A    between atoms: C5_10  and  C6_11 
REMARK    6  A    between atoms: C6_11  and  O4_12 
REMARK    7  A    between atoms: C7_14  and  O5_15 
REMARK    8  A    between atoms: C8_17  and  N1_18 
REMARK    9  A    between atoms: C10_20  and  C11_21 
REMARK   10  A    between atoms: C17_32  and  O6_33 
REMARK   11  A    between atoms: C18_35  and  O7_36 
REMARK   12  A    between atoms: C19_38  and  O8_39 
REMARK   13  A    between atoms: C20_41  and  O9_42 
ROOT
HETATM    1  C4  UNL     1       7.151  -7.218   1.539  1.00  0.00     0.216 C 
HETATM    2  O3  UNL     1       7.847  -7.951   0.584  1.00  0.00    -0.363 OA
HETATM    3  C5  UNL     1       7.320  -9.224   0.410  1.00  0.00     0.177 C 
HETATM    4  C7  UNL     1       5.921  -9.041  -0.189  1.00  0.00     0.176 C 
HETATM    5  C8  UNL     1       5.098  -8.366   0.892  1.00  0.00     0.172 C 
HETATM    6  C17 UNL     1       5.707  -7.004   1.138  1.00  0.00     0.184 C 
ENDROOT
BRANCH   1   7
HETATM    7  S1  UNL     1       7.938  -5.571   1.633  1.00  0.00    -0.100 SA
BRANCH   7   8
HETATM    8  C3  UNL     1       7.843  -4.913   3.314  1.00  0.00     0.217 C 
HETATM    9  O2  UNL     1       7.062  -5.731   4.141  1.00  0.00    -0.363 OA
HETATM   10  C2  UNL     1       7.425  -5.493   5.465  1.00  0.00     0.178 C 
HETATM   11  C20 UNL     1       7.282  -4.036   5.832  1.00  0.00     0.180 C 
HETATM   12  C19 UNL     1       6.736  -3.207   4.710  1.00  0.00     0.181 C 
HETATM   13  C18 UNL     1       7.262  -3.534   3.357  1.00  0.00     0.188 C 
BRANCH  10  14
HETATM   14  C1  UNL     1       6.639  -6.326   6.431  1.00  0.00     0.198 C 
BRANCH  14  15
HETATM   15  O1  UNL     1       5.272  -6.259   6.201  1.00  0.00    -0.398 OA
ATOM     16  H1  UNL     1       4.790  -5.953   6.960  1.00  0.00     0.209 HD
ENDBRANCH  14  15
ENDBRANCH  10  14
BRANCH  11  17
HETATM   17  O9  UNL     1       6.387  -3.904   6.906  1.00  0.00    -0.390 OA
ATOM     18  H9  UNL     1       6.634  -3.157   7.439  1.00  0.00     0.210 HD
ENDBRANCH  11  17
BRANCH  12  19
HETATM   19  O8  UNL     1       5.330  -3.308   4.754  1.00  0.00    -0.390 OA
ATOM     20  H8  UNL     1       4.973  -2.854   5.508  1.00  0.00     0.210 HD
ENDBRANCH  12  19
BRANCH  13  21
HETATM   21  O7  UNL     1       8.289  -2.638   2.987  1.00  0.00    -0.389 OA
ATOM     22  H7  UNL     1       8.902  -2.600   3.712  1.00  0.00     0.210 HD
ENDBRANCH  13  21
ENDBRANCH   7   8
ENDBRANCH   1   7
BRANCH   6  23
HETATM   23  O6  UNL     1       5.048  -6.434   2.223  1.00  0.00    -0.390 OA
ATOM     24  H6  UNL     1       4.179  -6.815   2.265  1.00  0.00     0.210 HD
ENDBRANCH   6  23
BRANCH   3  25
HETATM   25  C6  UNL     1       8.144  -9.945  -0.629  1.00  0.00     0.198 C 
BRANCH  25  26
HETATM   26  O4  UNL     1       8.637  -9.067  -1.590  1.00  0.00    -0.398 OA
ATOM     27  H4  UNL     1       9.514  -8.770  -1.374  1.00  0.00     0.209 HD
ENDBRANCH  25  26
ENDBRANCH   3  25
BRANCH   5  28
HETATM   28  N1  UNL     1       3.697  -8.261   0.516  1.00  0.00    -0.277 N 
HETATM   29  C9  UNL     1       2.673  -7.947   1.324  1.00  0.00     0.144 A 
HETATM   30  C10 UNL     1       1.498  -7.951   0.588  1.00  0.00     0.076 A 
HETATM   31  N2  UNL     1       1.891  -8.282  -0.679  1.00  0.00    -0.284 N 
HETATM   32  N3  UNL     1       3.196  -8.456  -0.675  1.00  0.00    -0.240 N 
ATOM     33  H2  UNL     1       1.279  -8.377  -1.489  1.00  0.00     0.188 HD
ATOM     34  H3  UNL     1       3.746  -8.710  -1.495  1.00  0.00     0.208 HD
BRANCH  30  35
HETATM   35  C11 UNL     1       0.150  -7.671   1.033  1.00  0.00    -0.004 A 
HETATM   36  C12 UNL     1      -0.545  -8.570   1.796  1.00  0.00     0.014 A 
HETATM   37  C13 UNL     1      -1.850  -8.290   2.222  1.00  0.00     0.004 A 
HETATM   38  C14 UNL     1      -2.445  -7.107   1.875  1.00  0.00     0.042 A 
HETATM   39  C15 UNL     1      -1.753  -6.191   1.102  1.00  0.00     0.117 A 
HETATM   40  F1  UNL     1      -2.356  -5.035   0.772  1.00  0.00    -0.206 F 
HETATM   41  C16 UNL     1      -0.451  -6.490   0.688  1.00  0.00     0.056 A 
ENDBRANCH  30  35
ENDBRANCH   5  28
BRANCH   4  42
HETATM   42  O5  UNL     1       6.092  -8.183  -1.273  1.00  0.00    -0.391 OA
ATOM     43  H5  UNL     1       6.671  -8.643  -1.870  1.00  0.00     0.210 HD
ENDBRANCH   4  42
TORSDOF 13
ENDMDL
