MODEL 1
REMARK VINA RESULT: -6.431532510      0.000      0.000
REMARK  13 active torsions:
REMARK  status: ('A' for Active; 'I' for Inactive)
REMARK    1  A    between atoms: O1_1  and  C1_3 
REMARK    2  A    between atoms: C1_3  and  C2_4 
REMARK    3  A    between atoms: C3_6  and  S1_7 
REMARK    4  A    between atoms: S1_7  and  C4_8 
REMARK    5  A    between atoms: C5_10  and  C6_11 
REMARK    6  A    between atoms: C6_11  and  O4_12 
REMARK    7  A    between atoms: C7_14  and  O5_15 
REMARK    8  A    between atoms: C8_17  and  N1_18 
REMARK    9  A    between atoms: C10_20  and  C11_21 
REMARK   10  A    between atoms: C17_32  and  O6_33 
REMARK   11  A    between atoms: C18_35  and  O7_36 
REMARK   12  A    between atoms: C19_38  and  O8_39 
REMARK   13  A    between atoms: C20_41  and  O9_42 
ROOT
HETATM    1  C4  UNL     1       2.771  -9.502   1.461  1.00  0.00     0.216 C 
HETATM    2  O3  UNL     1       2.271  -9.122   2.701  1.00  0.00    -0.363 OA
HETATM    3  C5  UNL     1       3.259  -9.086   3.677  1.00  0.00     0.177 C 
HETATM    4  C7  UNL     1       4.221  -7.959   3.287  1.00  0.00     0.176 C 
HETATM    5  C8  UNL     1       4.887  -8.415   2.003  1.00  0.00     0.172 C 
HETATM    6  C17 UNL     1       3.807  -8.524   0.949  1.00  0.00     0.184 C 
ENDROOT
BRANCH   1   7
HETATM    7  S1  UNL     1       1.372  -9.474   0.284  1.00  0.00    -0.100 SA
BRANCH   7   8
HETATM    8  C3  UNL     1      -0.144  -8.935   1.108  1.00  0.00     0.217 C 
HETATM    9  O2  UNL     1      -1.282  -9.457   0.479  1.00  0.00    -0.363 OA
HETATM   10  C2  UNL     1      -2.331  -9.454   1.396  1.00  0.00     0.178 C 
HETATM   11  C20 UNL     1      -2.588  -8.073   1.950  1.00  0.00     0.180 C 
HETATM   12  C19 UNL     1      -1.696  -7.033   1.346  1.00  0.00     0.181 C 
HETATM   13  C18 UNL     1      -0.281  -7.444   1.137  1.00  0.00     0.188 C 
BRANCH  10  14
HETATM   14  C1  UNL     1      -3.600  -9.996   0.812  1.00  0.00     0.198 C 
BRANCH  14  15
HETATM   15  O1  UNL     1      -3.915  -9.416  -0.409  1.00  0.00    -0.398 OA
ATOM     16  H1  UNL     1      -4.782  -9.027  -0.414  1.00  0.00     0.209 HD
ENDBRANCH  14  15
ENDBRANCH  10  14
BRANCH  11  17
HETATM   17  O9  UNL     1      -3.909  -7.687   1.667  1.00  0.00    -0.390 OA
ATOM     18  H9  UNL     1      -4.090  -7.815   0.744  1.00  0.00     0.210 HD
ENDBRANCH  11  17
BRANCH  12  19
HETATM   19  O8  UNL     1      -2.293  -6.609   0.141  1.00  0.00    -0.390 OA
ATOM     20  H8  UNL     1      -2.718  -5.765   0.243  1.00  0.00     0.210 HD
ENDBRANCH  12  19
BRANCH  13  21
HETATM   21  O7  UNL     1       0.541  -6.970   2.182  1.00  0.00    -0.389 OA
ATOM     22  H7  UNL     1       0.377  -6.039   2.267  1.00  0.00     0.210 HD
ENDBRANCH  13  21
ENDBRANCH   7   8
ENDBRANCH   1   7
BRANCH   6  23
HETATM   23  O6  UNL     1       4.381  -9.075  -0.192  1.00  0.00    -0.390 OA
ATOM     24  H6  UNL     1       4.985  -9.753   0.088  1.00  0.00     0.210 HD
ENDBRANCH   6  23
BRANCH   3  25
HETATM   25  C6  UNL     1       2.624  -8.679   4.985  1.00  0.00     0.198 C 
BRANCH  25  26
HETATM   26  O4  UNL     1       1.451  -7.958   4.781  1.00  0.00    -0.398 OA
ATOM     27  H4  UNL     1       1.339  -7.280   5.436  1.00  0.00     0.209 HD
ENDBRANCH  25  26
ENDBRANCH   3  25
BRANCH   5  28
HETATM   28  N1  UNL     1       5.942  -7.504   1.590  1.00  0.00    -0.277 N 
HETATM   29  C9  UNL     1       7.102  -7.282   2.226  1.00  0.00     0.144 A 
HETATM   30  C10 UNL     1       7.837  -6.346   1.514  1.00  0.00     0.076 A 
HETATM   31  N2  UNL     1       7.048  -6.040   0.440  1.00  0.00    -0.284 N 
HETATM   32  N3  UNL     1       5.941  -6.746   0.526  1.00  0.00    -0.240 N 
ATOM     33  H2  UNL     1       7.278  -5.378  -0.301  1.00  0.00     0.188 HD
ATOM     34  H3  UNL     1       5.179  -6.707  -0.152  1.00  0.00     0.208 HD
BRANCH  30  35
HETATM   35  C11 UNL     1       9.143  -5.801   1.815  1.00  0.00    -0.004 A 
HETATM   36  C12 UNL     1      10.180  -6.612   2.189  1.00  0.00     0.014 A 
HETATM   37  C13 UNL     1      11.441  -6.075   2.479  1.00  0.00     0.004 A 
HETATM   38  C14 UNL     1      11.647  -4.725   2.389  1.00  0.00     0.042 A 
HETATM   39  C15 UNL     1      10.606  -3.894   2.012  1.00  0.00     0.117 A 
HETATM   40  F1  UNL     1      10.831  -2.570   1.930  1.00  0.00    -0.206 F 
HETATM   41  C16 UNL     1       9.356  -4.450   1.727  1.00  0.00     0.056 A 
ENDBRANCH  30  35
ENDBRANCH   5  28
BRANCH   4  42
HETATM   42  O5  UNL     1       3.413  -6.850   3.046  1.00  0.00    -0.391 OA
ATOM     43  H5  UNL     1       4.012  -6.121   2.934  1.00  0.00     0.210 HD
ENDBRANCH   4  42
TORSDOF 13
ENDMDL
