MODEL 14
REMARK VINA RESULT: -7.379834970      2.800      8.486
REMARK  6 active torsions:
REMARK  status: ('A' for Active; 'I' for Inactive)
REMARK    1  A    between atoms: C3_3  and  C4_4 
REMARK    2  A    between atoms: C5_5  and  C6_6 
REMARK    3  A    between atoms: C8_8  and  C9_9 
REMARK    4  A    between atoms: C10_10  and  C11_11 
REMARK    5  A    between atoms: C11_11  and  C13_13 
REMARK    6  A    between atoms: C13_13  and  C14_14 
ROOT
HETATM    1  C4  UNL     1       1.316   0.137  10.596  1.00  0.00     0.009 C 
HETATM    2  C5  UNL     1       2.577  -0.122  10.440  1.00  0.00     0.008 C 
ENDROOT
BRANCH   2   3
HETATM    3  C6  UNL     1       3.369  -0.419  11.658  1.00  0.00    -0.054 C 
HETATM    4  C7  UNL     1       4.540   0.426  11.966  1.00  0.00     0.049 C 
HETATM    5  C8  UNL     1       3.126  -1.502  12.416  1.00  0.00     0.071 C 
BRANCH   5   6
HETATM    6  C9  UNL     1       3.861  -1.745  13.583  1.00  0.00    -0.073 C 
HETATM    7  C10 UNL     1       4.480  -1.952  14.561  1.00  0.00    -0.067 C 
BRANCH   7   8
HETATM    8  C11 UNL     1       5.214  -2.188  15.748  1.00  0.00    -0.007 C 
HETATM    9  C12 UNL     1       6.312  -1.301  16.165  1.00  0.00     0.058 C 
BRANCH   8  10
HETATM   10  C13 UNL     1       5.027  -3.347  16.360  1.00  0.00     0.030 C 
BRANCH  10  11
HETATM   11  C14 UNL     1       4.528  -4.621  15.920  1.00  0.00     0.101 C 
HETATM   12  N1  UNL     1       3.159  -4.936  15.872  1.00  0.00    -0.115 NA
ENDBRANCH  10  11
ENDBRANCH   8  10
ENDBRANCH   7   8
ENDBRANCH   5   6
ENDBRANCH   2   3
BRANCH   1  13
HETATM   13  C3  UNL     1       0.383   0.437   9.488  1.00  0.00    -0.048 C 
HETATM   14  C2  UNL     1      -0.120  -0.557   8.790  1.00  0.00    -0.077 C 
HETATM   15  C1  UNL     1       0.315  -1.926   9.227  1.00  0.00     0.044 C 
HETATM   16  C20 UNL     1      -1.011  -0.429   7.611  1.00  0.00     0.034 C 
HETATM   17  C19 UNL     1      -0.664   0.914   6.953  1.00  0.00     0.005 C 
HETATM   18  C18 UNL     1      -0.857   1.959   8.001  1.00  0.00     0.014 C 
HETATM   19  C15 UNL     1       0.049   1.862   9.198  1.00  0.00    -0.020 C 
HETATM   20  C16 UNL     1      -0.654   2.559  10.336  1.00  0.00     0.020 C 
HETATM   21  C17 UNL     1       1.310   2.629   8.836  1.00  0.00     0.020 C 
ENDBRANCH   1  13
TORSDOF 6
ENDMDL
