MODEL 5
REMARK VINA RESULT: -8.365491670      2.593      3.088
REMARK  6 active torsions:
REMARK  status: ('A' for Active; 'I' for Inactive)
REMARK    1  A    between atoms: C3_3  and  C4_4 
REMARK    2  A    between atoms: C5_5  and  C6_6 
REMARK    3  A    between atoms: C8_8  and  C9_9 
REMARK    4  A    between atoms: C10_10  and  C11_11 
REMARK    5  A    between atoms: C11_11  and  C13_13 
REMARK    6  A    between atoms: C13_13  and  C14_14 
ROOT
HETATM    1  C4  UNL     1       2.848  -2.583  12.252  1.00  0.00     0.009 C 
HETATM    2  C5  UNL     1       1.614  -2.296  11.981  1.00  0.00     0.008 C 
ENDROOT
BRANCH   2   3
HETATM    3  C6  UNL     1       1.346  -1.536  10.736  1.00  0.00    -0.054 C 
HETATM    4  C7  UNL     1       2.328  -0.525  10.297  1.00  0.00     0.049 C 
HETATM    5  C8  UNL     1       0.185  -1.654  10.068  1.00  0.00     0.071 C 
BRANCH   5   6
HETATM    6  C9  UNL     1      -0.034  -0.955   8.874  1.00  0.00    -0.073 C 
HETATM    7  C10 UNL     1      -0.219  -0.371   7.871  1.00  0.00    -0.067 C 
BRANCH   7   8
HETATM    8  C11 UNL     1      -0.434   0.349   6.671  1.00  0.00    -0.007 C 
HETATM    9  C12 UNL     1       0.572   1.283   6.140  1.00  0.00     0.058 C 
BRANCH   8  10
HETATM   10  C13 UNL     1      -1.653   0.321   6.154  1.00  0.00     0.030 C 
BRANCH  10  11
HETATM   11  C14 UNL     1      -2.220  -0.341   5.011  1.00  0.00     0.101 C 
HETATM   12  N1  UNL     1      -1.631  -1.462   4.400  1.00  0.00    -0.115 NA
ENDBRANCH  10  11
ENDBRANCH   8  10
ENDBRANCH   7   8
ENDBRANCH   5   6
ENDBRANCH   2   3
BRANCH   1  13
HETATM   13  C3  UNL     1       3.286  -3.346  13.441  1.00  0.00    -0.048 C 
HETATM   14  C2  UNL     1       4.067  -2.763  14.322  1.00  0.00    -0.077 C 
HETATM   15  C1  UNL     1       4.421  -1.336  14.014  1.00  0.00     0.044 C 
HETATM   16  C20 UNL     1       4.649  -3.402  15.527  1.00  0.00     0.034 C 
HETATM   17  C19 UNL     1       4.792  -4.894  15.196  1.00  0.00     0.005 C 
HETATM   18  C18 UNL     1       3.430  -5.377  14.825  1.00  0.00     0.014 C 
HETATM   19  C15 UNL     1       2.827  -4.757  13.595  1.00  0.00    -0.020 C 
HETATM   20  C16 UNL     1       1.330  -4.893  13.726  1.00  0.00     0.020 C 
HETATM   21  C17 UNL     1       3.310  -5.593  12.421  1.00  0.00     0.020 C 
ENDBRANCH   1  13
TORSDOF 6
ENDMDL
