MODEL 2
REMARK VINA RESULT: -8.725979901      2.024      2.383
REMARK  6 active torsions:
REMARK  status: ('A' for Active; 'I' for Inactive)
REMARK    1  A    between atoms: C3_3  and  C4_4 
REMARK    2  A    between atoms: C5_5  and  C6_6 
REMARK    3  A    between atoms: C8_8  and  C9_9 
REMARK    4  A    between atoms: C10_10  and  C11_11 
REMARK    5  A    between atoms: C11_11  and  C13_13 
REMARK    6  A    between atoms: C13_13  and  C14_14 
ROOT
HETATM    1  C4  UNL     1       2.778  -2.325  13.588  1.00  0.00     0.009 C 
HETATM    2  C5  UNL     1       3.207  -2.400  12.367  1.00  0.00     0.008 C 
ENDROOT
BRANCH   2   3
HETATM    3  C6  UNL     1       2.579  -1.503  11.366  1.00  0.00    -0.054 C 
HETATM    4  C7  UNL     1       3.284  -0.264  10.982  1.00  0.00     0.049 C 
HETATM    5  C8  UNL     1       1.339  -1.724  10.896  1.00  0.00     0.071 C 
BRANCH   5   6
HETATM    6  C9  UNL     1       0.777  -0.886   9.924  1.00  0.00    -0.073 C 
HETATM    7  C10 UNL     1       0.304  -0.185   9.107  1.00  0.00    -0.067 C 
BRANCH   7   8
HETATM    8  C11 UNL     1      -0.255   0.674   8.130  1.00  0.00    -0.007 C 
HETATM    9  C12 UNL     1      -1.137   1.792   8.500  1.00  0.00     0.058 C 
BRANCH   8  10
HETATM   10  C13 UNL     1      -0.137   0.313   6.861  1.00  0.00     0.030 C 
BRANCH  10  11
HETATM   11  C14 UNL     1      -1.030   0.370   5.737  1.00  0.00     0.101 C 
HETATM   12  N1  UNL     1      -1.450  -0.769   5.028  1.00  0.00    -0.115 NA
ENDBRANCH  10  11
ENDBRANCH   8  10
ENDBRANCH   7   8
ENDBRANCH   5   6
ENDBRANCH   2   3
BRANCH   1  13
HETATM   13  C3  UNL     1       3.305  -3.134  14.708  1.00  0.00    -0.048 C 
HETATM   14  C2  UNL     1       4.254  -2.634  15.466  1.00  0.00    -0.077 C 
HETATM   15  C1  UNL     1       4.695  -1.244  15.102  1.00  0.00     0.044 C 
HETATM   16  C20 UNL     1       4.938  -3.334  16.581  1.00  0.00     0.034 C 
HETATM   17  C19 UNL     1       4.892  -4.830  16.242  1.00  0.00     0.005 C 
HETATM   18  C18 UNL     1       3.451  -5.179  16.071  1.00  0.00     0.014 C 
HETATM   19  C15 UNL     1       2.741  -4.497  14.935  1.00  0.00    -0.020 C 
HETATM   20  C16 UNL     1       1.272  -4.491  15.277  1.00  0.00     0.020 C 
HETATM   21  C17 UNL     1       2.972  -5.366  13.710  1.00  0.00     0.020 C 
ENDBRANCH   1  13
TORSDOF 6
ENDMDL
