MODEL 12
REMARK VINA RESULT: -7.892617819      1.576      2.100
REMARK  6 active torsions:
REMARK  status: ('A' for Active; 'I' for Inactive)
REMARK    1  A    between atoms: C3_3  and  C4_4 
REMARK    2  A    between atoms: C5_5  and  C6_6 
REMARK    3  A    between atoms: C8_8  and  C9_9 
REMARK    4  A    between atoms: C10_10  and  C11_11 
REMARK    5  A    between atoms: C11_11  and  C13_13 
REMARK    6  A    between atoms: C13_13  and  C14_14 
ROOT
HETATM    1  C4  UNL     1       2.766  -2.392  13.572  1.00  0.00     0.009 C 
HETATM    2  C5  UNL     1       3.172  -2.457  12.342  1.00  0.00     0.008 C 
ENDROOT
BRANCH   2   3
HETATM    3  C6  UNL     1       2.481  -1.599  11.349  1.00  0.00    -0.054 C 
HETATM    4  C7  UNL     1       1.620  -2.239  10.335  1.00  0.00     0.049 C 
HETATM    5  C8  UNL     1       2.713  -0.278  11.271  1.00  0.00     0.071 C 
BRANCH   5   6
HETATM    6  C9  UNL     1       2.024   0.522  10.351  1.00  0.00    -0.073 C 
HETATM    7  C10 UNL     1       1.443   1.193   9.579  1.00  0.00    -0.067 C 
BRANCH   7   8
HETATM    8  C11 UNL     1       0.761   2.004   8.641  1.00  0.00    -0.007 C 
HETATM    9  C12 UNL     1       0.738   3.471   8.762  1.00  0.00     0.058 C 
BRANCH   8  10
HETATM   10  C13 UNL     1      -0.037   1.397   7.775  1.00  0.00     0.030 C 
BRANCH  10  11
HETATM   11  C14 UNL     1      -0.084   0.058   7.256  1.00  0.00     0.101 C 
HETATM   12  N1  UNL     1      -0.812  -0.979   7.865  1.00  0.00    -0.115 NA
ENDBRANCH  10  11
ENDBRANCH   8  10
ENDBRANCH   7   8
ENDBRANCH   5   6
ENDBRANCH   2   3
BRANCH   1  13
HETATM   13  C3  UNL     1       3.355  -3.167  14.686  1.00  0.00    -0.048 C 
HETATM   14  C2  UNL     1       4.312  -2.625  15.405  1.00  0.00    -0.077 C 
HETATM   15  C1  UNL     1       4.695  -1.228  15.007  1.00  0.00     0.044 C 
HETATM   16  C20 UNL     1       5.053  -3.285  16.508  1.00  0.00     0.034 C 
HETATM   17  C19 UNL     1       5.044  -4.788  16.193  1.00  0.00     0.005 C 
HETATM   18  C18 UNL     1       3.610  -5.185  16.074  1.00  0.00     0.014 C 
HETATM   19  C15 UNL     1       2.843  -4.543  14.952  1.00  0.00    -0.020 C 
HETATM   20  C16 UNL     1       1.386  -4.579  15.341  1.00  0.00     0.020 C 
HETATM   21  C17 UNL     1       3.062  -5.424  13.733  1.00  0.00     0.020 C 
ENDBRANCH   1  13
TORSDOF 6
ENDMDL
