MODEL 13
REMARK VINA RESULT: -7.661496084      2.617      3.194
REMARK  6 active torsions:
REMARK  status: ('A' for Active; 'I' for Inactive)
REMARK    1  A    between atoms: C3_3  and  C4_4 
REMARK    2  A    between atoms: C5_5  and  C6_6 
REMARK    3  A    between atoms: C8_8  and  C9_9 
REMARK    4  A    between atoms: C10_10  and  C11_11 
REMARK    5  A    between atoms: C11_11  and  C13_13 
REMARK    6  A    between atoms: C13_13  and  C14_14 
ROOT
HETATM    1  C4  UNL     1       2.086  -3.306  12.428  1.00  0.00     0.009 C 
HETATM    2  C5  UNL     1       2.641  -2.180  12.105  1.00  0.00     0.008 C 
ENDROOT
BRANCH   2   3
HETATM    3  C6  UNL     1       2.089  -1.458  10.934  1.00  0.00    -0.054 C 
HETATM    4  C7  UNL     1       2.762  -0.226  10.476  1.00  0.00     0.049 C 
HETATM    5  C8  UNL     1       0.930  -1.822  10.357  1.00  0.00     0.071 C 
BRANCH   5   6
HETATM    6  C9  UNL     1       0.443  -1.150   9.229  1.00  0.00    -0.073 C 
HETATM    7  C10 UNL     1       0.036  -0.584   8.282  1.00  0.00    -0.067 C 
BRANCH   7   8
HETATM    8  C11 UNL     1      -0.471   0.093   7.147  1.00  0.00    -0.007 C 
HETATM    9  C12 UNL     1       0.279   1.183   6.501  1.00  0.00     0.058 C 
BRANCH   8  10
HETATM   10  C13 UNL     1      -1.732  -0.133   6.815  1.00  0.00     0.030 C 
BRANCH  10  11
HETATM   11  C14 UNL     1      -2.381  -0.429   5.567  1.00  0.00     0.101 C 
HETATM   12  N1  UNL     1      -1.877  -0.017   4.321  1.00  0.00    -0.115 NA
ENDBRANCH  10  11
ENDBRANCH   8  10
ENDBRANCH   7   8
ENDBRANCH   5   6
ENDBRANCH   2   3
BRANCH   1  13
HETATM   13  C3  UNL     1       2.503  -4.142  13.574  1.00  0.00    -0.048 C 
HETATM   14  C2  UNL     1       2.029  -3.870  14.769  1.00  0.00    -0.077 C 
HETATM   15  C1  UNL     1       1.074  -2.712  14.828  1.00  0.00     0.044 C 
HETATM   16  C20 UNL     1       2.395  -4.562  16.030  1.00  0.00     0.034 C 
HETATM   17  C19 UNL     1       3.828  -5.077  15.837  1.00  0.00     0.005 C 
HETATM   18  C18 UNL     1       3.803  -5.949  14.627  1.00  0.00     0.014 C 
HETATM   19  C15 UNL     1       3.454  -5.267  13.333  1.00  0.00    -0.020 C 
HETATM   20  C16 UNL     1       2.909  -6.329  12.411  1.00  0.00     0.020 C 
HETATM   21  C17 UNL     1       4.761  -4.731  12.772  1.00  0.00     0.020 C 
ENDBRANCH   1  13
TORSDOF 6
ENDMDL
