MODEL 16
REMARK VINA RESULT: -7.025219807      2.947      8.483
REMARK  6 active torsions:
REMARK  status: ('A' for Active; 'I' for Inactive)
REMARK    1  A    between atoms: C3_3  and  C4_4 
REMARK    2  A    between atoms: C5_5  and  C6_6 
REMARK    3  A    between atoms: C8_8  and  C9_9 
REMARK    4  A    between atoms: C10_10  and  C11_11 
REMARK    5  A    between atoms: C11_11  and  C13_13 
REMARK    6  A    between atoms: C13_13  and  C14_14 
ROOT
HETATM    1  C4  UNL     1       1.506  -0.178   9.624  1.00  0.00     0.009 C 
HETATM    2  C5  UNL     1       1.157  -1.180  10.368  1.00  0.00     0.008 C 
ENDROOT
BRANCH   2   3
HETATM    3  C6  UNL     1       2.231  -2.089  10.837  1.00  0.00    -0.054 C 
HETATM    4  C7  UNL     1       3.293  -2.481   9.889  1.00  0.00     0.049 C 
HETATM    5  C8  UNL     1       2.197  -2.658  12.054  1.00  0.00     0.071 C 
BRANCH   5   6
HETATM    6  C9  UNL     1       3.240  -3.485  12.493  1.00  0.00    -0.073 C 
HETATM    7  C10 UNL     1       4.115  -4.177  12.862  1.00  0.00    -0.067 C 
BRANCH   7   8
HETATM    8  C11 UNL     1       5.165  -5.022  13.294  1.00  0.00    -0.007 C 
HETATM    9  C12 UNL     1       5.889  -5.895  12.354  1.00  0.00     0.058 C 
BRANCH   8  10
HETATM   10  C13 UNL     1       5.335  -5.167  14.599  1.00  0.00     0.030 C 
BRANCH  10  11
HETATM   11  C14 UNL     1       4.551  -4.781  15.740  1.00  0.00     0.101 C 
HETATM   12  N1  UNL     1       4.864  -3.676  16.551  1.00  0.00    -0.115 NA
ENDBRANCH  10  11
ENDBRANCH   8  10
ENDBRANCH   7   8
ENDBRANCH   5   6
ENDBRANCH   2   3
BRANCH   1  13
HETATM   13  C3  UNL     1       0.565   0.829   9.086  1.00  0.00    -0.048 C 
HETATM   14  C2  UNL     1       0.580   2.046   9.582  1.00  0.00    -0.077 C 
HETATM   15  C1  UNL     1       1.598   2.282  10.661  1.00  0.00     0.044 C 
HETATM   16  C20 UNL     1      -0.337   3.150   9.208  1.00  0.00     0.034 C 
HETATM   17  C19 UNL     1      -1.646   2.488   8.756  1.00  0.00     0.005 C 
HETATM   18  C18 UNL     1      -1.289   1.563   7.641  1.00  0.00     0.014 C 
HETATM   19  C15 UNL     1      -0.375   0.424   8.000  1.00  0.00    -0.020 C 
HETATM   20  C16 UNL     1       0.319   0.002   6.730  1.00  0.00     0.020 C 
HETATM   21  C17 UNL     1      -1.274  -0.701   8.483  1.00  0.00     0.020 C 
ENDBRANCH   1  13
TORSDOF 6
ENDMDL
