MODEL 15
REMARK VINA RESULT: -7.151636908      2.822      8.275
REMARK  6 active torsions:
REMARK  status: ('A' for Active; 'I' for Inactive)
REMARK    1  A    between atoms: C3_3  and  C4_4 
REMARK    2  A    between atoms: C5_5  and  C6_6 
REMARK    3  A    between atoms: C8_8  and  C9_9 
REMARK    4  A    between atoms: C10_10  and  C11_11 
REMARK    5  A    between atoms: C11_11  and  C13_13 
REMARK    6  A    between atoms: C13_13  and  C14_14 
ROOT
HETATM    1  C4  UNL     1       1.862  -0.278  10.656  1.00  0.00     0.009 C 
HETATM    2  C5  UNL     1       2.907  -1.040  10.559  1.00  0.00     0.008 C 
ENDROOT
BRANCH   2   3
HETATM    3  C6  UNL     1       3.483  -1.572  11.818  1.00  0.00    -0.054 C 
HETATM    4  C7  UNL     1       3.428  -3.026  12.065  1.00  0.00     0.049 C 
HETATM    5  C8  UNL     1       3.939  -0.760  12.788  1.00  0.00     0.071 C 
BRANCH   5   6
HETATM    6  C9  UNL     1       4.513  -1.282  13.954  1.00  0.00    -0.073 C 
HETATM    7  C10 UNL     1       4.996  -1.717  14.933  1.00  0.00    -0.067 C 
BRANCH   7   8
HETATM    8  C11 UNL     1       5.573  -2.259  16.107  1.00  0.00    -0.007 C 
HETATM    9  C12 UNL     1       6.831  -1.733  16.661  1.00  0.00     0.058 C 
BRANCH   8  10
HETATM   10  C13 UNL     1       5.064  -3.390  16.570  1.00  0.00     0.030 C 
BRANCH  10  11
HETATM   11  C14 UNL     1       4.481  -4.538  15.932  1.00  0.00     0.101 C 
HETATM   12  N1  UNL     1       3.107  -4.832  15.983  1.00  0.00    -0.115 NA
ENDBRANCH  10  11
ENDBRANCH   8  10
ENDBRANCH   7   8
ENDBRANCH   5   6
ENDBRANCH   2   3
BRANCH   1  13
HETATM   13  C3  UNL     1       1.157   0.320   9.502  1.00  0.00    -0.048 C 
HETATM   14  C2  UNL     1       1.063   1.628   9.419  1.00  0.00    -0.077 C 
HETATM   15  C1  UNL     1       1.721   2.386  10.536  1.00  0.00     0.044 C 
HETATM   16  C20 UNL     1       0.335   2.384   8.371  1.00  0.00     0.034 C 
HETATM   17  C19 UNL     1      -0.801   1.470   7.891  1.00  0.00     0.005 C 
HETATM   18  C18 UNL     1      -0.158   0.208   7.423  1.00  0.00     0.014 C 
HETATM   19  C15 UNL     1       0.570  -0.586   8.472  1.00  0.00    -0.020 C 
HETATM   20  C16 UNL     1       1.597  -1.424   7.752  1.00  0.00     0.020 C 
HETATM   21  C17 UNL     1      -0.468  -1.495   9.109  1.00  0.00     0.020 C 
ENDBRANCH   1  13
TORSDOF 6
ENDMDL
