MODEL 7
REMARK VINA RESULT: -8.272299150      2.432      2.627
REMARK  6 active torsions:
REMARK  status: ('A' for Active; 'I' for Inactive)
REMARK    1  A    between atoms: C3_3  and  C4_4 
REMARK    2  A    between atoms: C5_5  and  C6_6 
REMARK    3  A    between atoms: C8_8  and  C9_9 
REMARK    4  A    between atoms: C10_10  and  C11_11 
REMARK    5  A    between atoms: C11_11  and  C13_13 
REMARK    6  A    between atoms: C13_13  and  C14_14 
ROOT
HETATM    1  C4  UNL     1       2.639  -2.746  13.254  1.00  0.00     0.009 C 
HETATM    2  C5  UNL     1       3.155  -2.934  12.080  1.00  0.00     0.008 C 
ENDROOT
BRANCH   2   3
HETATM    3  C6  UNL     1       2.404  -2.412  10.913  1.00  0.00    -0.054 C 
HETATM    4  C7  UNL     1       3.058  -2.413   9.590  1.00  0.00     0.049 C 
HETATM    5  C8  UNL     1       1.200  -1.828  11.047  1.00  0.00     0.071 C 
BRANCH   5   6
HETATM    6  C9  UNL     1       0.490  -1.374   9.929  1.00  0.00    -0.073 C 
HETATM    7  C10 UNL     1      -0.106  -0.990   8.990  1.00  0.00    -0.067 C 
BRANCH   7   8
HETATM    8  C11 UNL     1      -0.830  -0.546   7.859  1.00  0.00    -0.007 C 
HETATM    9  C12 UNL     1      -2.235  -0.930   7.643  1.00  0.00     0.058 C 
BRANCH   8  10
HETATM   10  C13 UNL     1      -0.148   0.047   6.891  1.00  0.00     0.030 C 
BRANCH  10  11
HETATM   11  C14 UNL     1      -0.540   0.733   5.691  1.00  0.00     0.101 C 
HETATM   12  N1  UNL     1      -1.374   0.160   4.714  1.00  0.00    -0.115 NA
ENDBRANCH  10  11
ENDBRANCH   8  10
ENDBRANCH   7   8
ENDBRANCH   5   6
ENDBRANCH   2   3
BRANCH   1  13
HETATM   13  C3  UNL     1       3.264  -3.188  14.520  1.00  0.00    -0.048 C 
HETATM   14  C2  UNL     1       4.172  -2.424  15.084  1.00  0.00    -0.077 C 
HETATM   15  C1  UNL     1       4.465  -1.141  14.360  1.00  0.00     0.044 C 
HETATM   16  C20 UNL     1       4.942  -2.748  16.311  1.00  0.00     0.034 C 
HETATM   17  C19 UNL     1       5.038  -4.279  16.367  1.00  0.00     0.005 C 
HETATM   18  C18 UNL     1       3.637  -4.790  16.352  1.00  0.00     0.014 C 
HETATM   19  C15 UNL     1       2.842  -4.492  15.111  1.00  0.00    -0.020 C 
HETATM   20  C16 UNL     1       1.387  -4.533  15.503  1.00  0.00     0.020 C 
HETATM   21  C17 UNL     1       3.137  -5.622  14.139  1.00  0.00     0.020 C 
ENDBRANCH   1  13
TORSDOF 6
ENDMDL
