MODEL 2
REMARK VINA RESULT: -5.589618893      4.063      5.992
REMARK  7 active torsions:
REMARK  status: ('A' for Active; 'I' for Inactive)
REMARK       I    between atoms: C1_2  and  N2_3 
REMARK    1  A    between atoms: N2_3  and  P1_5 
REMARK    2  A    between atoms: N3_9  and  C2_11 
REMARK    3  A    between atoms: C2_11  and  C3_12 
REMARK    4  A    between atoms: C3_12  and  C4_13 
REMARK    5  A    between atoms: C4_13  and  C5_14 
REMARK    6  A    between atoms: C5_14  and  N4_15 
REMARK    7  A    between atoms: C5_14  and  C6_19 
ROOT
HETATM    1  C2  UNL     1      26.222  29.117  10.250  1.00  0.00     0.122 C 
ENDROOT
BRANCH   1   2
HETATM    2  N3  UNL     1      25.063  28.562   9.564  1.00  0.00    -0.364 N 
HETATM    3  C1  UNL     1      25.162  27.417   8.984  1.00  0.00     0.194 C 
HETATM    4  N1  UNL     1      26.440  26.749   9.057  1.00  0.00    -0.063 NA
HETATM    5  N2  UNL     1      24.068  26.805   8.289  1.00  0.00    -0.258 N 
ATOM      6  H2  UNL     1      24.232  25.956   7.748  1.00  0.00     0.175 HD
ATOM      7  H3  UNL     1      24.182  29.075   9.542  1.00  0.00     0.162 HD
BRANCH   5   8
HETATM    8  P1  UNL     1      22.548  27.445   8.350  1.00  0.00     0.378 P 
HETATM    9  O1  UNL     1      21.199  26.384   8.198  1.00  0.00    -0.622 OA
HETATM   10  O2  UNL     1      22.272  27.388   9.864  1.00  0.00    -0.622 OA
HETATM   11  O3  UNL     1      22.275  29.058   8.337  1.00  0.00    -0.622 OA
ENDBRANCH   5   8
ENDBRANCH   1   2
BRANCH   1  12
HETATM   12  C3  UNL     1      26.346  30.585  10.127  1.00  0.00     0.022 C 
BRANCH  12  13
HETATM   13  C4  UNL     1      25.146  31.421  10.214  1.00  0.00     0.045 C 
BRANCH  13  14
HETATM   14  C5  UNL     1      25.059  32.644   9.385  1.00  0.00     0.283 C 
BRANCH  14  15
HETATM   15  N4  UNL     1      25.649  33.829   9.914  1.00  0.00    -0.065 N 
ATOM     16  H43 UNL     1      26.647  33.677  10.058  1.00  0.00     0.275 HD
ATOM     17  H42 UNL     1      25.669  34.550   9.193  1.00  0.00     0.275 HD
ATOM     18  H41 UNL     1      25.237  34.212  10.765  1.00  0.00     0.275 HD
ENDBRANCH  14  15
BRANCH  14  19
HETATM   19  C6  UNL     1      23.699  32.951   8.897  1.00  0.00     0.204 C 
HETATM   20  O4  UNL     1      23.580  33.466   7.762  1.00  0.00    -0.646 OA
HETATM   21  O5  UNL     1      22.541  32.708   9.610  1.00  0.00    -0.646 OA
ENDBRANCH  14  19
ENDBRANCH  13  14
ENDBRANCH  12  13
ENDBRANCH   1  12
TORSDOF 7
ENDMDL
