MODEL 17
REMARK VINA RESULT: -5.102574105      4.022      5.581
REMARK  7 active torsions:
REMARK  status: ('A' for Active; 'I' for Inactive)
REMARK       I    between atoms: C1_2  and  N2_3 
REMARK    1  A    between atoms: N2_3  and  P1_5 
REMARK    2  A    between atoms: N3_9  and  C2_11 
REMARK    3  A    between atoms: C2_11  and  C3_12 
REMARK    4  A    between atoms: C3_12  and  C4_13 
REMARK    5  A    between atoms: C4_13  and  C5_14 
REMARK    6  A    between atoms: C5_14  and  N4_15 
REMARK    7  A    between atoms: C5_14  and  C6_19 
ROOT
HETATM    1  C2  UNL     1      26.290  28.868  10.385  1.00  0.00     0.122 C 
ENDROOT
BRANCH   1   2
HETATM    2  N3  UNL     1      25.121  28.406   9.648  1.00  0.00    -0.364 N 
HETATM    3  C1  UNL     1      25.193  27.315   8.969  1.00  0.00     0.194 C 
HETATM    4  N1  UNL     1      26.454  26.611   8.987  1.00  0.00    -0.063 NA
HETATM    5  N2  UNL     1      24.088  26.795   8.220  1.00  0.00    -0.258 N 
ATOM      6  H2  UNL     1      24.233  25.994   7.606  1.00  0.00     0.175 HD
ATOM      7  H3  UNL     1      24.254  28.942   9.670  1.00  0.00     0.162 HD
BRANCH   5   8
HETATM    8  P1  UNL     1      22.585  27.467   8.333  1.00  0.00     0.378 P 
HETATM    9  O1  UNL     1      21.209  26.439   8.193  1.00  0.00    -0.622 OA
HETATM   10  O2  UNL     1      22.346  27.383   9.852  1.00  0.00    -0.622 OA
HETATM   11  O3  UNL     1      22.348  29.085   8.361  1.00  0.00    -0.622 OA
ENDBRANCH   5   8
ENDBRANCH   1   2
BRANCH   1  12
HETATM   12  C3  UNL     1      26.115  28.864  11.852  1.00  0.00     0.022 C 
BRANCH  12  13
HETATM   13  C4  UNL     1      24.767  28.964  12.419  1.00  0.00     0.045 C 
BRANCH  13  14
HETATM   14  C5  UNL     1      24.193  27.794  13.120  1.00  0.00     0.283 C 
BRANCH  14  15
HETATM   15  N4  UNL     1      24.020  26.601  12.359  1.00  0.00    -0.065 N 
ATOM     16  H43 UNL     1      23.495  25.921  12.908  1.00  0.00     0.275 HD
ATOM     17  H42 UNL     1      23.366  26.776  11.597  1.00  0.00     0.275 HD
ATOM     18  H41 UNL     1      24.863  26.161  11.988  1.00  0.00     0.275 HD
ENDBRANCH  14  15
BRANCH  14  19
HETATM   19  C6  UNL     1      22.949  28.082  13.863  1.00  0.00     0.204 C 
HETATM   20  O4  UNL     1      22.466  29.235  13.784  1.00  0.00    -0.646 OA
HETATM   21  O5  UNL     1      22.276  27.163  14.644  1.00  0.00    -0.646 OA
ENDBRANCH  14  19
ENDBRANCH  13  14
ENDBRANCH  12  13
ENDBRANCH   1  12
TORSDOF 7
ENDMDL
