MODEL 1
REMARK VINA RESULT: -5.669343471      0.000      0.000
REMARK  7 active torsions:
REMARK  status: ('A' for Active; 'I' for Inactive)
REMARK       I    between atoms: C1_2  and  N2_3 
REMARK    1  A    between atoms: N2_3  and  P1_5 
REMARK    2  A    between atoms: N3_9  and  C2_11 
REMARK    3  A    between atoms: C2_11  and  C3_12 
REMARK    4  A    between atoms: C3_12  and  C4_13 
REMARK    5  A    between atoms: C4_13  and  C5_14 
REMARK    6  A    between atoms: C5_14  and  N4_15 
REMARK    7  A    between atoms: C5_14  and  C6_19 
ROOT
HETATM    1  C2  UNL     1      27.286  28.670   9.087  1.00  0.00     0.122 C 
ENDROOT
BRANCH   1   2
HETATM    2  N3  UNL     1      25.908  28.228   8.925  1.00  0.00    -0.364 N 
HETATM    3  C1  UNL     1      25.544  27.099   9.424  1.00  0.00     0.194 C 
HETATM    4  N1  UNL     1      26.549  26.335  10.126  1.00  0.00    -0.063 NA
HETATM    5  N2  UNL     1      24.207  26.597   9.308  1.00  0.00    -0.258 N 
ATOM      6  H2  UNL     1      24.002  25.647   9.616  1.00  0.00     0.175 HD
ATOM      7  H3  UNL     1      25.237  28.808   8.421  1.00  0.00     0.162 HD
BRANCH   5   8
HETATM    8  P1  UNL     1      22.994  27.525   8.685  1.00  0.00     0.378 P 
HETATM    9  O1  UNL     1      21.754  26.757   7.768  1.00  0.00    -0.622 OA
HETATM   10  O2  UNL     1      21.985  27.500   9.849  1.00  0.00    -0.622 OA
HETATM   11  O3  UNL     1      23.033  29.161   8.724  1.00  0.00    -0.622 OA
ENDBRANCH   5   8
ENDBRANCH   1   2
BRANCH   1  12
HETATM   12  C3  UNL     1      28.177  28.282   7.973  1.00  0.00     0.022 C 
BRANCH  12  13
HETATM   13  C4  UNL     1      29.348  27.444   8.243  1.00  0.00     0.045 C 
BRANCH  13  14
HETATM   14  C5  UNL     1      29.405  26.081   7.669  1.00  0.00     0.283 C 
BRANCH  14  15
HETATM   15  N4  UNL     1      28.174  25.371   7.560  1.00  0.00    -0.065 N 
ATOM     16  H43 UNL     1      27.993  24.871   8.430  1.00  0.00     0.275 HD
ATOM     17  H42 UNL     1      27.399  26.033   7.556  1.00  0.00     0.275 HD
ATOM     18  H41 UNL     1      28.076  24.729   6.773  1.00  0.00     0.275 HD
ENDBRANCH  14  15
BRANCH  14  19
HETATM   19  C6  UNL     1      30.422  25.205   8.286  1.00  0.00     0.204 C 
HETATM   20  O4  UNL     1      31.620  25.561   8.234  1.00  0.00    -0.646 OA
HETATM   21  O5  UNL     1      30.139  24.011   8.922  1.00  0.00    -0.646 OA
ENDBRANCH  14  19
ENDBRANCH  13  14
ENDBRANCH  12  13
ENDBRANCH   1  12
TORSDOF 7
ENDMDL
