MODEL 9
REMARK VINA RESULT: -5.366690767      4.116      5.702
REMARK  7 active torsions:
REMARK  status: ('A' for Active; 'I' for Inactive)
REMARK       I    between atoms: C1_2  and  N2_3 
REMARK    1  A    between atoms: N2_3  and  P1_5 
REMARK    2  A    between atoms: N3_9  and  C2_11 
REMARK    3  A    between atoms: C2_11  and  C3_12 
REMARK    4  A    between atoms: C3_12  and  C4_13 
REMARK    5  A    between atoms: C4_13  and  C5_14 
REMARK    6  A    between atoms: C5_14  and  N4_15 
REMARK    7  A    between atoms: C5_14  and  C6_19 
ROOT
HETATM    1  C2  UNL     1      26.235  26.830  11.230  1.00  0.00     0.122 C 
ENDROOT
BRANCH   1   2
HETATM    2  N3  UNL     1      25.106  27.090  10.347  1.00  0.00    -0.364 N 
HETATM    3  C1  UNL     1      25.182  26.747   9.109  1.00  0.00     0.194 C 
HETATM    4  N1  UNL     1      26.405  26.114   8.674  1.00  0.00    -0.063 NA
HETATM    5  N2  UNL     1      24.114  26.968   8.178  1.00  0.00    -0.258 N 
ATOM      6  H2  UNL     1      24.270  26.786   7.187  1.00  0.00     0.175 HD
ATOM      7  H3  UNL     1      24.264  27.539  10.706  1.00  0.00     0.162 HD
BRANCH   5   8
HETATM    8  P1  UNL     1      22.639  27.508   8.680  1.00  0.00     0.378 P 
HETATM    9  O1  UNL     1      21.729  28.522   7.624  1.00  0.00    -0.622 OA
HETATM   10  O2  UNL     1      21.729  26.371   8.178  1.00  0.00    -0.622 OA
HETATM   11  O3  UNL     1      22.100  27.295  10.210  1.00  0.00    -0.622 OA
ENDBRANCH   5   8
ENDBRANCH   1   2
BRANCH   1  12
HETATM   12  C3  UNL     1      25.862  26.186  12.507  1.00  0.00     0.022 C 
BRANCH  12  13
HETATM   13  C4  UNL     1      25.330  27.004  13.601  1.00  0.00     0.045 C 
BRANCH  13  14
HETATM   14  C5  UNL     1      23.867  27.196  13.710  1.00  0.00     0.283 C 
BRANCH  14  15
HETATM   15  N4  UNL     1      23.036  26.240  13.055  1.00  0.00    -0.065 N 
ATOM     16  H43 UNL     1      23.542  25.833  12.269  1.00  0.00     0.275 HD
ATOM     17  H42 UNL     1      22.924  25.421  13.652  1.00  0.00     0.275 HD
ATOM     18  H41 UNL     1      22.120  26.560  12.741  1.00  0.00     0.275 HD
ENDBRANCH  14  15
BRANCH  14  19
HETATM   19  C6  UNL     1      23.406  28.558  13.369  1.00  0.00     0.204 C 
HETATM   20  O4  UNL     1      24.064  29.211  12.528  1.00  0.00    -0.646 OA
HETATM   21  O5  UNL     1      22.292  29.164  13.916  1.00  0.00    -0.646 OA
ENDBRANCH  14  19
ENDBRANCH  13  14
ENDBRANCH  12  13
ENDBRANCH   1  12
TORSDOF 7
ENDMDL
