MODEL 13
REMARK VINA RESULT: -5.209816709      3.967      5.961
REMARK  7 active torsions:
REMARK  status: ('A' for Active; 'I' for Inactive)
REMARK       I    between atoms: C1_2  and  N2_3 
REMARK    1  A    between atoms: N2_3  and  P1_5 
REMARK    2  A    between atoms: N3_9  and  C2_11 
REMARK    3  A    between atoms: C2_11  and  C3_12 
REMARK    4  A    between atoms: C3_12  and  C4_13 
REMARK    5  A    between atoms: C4_13  and  C5_14 
REMARK    6  A    between atoms: C5_14  and  N4_15 
REMARK    7  A    between atoms: C5_14  and  C6_19 
ROOT
HETATM    1  C2  UNL     1      26.167  26.870  11.534  1.00  0.00     0.122 C 
ENDROOT
BRANCH   1   2
HETATM    2  N3  UNL     1      25.170  27.131  10.504  1.00  0.00    -0.364 N 
HETATM    3  C1  UNL     1      25.392  26.741   9.298  1.00  0.00     0.194 C 
HETATM    4  N1  UNL     1      26.639  26.058   9.045  1.00  0.00    -0.063 NA
HETATM    5  N2  UNL     1      24.460  26.959   8.231  1.00  0.00    -0.258 N 
ATOM      6  H2  UNL     1      24.736  26.737   7.274  1.00  0.00     0.175 HD
ATOM      7  H3  UNL     1      24.304  27.618  10.736  1.00  0.00     0.162 HD
BRANCH   5   8
HETATM    8  P1  UNL     1      22.951  27.560   8.520  1.00  0.00     0.378 P 
HETATM    9  O1  UNL     1      22.174  27.160  10.005  1.00  0.00    -0.622 OA
HETATM   10  O2  UNL     1      23.300  28.898   9.200  1.00  0.00    -0.622 OA
HETATM   11  O3  UNL     1      22.084  28.342   7.373  1.00  0.00    -0.622 OA
ENDBRANCH   5   8
ENDBRANCH   1   2
BRANCH   1  12
HETATM   12  C3  UNL     1      25.683  26.008  12.633  1.00  0.00     0.022 C 
BRANCH  12  13
HETATM   13  C4  UNL     1      24.251  25.962  12.938  1.00  0.00     0.045 C 
BRANCH  13  14
HETATM   14  C5  UNL     1      23.698  26.896  13.942  1.00  0.00     0.283 C 
BRANCH  14  15
HETATM   15  N4  UNL     1      22.813  26.351  14.918  1.00  0.00    -0.065 N 
ATOM     16  H43 UNL     1      22.961  26.821  15.811  1.00  0.00     0.275 HD
ATOM     17  H42 UNL     1      21.857  26.640  14.709  1.00  0.00     0.275 HD
ATOM     18  H41 UNL     1      22.840  25.341  15.056  1.00  0.00     0.275 HD
ENDBRANCH  14  15
BRANCH  14  19
HETATM   19  C6  UNL     1      23.098  28.119  13.369  1.00  0.00     0.204 C 
HETATM   20  O4  UNL     1      21.877  28.322  13.555  1.00  0.00    -0.646 OA
HETATM   21  O5  UNL     1      23.796  29.060  12.637  1.00  0.00    -0.646 OA
ENDBRANCH  14  19
ENDBRANCH  13  14
ENDBRANCH  12  13
ENDBRANCH   1  12
TORSDOF 7
ENDMDL
