MODEL 3
REMARK VINA RESULT: -5.564106924      2.731      7.024
REMARK  7 active torsions:
REMARK  status: ('A' for Active; 'I' for Inactive)
REMARK       I    between atoms: C1_2  and  N2_3 
REMARK    1  A    between atoms: N2_3  and  P1_5 
REMARK    2  A    between atoms: N3_9  and  C2_11 
REMARK    3  A    between atoms: C2_11  and  C3_12 
REMARK    4  A    between atoms: C3_12  and  C4_13 
REMARK    5  A    between atoms: C4_13  and  C5_14 
REMARK    6  A    between atoms: C5_14  and  N4_15 
REMARK    7  A    between atoms: C5_14  and  C6_19 
ROOT
HETATM    1  C2  UNL     1      27.047  27.209   9.732  1.00  0.00     0.122 C 
ENDROOT
BRANCH   1   2
HETATM    2  N3  UNL     1      28.308  26.597   9.336  1.00  0.00    -0.364 N 
HETATM    3  C1  UNL     1      29.078  27.216   8.511  1.00  0.00     0.194 C 
HETATM    4  N1  UNL     1      28.629  28.501   8.028  1.00  0.00    -0.063 NA
HETATM    5  N2  UNL     1      30.334  26.681   8.074  1.00  0.00    -0.258 N 
ATOM      6  H2  UNL     1      30.847  27.154   7.332  1.00  0.00     0.175 HD
ATOM      7  H3  UNL     1      28.578  25.687   9.708  1.00  0.00     0.162 HD
BRANCH   5   8
HETATM    8  P1  UNL     1      30.964  25.314   8.751  1.00  0.00     0.378 P 
HETATM    9  O1  UNL     1      32.650  25.271   9.103  1.00  0.00    -0.622 OA
HETATM   10  O2  UNL     1      30.780  25.623  10.248  1.00  0.00    -0.622 OA
HETATM   11  O3  UNL     1      30.101  23.933   8.904  1.00  0.00    -0.622 OA
ENDBRANCH   5   8
ENDBRANCH   1   2
BRANCH   1  12
HETATM   12  C3  UNL     1      25.855  26.403   9.392  1.00  0.00     0.022 C 
BRANCH  12  13
HETATM   13  C4  UNL     1      24.820  26.974   8.527  1.00  0.00     0.045 C 
BRANCH  13  14
HETATM   14  C5  UNL     1      23.646  27.630   9.146  1.00  0.00     0.283 C 
BRANCH  14  15
HETATM   15  N4  UNL     1      23.359  27.300  10.503  1.00  0.00    -0.065 N 
ATOM     16  H43 UNL     1      24.164  26.828  10.915  1.00  0.00     0.275 HD
ATOM     17  H42 UNL     1      23.333  28.152  11.062  1.00  0.00     0.275 HD
ATOM     18  H41 UNL     1      22.517  26.752  10.679  1.00  0.00     0.275 HD
ENDBRANCH  14  15
BRANCH  14  19
HETATM   19  C6  UNL     1      22.407  27.534   8.348  1.00  0.00     0.204 C 
HETATM   20  O4  UNL     1      21.834  26.423   8.275  1.00  0.00    -0.646 OA
HETATM   21  O5  UNL     1      21.830  28.592   7.672  1.00  0.00    -0.646 OA
ENDBRANCH  14  19
ENDBRANCH  13  14
ENDBRANCH  12  13
ENDBRANCH   1  12
TORSDOF 7
ENDMDL
