MODEL 11
REMARK VINA RESULT: -6.953467151      3.671      8.800
REMARK  6 active torsions:
REMARK  status: ('A' for Active; 'I' for Inactive)
REMARK    1  A    between atoms: C3_3  and  C4_4 
REMARK    2  A    between atoms: C5_5  and  C6_6 
REMARK    3  A    between atoms: C8_8  and  C9_9 
REMARK    4  A    between atoms: C10_10  and  C11_11 
REMARK    5  A    between atoms: C13_13  and  C14_14 
REMARK    6  A    between atoms: C14_14  and  O1_15 
ROOT
HETATM    1  C4  UNL     1      17.313  -0.180 -10.484  1.00  0.00     0.009 C 
HETATM    2  C5  UNL     1      16.122  -0.630 -10.217  1.00  0.00     0.007 C 
ENDROOT
BRANCH   2   3
HETATM    3  C6  UNL     1      15.373  -1.526 -11.142  1.00  0.00    -0.062 C 
HETATM    4  C7  UNL     1      15.044  -2.922 -10.864  1.00  0.00     0.048 C 
HETATM    5  C8  UNL     1      14.967  -1.034 -12.311  1.00  0.00     0.007 C 
BRANCH   5   6
HETATM    6  C9  UNL     1      14.223  -1.853 -13.279  1.00  0.00     0.001 C 
HETATM    7  C10 UNL     1      14.410  -1.671 -14.567  1.00  0.00     0.006 C 
BRANCH   7   8
HETATM    8  C11 UNL     1      13.696  -2.459 -15.537  1.00  0.00    -0.064 C 
HETATM    9  C12 UNL     1      12.617  -1.875 -16.328  1.00  0.00     0.048 C 
HETATM   10  C13 UNL     1      14.036  -3.722 -15.685  1.00  0.00     0.005 C 
BRANCH  10  11
HETATM   11  C14 UNL     1      13.417  -4.656 -16.622  1.00  0.00     0.192 C 
BRANCH  11  12
HETATM   12  O1  UNL     1      14.480  -5.233 -17.363  1.00  0.00    -0.397 OA
ATOM     13  H1  UNL     1      14.082  -5.879 -17.935  1.00  0.00     0.209 HD
ENDBRANCH  11  12
ENDBRANCH  10  11
ENDBRANCH   7   8
ENDBRANCH   5   6
ENDBRANCH   2   3
BRANCH   1  14
HETATM   14  C3  UNL     1      18.079   0.697  -9.609  1.00  0.00    -0.048 C 
HETATM   15  C2  UNL     1      18.097   1.986  -9.927  1.00  0.00    -0.077 C 
HETATM   16  C1  UNL     1      17.345   2.437 -11.130  1.00  0.00     0.044 C 
HETATM   17  C20 UNL     1      18.823   2.983  -9.154  1.00  0.00     0.034 C 
HETATM   18  C19 UNL     1      19.935   2.395  -8.317  1.00  0.00     0.005 C 
HETATM   19  C18 UNL     1      19.489   1.183  -7.582  1.00  0.00     0.014 C 
HETATM   20  C15 UNL     1      18.780   0.150  -8.446  1.00  0.00    -0.020 C 
HETATM   21  C16 UNL     1      19.776  -0.889  -8.918  1.00  0.00     0.020 C 
HETATM   22  C17 UNL     1      17.776  -0.518  -7.535  1.00  0.00     0.020 C 
ENDBRANCH   1  14
TORSDOF 6
ENDMDL
