MODEL 12
REMARK VINA RESULT: -6.843281173      3.746      8.843
REMARK  6 active torsions:
REMARK  status: ('A' for Active; 'I' for Inactive)
REMARK    1  A    between atoms: C3_3  and  C4_4 
REMARK    2  A    between atoms: C5_5  and  C6_6 
REMARK    3  A    between atoms: C8_8  and  C9_9 
REMARK    4  A    between atoms: C10_10  and  C11_11 
REMARK    5  A    between atoms: C13_13  and  C14_14 
REMARK    6  A    between atoms: C14_14  and  O1_15 
ROOT
HETATM    1  C4  UNL     1      17.127  -0.125  -9.842  1.00  0.00     0.009 C 
HETATM    2  C5  UNL     1      17.470  -1.173 -10.534  1.00  0.00     0.007 C 
ENDROOT
BRANCH   2   3
HETATM    3  C6  UNL     1      16.479  -2.158 -11.049  1.00  0.00    -0.062 C 
HETATM    4  C7  UNL     1      15.457  -2.812 -10.237  1.00  0.00     0.048 C 
HETATM    5  C8  UNL     1      16.514  -2.476 -12.342  1.00  0.00     0.007 C 
BRANCH   5   6
HETATM    6  C9  UNL     1      15.572  -3.440 -12.929  1.00  0.00     0.001 C 
HETATM    7  C10 UNL     1      14.926  -3.132 -14.031  1.00  0.00     0.006 C 
BRANCH   7   8
HETATM    8  C11 UNL     1      13.998  -4.058 -14.628  1.00  0.00    -0.064 C 
HETATM    9  C12 UNL     1      13.170  -4.926 -13.797  1.00  0.00     0.048 C 
HETATM   10  C13 UNL     1      13.923  -4.105 -15.941  1.00  0.00     0.005 C 
BRANCH  10  11
HETATM   11  C14 UNL     1      13.037  -4.982 -16.702  1.00  0.00     0.192 C 
BRANCH  11  12
HETATM   12  O1  UNL     1      13.860  -6.010 -17.229  1.00  0.00    -0.397 OA
ATOM     13  H1  UNL     1      13.274  -6.620 -17.662  1.00  0.00     0.209 HD
ENDBRANCH  11  12
ENDBRANCH  10  11
ENDBRANCH   7   8
ENDBRANCH   5   6
ENDBRANCH   2   3
BRANCH   1  14
HETATM   14  C3  UNL     1      18.062   0.862  -9.320  1.00  0.00    -0.048 C 
HETATM   15  C2  UNL     1      18.026   2.067  -9.876  1.00  0.00    -0.077 C 
HETATM   16  C1  UNL     1      17.051   2.322 -10.971  1.00  0.00     0.044 C 
HETATM   17  C20 UNL     1      18.902   3.155  -9.467  1.00  0.00     0.034 C 
HETATM   18  C19 UNL     1      20.155   2.681  -8.767  1.00  0.00     0.005 C 
HETATM   19  C18 UNL     1      19.856   1.649  -7.740  1.00  0.00     0.014 C 
HETATM   20  C15 UNL     1      18.978   0.508  -8.234  1.00  0.00    -0.020 C 
HETATM   21  C16 UNL     1      19.849  -0.646  -8.684  1.00  0.00     0.020 C 
HETATM   22  C17 UNL     1      18.172   0.069  -7.033  1.00  0.00     0.020 C 
ENDBRANCH   1  14
TORSDOF 6
ENDMDL
