MODEL 13
REMARK VINA RESULT: -6.774479122      3.744      9.070
REMARK  6 active torsions:
REMARK  status: ('A' for Active; 'I' for Inactive)
REMARK    1  A    between atoms: C3_3  and  C4_4 
REMARK    2  A    between atoms: C5_5  and  C6_6 
REMARK    3  A    between atoms: C8_8  and  C9_9 
REMARK    4  A    between atoms: C10_10  and  C11_11 
REMARK    5  A    between atoms: C13_13  and  C14_14 
REMARK    6  A    between atoms: C14_14  and  O1_15 
ROOT
HETATM    1  C4  UNL     1      17.387   0.424 -10.595  1.00  0.00     0.009 C 
HETATM    2  C5  UNL     1      16.136   0.130 -10.395  1.00  0.00     0.007 C 
ENDROOT
BRANCH   2   3
HETATM    3  C6  UNL     1      15.179  -0.125 -11.509  1.00  0.00    -0.062 C 
HETATM    4  C7  UNL     1      14.182   0.830 -11.984  1.00  0.00     0.048 C 
HETATM    5  C8  UNL     1      15.224  -1.304 -12.126  1.00  0.00     0.007 C 
BRANCH   5   6
HETATM    6  C9  UNL     1      14.315  -1.633 -13.233  1.00  0.00     0.001 C 
HETATM    7  C10 UNL     1      14.808  -1.980 -14.401  1.00  0.00     0.006 C 
BRANCH   7   8
HETATM    8  C11 UNL     1      13.940  -2.308 -15.502  1.00  0.00    -0.064 C 
HETATM    9  C12 UNL     1      13.203  -1.266 -16.211  1.00  0.00     0.048 C 
HETATM   10  C13 UNL     1      13.823  -3.573 -15.846  1.00  0.00     0.005 C 
BRANCH  10  11
HETATM   11  C14 UNL     1      12.990  -4.075 -16.936  1.00  0.00     0.192 C 
BRANCH  11  12
HETATM   12  O1  UNL     1      13.103  -5.488 -16.899  1.00  0.00    -0.397 OA
ATOM     13  H1  UNL     1      13.405  -5.751 -17.761  1.00  0.00     0.209 HD
ENDBRANCH  11  12
ENDBRANCH  10  11
ENDBRANCH   7   8
ENDBRANCH   5   6
ENDBRANCH   2   3
BRANCH   1  14
HETATM   14  C3  UNL     1      18.354   0.681  -9.537  1.00  0.00    -0.048 C 
HETATM   15  C2  UNL     1      18.867  -0.383  -8.930  1.00  0.00    -0.077 C 
HETATM   16  C1  UNL     1      18.427  -1.737  -9.365  1.00  0.00     0.044 C 
HETATM   17  C20 UNL     1      19.838  -0.288  -7.851  1.00  0.00     0.034 C 
HETATM   18  C19 UNL     1      19.820   1.049  -7.147  1.00  0.00     0.005 C 
HETATM   19  C18 UNL     1      19.789   2.179  -8.112  1.00  0.00     0.014 C 
HETATM   20  C15 UNL     1      18.722   2.055  -9.190  1.00  0.00    -0.020 C 
HETATM   21  C16 UNL     1      17.476   2.801  -8.761  1.00  0.00     0.020 C 
HETATM   22  C17 UNL     1      19.299   2.734 -10.410  1.00  0.00     0.020 C 
ENDBRANCH   1  14
TORSDOF 6
ENDMDL
