MODEL 2
REMARK VINA RESULT: -9.149014719      0.954      1.180
REMARK  6 active torsions:
REMARK  status: ('A' for Active; 'I' for Inactive)
REMARK    1  A    between atoms: C3_3  and  C4_4 
REMARK    2  A    between atoms: C5_5  and  C6_6 
REMARK    3  A    between atoms: C8_8  and  C9_9 
REMARK    4  A    between atoms: C10_10  and  C11_11 
REMARK    5  A    between atoms: C13_13  and  C14_14 
REMARK    6  A    between atoms: C14_14  and  O1_15 
ROOT
HETATM    1  C4  UNL     1      15.862  -2.677 -13.295  1.00  0.00     0.009 C 
HETATM    2  C5  UNL     1      15.422  -2.947 -12.100  1.00  0.00     0.007 C 
ENDROOT
BRANCH   2   3
HETATM    3  C6  UNL     1      15.993  -2.328 -10.871  1.00  0.00    -0.062 C 
HETATM    4  C7  UNL     1      15.310  -2.253  -9.583  1.00  0.00     0.048 C 
HETATM    5  C8  UNL     1      17.214  -1.801 -10.936  1.00  0.00     0.007 C 
BRANCH   5   6
HETATM    6  C9  UNL     1      17.848  -1.171  -9.769  1.00  0.00     0.001 C 
HETATM    7  C10 UNL     1      18.087   0.122  -9.775  1.00  0.00     0.006 C 
BRANCH   7   8
HETATM    8  C11 UNL     1      18.706   0.764  -8.645  1.00  0.00    -0.064 C 
HETATM    9  C12 UNL     1      19.561   1.934  -8.825  1.00  0.00     0.048 C 
HETATM   10  C13 UNL     1      18.487   0.265  -7.447  1.00  0.00     0.005 C 
BRANCH  10  11
HETATM   11  C14 UNL     1      19.035   0.795  -6.201  1.00  0.00     0.192 C 
BRANCH  11  12
HETATM   12  O1  UNL     1      19.728  -0.280  -5.589  1.00  0.00    -0.397 OA
ATOM     13  H1  UNL     1      20.447   0.112  -5.105  1.00  0.00     0.209 HD
ENDBRANCH  11  12
ENDBRANCH  10  11
ENDBRANCH   7   8
ENDBRANCH   5   6
ENDBRANCH   2   3
BRANCH   1  14
HETATM   14  C3  UNL     1      15.333  -3.259 -14.520  1.00  0.00    -0.048 C 
HETATM   15  C2  UNL     1      14.416  -2.549 -15.168  1.00  0.00    -0.077 C 
HETATM   16  C1  UNL     1      14.002  -1.234 -14.608  1.00  0.00     0.044 C 
HETATM   17  C20 UNL     1      13.791  -3.001 -16.402  1.00  0.00     0.034 C 
HETATM   18  C19 UNL     1      13.865  -4.497 -16.595  1.00  0.00     0.005 C 
HETATM   19  C18 UNL     1      15.226  -5.023 -16.312  1.00  0.00     0.014 C 
HETATM   20  C15 UNL     1      15.814  -4.561 -14.987  1.00  0.00    -0.020 C 
HETATM   21  C16 UNL     1      15.535  -5.597 -13.918  1.00  0.00     0.020 C 
HETATM   22  C17 UNL     1      17.306  -4.483 -15.211  1.00  0.00     0.020 C 
ENDBRANCH   1  14
TORSDOF 6
ENDMDL
