MODEL 8
REMARK VINA RESULT: -8.216545711      0.986      1.842
REMARK  6 active torsions:
REMARK  status: ('A' for Active; 'I' for Inactive)
REMARK    1  A    between atoms: C3_3  and  C4_4 
REMARK    2  A    between atoms: C5_5  and  C6_6 
REMARK    3  A    between atoms: C8_8  and  C9_9 
REMARK    4  A    between atoms: C10_10  and  C11_11 
REMARK    5  A    between atoms: C13_13  and  C14_14 
REMARK    6  A    between atoms: C14_14  and  O1_15 
ROOT
HETATM    1  C4  UNL     1      14.916  -3.037 -12.709  1.00  0.00     0.009 C 
HETATM    2  C5  UNL     1      16.095  -2.857 -12.190  1.00  0.00     0.007 C 
ENDROOT
BRANCH   2   3
HETATM    3  C6  UNL     1      16.298  -2.300 -10.823  1.00  0.00    -0.062 C 
HETATM    4  C7  UNL     1      15.308  -2.348  -9.750  1.00  0.00     0.048 C 
HETATM    5  C8  UNL     1      17.460  -1.714 -10.542  1.00  0.00     0.007 C 
BRANCH   5   6
HETATM    6  C9  UNL     1      17.738  -1.140  -9.218  1.00  0.00     0.001 C 
HETATM    7  C10 UNL     1      18.897  -0.565  -8.986  1.00  0.00     0.006 C 
BRANCH   7   8
HETATM    8  C11 UNL     1      19.196   0.006  -7.699  1.00  0.00    -0.064 C 
HETATM    9  C12 UNL     1      18.396   1.105  -7.165  1.00  0.00     0.048 C 
HETATM   10  C13 UNL     1      20.213  -0.483  -7.021  1.00  0.00     0.005 C 
BRANCH  10  11
HETATM   11  C14 UNL     1      20.647  -0.021  -5.705  1.00  0.00     0.192 C 
BRANCH  11  12
HETATM   12  O1  UNL     1      20.315  -1.057  -4.796  1.00  0.00    -0.397 OA
ATOM     13  H1  UNL     1      20.971  -1.024  -4.109  1.00  0.00     0.209 HD
ENDBRANCH  11  12
ENDBRANCH  10  11
ENDBRANCH   7   8
ENDBRANCH   5   6
ENDBRANCH   2   3
BRANCH   1  14
HETATM   14  C3  UNL     1      14.673  -3.578 -14.039  1.00  0.00    -0.048 C 
HETATM   15  C2  UNL     1      13.977  -4.706 -14.105  1.00  0.00    -0.077 C 
HETATM   16  C1  UNL     1      13.500  -5.327 -12.839  1.00  0.00     0.044 C 
HETATM   17  C20 UNL     1      13.660  -5.370 -15.360  1.00  0.00     0.034 C 
HETATM   18  C19 UNL     1      14.590  -4.989 -16.488  1.00  0.00     0.005 C 
HETATM   19  C18 UNL     1      14.806  -3.520 -16.552  1.00  0.00     0.014 C 
HETATM   20  C15 UNL     1      15.185  -2.883 -15.223  1.00  0.00    -0.020 C 
HETATM   21  C16 UNL     1      16.692  -2.781 -15.118  1.00  0.00     0.020 C 
HETATM   22  C17 UNL     1      14.605  -1.488 -15.263  1.00  0.00     0.020 C 
ENDBRANCH   1  14
TORSDOF 6
ENDMDL
