MODEL 1
REMARK VINA RESULT: -9.202632160      0.000      0.000
REMARK  6 active torsions:
REMARK  status: ('A' for Active; 'I' for Inactive)
REMARK    1  A    between atoms: C3_3  and  C4_4 
REMARK    2  A    between atoms: C5_5  and  C6_6 
REMARK    3  A    between atoms: C8_8  and  C9_9 
REMARK    4  A    between atoms: C10_10  and  C11_11 
REMARK    5  A    between atoms: C13_13  and  C14_14 
REMARK    6  A    between atoms: C14_14  and  O1_15 
ROOT
HETATM    1  C4  UNL     1      15.442  -2.934 -12.699  1.00  0.00     0.009 C 
HETATM    2  C5  UNL     1      16.478  -2.277 -12.264  1.00  0.00     0.007 C 
ENDROOT
BRANCH   2   3
HETATM    3  C6  UNL     1      16.638  -1.876 -10.838  1.00  0.00    -0.062 C 
HETATM    4  C7  UNL     1      15.552  -1.816  -9.864  1.00  0.00     0.048 C 
HETATM    5  C8  UNL     1      17.853  -1.544 -10.406  1.00  0.00     0.007 C 
BRANCH   5   6
HETATM    6  C9  UNL     1      18.094  -1.136  -9.014  1.00  0.00     0.001 C 
HETATM    7  C10 UNL     1      19.092  -0.327  -8.736  1.00  0.00     0.006 C 
BRANCH   7   8
HETATM    8  C11 UNL     1      19.351   0.089  -7.382  1.00  0.00    -0.064 C 
HETATM    9  C12 UNL     1      18.464   1.032  -6.707  1.00  0.00     0.048 C 
HETATM   10  C13 UNL     1      20.412  -0.397  -6.773  1.00  0.00     0.005 C 
BRANCH  10  11
HETATM   11  C14 UNL     1      20.816  -0.080  -5.406  1.00  0.00     0.192 C 
BRANCH  11  12
HETATM   12  O1  UNL     1      20.367  -1.160  -4.603  1.00  0.00    -0.397 OA
ATOM     13  H1  UNL     1      20.719  -1.006  -3.734  1.00  0.00     0.209 HD
ENDBRANCH  11  12
ENDBRANCH  10  11
ENDBRANCH   7   8
ENDBRANCH   5   6
ENDBRANCH   2   3
BRANCH   1  14
HETATM   14  C3  UNL     1      15.245  -3.345 -14.082  1.00  0.00    -0.048 C 
HETATM   15  C2  UNL     1      14.508  -2.544 -14.842  1.00  0.00    -0.077 C 
HETATM   16  C1  UNL     1      13.946  -1.304 -14.239  1.00  0.00     0.044 C 
HETATM   17  C20 UNL     1      14.217  -2.823 -16.239  1.00  0.00     0.034 C 
HETATM   18  C19 UNL     1      14.362  -4.284 -16.598  1.00  0.00     0.005 C 
HETATM   19  C18 UNL     1      15.618  -4.864 -16.054  1.00  0.00     0.014 C 
HETATM   20  C15 UNL     1      15.848  -4.585 -14.576  1.00  0.00    -0.020 C 
HETATM   21  C16 UNL     1      15.329  -5.744 -13.752  1.00  0.00     0.020 C 
HETATM   22  C17 UNL     1      17.348  -4.504 -14.409  1.00  0.00     0.020 C 
ENDBRANCH   1  14
TORSDOF 6
ENDMDL
