MODEL 6
REMARK VINA RESULT: -8.748192493      4.950      8.058
REMARK  6 active torsions:
REMARK  status: ('A' for Active; 'I' for Inactive)
REMARK    1  A    between atoms: C6_6  and  C7_7 
REMARK    2  A    between atoms: N1_8  and  N2_10 
REMARK       I    between atoms: N2_10  and  C8_12 
REMARK    3  A    between atoms: C8_12  and  C9_14 
REMARK    4  A    between atoms: C9_14  and  N3_15 
REMARK    5  A    between atoms: C9_14  and  C10_19 
REMARK    6  A    between atoms: C10_19  and  C11_20 
ROOT
HETATM    1  C9  UNL     1      28.510   8.037  58.844  1.00  0.00     0.280 C 
ENDROOT
BRANCH   1   2
HETATM    2  C8  UNL     1      29.321   8.658  59.902  1.00  0.00     0.267 C 
HETATM    3  N2  UNL     1      30.308   7.983  60.656  1.00  0.00    -0.269 N 
ATOM      4  H2  UNL     1      30.466   6.997  60.451  1.00  0.00     0.190 HD
HETATM    5  O1  UNL     1      29.145   9.871  60.174  1.00  0.00    -0.269 OA
BRANCH   3   6
HETATM    6  N1  UNL     1      31.079   8.569  61.658  1.00  0.00    -0.308 N 
HETATM    7  C7  UNL     1      30.956   8.325  62.911  1.00  0.00     0.118 C 
ATOM      8  H1  UNL     1      31.792   9.240  61.374  1.00  0.00     0.186 HD
BRANCH   7   9
HETATM    9  C6  UNL     1      31.810   8.989  63.879  1.00  0.00    -0.019 A 
HETATM   10  C5  UNL     1      32.294   8.293  64.958  1.00  0.00     0.013 A 
HETATM   11  C4  UNL     1      33.109   8.906  65.890  1.00  0.00     0.001 A 
HETATM   12  C3  UNL     1      33.464  10.230  65.773  1.00  0.00     0.007 A 
HETATM   13  C2  UNL     1      32.961  10.900  64.678  1.00  0.00    -0.061 A 
HETATM   14  C1  UNL     1      33.351  12.345  64.558  1.00  0.00     0.048 C 
HETATM   15  C19 UNL     1      32.147  10.313  63.734  1.00  0.00     0.019 A 
ENDBRANCH   7   9
ENDBRANCH   3   6
ENDBRANCH   1   2
BRANCH   1  16
HETATM   16  N3  UNL     1      29.065   8.392  57.559  1.00  0.00    -0.066 N 
ATOM     17  H33 UNL     1      29.978   7.966  57.399  1.00  0.00     0.275 HD
ATOM     18  H32 UNL     1      28.565   7.955  56.785  1.00  0.00     0.275 HD
ATOM     19  H31 UNL     1      29.091   9.408  57.480  1.00  0.00     0.275 HD
ENDBRANCH   1  16
BRANCH   1  20
HETATM   20  C10 UNL     1      28.530   6.543  59.075  1.00  0.00     0.083 C 
BRANCH  20  21
HETATM   21  C11 UNL     1      27.180   5.934  59.019  1.00  0.00    -0.028 A 
HETATM   22  C12 UNL     1      26.199   6.313  58.129  1.00  0.00     0.096 A 
HETATM   23  N4  UNL     1      25.136   5.538  58.391  1.00  0.00    -0.365 N 
HETATM   24  C13 UNL     1      25.385   4.684  59.400  1.00  0.00     0.042 A 
ATOM     25  H4  UNL     1      24.249   5.589  57.888  1.00  0.00     0.165 HD
HETATM   26  C14 UNL     1      24.609   3.705  60.017  1.00  0.00     0.030 A 
HETATM   27  C18 UNL     1      26.681   4.925  59.809  1.00  0.00    -0.002 A 
HETATM   28  C15 UNL     1      25.147   2.977  61.042  1.00  0.00     0.002 A 
HETATM   29  C16 UNL     1      26.443   3.192  61.478  1.00  0.00     0.001 A 
HETATM   30  C17 UNL     1      27.197   4.176  60.844  1.00  0.00     0.014 A 
ENDBRANCH  20  21
ENDBRANCH   1  20
TORSDOF 6
ENDMDL
