MODEL 7
REMARK VINA RESULT: -8.738301835      4.509      6.878
REMARK  6 active torsions:
REMARK  status: ('A' for Active; 'I' for Inactive)
REMARK    1  A    between atoms: C6_6  and  C7_7 
REMARK    2  A    between atoms: N1_8  and  N2_10 
REMARK       I    between atoms: N2_10  and  C8_12 
REMARK    3  A    between atoms: C8_12  and  C9_14 
REMARK    4  A    between atoms: C9_14  and  N3_15 
REMARK    5  A    between atoms: C9_14  and  C10_19 
REMARK    6  A    between atoms: C10_19  and  C11_20 
ROOT
HETATM    1  C9  UNL     1      28.252   5.666  59.670  1.00  0.00     0.280 C 
ENDROOT
BRANCH   1   2
HETATM    2  C8  UNL     1      28.848   6.890  60.229  1.00  0.00     0.267 C 
HETATM    3  N2  UNL     1      30.170   6.985  60.720  1.00  0.00    -0.269 N 
ATOM      4  H2  UNL     1      30.749   6.146  60.683  1.00  0.00     0.190 HD
HETATM    5  O1  UNL     1      28.156   7.935  60.285  1.00  0.00    -0.269 OA
BRANCH   3   6
HETATM    6  N1  UNL     1      30.738   8.142  61.249  1.00  0.00    -0.308 N 
HETATM    7  C7  UNL     1      30.850   8.395  62.501  1.00  0.00     0.118 C 
ATOM      8  H1  UNL     1      31.089   8.839  60.592  1.00  0.00     0.186 HD
BRANCH   7   9
HETATM    9  C6  UNL     1      31.459   9.632  62.953  1.00  0.00    -0.019 A 
HETATM   10  C5  UNL     1      32.543   9.597  63.792  1.00  0.00     0.013 A 
HETATM   11  C4  UNL     1      33.138  10.763  64.233  1.00  0.00     0.001 A 
HETATM   12  C3  UNL     1      32.667  11.998  63.850  1.00  0.00     0.007 A 
HETATM   13  C2  UNL     1      31.576  11.999  63.007  1.00  0.00    -0.061 A 
HETATM   14  C1  UNL     1      31.068  13.349  62.594  1.00  0.00     0.048 C 
HETATM   15  C19 UNL     1      30.965  10.850  62.552  1.00  0.00     0.019 A 
ENDBRANCH   7   9
ENDBRANCH   3   6
ENDBRANCH   1   2
BRANCH   1  16
HETATM   16  N3  UNL     1      28.874   5.382  58.398  1.00  0.00    -0.066 N 
ATOM     17  H33 UNL     1      28.921   6.204  57.795  1.00  0.00     0.275 HD
ATOM     18  H32 UNL     1      29.876   5.211  58.485  1.00  0.00     0.275 HD
ATOM     19  H31 UNL     1      28.384   4.604  57.958  1.00  0.00     0.275 HD
ENDBRANCH   1  16
BRANCH   1  20
HETATM   20  C10 UNL     1      28.475   4.554  60.670  1.00  0.00     0.083 C 
BRANCH  20  21
HETATM   21  C11 UNL     1      27.677   3.343  60.371  1.00  0.00    -0.028 A 
HETATM   22  C12 UNL     1      28.203   2.184  59.842  1.00  0.00     0.096 A 
HETATM   23  N4  UNL     1      27.176   1.329  59.718  1.00  0.00    -0.365 N 
HETATM   24  C13 UNL     1      26.023   1.880  60.139  1.00  0.00     0.042 A 
ATOM     25  H4  UNL     1      27.258   0.381  59.351  1.00  0.00     0.165 HD
HETATM   26  C14 UNL     1      24.718   1.395  60.206  1.00  0.00     0.030 A 
HETATM   27  C18 UNL     1      26.327   3.160  60.557  1.00  0.00    -0.002 A 
HETATM   28  C15 UNL     1      23.731   2.206  60.693  1.00  0.00     0.002 A 
HETATM   29  C16 UNL     1      24.000   3.495  61.121  1.00  0.00     0.001 A 
HETATM   30  C17 UNL     1      25.312   3.954  61.044  1.00  0.00     0.014 A 
ENDBRANCH  20  21
ENDBRANCH   1  20
TORSDOF 6
ENDMDL
