MODEL 8
REMARK VINA RESULT: -8.731703166      4.616      7.493
REMARK  6 active torsions:
REMARK  status: ('A' for Active; 'I' for Inactive)
REMARK    1  A    between atoms: C6_6  and  C7_7 
REMARK    2  A    between atoms: N1_8  and  N2_10 
REMARK       I    between atoms: N2_10  and  C8_12 
REMARK    3  A    between atoms: C8_12  and  C9_14 
REMARK    4  A    between atoms: C9_14  and  N3_15 
REMARK    5  A    between atoms: C9_14  and  C10_19 
REMARK    6  A    between atoms: C10_19  and  C11_20 
ROOT
HETATM    1  C9  UNL     1      28.441   5.720  59.332  1.00  0.00     0.280 C 
ENDROOT
BRANCH   1   2
HETATM    2  C8  UNL     1      28.982   6.848  60.106  1.00  0.00     0.267 C 
HETATM    3  N2  UNL     1      30.279   6.888  60.664  1.00  0.00    -0.269 N 
ATOM      4  H2  UNL     1      30.881   6.077  60.519  1.00  0.00     0.190 HD
HETATM    5  O1  UNL     1      28.260   7.857  60.299  1.00  0.00    -0.269 OA
BRANCH   3   6
HETATM    6  N1  UNL     1      30.795   7.955  61.397  1.00  0.00    -0.308 N 
HETATM    7  C7  UNL     1      30.985   7.946  62.666  1.00  0.00     0.118 C 
ATOM      8  H1  UNL     1      31.038   8.804  60.888  1.00  0.00     0.186 HD
BRANCH   7   9
HETATM    9  C6  UNL     1      31.528   9.112  63.338  1.00  0.00    -0.019 A 
HETATM   10  C5  UNL     1      31.378  10.357  62.782  1.00  0.00     0.013 A 
HETATM   11  C4  UNL     1      31.888  11.479  63.405  1.00  0.00     0.001 A 
HETATM   12  C3  UNL     1      32.562  11.392  64.602  1.00  0.00     0.007 A 
HETATM   13  C2  UNL     1      32.696  10.127  65.133  1.00  0.00    -0.061 A 
HETATM   14  C1  UNL     1      33.434  10.039  66.437  1.00  0.00     0.048 C 
HETATM   15  C19 UNL     1      32.197   8.992  64.532  1.00  0.00     0.019 A 
ENDBRANCH   7   9
ENDBRANCH   3   6
ENDBRANCH   1   2
BRANCH   1  16
HETATM   16  N3  UNL     1      29.502   5.146  58.538  1.00  0.00    -0.066 N 
ATOM     17  H33 UNL     1      29.981   4.386  59.021  1.00  0.00     0.275 HD
ATOM     18  H32 UNL     1      29.148   4.610  57.745  1.00  0.00     0.275 HD
ATOM     19  H31 UNL     1      30.139   5.888  58.253  1.00  0.00     0.275 HD
ENDBRANCH   1  16
BRANCH   1  20
HETATM   20  C10 UNL     1      27.870   4.725  60.317  1.00  0.00     0.083 C 
BRANCH  20  21
HETATM   21  C11 UNL     1      26.500   4.286  59.963  1.00  0.00    -0.028 A 
HETATM   22  C12 UNL     1      25.542   5.112  59.418  1.00  0.00     0.096 A 
HETATM   23  N4  UNL     1      24.449   4.354  59.243  1.00  0.00    -0.365 N 
HETATM   24  C13 UNL     1      24.658   3.088  59.647  1.00  0.00     0.042 A 
ATOM     25  H4  UNL     1      23.570   4.694  58.852  1.00  0.00     0.165 HD
HETATM   26  C14 UNL     1      23.841   1.959  59.663  1.00  0.00     0.030 A 
HETATM   27  C18 UNL     1      25.958   3.031  60.107  1.00  0.00    -0.002 A 
HETATM   28  C15 UNL     1      24.343   0.781  60.144  1.00  0.00     0.002 A 
HETATM   29  C16 UNL     1      25.641   0.687  60.614  1.00  0.00     0.001 A 
HETATM   30  C17 UNL     1      26.436   1.830  60.586  1.00  0.00     0.014 A 
ENDBRANCH  20  21
ENDBRANCH   1  20
TORSDOF 6
ENDMDL
