MODEL 3
REMARK VINA RESULT: -8.884847098      1.136      1.715
REMARK  6 active torsions:
REMARK  status: ('A' for Active; 'I' for Inactive)
REMARK    1  A    between atoms: C6_6  and  C7_7 
REMARK    2  A    between atoms: N1_8  and  N2_10 
REMARK       I    between atoms: N2_10  and  C8_12 
REMARK    3  A    between atoms: C8_12  and  C9_14 
REMARK    4  A    between atoms: C9_14  and  N3_15 
REMARK    5  A    between atoms: C9_14  and  C10_19 
REMARK    6  A    between atoms: C10_19  and  C11_20 
ROOT
HETATM    1  C9  UNL     1      28.774   5.159  59.227  1.00  0.00     0.280 C 
ENDROOT
BRANCH   1   2
HETATM    2  C8  UNL     1      27.862   6.264  58.895  1.00  0.00     0.267 C 
HETATM    3  N2  UNL     1      26.991   6.278  57.782  1.00  0.00    -0.269 N 
ATOM      4  H2  UNL     1      26.997   5.465  57.167  1.00  0.00     0.190 HD
HETATM    5  O1  UNL     1      27.835   7.277  59.637  1.00  0.00    -0.269 OA
BRANCH   3   6
HETATM    6  N1  UNL     1      26.125   7.322  57.466  1.00  0.00    -0.308 N 
HETATM    7  C7  UNL     1      26.406   8.291  56.672  1.00  0.00     0.118 C 
ATOM      8  H1  UNL     1      25.201   7.317  57.897  1.00  0.00     0.186 HD
BRANCH   7   9
HETATM    9  C6  UNL     1      25.433   9.333  56.407  1.00  0.00    -0.019 A 
HETATM   10  C5  UNL     1      24.418   9.113  55.510  1.00  0.00     0.013 A 
HETATM   11  C4  UNL     1      23.481  10.091  55.243  1.00  0.00     0.001 A 
HETATM   12  C3  UNL     1      23.529  11.319  55.863  1.00  0.00     0.007 A 
HETATM   13  C2  UNL     1      24.561  11.509  56.757  1.00  0.00    -0.061 A 
HETATM   14  C1  UNL     1      24.607  12.851  57.428  1.00  0.00     0.048 C 
HETATM   15  C19 UNL     1      25.508  10.549  57.042  1.00  0.00     0.019 A 
ENDBRANCH   7   9
ENDBRANCH   3   6
ENDBRANCH   1   2
BRANCH   1  16
HETATM   16  N3  UNL     1      30.116   5.679  59.346  1.00  0.00    -0.066 N 
ATOM     17  H33 UNL     1      30.142   6.580  59.825  1.00  0.00     0.275 HD
ATOM     18  H32 UNL     1      30.682   5.149  60.010  1.00  0.00     0.275 HD
ATOM     19  H31 UNL     1      30.538   5.718  58.419  1.00  0.00     0.275 HD
ENDBRANCH   1  16
BRANCH   1  20
HETATM   20  C10 UNL     1      28.290   4.543  60.521  1.00  0.00     0.083 C 
BRANCH  20  21
HETATM   21  C11 UNL     1      27.552   3.276  60.314  1.00  0.00    -0.028 A 
HETATM   22  C12 UNL     1      28.138   2.102  59.891  1.00  0.00     0.096 A 
HETATM   23  N4  UNL     1      27.152   1.194  59.826  1.00  0.00    -0.365 N 
HETATM   24  C13 UNL     1      25.969   1.724  60.184  1.00  0.00     0.042 A 
ATOM     25  H4  UNL     1      27.284   0.223  59.541  1.00  0.00     0.165 HD
HETATM   26  C14 UNL     1      24.686   1.187  60.273  1.00  0.00     0.030 A 
HETATM   27  C18 UNL     1      26.208   3.047  60.497  1.00  0.00    -0.002 A 
HETATM   28  C15 UNL     1      23.656   1.989  60.677  1.00  0.00     0.002 A 
HETATM   29  C16 UNL     1      23.859   3.320  60.999  1.00  0.00     0.001 A 
HETATM   30  C17 UNL     1      25.150   3.831  60.901  1.00  0.00     0.014 A 
ENDBRANCH  20  21
ENDBRANCH   1  20
TORSDOF 6
ENDMDL
