MODEL 11
REMARK VINA RESULT: -8.559819732      1.277      1.946
REMARK  6 active torsions:
REMARK  status: ('A' for Active; 'I' for Inactive)
REMARK    1  A    between atoms: C6_6  and  C7_7 
REMARK    2  A    between atoms: N1_8  and  N2_10 
REMARK       I    between atoms: N2_10  and  C8_12 
REMARK    3  A    between atoms: C8_12  and  C9_14 
REMARK    4  A    between atoms: C9_14  and  N3_15 
REMARK    5  A    between atoms: C9_14  and  C10_19 
REMARK    6  A    between atoms: C10_19  and  C11_20 
ROOT
HETATM    1  C9  UNL     1      27.799   4.255  59.535  1.00  0.00     0.280 C 
ENDROOT
BRANCH   1   2
HETATM    2  C8  UNL     1      27.198   5.488  59.000  1.00  0.00     0.267 C 
HETATM    3  N2  UNL     1      26.588   5.596  57.731  1.00  0.00    -0.269 N 
ATOM      4  H2  UNL     1      26.563   4.762  57.145  1.00  0.00     0.190 HD
HETATM    5  O1  UNL     1      27.215   6.529  59.702  1.00  0.00    -0.269 OA
BRANCH   3   6
HETATM    6  N1  UNL     1      26.016   6.761  57.223  1.00  0.00    -0.308 N 
HETATM    7  C7  UNL     1      25.207   6.805  56.228  1.00  0.00     0.118 C 
ATOM      8  H1  UNL     1      26.259   7.642  57.674  1.00  0.00     0.186 HD
BRANCH   7   9
HETATM    9  C6  UNL     1      24.665   8.072  55.773  1.00  0.00    -0.019 A 
HETATM   10  C5  UNL     1      25.511   9.084  55.395  1.00  0.00     0.013 A 
HETATM   11  C4  UNL     1      25.016  10.297  54.959  1.00  0.00     0.001 A 
HETATM   12  C3  UNL     1      23.662  10.536  54.888  1.00  0.00     0.007 A 
HETATM   13  C2  UNL     1      22.840   9.500  55.276  1.00  0.00    -0.061 A 
HETATM   14  C1  UNL     1      21.366   9.768  55.197  1.00  0.00     0.048 C 
HETATM   15  C19 UNL     1      23.309   8.280  55.714  1.00  0.00     0.019 A 
ENDBRANCH   7   9
ENDBRANCH   3   6
ENDBRANCH   1   2
BRANCH   1  16
HETATM   16  N3  UNL     1      29.236   4.406  59.554  1.00  0.00    -0.066 N 
ATOM     17  H33 UNL     1      29.528   5.370  59.389  1.00  0.00     0.275 HD
ATOM     18  H32 UNL     1      29.625   4.297  60.491  1.00  0.00     0.275 HD
ATOM     19  H31 UNL     1      29.645   3.756  58.884  1.00  0.00     0.275 HD
ENDBRANCH   1  16
BRANCH   1  20
HETATM   20  C10 UNL     1      27.235   4.039  60.921  1.00  0.00     0.083 C 
BRANCH  20  21
HETATM   21  C11 UNL     1      25.837   3.549  60.902  1.00  0.00    -0.028 A 
HETATM   22  C12 UNL     1      24.733   4.356  61.075  1.00  0.00     0.096 A 
HETATM   23  N4  UNL     1      23.664   3.550  60.993  1.00  0.00    -0.365 N 
HETATM   24  C13 UNL     1      24.025   2.272  60.778  1.00  0.00     0.042 A 
ATOM     25  H4  UNL     1      22.698   3.867  61.083  1.00  0.00     0.165 HD
HETATM   26  C14 UNL     1      23.287   1.100  60.624  1.00  0.00     0.030 A 
HETATM   27  C18 UNL     1      25.403   2.257  60.717  1.00  0.00    -0.002 A 
HETATM   28  C15 UNL     1      23.947  -0.079  60.411  1.00  0.00     0.002 A 
HETATM   29  C16 UNL     1      25.329  -0.131  60.345  1.00  0.00     0.001 A 
HETATM   30  C17 UNL     1      26.041   1.054  60.502  1.00  0.00     0.014 A 
ENDBRANCH  20  21
ENDBRANCH   1  20
TORSDOF 6
ENDMDL
