MODEL 3
REMARK VINA RESULT: -5.975741892      1.307      1.897
REMARK  1 active torsions:
REMARK  status: ('A' for Active; 'I' for Inactive)
REMARK    1  A    between atoms: C6_8  and  C7_9 
ROOT
HETATM    1  C7  UNL     1      -4.690 -23.248  -9.793  1.00  0.00     0.024 C 
HETATM    2  C8  UNL     1      -3.895 -24.266  -9.651  1.00  0.00    -0.011 C 
HETATM    3  C9  UNL     1      -2.638 -24.040  -8.931  1.00  0.00    -0.017 A 
HETATM    4  C10 UNL     1      -2.898 -23.341  -7.787  1.00  0.00     0.013 A 
HETATM    5  C11 UNL     1      -1.807 -23.032  -7.014  1.00  0.00     0.001 A 
HETATM    6  C12 UNL     1      -0.518 -23.428  -7.406  1.00  0.00     0.001 A 
HETATM    7  C13 UNL     1      -0.334 -24.140  -8.582  1.00  0.00     0.010 A 
HETATM    8  C14 UNL     1      -1.401 -24.472  -9.391  1.00  0.00    -0.023 A 
HETATM    9  C15 UNL     1      -1.049 -25.270 -10.597  1.00  0.00     0.215 C 
HETATM   10  O3  UNL     1      -1.978 -26.288 -10.922  1.00  0.00    -0.346 OA
HETATM   11  C16 UNL     1      -3.360 -26.408 -10.883  1.00  0.00     0.083 A 
HETATM   12  C17 UNL     1      -3.893 -27.523 -11.475  1.00  0.00     0.079 A 
HETATM   13  C18 UNL     1      -5.254 -27.735 -11.487  1.00  0.00     0.119 A 
HETATM   14  F1  UNL     1      -5.764 -28.861 -12.086  1.00  0.00    -0.206 F 
HETATM   15  C19 UNL     1      -6.124 -26.809 -10.890  1.00  0.00     0.043 A 
HETATM   16  C20 UNL     1      -5.623 -25.677 -10.285  1.00  0.00     0.018 A 
HETATM   17  C21 UNL     1      -4.269 -25.542 -10.318  1.00  0.00     0.009 A 
ENDROOT
BRANCH   1  18
HETATM   18  C6  UNL     1      -4.369 -21.932  -9.289  1.00  0.00    -0.033 A 
HETATM   19  C5  UNL     1      -4.833 -21.566  -8.039  1.00  0.00     0.014 A 
HETATM   20  C4  UNL     1      -4.649 -20.306  -7.519  1.00  0.00     0.040 A 
HETATM   21  C3  UNL     1      -3.982 -19.344  -8.240  1.00  0.00     0.096 A 
HETATM   22  O2  UNL     1      -3.796 -18.049  -7.703  1.00  0.00    -0.340 OA
HETATM   23  C23 UNL     1      -3.510 -19.684  -9.490  1.00  0.00     0.069 A 
HETATM   24  C2  UNL     1      -3.549 -16.935  -8.543  1.00  0.00     0.278 C 
HETATM   25  C1  UNL     1      -2.652 -17.383  -9.657  1.00  0.00     0.246 C 
HETATM   26  O1  UNL     1      -1.758 -16.621 -10.082  1.00  0.00    -0.271 OA
HETATM   27  N1  UNL     1      -2.822 -18.686 -10.233  1.00  0.00    -0.323 N 
ATOM     28  H1  UNL     1      -2.456 -18.894 -11.162  1.00  0.00     0.169 HD
HETATM   29  C22 UNL     1      -3.707 -20.952  -9.990  1.00  0.00     0.043 A 
ENDBRANCH   1  18
TORSDOF 1
ENDMDL
