MODEL 1
REMARK VINA RESULT: -10.267675909      0.000      0.000
REMARK  1 active torsions:
REMARK  status: ('A' for Active; 'I' for Inactive)
REMARK    1  A    between atoms: C6_8  and  C7_9 
ROOT
HETATM    1  C7  UNL     1      -5.045 -23.448 -10.373  1.00  0.00     0.024 C 
HETATM    2  C8  UNL     1      -4.503 -24.594 -10.095  1.00  0.00    -0.011 C 
HETATM    3  C9  UNL     1      -3.173 -24.575  -9.477  1.00  0.00    -0.017 A 
HETATM    4  C10 UNL     1      -3.167 -23.666  -8.459  1.00  0.00     0.013 A 
HETATM    5  C11 UNL     1      -1.975 -23.519  -7.796  1.00  0.00     0.001 A 
HETATM    6  C12 UNL     1      -0.851 -24.275  -8.169  1.00  0.00     0.001 A 
HETATM    7  C13 UNL     1      -0.936 -25.182  -9.214  1.00  0.00     0.010 A 
HETATM    8  C14 UNL     1      -2.114 -25.364  -9.910  1.00  0.00    -0.023 A 
HETATM    9  C15 UNL     1      -2.060 -26.400 -10.976  1.00  0.00     0.215 C 
HETATM   10  O3  UNL     1      -3.226 -27.196 -11.085  1.00  0.00    -0.346 OA
HETATM   11  C16 UNL     1      -4.589 -26.966 -10.967  1.00  0.00     0.083 A 
HETATM   12  C17 UNL     1      -5.416 -27.994 -11.339  1.00  0.00     0.079 A 
HETATM   13  C18 UNL     1      -6.785 -27.864 -11.257  1.00  0.00     0.119 A 
HETATM   14  F1  UNL     1      -7.592 -28.910 -11.635  1.00  0.00    -0.206 F 
HETATM   15  C19 UNL     1      -7.361 -26.673 -10.790  1.00  0.00     0.043 A 
HETATM   16  C20 UNL     1      -6.560 -25.619 -10.407  1.00  0.00     0.018 A 
HETATM   17  C21 UNL     1      -5.220 -25.827 -10.520  1.00  0.00     0.009 A 
ENDROOT
BRANCH   1  18
HETATM   18  C6  UNL     1      -4.384 -22.189 -10.114  1.00  0.00    -0.033 A 
HETATM   19  C5  UNL     1      -3.388 -21.770 -10.978  1.00  0.00     0.014 A 
HETATM   20  C4  UNL     1      -2.649 -20.631 -10.761  1.00  0.00     0.040 A 
HETATM   21  C3  UNL     1      -2.877 -19.851  -9.651  1.00  0.00     0.096 A 
HETATM   22  O2  UNL     1      -2.113 -18.682  -9.430  1.00  0.00    -0.340 OA
HETATM   23  C23 UNL     1      -3.863 -20.248  -8.774  1.00  0.00     0.069 A 
HETATM   24  C2  UNL     1      -1.983 -18.126  -8.134  1.00  0.00     0.278 C 
HETATM   25  C1  UNL     1      -3.301 -18.261  -7.434  1.00  0.00     0.246 C 
HETATM   26  O1  UNL     1      -3.707 -17.348  -6.685  1.00  0.00    -0.271 OA
HETATM   27  N1  UNL     1      -4.095 -19.441  -7.627  1.00  0.00    -0.323 N 
ATOM     28  H1  UNL     1      -4.815 -19.697  -6.952  1.00  0.00     0.169 HD
HETATM   29  C22 UNL     1      -4.591 -21.393  -9.013  1.00  0.00     0.043 A 
ENDBRANCH   1  18
TORSDOF 1
ENDMDL
