MODEL 2
REMARK VINA RESULT: -6.490097437      3.511      7.437
REMARK  1 active torsions:
REMARK  status: ('A' for Active; 'I' for Inactive)
REMARK    1  A    between atoms: C6_8  and  C7_9 
ROOT
HETATM    1  C7  UNL     1      -4.011 -21.586  -9.445  1.00  0.00     0.024 C 
HETATM    2  C8  UNL     1      -2.792 -21.247  -9.156  1.00  0.00    -0.011 C 
HETATM    3  C9  UNL     1      -1.805 -22.326  -9.038  1.00  0.00    -0.017 A 
HETATM    4  C10 UNL     1      -1.937 -23.170 -10.103  1.00  0.00     0.013 A 
HETATM    5  C11 UNL     1      -1.091 -24.250 -10.119  1.00  0.00     0.001 A 
HETATM    6  C12 UNL     1      -0.157 -24.441  -9.087  1.00  0.00     0.001 A 
HETATM    7  C13 UNL     1      -0.080 -23.536  -8.039  1.00  0.00     0.010 A 
HETATM    8  C14 UNL     1      -0.912 -22.437  -7.980  1.00  0.00    -0.023 A 
HETATM    9  C15 UNL     1      -0.683 -21.538  -6.817  1.00  0.00     0.215 C 
HETATM   10  O3  UNL     1      -0.793 -20.157  -7.108  1.00  0.00    -0.346 OA
HETATM   11  C16 UNL     1      -1.610 -19.384  -7.920  1.00  0.00     0.083 A 
HETATM   12  C17 UNL     1      -1.510 -18.025  -7.773  1.00  0.00     0.079 A 
HETATM   13  C18 UNL     1      -2.278 -17.173  -8.534  1.00  0.00     0.119 A 
HETATM   14  F1  UNL     1      -2.157 -15.814  -8.368  1.00  0.00    -0.206 F 
HETATM   15  C19 UNL     1      -3.182 -17.681  -9.480  1.00  0.00     0.043 A 
HETATM   16  C20 UNL     1      -3.309 -19.042  -9.656  1.00  0.00     0.018 A 
HETATM   17  C21 UNL     1      -2.516 -19.814  -8.864  1.00  0.00     0.009 A 
ENDROOT
BRANCH   1  18
HETATM   18  C6  UNL     1      -4.415 -22.962  -9.631  1.00  0.00    -0.033 A 
HETATM   19  C5  UNL     1      -4.296 -23.840  -8.569  1.00  0.00     0.014 A 
HETATM   20  C4  UNL     1      -4.574 -25.182  -8.681  1.00  0.00     0.040 A 
HETATM   21  C3  UNL     1      -4.989 -25.711  -9.881  1.00  0.00     0.096 A 
HETATM   22  O2  UNL     1      -5.272 -27.092  -9.993  1.00  0.00    -0.340 OA
HETATM   23  C23 UNL     1      -5.115 -24.856 -10.955  1.00  0.00     0.069 A 
HETATM   24  C2  UNL     1      -5.246 -27.746 -11.249  1.00  0.00     0.278 C 
HETATM   25  C1  UNL     1      -5.821 -26.813 -12.271  1.00  0.00     0.246 C 
HETATM   26  O1  UNL     1      -6.541 -27.260 -13.189  1.00  0.00    -0.271 OA
HETATM   27  N1  UNL     1      -5.542 -25.407 -12.193  1.00  0.00    -0.323 N 
ATOM     28  H1  UNL     1      -5.649 -24.811 -13.015  1.00  0.00     0.169 HD
HETATM   29  C22 UNL     1      -4.830 -23.516 -10.819  1.00  0.00     0.043 A 
ENDBRANCH   1  18
TORSDOF 1
ENDMDL
