MODEL 1
REMARK VINA RESULT: -9.821939882      0.000      0.000
REMARK  8 active torsions:
REMARK  status: ('A' for Active; 'I' for Inactive)
REMARK    1  A    between atoms: C2_2  and  N1_4 
REMARK    2  A    between atoms: C5_6  and  C6_7 
REMARK       I    between atoms: C6_7  and  N2_9 
REMARK    3  A    between atoms: N2_9  and  C7_11 
REMARK    4  A    between atoms: C14_21  and  N4_22 
REMARK    5  A    between atoms: N4_22  and  C15_24 
REMARK    6  A    between atoms: C18_29  and  C19_30 
REMARK    7  A    between atoms: N7_34  and  S1_35 
REMARK    8  A    between atoms: S1_35  and  C21_38 
ROOT
HETATM    1  N1  UNL     1     -51.951  -3.419 -25.443  1.00  0.00    -0.351 N 
HETATM    2  C4  UNL     1     -51.697  -4.699 -25.715  1.00  0.00     0.109 A 
HETATM    3  C5  UNL     1     -50.958  -5.295 -24.678  1.00  0.00     0.061 A 
HETATM    4  C12 UNL     1     -50.785  -4.299 -23.771  1.00  0.00     0.023 A 
HETATM    5  C13 UNL     1     -50.174  -4.186 -22.525  1.00  0.00     0.104 A 
HETATM    6  N3  UNL     1     -50.186  -3.039 -21.858  1.00  0.00    -0.351 N 
ATOM      7  H3  UNL     1     -49.720  -3.016 -20.950  1.00  0.00     0.166 HD
HETATM    8  C14 UNL     1     -50.779  -1.878 -22.300  1.00  0.00     0.108 A 
HETATM    9  C25 UNL     1     -51.392  -1.954 -23.517  1.00  0.00     0.079 A 
HETATM   10  C26 UNL     1     -51.393  -3.156 -24.245  1.00  0.00     0.051 A 
ENDROOT
BRANCH   8  11
HETATM   11  N4  UNL     1     -50.786  -0.754 -21.483  1.00  0.00    -0.329 N 
ATOM     12  H4  UNL     1     -49.847  -0.424 -21.260  1.00  0.00     0.169 HD
BRANCH  11  13
HETATM   13  C15 UNL     1     -51.781   0.024 -20.900  1.00  0.00     0.109 A 
HETATM   14  C16 UNL     1     -52.903   0.419 -21.548  1.00  0.00     0.065 A 
HETATM   15  C17 UNL     1     -53.900   1.140 -20.868  1.00  0.00     0.093 A 
HETATM   16  N5  UNL     1     -53.694   1.411 -19.589  1.00  0.00    -0.351 N 
HETATM   17  C18 UNL     1     -52.598   1.043 -18.906  1.00  0.00     0.119 A 
ATOM     18  H5  UNL     1     -54.414   1.933 -19.090  1.00  0.00     0.166 HD
HETATM   19  N8  UNL     1     -51.670   0.363 -19.567  1.00  0.00    -0.328 N 
ATOM     20  H8  UNL     1     -50.831   0.075 -19.063  1.00  0.00     0.169 HD
BRANCH  17  21
HETATM   21  C19 UNL     1     -52.455   1.384 -17.483  1.00  0.00     0.043 A 
HETATM   22  C20 UNL     1     -53.223   2.317 -16.820  1.00  0.00     0.125 A 
HETATM   23  N6  UNL     1     -52.805   2.346 -15.552  1.00  0.00    -0.295 N 
HETATM   24  N7  UNL     1     -51.822   1.500 -15.343  1.00  0.00    -0.192 N 
ATOM     25  H6  UNL     1     -53.201   2.952 -14.832  1.00  0.00     0.187 HD
HETATM   26  C24 UNL     1     -51.591   0.894 -16.537  1.00  0.00     0.145 A 
BRANCH  24  27
HETATM   27  S1  UNL     1     -51.025   1.251 -13.828  1.00  0.00     0.254 S 
HETATM   28  O3  UNL     1     -49.563   0.960 -14.027  1.00  0.00    -0.203 OA
HETATM   29  O4  UNL     1     -51.121   2.472 -12.958  1.00  0.00    -0.203 OA
BRANCH  27  30
HETATM   30  C21 UNL     1     -51.736  -0.166 -13.016  1.00  0.00     0.131 A 
HETATM   31  C22 UNL     1     -52.553  -1.142 -13.734  1.00  0.00     0.023 A 
HETATM   32  C23 UNL     1     -53.235  -0.097 -12.906  1.00  0.00     0.023 A 
ENDBRANCH  27  30
ENDBRANCH  24  27
ENDBRANCH  17  21
ENDBRANCH  11  13
ENDBRANCH   8  11
BRANCH   1  33
HETATM   33  C2  UNL     1     -52.694  -2.470 -26.292  1.00  0.00     0.081 C 
HETATM   34  C1  UNL     1     -51.941  -1.190 -26.485  1.00  0.00     0.032 C 
HETATM   35  C3  UNL     1     -53.102  -3.114 -27.600  1.00  0.00     0.032 C 
ENDBRANCH   1  33
BRANCH   3  36
HETATM   36  C6  UNL     1     -50.467  -6.654 -24.665  1.00  0.00     0.254 C 
HETATM   37  O1  UNL     1     -50.638  -7.385 -23.607  1.00  0.00    -0.268 OA
HETATM   38  N2  UNL     1     -49.796  -7.330 -25.705  1.00  0.00    -0.352 N 
ATOM     39  H2  UNL     1     -49.620  -6.847 -26.585  1.00  0.00     0.163 HD
BRANCH  38  40
HETATM   40  C7  UNL     1     -49.343  -8.724 -25.542  1.00  0.00     0.088 C 
HETATM   41  C8  UNL     1     -47.868  -8.848 -25.375  1.00  0.00     0.051 C 
HETATM   42  C9  UNL     1     -47.472 -10.196 -25.992  1.00  0.00     0.169 C 
HETATM   43  O2  UNL     1     -47.625 -10.206 -27.369  1.00  0.00    -0.391 OA
HETATM   44  C10 UNL     1     -48.681  -9.403 -27.805  1.00  0.00     0.169 C 
HETATM   45  C11 UNL     1     -49.801  -9.460 -26.809  1.00  0.00     0.051 C 
ENDBRANCH  38  40
ENDBRANCH   3  36
TORSDOF 8
ENDMDL
