MODEL 3
REMARK VINA RESULT: -9.716838969      6.086     13.471
REMARK  8 active torsions:
REMARK  status: ('A' for Active; 'I' for Inactive)
REMARK    1  A    between atoms: C2_2  and  N1_4 
REMARK    2  A    between atoms: C5_6  and  C6_7 
REMARK       I    between atoms: C6_7  and  N2_9 
REMARK    3  A    between atoms: N2_9  and  C7_11 
REMARK    4  A    between atoms: C14_21  and  N4_22 
REMARK    5  A    between atoms: N4_22  and  C15_24 
REMARK    6  A    between atoms: C18_29  and  C19_30 
REMARK    7  A    between atoms: N7_34  and  S1_35 
REMARK    8  A    between atoms: S1_35  and  C21_38 
ROOT
HETATM    1  N1  UNL     1     -49.433  -6.220 -21.872  1.00  0.00    -0.351 N 
HETATM    2  C4  UNL     1     -49.702  -4.931 -21.668  1.00  0.00     0.109 A 
HETATM    3  C5  UNL     1     -50.212  -4.334 -22.834  1.00  0.00     0.061 A 
HETATM    4  C12 UNL     1     -50.234  -5.339 -23.746  1.00  0.00     0.023 A 
HETATM    5  C13 UNL     1     -50.626  -5.464 -25.076  1.00  0.00     0.104 A 
HETATM    6  N3  UNL     1     -50.532  -6.625 -25.712  1.00  0.00    -0.351 N 
ATOM      7  H3  UNL     1     -50.833  -6.656 -26.686  1.00  0.00     0.166 HD
HETATM    8  C14 UNL     1     -50.058  -7.791 -25.154  1.00  0.00     0.108 A 
HETATM    9  C25 UNL     1     -49.668  -7.706 -23.849  1.00  0.00     0.079 A 
HETATM   10  C26 UNL     1     -49.756  -6.489 -23.153  1.00  0.00     0.051 A 
ENDROOT
BRANCH   8  11
HETATM   11  N4  UNL     1     -50.069  -8.965 -25.898  1.00  0.00    -0.329 N 
ATOM     12  H4  UNL     1     -50.913  -9.518 -25.746  1.00  0.00     0.169 HD
BRANCH  11  13
HETATM   13  C15 UNL     1     -49.194  -9.559 -26.800  1.00  0.00     0.109 A 
HETATM   14  C16 UNL     1     -48.454 -10.658 -26.518  1.00  0.00     0.065 A 
HETATM   15  C17 UNL     1     -47.649 -11.247 -27.509  1.00  0.00     0.093 A 
HETATM   16  N5  UNL     1     -47.647 -10.686 -28.708  1.00  0.00    -0.351 N 
HETATM   17  C18 UNL     1     -48.361  -9.596 -29.033  1.00  0.00     0.119 A 
ATOM     18  H5  UNL     1     -47.065 -11.108 -29.431  1.00  0.00     0.166 HD
HETATM   19  N8  UNL     1     -49.114  -9.057 -28.083  1.00  0.00    -0.328 N 
ATOM     20  H8  UNL     1     -49.663  -8.228 -28.314  1.00  0.00     0.169 HD
BRANCH  17  21
HETATM   21  C19 UNL     1     -48.300  -9.042 -30.394  1.00  0.00     0.043 A 
HETATM   22  C20 UNL     1     -48.476  -9.776 -31.548  1.00  0.00     0.125 A 
HETATM   23  N6  UNL     1     -48.354  -8.934 -32.577  1.00  0.00    -0.295 N 
HETATM   24  N7  UNL     1     -48.113  -7.706 -32.175  1.00  0.00    -0.192 N 
ATOM     25  H6  UNL     1     -48.438  -9.209 -33.555  1.00  0.00     0.187 HD
HETATM   26  C24 UNL     1     -48.075  -7.757 -30.819  1.00  0.00     0.145 A 
BRANCH  24  27
HETATM   27  S1  UNL     1     -47.900  -6.340 -33.216  1.00  0.00     0.254 S 
HETATM   28  O3  UNL     1     -48.631  -6.530 -34.516  1.00  0.00    -0.203 OA
HETATM   29  O4  UNL     1     -48.436  -5.088 -32.582  1.00  0.00    -0.203 OA
BRANCH  27  30
HETATM   30  C21 UNL     1     -46.171  -6.164 -33.607  1.00  0.00     0.131 A 
HETATM   31  C22 UNL     1     -45.154  -7.051 -33.044  1.00  0.00     0.023 A 
HETATM   32  C23 UNL     1     -45.344  -5.692 -32.443  1.00  0.00     0.023 A 
ENDBRANCH  27  30
ENDBRANCH  24  27
ENDBRANCH  17  21
ENDBRANCH  11  13
ENDBRANCH   8  11
BRANCH   1  33
HETATM   33  C2  UNL     1     -48.883  -7.171 -20.889  1.00  0.00     0.081 C 
HETATM   34  C1  UNL     1     -47.970  -6.494 -19.914  1.00  0.00     0.032 C 
HETATM   35  C3  UNL     1     -49.988  -7.955 -20.213  1.00  0.00     0.032 C 
ENDBRANCH   1  33
BRANCH   3  36
HETATM   36  C6  UNL     1     -50.561  -2.939 -22.984  1.00  0.00     0.254 C 
HETATM   37  O1  UNL     1     -49.812  -2.032 -22.436  1.00  0.00    -0.268 OA
HETATM   38  N2  UNL     1     -51.660  -2.403 -23.685  1.00  0.00    -0.352 N 
ATOM     39  H2  UNL     1     -52.306  -3.032 -24.161  1.00  0.00     0.163 HD
BRANCH  38  40
HETATM   40  C7  UNL     1     -51.894  -0.948 -23.743  1.00  0.00     0.088 C 
HETATM   41  C8  UNL     1     -52.977  -0.489 -22.830  1.00  0.00     0.051 C 
HETATM   42  C9  UNL     1     -53.630   0.726 -23.504  1.00  0.00     0.169 C 
HETATM   43  O2  UNL     1     -54.324   0.376 -24.651  1.00  0.00    -0.391 OA
HETATM   44  C10 UNL     1     -53.754  -0.706 -25.325  1.00  0.00     0.169 C 
HETATM   45  C11 UNL     1     -52.261  -0.644 -25.203  1.00  0.00     0.051 C 
ENDBRANCH  38  40
ENDBRANCH   3  36
TORSDOF 8
ENDMDL
