MODEL 2
REMARK VINA RESULT: -9.801707232      1.041      1.338
REMARK  8 active torsions:
REMARK  status: ('A' for Active; 'I' for Inactive)
REMARK    1  A    between atoms: C2_2  and  N1_4 
REMARK    2  A    between atoms: C5_6  and  C6_7 
REMARK       I    between atoms: C6_7  and  N2_9 
REMARK    3  A    between atoms: N2_9  and  C7_11 
REMARK    4  A    between atoms: C14_21  and  N4_22 
REMARK    5  A    between atoms: N4_22  and  C15_24 
REMARK    6  A    between atoms: C18_29  and  C19_30 
REMARK    7  A    between atoms: N7_34  and  S1_35 
REMARK    8  A    between atoms: S1_35  and  C21_38 
ROOT
HETATM    1  N1  UNL     1     -52.013  -3.343 -25.423  1.00  0.00    -0.351 N 
HETATM    2  C4  UNL     1     -51.761  -4.626 -25.681  1.00  0.00     0.109 A 
HETATM    3  C5  UNL     1     -51.033  -5.216 -24.632  1.00  0.00     0.061 A 
HETATM    4  C12 UNL     1     -50.864  -4.213 -23.733  1.00  0.00     0.023 A 
HETATM    5  C13 UNL     1     -50.264  -4.092 -22.483  1.00  0.00     0.104 A 
HETATM    6  N3  UNL     1     -50.277  -2.939 -21.826  1.00  0.00    -0.351 N 
ATOM      7  H3  UNL     1     -49.820  -2.909 -20.914  1.00  0.00     0.166 HD
HETATM    8  C14 UNL     1     -50.862  -1.780 -22.282  1.00  0.00     0.108 A 
HETATM    9  C25 UNL     1     -51.465  -1.863 -23.504  1.00  0.00     0.079 A 
HETATM   10  C26 UNL     1     -51.465  -3.072 -24.222  1.00  0.00     0.051 A 
ENDROOT
BRANCH   8  11
HETATM   11  N4  UNL     1     -50.873  -0.648 -21.476  1.00  0.00    -0.329 N 
ATOM     12  H4  UNL     1     -49.934  -0.330 -21.233  1.00  0.00     0.169 HD
BRANCH  11  13
HETATM   13  C15 UNL     1     -51.869   0.149 -20.923  1.00  0.00     0.109 A 
HETATM   14  C16 UNL     1     -52.930   0.618 -21.622  1.00  0.00     0.065 A 
HETATM   15  C17 UNL     1     -53.938   1.355 -20.975  1.00  0.00     0.093 A 
HETATM   16  N5  UNL     1     -53.803   1.566 -19.675  1.00  0.00    -0.351 N 
HETATM   17  C18 UNL     1     -52.768   1.123 -18.942  1.00  0.00     0.119 A 
ATOM     18  H5  UNL     1     -54.530   2.099 -19.200  1.00  0.00     0.166 HD
HETATM   19  N8  UNL     1     -51.829   0.430 -19.572  1.00  0.00    -0.328 N 
ATOM     20  H8  UNL     1     -51.036   0.087 -19.030  1.00  0.00     0.169 HD
BRANCH  17  21
HETATM   21  C19 UNL     1     -52.701   1.402 -17.500  1.00  0.00     0.043 A 
HETATM   22  C20 UNL     1     -53.204   2.535 -16.896  1.00  0.00     0.125 A 
HETATM   23  N6  UNL     1     -52.961   2.429 -15.587  1.00  0.00    -0.295 N 
HETATM   24  N7  UNL     1     -52.338   1.309 -15.297  1.00  0.00    -0.192 N 
ATOM     25  H6  UNL     1     -53.227   3.131 -14.897  1.00  0.00     0.187 HD
HETATM   26  C24 UNL     1     -52.167   0.659 -16.478  1.00  0.00     0.145 A 
BRANCH  24  27
HETATM   27  S1  UNL     1     -51.859   0.816 -13.709  1.00  0.00     0.254 S 
HETATM   28  O3  UNL     1     -52.700   1.486 -12.658  1.00  0.00    -0.203 OA
HETATM   29  O4  UNL     1     -52.022  -0.666 -13.530  1.00  0.00    -0.203 OA
BRANCH  27  30
HETATM   30  C21 UNL     1     -50.172   1.310 -13.424  1.00  0.00     0.131 A 
HETATM   31  C22 UNL     1     -49.419   2.097 -14.400  1.00  0.00     0.023 A 
HETATM   32  C23 UNL     1     -49.190   0.618 -14.330  1.00  0.00     0.023 A 
ENDBRANCH  27  30
ENDBRANCH  24  27
ENDBRANCH  17  21
ENDBRANCH  11  13
ENDBRANCH   8  11
BRANCH   1  33
HETATM   33  C2  UNL     1     -52.745  -2.399 -26.286  1.00  0.00     0.081 C 
HETATM   34  C1  UNL     1     -51.974  -1.135 -26.506  1.00  0.00     0.032 C 
HETATM   35  C3  UNL     1     -53.170  -3.061 -27.580  1.00  0.00     0.032 C 
ENDBRANCH   1  33
BRANCH   3  36
HETATM   36  C6  UNL     1     -50.548  -6.576 -24.604  1.00  0.00     0.254 C 
HETATM   37  O1  UNL     1     -50.603  -7.251 -23.496  1.00  0.00    -0.268 OA
HETATM   38  N2  UNL     1     -49.997  -7.311 -25.675  1.00  0.00    -0.352 N 
ATOM     39  H2  UNL     1     -49.918  -6.874 -26.593  1.00  0.00     0.163 HD
BRANCH  38  40
HETATM   40  C7  UNL     1     -49.532  -8.698 -25.491  1.00  0.00     0.088 C 
HETATM   41  C8  UNL     1     -48.063  -8.803 -25.274  1.00  0.00     0.051 C 
HETATM   42  C9  UNL     1     -47.629 -10.148 -25.872  1.00  0.00     0.169 C 
HETATM   43  O2  UNL     1     -47.736 -10.165 -27.253  1.00  0.00    -0.391 OA
HETATM   44  C10 UNL     1     -48.786  -9.377 -27.728  1.00  0.00     0.169 C 
HETATM   45  C11 UNL     1     -49.938  -9.445 -26.770  1.00  0.00     0.051 C 
ENDBRANCH  38  40
ENDBRANCH   3  36
TORSDOF 8
ENDMDL
