MODEL 1
REMARK VINA RESULT: -9.858297163      0.000      0.000
REMARK  4 active torsions:
REMARK  status: ('A' for Active; 'I' for Inactive)
REMARK       I    between atoms: N1_2  and  C2_4 
REMARK    1  A    between atoms: C2_4  and  C3_6 
REMARK    2  A    between atoms: C12_18  and  N3_19 
REMARK       I    between atoms: N3_19  and  C13_21 
REMARK    3  A    between atoms: C13_21  and  C14_23 
REMARK    4  A    between atoms: C33_46  and  O4_47 
ROOT
HETATM    1  C3  UNL     1      81.183 -44.840 -44.685  1.00  0.00     0.179 C 
HETATM    2  C4  UNL     1      81.364 -45.277 -46.102  1.00  0.00     0.073 C 
HETATM    3  C5  UNL     1      82.438 -44.572 -46.868  1.00  0.00    -0.056 A 
HETATM    4  C6  UNL     1      82.194 -43.581 -47.787  1.00  0.00     0.009 A 
HETATM    5  C7  UNL     1      83.246 -42.925 -48.502  1.00  0.00     0.030 A 
HETATM    6  C8  UNL     1      84.582 -43.211 -48.351  1.00  0.00     0.034 A 
HETATM    7  C9  UNL     1      84.796 -44.211 -47.417  1.00  0.00     0.030 A 
HETATM    8  C10 UNL     1      83.766 -44.879 -46.692  1.00  0.00     0.009 A 
HETATM    9  N2  UNL     1      85.628 -42.530 -49.083  1.00  0.00    -0.325 N 
ATOM     10  H2  UNL     1      85.880 -42.897 -50.001  1.00  0.00     0.169 HD
HETATM   11  C11 UNL     1      86.339 -41.371 -48.609  1.00  0.00     0.245 C 
HETATM   12  O2  UNL     1      87.607 -41.562 -48.450  1.00  0.00    -0.271 OA
HETATM   13  C12 UNL     1      85.896 -40.019 -48.273  1.00  0.00     0.181 C 
HETATM   14  C18 UNL     1      85.927 -39.753 -46.779  1.00  0.00     0.075 C 
HETATM   15  C19 UNL     1      84.588 -39.346 -46.222  1.00  0.00    -0.033 A 
HETATM   16  C20 UNL     1      83.462 -40.105 -46.013  1.00  0.00     0.021 A 
HETATM   17  C21 UNL     1      82.338 -39.468 -45.508  1.00  0.00    -0.025 A 
HETATM   18  C22 UNL     1      82.406 -38.068 -45.230  1.00  0.00     0.014 A 
HETATM   19  C23 UNL     1      83.511 -37.300 -45.428  1.00  0.00     0.025 A 
HETATM   20  C24 UNL     1      84.598 -37.963 -45.929  1.00  0.00     0.040 A 
HETATM   21 CL1  UNL     1      86.037 -36.955 -46.193  1.00  0.00    -0.084 Cl
HETATM   22  C25 UNL     1      80.963 -39.994 -45.183  1.00  0.00    -0.025 A 
HETATM   23  C26 UNL     1      80.516 -39.540 -43.900  1.00  0.00     0.012 A 
HETATM   24  C27 UNL     1      79.336 -39.850 -43.328  1.00  0.00     0.001 A 
HETATM   25  C28 UNL     1      78.523 -40.671 -44.077  1.00  0.00     0.007 A 
HETATM   26  C29 UNL     1      78.884 -41.161 -45.349  1.00  0.00    -0.057 A 
HETATM   27  C30 UNL     1      80.105 -40.815 -45.894  1.00  0.00     0.019 A 
HETATM   28  C31 UNL     1      77.800 -42.028 -45.871  1.00  0.00     0.046 C 
HETATM   29  C32 UNL     1      78.191 -43.496 -46.036  1.00  0.00     0.088 C 
HETATM   30  C33 UNL     1      78.716 -44.062 -44.770  1.00  0.00     0.112 C 
HETATM   31  N6  UNL     1      80.045 -44.099 -44.321  1.00  0.00    -0.361 N 
ATOM     32  H6  UNL     1      80.225 -43.443 -43.562  1.00  0.00     0.162 HD
ENDROOT
BRANCH  13  33
HETATM   33  N3  UNL     1      84.665 -39.602 -48.889  1.00  0.00    -0.342 N 
HETATM   34  C13 UNL     1      84.404 -38.329 -49.454  1.00  0.00     0.270 C 
HETATM   35  O3  UNL     1      85.334 -37.454 -49.423  1.00  0.00    -0.266 OA
ATOM     36  H3  UNL     1      83.909 -40.287 -48.922  1.00  0.00     0.163 HD
BRANCH  34  37
HETATM   37  C14 UNL     1      83.125 -37.983 -50.064  1.00  0.00     0.119 A 
HETATM   38  C15 UNL     1      81.885 -38.036 -49.463  1.00  0.00     0.055 A 
HETATM   39  C16 UNL     1      80.915 -37.629 -50.377  1.00  0.00     0.110 A 
HETATM   40  N4  UNL     1      81.619 -37.342 -51.509  1.00  0.00    -0.309 N 
HETATM   41  N5  UNL     1      82.906 -37.558 -51.298  1.00  0.00    -0.292 N 
ATOM     42  H4  UNL     1      81.214 -37.012 -52.385  1.00  0.00     0.186 HD
HETATM   43  C17 UNL     1      83.938 -37.355 -52.286  1.00  0.00     0.178 C 
ENDBRANCH  34  37
ENDBRANCH  13  33
BRANCH   1  44
HETATM   44  C2  UNL     1      81.236 -46.088 -43.846  1.00  0.00     0.240 C 
HETATM   45  N1  UNL     1      81.398 -47.384 -44.341  1.00  0.00    -0.364 N 
HETATM   46  C1  UNL     1      81.436 -48.520 -43.430  1.00  0.00     0.149 C 
ATOM     47  H1  UNL     1      81.490 -47.536 -45.346  1.00  0.00     0.161 HD
HETATM   48  O1  UNL     1      81.125 -45.949 -42.585  1.00  0.00    -0.271 OA
ENDBRANCH   1  44
BRANCH  30  49
HETATM   49  O4  UNL     1      77.773 -44.567 -44.031  1.00  0.00    -0.350 OA
ATOM     50  H4  UNL     1      77.911 -44.393 -43.107  1.00  0.00     0.219 HD
ENDBRANCH  30  49
TORSDOF 4
ENDMDL
