MODEL 3
REMARK VINA RESULT: -8.998215243      3.726      7.149
REMARK  4 active torsions:
REMARK  status: ('A' for Active; 'I' for Inactive)
REMARK       I    between atoms: N1_2  and  C2_4 
REMARK    1  A    between atoms: C2_4  and  C3_6 
REMARK    2  A    between atoms: C12_18  and  N3_19 
REMARK       I    between atoms: N3_19  and  C13_21 
REMARK    3  A    between atoms: C13_21  and  C14_23 
REMARK    4  A    between atoms: C33_46  and  O4_47 
ROOT
HETATM    1  C3  UNL     1      80.611 -37.510 -48.774  1.00  0.00     0.179 C 
HETATM    2  C4  UNL     1      81.865 -36.717 -48.955  1.00  0.00     0.073 C 
HETATM    3  C5  UNL     1      83.047 -37.477 -49.468  1.00  0.00    -0.056 A 
HETATM    4  C6  UNL     1      84.086 -37.898 -48.675  1.00  0.00     0.009 A 
HETATM    5  C7  UNL     1      85.202 -38.624 -49.199  1.00  0.00     0.030 A 
HETATM    6  C8  UNL     1      85.351 -38.969 -50.521  1.00  0.00     0.034 A 
HETATM    7  C9  UNL     1      84.288 -38.533 -51.294  1.00  0.00     0.030 A 
HETATM    8  C10 UNL     1      83.165 -37.809 -50.796  1.00  0.00     0.009 A 
HETATM    9  N2  UNL     1      86.488 -39.709 -51.025  1.00  0.00    -0.325 N 
ATOM     10  H2  UNL     1      87.315 -39.178 -51.299  1.00  0.00     0.169 HD
HETATM   11  C11 UNL     1      86.536 -41.140 -51.169  1.00  0.00     0.245 C 
HETATM   12  O2  UNL     1      86.684 -41.541 -52.389  1.00  0.00    -0.271 OA
HETATM   13  C12 UNL     1      86.448 -42.227 -50.195  1.00  0.00     0.181 C 
HETATM   14  C18 UNL     1      85.137 -42.987 -50.289  1.00  0.00     0.075 C 
HETATM   15  C19 UNL     1      84.360 -42.991 -48.999  1.00  0.00    -0.033 A 
HETATM   16  C20 UNL     1      83.668 -41.971 -48.393  1.00  0.00     0.021 A 
HETATM   17  C21 UNL     1      83.057 -42.237 -47.177  1.00  0.00    -0.025 A 
HETATM   18  C22 UNL     1      83.173 -43.548 -46.621  1.00  0.00     0.014 A 
HETATM   19  C23 UNL     1      83.852 -44.571 -47.205  1.00  0.00     0.025 A 
HETATM   20  C24 UNL     1      84.443 -44.269 -48.401  1.00  0.00     0.040 A 
HETATM   21 CL1  UNL     1      85.336 -45.606 -49.158  1.00  0.00    -0.084 Cl
HETATM   22  C25 UNL     1      82.248 -41.355 -46.260  1.00  0.00    -0.025 A 
HETATM   23  C26 UNL     1      81.051 -42.009 -45.822  1.00  0.00     0.012 A 
HETATM   24  C27 UNL     1      80.121 -41.475 -45.006  1.00  0.00     0.001 A 
HETATM   25  C28 UNL     1      80.386 -40.192 -44.581  1.00  0.00     0.007 A 
HETATM   26  C29 UNL     1      81.541 -39.477 -44.963  1.00  0.00    -0.057 A 
HETATM   27  C30 UNL     1      82.466 -40.068 -45.800  1.00  0.00     0.019 A 
HETATM   28  C31 UNL     1      81.510 -38.127 -44.350  1.00  0.00     0.046 C 
HETATM   29  C32 UNL     1      81.396 -36.981 -45.355  1.00  0.00     0.088 C 
HETATM   30  C33 UNL     1      80.220 -37.154 -46.241  1.00  0.00     0.112 C 
HETATM   31  N6  UNL     1      80.153 -37.810 -47.479  1.00  0.00    -0.361 N 
ATOM     32  H6  UNL     1      79.665 -38.704 -47.428  1.00  0.00     0.162 HD
ENDROOT
BRANCH  13  33
HETATM   33  N3  UNL     1      86.792 -41.872 -48.843  1.00  0.00    -0.342 N 
HETATM   34  C13 UNL     1      87.980 -42.238 -48.161  1.00  0.00     0.270 C 
HETATM   35  O3  UNL     1      88.837 -42.951 -48.786  1.00  0.00    -0.266 OA
ATOM     36  H3  UNL     1      86.118 -41.306 -48.328  1.00  0.00     0.163 HD
BRANCH  34  37
HETATM   37  C14 UNL     1      88.256 -41.836 -46.787  1.00  0.00     0.119 A 
HETATM   38  C15 UNL     1      88.210 -42.642 -45.668  1.00  0.00     0.055 A 
HETATM   39  C16 UNL     1      88.537 -41.886 -44.545  1.00  0.00     0.110 A 
HETATM   40  N4  UNL     1      88.770 -40.636 -45.038  1.00  0.00    -0.309 N 
HETATM   41  N5  UNL     1      88.599 -40.636 -46.349  1.00  0.00    -0.292 N 
ATOM     42  H4  UNL     1      89.036 -39.824 -44.480  1.00  0.00     0.186 HD
HETATM   43  C17 UNL     1      88.766 -39.477 -47.191  1.00  0.00     0.178 C 
ENDBRANCH  34  37
ENDBRANCH  13  33
BRANCH   1  44
HETATM   44  C2  UNL     1      79.530 -36.767 -49.509  1.00  0.00     0.240 C 
HETATM   45  N1  UNL     1      79.076 -35.484 -49.192  1.00  0.00    -0.364 N 
HETATM   46  C1  UNL     1      78.019 -34.862 -49.980  1.00  0.00     0.149 C 
ATOM     47  H1  UNL     1      79.486 -34.981 -48.405  1.00  0.00     0.161 HD
HETATM   48  O1  UNL     1      78.987 -37.356 -50.500  1.00  0.00    -0.271 OA
ENDBRANCH   1  44
BRANCH  30  49
HETATM   49  O4  UNL     1      79.149 -36.607 -45.745  1.00  0.00    -0.350 OA
ATOM     50  H4  UNL     1      78.356 -36.953 -46.137  1.00  0.00     0.219 HD
ENDBRANCH  30  49
TORSDOF 4
ENDMDL
