MODEL 2
REMARK VINA RESULT: -9.419632734     13.817     18.670
REMARK  4 active torsions:
REMARK  status: ('A' for Active; 'I' for Inactive)
REMARK       I    between atoms: N1_2  and  C2_4 
REMARK    1  A    between atoms: C2_4  and  C3_6 
REMARK    2  A    between atoms: C12_18  and  N3_19 
REMARK       I    between atoms: N3_19  and  C13_21 
REMARK    3  A    between atoms: C13_21  and  C14_23 
REMARK    4  A    between atoms: C33_46  and  O4_47 
ROOT
HETATM    1  C3  UNL     1      67.651 -44.511 -42.567  1.00  0.00     0.179 C 
HETATM    2  C4  UNL     1      66.261 -45.059 -42.545  1.00  0.00     0.073 C 
HETATM    3  C5  UNL     1      66.074 -46.332 -41.783  1.00  0.00    -0.056 A 
HETATM    4  C6  UNL     1      65.957 -47.565 -42.376  1.00  0.00     0.009 A 
HETATM    5  C7  UNL     1      65.779 -48.765 -41.616  1.00  0.00     0.030 A 
HETATM    6  C8  UNL     1      65.709 -48.810 -40.245  1.00  0.00     0.034 A 
HETATM    7  C9  UNL     1      65.833 -47.554 -39.676  1.00  0.00     0.030 A 
HETATM    8  C10 UNL     1      66.010 -46.345 -40.411  1.00  0.00     0.009 A 
HETATM    9  N2  UNL     1      65.534 -50.038 -39.498  1.00  0.00    -0.325 N 
ATOM     10  H2  UNL     1      64.581 -50.363 -39.338  1.00  0.00     0.169 HD
HETATM   11  C11 UNL     1      66.610 -50.833 -38.967  1.00  0.00     0.245 C 
HETATM   12  O2  UNL     1      66.603 -50.930 -37.677  1.00  0.00    -0.271 OA
HETATM   13  C12 UNL     1      67.708 -51.553 -39.609  1.00  0.00     0.181 C 
HETATM   14  C18 UNL     1      69.052 -50.887 -39.378  1.00  0.00     0.075 C 
HETATM   15  C19 UNL     1      69.757 -50.516 -40.656  1.00  0.00    -0.033 A 
HETATM   16  C20 UNL     1      69.472 -49.516 -41.553  1.00  0.00     0.021 A 
HETATM   17  C21 UNL     1      70.273 -49.409 -42.679  1.00  0.00    -0.025 A 
HETATM   18  C22 UNL     1      71.349 -50.333 -42.849  1.00  0.00     0.014 A 
HETATM   19  C23 UNL     1      71.649 -51.330 -41.973  1.00  0.00     0.025 A 
HETATM   20  C24 UNL     1      70.835 -51.405 -40.876  1.00  0.00     0.040 A 
HETATM   21 CL1  UNL     1      71.226 -52.711 -39.737  1.00  0.00    -0.084 Cl
HETATM   22  C25 UNL     1      70.225 -48.452 -43.844  1.00  0.00    -0.025 A 
HETATM   23  C26 UNL     1      71.522 -47.927 -44.147  1.00  0.00     0.012 A 
HETATM   24  C27 UNL     1      71.799 -47.042 -45.125  1.00  0.00     0.001 A 
HETATM   25  C28 UNL     1      70.714 -46.639 -45.871  1.00  0.00     0.007 A 
HETATM   26  C29 UNL     1      69.404 -47.107 -45.641  1.00  0.00    -0.057 A 
HETATM   27  C30 UNL     1      69.170 -48.015 -44.627  1.00  0.00     0.019 A 
HETATM   28  C31 UNL     1      68.474 -46.464 -46.600  1.00  0.00     0.046 C 
HETATM   29  C32 UNL     1      67.440 -45.542 -45.954  1.00  0.00     0.088 C 
HETATM   30  C33 UNL     1      68.089 -44.505 -45.117  1.00  0.00     0.112 C 
HETATM   31  N6  UNL     1      68.406 -44.563 -43.752  1.00  0.00    -0.361 N 
ATOM     32  H6  UNL     1      69.406 -44.667 -43.581  1.00  0.00     0.162 HD
ENDROOT
BRANCH  13  33
HETATM   33  N3  UNL     1      67.490 -51.908 -40.986  1.00  0.00    -0.342 N 
HETATM   34  C13 UNL     1      67.170 -53.200 -41.474  1.00  0.00     0.270 C 
HETATM   35  O3  UNL     1      67.063 -54.153 -40.630  1.00  0.00    -0.266 OA
ATOM     36  H3  UNL     1      67.574 -51.161 -41.675  1.00  0.00     0.163 HD
BRANCH  34  37
HETATM   37  C14 UNL     1      66.962 -53.480 -42.890  1.00  0.00     0.119 A 
HETATM   38  C15 UNL     1      67.754 -54.267 -43.699  1.00  0.00     0.055 A 
HETATM   39  C16 UNL     1      67.222 -54.283 -44.986  1.00  0.00     0.110 A 
HETATM   40  N4  UNL     1      66.114 -53.493 -44.901  1.00  0.00    -0.309 N 
HETATM   41  N5  UNL     1      65.987 -53.037 -43.667  1.00  0.00    -0.292 N 
ATOM     42  H4  UNL     1      65.480 -53.284 -45.673  1.00  0.00     0.186 HD
HETATM   43  C17 UNL     1      64.921 -52.171 -43.225  1.00  0.00     0.178 C 
ENDBRANCH  34  37
ENDBRANCH  13  33
BRANCH   1  44
HETATM   44  C2  UNL     1      67.550 -43.079 -42.120  1.00  0.00     0.240 C 
HETATM   45  N1  UNL     1      66.747 -42.616 -41.075  1.00  0.00    -0.364 N 
HETATM   46  C1  UNL     1      66.731 -41.201 -40.729  1.00  0.00     0.149 C 
ATOM     47  H1  UNL     1      66.168 -43.272 -40.551  1.00  0.00     0.161 HD
HETATM   48  O1  UNL     1      68.255 -42.221 -42.745  1.00  0.00    -0.271 OA
ENDBRANCH   1  44
BRANCH  30  49
HETATM   49  O4  UNL     1      68.375 -43.435 -45.798  1.00  0.00    -0.350 OA
ATOM     50  H4  UNL     1      67.962 -43.433 -46.654  1.00  0.00     0.219 HD
ENDBRANCH  30  49
TORSDOF 4
ENDMDL
