MODEL 1
REMARK VINA RESULT: -9.304181995      0.000      0.000
REMARK  14 active torsions:
REMARK  status: ('A' for Active; 'I' for Inactive)
REMARK    1  A    between atoms: N1_2  and  C3_4 
REMARK    2  A    between atoms: C3_4  and  C4_5 
REMARK    3  A    between atoms: C4_5  and  C5_6 
REMARK    4  A    between atoms: C5_6  and  N2_7 
REMARK    5  A    between atoms: N2_7  and  C6_8 
REMARK    6  A    between atoms: N2_7  and  C10_18 
REMARK    7  A    between atoms: C6_8  and  C7_9 
REMARK    8  A    between atoms: C7_9  and  C8_10 
REMARK    9  A    between atoms: C8_10  and  N3_11 
REMARK   10  A    between atoms: C8_10  and  C9_15 
REMARK   11  A    between atoms: C10_18  and  C11_19 
REMARK   12  A    between atoms: C12_21  and  N4_22 
REMARK   13  A    between atoms: C18_35  and  O4_36 
REMARK   14  A    between atoms: C19_38  and  O5_39 
ROOT
HETATM    1  C11 UNL     1      13.983 -14.711 -22.265  1.00  0.00     0.183 C 
HETATM    2  O3  UNL     1      14.136 -14.203 -23.553  1.00  0.00    -0.354 OA
HETATM    3  C12 UNL     1      14.809 -15.216 -24.218  1.00  0.00     0.262 C 
HETATM    4  C18 UNL     1      15.957 -15.488 -23.265  1.00  0.00     0.198 C 
HETATM    5  C19 UNL     1      15.188 -15.523 -21.936  1.00  0.00     0.182 C 
ENDROOT
BRANCH   1   6
HETATM    6  C10 UNL     1      13.716 -13.606 -21.261  1.00  0.00     0.306 C 
BRANCH   6   7
HETATM    7  N2  UNL     1      12.442 -13.760 -20.615  1.00  0.00     0.091 N 
BRANCH   7   8
HETATM    8  C5  UNL     1      12.387 -13.207 -19.301  1.00  0.00     0.274 C 
BRANCH   8   9
HETATM    9  C4  UNL     1      13.387 -12.101 -19.059  1.00  0.00     0.060 C 
BRANCH   9  10
HETATM   10  C3  UNL     1      12.713 -11.059 -18.206  1.00  0.00     0.273 C 
BRANCH  10  11
HETATM   11  N1  UNL     1      13.084  -9.719 -18.517  1.00  0.00     0.080 N 
HETATM   12  C1  UNL     1      14.061  -9.155 -17.606  1.00  0.00     0.309 C 
HETATM   13  C2  UNL     1      11.953  -8.806 -18.550  1.00  0.00     0.309 C 
ENDBRANCH  10  11
ENDBRANCH   9  10
ENDBRANCH   8   9
ENDBRANCH   7   8
BRANCH   7  14
HETATM   14  C6  UNL     1      11.370 -13.112 -21.394  1.00  0.00     0.275 C 
BRANCH  14  15
HETATM   15  C7  UNL     1      10.144 -13.973 -21.430  1.00  0.00     0.074 C 
BRANCH  15  16
HETATM   16  C8  UNL     1      10.461 -15.439 -21.589  1.00  0.00     0.285 C 
BRANCH  16  17
HETATM   17  N3  UNL     1      10.497 -15.756 -23.012  1.00  0.00    -0.065 N 
ATOM     18  H33 UNL     1      10.937 -15.021 -23.565  1.00  0.00     0.275 HD
ATOM     19  H32 UNL     1      11.155 -16.505 -23.229  1.00  0.00     0.275 HD
ATOM     20  H31 UNL     1       9.549 -15.965 -23.323  1.00  0.00     0.275 HD
ENDBRANCH  16  17
BRANCH  16  21
HETATM   21  C9  UNL     1       9.494 -16.348 -20.970  1.00  0.00     0.204 C 
HETATM   22  O1  UNL     1       9.260 -16.331 -19.731  1.00  0.00    -0.646 OA
HETATM   23  O2  UNL     1       8.771 -17.286 -21.708  1.00  0.00    -0.646 OA
ENDBRANCH  16  21
ENDBRANCH  15  16
ENDBRANCH  14  15
ENDBRANCH   7  14
ENDBRANCH   6   7
ENDBRANCH   1   6
BRANCH   5  24
HETATM   24  O5  UNL     1      14.792 -16.862 -21.775  1.00  0.00    -0.390 OA
ATOM     25  H5  UNL     1      15.565 -17.412 -21.817  1.00  0.00     0.210 HD
ENDBRANCH   5  24
BRANCH   3  26
HETATM   26  N4  UNL     1      15.236 -14.862 -25.528  1.00  0.00    -0.297 N 
HETATM   27  C13 UNL     1      15.652 -15.730 -26.465  1.00  0.00     0.188 A 
HETATM   28  N5  UNL     1      15.984 -15.087 -27.591  1.00  0.00    -0.346 N 
HETATM   29  C14 UNL     1      15.781 -13.791 -27.376  1.00  0.00     0.119 A 
ATOM     30  H5  UNL     1      16.329 -15.512 -28.452  1.00  0.00     0.167 HD
HETATM   31  C15 UNL     1      15.968 -12.706 -28.213  1.00  0.00     0.148 A 
HETATM   32  C17 UNL     1      15.312 -13.654 -26.085  1.00  0.00     0.142 A 
HETATM   33  N6  UNL     1      16.449 -12.838 -29.543  1.00  0.00    -0.080 NA
HETATM   34  N7  UNL     1      15.673 -11.481 -27.721  1.00  0.00    -0.339 N 
HETATM   35  C16 UNL     1      15.220 -11.344 -26.474  1.00  0.00     0.183 A 
ATOM     36  H7  UNL     1      15.798 -10.655 -28.307  1.00  0.00     0.167 HD
HETATM   37  N8  UNL     1      15.039 -12.403 -25.662  1.00  0.00    -0.336 N 
ATOM     38  H8  UNL     1      14.691 -12.257 -24.714  1.00  0.00     0.168 HD
ENDBRANCH   3  26
BRANCH   4  39
HETATM   39  O4  UNL     1      16.566 -16.703 -23.520  1.00  0.00    -0.388 OA
ATOM     40  H4  UNL     1      17.513 -16.642 -23.481  1.00  0.00     0.210 HD
ENDBRANCH   4  39
TORSDOF 14
ENDMDL
