MODEL 4
REMARK VINA RESULT: -9.089442134      2.307      4.514
REMARK  14 active torsions:
REMARK  status: ('A' for Active; 'I' for Inactive)
REMARK    1  A    between atoms: N1_2  and  C3_4 
REMARK    2  A    between atoms: C3_4  and  C4_5 
REMARK    3  A    between atoms: C4_5  and  C5_6 
REMARK    4  A    between atoms: C5_6  and  N2_7 
REMARK    5  A    between atoms: N2_7  and  C6_8 
REMARK    6  A    between atoms: N2_7  and  C10_18 
REMARK    7  A    between atoms: C6_8  and  C7_9 
REMARK    8  A    between atoms: C7_9  and  C8_10 
REMARK    9  A    between atoms: C8_10  and  N3_11 
REMARK   10  A    between atoms: C8_10  and  C9_15 
REMARK   11  A    between atoms: C10_18  and  C11_19 
REMARK   12  A    between atoms: C12_21  and  N4_22 
REMARK   13  A    between atoms: C18_35  and  O4_36 
REMARK   14  A    between atoms: C19_38  and  O5_39 
ROOT
HETATM    1  C11 UNL     1      14.066 -14.329 -21.901  1.00  0.00     0.183 C 
HETATM    2  O3  UNL     1      14.208 -13.893 -23.217  1.00  0.00    -0.354 OA
HETATM    3  C12 UNL     1      14.743 -14.998 -23.863  1.00  0.00     0.262 C 
HETATM    4  C18 UNL     1      15.902 -15.345 -22.949  1.00  0.00     0.198 C 
HETATM    5  C19 UNL     1      15.199 -15.245 -21.588  1.00  0.00     0.182 C 
ENDROOT
BRANCH   1   6
HETATM    6  C10 UNL     1      13.960 -13.161 -20.940  1.00  0.00     0.306 C 
BRANCH   6   7
HETATM    7  N2  UNL     1      12.641 -13.038 -20.383  1.00  0.00     0.091 N 
BRANCH   7   8
HETATM    8  C5  UNL     1      11.873 -14.239 -20.438  1.00  0.00     0.274 C 
BRANCH   8   9
HETATM    9  C4  UNL     1      11.196 -14.592 -19.134  1.00  0.00     0.060 C 
BRANCH   9  10
HETATM   10  C3  UNL     1       9.823 -15.113 -19.464  1.00  0.00     0.273 C 
BRANCH  10  11
HETATM   11  N1  UNL     1       9.511 -15.106 -20.855  1.00  0.00     0.080 N 
HETATM   12  C1  UNL     1       8.340 -14.320 -21.189  1.00  0.00     0.309 C 
HETATM   13  C2  UNL     1       9.304 -16.437 -21.401  1.00  0.00     0.309 C 
ENDBRANCH  10  11
ENDBRANCH   9  10
ENDBRANCH   8   9
ENDBRANCH   7   8
BRANCH   7  14
HETATM   14  C6  UNL     1      12.698 -12.634 -18.965  1.00  0.00     0.275 C 
BRANCH  14  15
HETATM   15  C7  UNL     1      13.483 -11.368 -18.805  1.00  0.00     0.074 C 
BRANCH  15  16
HETATM   16  C8  UNL     1      12.699 -10.274 -18.122  1.00  0.00     0.285 C 
BRANCH  16  17
HETATM   17  N3  UNL     1      11.931  -9.552 -19.131  1.00  0.00    -0.065 N 
ATOM     18  H33 UNL     1      12.253  -9.745 -20.079  1.00  0.00     0.275 HD
ATOM     19  H32 UNL     1      10.981  -9.911 -19.231  1.00  0.00     0.275 HD
ATOM     20  H31 UNL     1      11.952  -8.558 -18.906  1.00  0.00     0.275 HD
ENDBRANCH  16  17
BRANCH  16  21
HETATM   21  C9  UNL     1      13.512  -9.286 -17.411  1.00  0.00     0.204 C 
HETATM   22  O1  UNL     1      13.272  -8.957 -16.219  1.00  0.00    -0.646 OA
HETATM   23  O2  UNL     1      14.602  -8.648 -18.006  1.00  0.00    -0.646 OA
ENDBRANCH  16  21
ENDBRANCH  15  16
ENDBRANCH  14  15
ENDBRANCH   7  14
ENDBRANCH   6   7
ENDBRANCH   1   6
BRANCH   5  24
HETATM   24  O5  UNL     1      14.679 -16.529 -21.347  1.00  0.00    -0.390 OA
ATOM     25  H5  UNL     1      15.262 -16.983 -20.750  1.00  0.00     0.210 HD
ENDBRANCH   5  24
BRANCH   3  26
HETATM   26  N4  UNL     1      15.140 -14.744 -25.205  1.00  0.00    -0.297 N 
HETATM   27  C13 UNL     1      15.496 -15.686 -26.095  1.00  0.00     0.188 A 
HETATM   28  N5  UNL     1      15.814 -15.129 -27.270  1.00  0.00    -0.346 N 
HETATM   29  C14 UNL     1      15.662 -13.815 -27.135  1.00  0.00     0.119 A 
ATOM     30  H5  UNL     1      16.117 -15.620 -28.111  1.00  0.00     0.167 HD
HETATM   31  C15 UNL     1      15.860 -12.793 -28.047  1.00  0.00     0.148 A 
HETATM   32  C17 UNL     1      15.240 -13.578 -25.842  1.00  0.00     0.142 A 
HETATM   33  N6  UNL     1      16.294 -13.028 -29.378  1.00  0.00    -0.080 NA
HETATM   34  N7  UNL     1      15.623 -11.529 -27.627  1.00  0.00    -0.339 N 
HETATM   35  C16 UNL     1      15.214 -11.297 -26.379  1.00  0.00     0.183 A 
ATOM     36  H7  UNL     1      15.758 -10.748 -28.269  1.00  0.00     0.167 HD
HETATM   37  N8  UNL     1      15.023 -12.294 -25.494  1.00  0.00    -0.336 N 
ATOM     38  H8  UNL     1      14.711 -12.074 -24.548  1.00  0.00     0.168 HD
ENDBRANCH   3  26
BRANCH   4  39
HETATM   39  O4  UNL     1      16.374 -16.626 -23.173  1.00  0.00    -0.388 OA
ATOM     40  H4  UNL     1      16.634 -17.056 -22.367  1.00  0.00     0.210 HD
ENDBRANCH   4  39
TORSDOF 14
ENDMDL
