MODEL 7
REMARK VINA RESULT: -8.701965633      2.164      4.339
REMARK  14 active torsions:
REMARK  status: ('A' for Active; 'I' for Inactive)
REMARK    1  A    between atoms: N1_2  and  C3_4 
REMARK    2  A    between atoms: C3_4  and  C4_5 
REMARK    3  A    between atoms: C4_5  and  C5_6 
REMARK    4  A    between atoms: C5_6  and  N2_7 
REMARK    5  A    between atoms: N2_7  and  C6_8 
REMARK    6  A    between atoms: N2_7  and  C10_18 
REMARK    7  A    between atoms: C6_8  and  C7_9 
REMARK    8  A    between atoms: C7_9  and  C8_10 
REMARK    9  A    between atoms: C8_10  and  N3_11 
REMARK   10  A    between atoms: C8_10  and  C9_15 
REMARK   11  A    between atoms: C10_18  and  C11_19 
REMARK   12  A    between atoms: C12_21  and  N4_22 
REMARK   13  A    between atoms: C18_35  and  O4_36 
REMARK   14  A    between atoms: C19_38  and  O5_39 
ROOT
HETATM    1  C11 UNL     1      14.374 -14.883 -22.432  1.00  0.00     0.183 C 
HETATM    2  O3  UNL     1      14.576 -14.231 -23.646  1.00  0.00    -0.354 OA
HETATM    3  C12 UNL     1      14.895 -15.264 -24.515  1.00  0.00     0.262 C 
HETATM    4  C18 UNL     1      15.982 -15.981 -23.739  1.00  0.00     0.198 C 
HETATM    5  C19 UNL     1      15.325 -16.027 -22.352  1.00  0.00     0.182 C 
ENDROOT
BRANCH   1   6
HETATM    6  C10 UNL     1      14.492 -13.926 -21.262  1.00  0.00     0.306 C 
BRANCH   6   7
HETATM    7  N2  UNL     1      13.253 -13.254 -20.986  1.00  0.00     0.091 N 
BRANCH   7   8
HETATM    8  C5  UNL     1      12.099 -13.943 -21.465  1.00  0.00     0.274 C 
BRANCH   8   9
HETATM    9  C4  UNL     1      10.883 -13.061 -21.626  1.00  0.00     0.060 C 
BRANCH   9  10
HETATM   10  C3  UNL     1       9.667 -13.930 -21.445  1.00  0.00     0.273 C 
BRANCH  10  11
HETATM   11  N1  UNL     1       9.923 -15.165 -20.780  1.00  0.00     0.080 N 
HETATM   12  C1  UNL     1       9.261 -16.305 -21.384  1.00  0.00     0.309 C 
HETATM   13  C2  UNL     1       9.547 -15.146 -19.376  1.00  0.00     0.309 C 
ENDBRANCH  10  11
ENDBRANCH   9  10
ENDBRANCH   8   9
ENDBRANCH   7   8
BRANCH   7  14
HETATM   14  C6  UNL     1      13.063 -13.065 -19.535  1.00  0.00     0.275 C 
BRANCH  14  15
HETATM   15  C7  UNL     1      13.721 -11.800 -19.073  1.00  0.00     0.074 C 
BRANCH  15  16
HETATM   16  C8  UNL     1      12.764 -10.858 -18.386  1.00  0.00     0.285 C 
BRANCH  16  17
HETATM   17  N3  UNL     1      11.916 -10.237 -19.397  1.00  0.00    -0.065 N 
ATOM     18  H33 UNL     1      12.454  -9.823 -20.158  1.00  0.00     0.275 HD
ATOM     19  H32 UNL     1      11.399 -10.922 -19.949  1.00  0.00     0.275 HD
ATOM     20  H31 UNL     1      11.304  -9.562 -18.939  1.00  0.00     0.275 HD
ENDBRANCH  16  17
BRANCH  16  21
HETATM   21  C9  UNL     1      13.401  -9.775 -17.634  1.00  0.00     0.204 C 
HETATM   22  O1  UNL     1      14.446  -9.202 -18.045  1.00  0.00    -0.646 OA
HETATM   23  O2  UNL     1      12.895  -9.309 -16.420  1.00  0.00    -0.646 OA
ENDBRANCH  16  21
ENDBRANCH  15  16
ENDBRANCH  14  15
ENDBRANCH   7  14
ENDBRANCH   6   7
ENDBRANCH   1   6
BRANCH   5  24
HETATM   24  O5  UNL     1      14.583 -17.222 -22.335  1.00  0.00    -0.390 OA
ATOM     25  H5  UNL     1      14.361 -17.425 -21.435  1.00  0.00     0.210 HD
ENDBRANCH   5  24
BRANCH   3  26
HETATM   26  N4  UNL     1      15.315 -14.826 -25.801  1.00  0.00    -0.297 N 
HETATM   27  C13 UNL     1      15.747 -15.632 -26.787  1.00  0.00     0.188 A 
HETATM   28  N5  UNL     1      16.068 -14.919 -27.873  1.00  0.00    -0.346 N 
HETATM   29  C14 UNL     1      15.841 -13.641 -27.584  1.00  0.00     0.119 A 
ATOM     30  H5  UNL     1      16.420 -15.286 -28.757  1.00  0.00     0.167 HD
HETATM   31  C15 UNL     1      16.008 -12.506 -28.357  1.00  0.00     0.148 A 
HETATM   32  C17 UNL     1      15.369 -13.587 -26.287  1.00  0.00     0.142 A 
HETATM   33  N6  UNL     1      16.492 -12.552 -29.691  1.00  0.00    -0.080 NA
HETATM   34  N7  UNL     1      15.691 -11.317 -27.795  1.00  0.00    -0.339 N 
HETATM   35  C16 UNL     1      15.235 -11.261 -26.543  1.00  0.00     0.183 A 
ATOM     36  H7  UNL     1      15.801 -10.456 -28.332  1.00  0.00     0.167 HD
HETATM   37  N8  UNL     1      15.073 -12.368 -25.793  1.00  0.00    -0.336 N 
ATOM     38  H8  UNL     1      14.723 -12.284 -24.839  1.00  0.00     0.168 HD
ENDBRANCH   3  26
BRANCH   4  39
HETATM   39  O4  UNL     1      16.210 -17.256 -24.225  1.00  0.00    -0.388 OA
ATOM     40  H4  UNL     1      15.409 -17.765 -24.281  1.00  0.00     0.210 HD
ENDBRANCH   4  39
TORSDOF 14
ENDMDL
