MODEL 5
REMARK VINA RESULT: -9.003228680      0.976      1.796
REMARK  14 active torsions:
REMARK  status: ('A' for Active; 'I' for Inactive)
REMARK    1  A    between atoms: N1_2  and  C3_4 
REMARK    2  A    between atoms: C3_4  and  C4_5 
REMARK    3  A    between atoms: C4_5  and  C5_6 
REMARK    4  A    between atoms: C5_6  and  N2_7 
REMARK    5  A    between atoms: N2_7  and  C6_8 
REMARK    6  A    between atoms: N2_7  and  C10_18 
REMARK    7  A    between atoms: C6_8  and  C7_9 
REMARK    8  A    between atoms: C7_9  and  C8_10 
REMARK    9  A    between atoms: C8_10  and  N3_11 
REMARK   10  A    between atoms: C8_10  and  C9_15 
REMARK   11  A    between atoms: C10_18  and  C11_19 
REMARK   12  A    between atoms: C12_21  and  N4_22 
REMARK   13  A    between atoms: C18_35  and  O4_36 
REMARK   14  A    between atoms: C19_38  and  O5_39 
ROOT
HETATM    1  C11 UNL     1      13.965 -14.185 -21.597  1.00  0.00     0.183 C 
HETATM    2  O3  UNL     1      14.032 -13.396 -22.743  1.00  0.00    -0.354 OA
HETATM    3  C12 UNL     1      14.636 -14.231 -23.671  1.00  0.00     0.262 C 
HETATM    4  C18 UNL     1      15.846 -14.714 -22.895  1.00  0.00     0.198 C 
HETATM    5  C19 UNL     1      15.178 -15.050 -21.554  1.00  0.00     0.182 C 
ENDROOT
BRANCH   1   6
HETATM    6  C10 UNL     1      13.793 -13.337 -20.351  1.00  0.00     0.306 C 
BRANCH   6   7
HETATM    7  N2  UNL     1      12.552 -13.610 -19.680  1.00  0.00     0.091 N 
BRANCH   7   8
HETATM    8  C5  UNL     1      12.268 -12.722 -18.600  1.00  0.00     0.274 C 
BRANCH   8   9
HETATM    9  C4  UNL     1      12.963 -11.385 -18.708  1.00  0.00     0.060 C 
BRANCH   9  10
HETATM   10  C3  UNL     1      12.607 -10.590 -17.480  1.00  0.00     0.273 C 
BRANCH  10  11
HETATM   11  N1  UNL     1      12.664  -9.177 -17.660  1.00  0.00     0.080 N 
HETATM   12  C1  UNL     1      11.870  -8.696 -18.773  1.00  0.00     0.309 C 
HETATM   13  C2  UNL     1      14.016  -8.679 -17.851  1.00  0.00     0.309 C 
ENDBRANCH  10  11
ENDBRANCH   9  10
ENDBRANCH   8   9
ENDBRANCH   7   8
BRANCH   7  14
HETATM   14  C6  UNL     1      11.413 -13.522 -20.614  1.00  0.00     0.275 C 
BRANCH  14  15
HETATM   15  C7  UNL     1      10.549 -14.743 -20.515  1.00  0.00     0.074 C 
BRANCH  15  16
HETATM   16  C8  UNL     1      10.704 -15.668 -21.697  1.00  0.00     0.285 C 
BRANCH  16  17
HETATM   17  N3  UNL     1      10.722 -14.868 -22.916  1.00  0.00    -0.065 N 
ATOM     18  H33 UNL     1       9.798 -14.519 -23.169  1.00  0.00     0.275 HD
ATOM     19  H32 UNL     1      11.180 -13.965 -22.784  1.00  0.00     0.275 HD
ATOM     20  H31 UNL     1      11.150 -15.418 -23.660  1.00  0.00     0.275 HD
ENDBRANCH  16  17
BRANCH  16  21
HETATM   21  C9  UNL     1       9.634 -16.657 -21.847  1.00  0.00     0.204 C 
HETATM   22  O1  UNL     1       8.491 -16.485 -21.345  1.00  0.00    -0.646 OA
HETATM   23  O2  UNL     1       9.812 -17.849 -22.552  1.00  0.00    -0.646 OA
ENDBRANCH  16  21
ENDBRANCH  15  16
ENDBRANCH  14  15
ENDBRANCH   7  14
ENDBRANCH   6   7
ENDBRANCH   1   6
BRANCH   5  24
HETATM   24  O5  UNL     1      14.771 -16.391 -21.671  1.00  0.00    -0.390 OA
ATOM     25  H5  UNL     1      15.488 -16.948 -21.395  1.00  0.00     0.210 HD
ENDBRANCH   5  24
BRANCH   3  26
HETATM   26  N4  UNL     1      14.971 -13.587 -24.894  1.00  0.00    -0.297 N 
HETATM   27  C13 UNL     1      14.916 -12.261 -25.108  1.00  0.00     0.188 A 
HETATM   28  N5  UNL     1      15.292 -11.969 -26.359  1.00  0.00    -0.346 N 
HETATM   29  C14 UNL     1      15.592 -13.117 -26.956  1.00  0.00     0.119 A 
ATOM     30  H5  UNL     1      15.340 -11.039 -26.775  1.00  0.00     0.167 HD
HETATM   31  C15 UNL     1      16.032 -13.368 -28.244  1.00  0.00     0.148 A 
HETATM   32  C17 UNL     1      15.390 -14.128 -26.037  1.00  0.00     0.142 A 
HETATM   33  N6  UNL     1      16.242 -12.335 -29.196  1.00  0.00    -0.080 NA
HETATM   34  N7  UNL     1      16.263 -14.657 -28.585  1.00  0.00    -0.339 N 
HETATM   35  C16 UNL     1      16.069 -15.635 -27.699  1.00  0.00     0.183 A 
ATOM     36  H7  UNL     1      16.587 -14.883 -29.526  1.00  0.00     0.167 HD
HETATM   37  N8  UNL     1      15.641 -15.388 -26.446  1.00  0.00    -0.336 N 
ATOM     38  H8  UNL     1      15.504 -16.164 -25.799  1.00  0.00     0.168 HD
ENDBRANCH   3  26
BRANCH   4  39
HETATM   39  O4  UNL     1      16.413 -15.839 -23.465  1.00  0.00    -0.388 OA
ATOM     40  H4  UNL     1      16.419 -16.577 -22.866  1.00  0.00     0.210 HD
ENDBRANCH   4  39
TORSDOF 14
ENDMDL
