MODEL 2
REMARK VINA RESULT: -9.294894664      0.878      1.091
REMARK  14 active torsions:
REMARK  status: ('A' for Active; 'I' for Inactive)
REMARK    1  A    between atoms: N1_2  and  C3_4 
REMARK    2  A    between atoms: C3_4  and  C4_5 
REMARK    3  A    between atoms: C4_5  and  C5_6 
REMARK    4  A    between atoms: C5_6  and  N2_7 
REMARK    5  A    between atoms: N2_7  and  C6_8 
REMARK    6  A    between atoms: N2_7  and  C10_18 
REMARK    7  A    between atoms: C6_8  and  C7_9 
REMARK    8  A    between atoms: C7_9  and  C8_10 
REMARK    9  A    between atoms: C8_10  and  N3_11 
REMARK   10  A    between atoms: C8_10  and  C9_15 
REMARK   11  A    between atoms: C10_18  and  C11_19 
REMARK   12  A    between atoms: C12_21  and  N4_22 
REMARK   13  A    between atoms: C18_35  and  O4_36 
REMARK   14  A    between atoms: C19_38  and  O5_39 
ROOT
HETATM    1  C11 UNL     1      14.181 -14.446 -22.180  1.00  0.00     0.183 C 
HETATM    2  O3  UNL     1      14.289 -14.050 -23.511  1.00  0.00    -0.354 OA
HETATM    3  C12 UNL     1      14.885 -15.143 -24.121  1.00  0.00     0.262 C 
HETATM    4  C18 UNL     1      16.068 -15.390 -23.205  1.00  0.00     0.198 C 
HETATM    5  C19 UNL     1      15.367 -15.282 -21.842  1.00  0.00     0.182 C 
ENDROOT
BRANCH   1   6
HETATM    6  C10 UNL     1      14.011 -13.253 -21.259  1.00  0.00     0.306 C 
BRANCH   6   7
HETATM    7  N2  UNL     1      13.361 -13.608 -20.028  1.00  0.00     0.091 N 
BRANCH   7   8
HETATM    8  C5  UNL     1      12.619 -12.544 -19.435  1.00  0.00     0.274 C 
BRANCH   8   9
HETATM    9  C4  UNL     1      13.479 -11.497 -18.766  1.00  0.00     0.060 C 
BRANCH   9  10
HETATM   10  C3  UNL     1      12.637 -10.825 -17.714  1.00  0.00     0.273 C 
BRANCH  10  11
HETATM   11  N1  UNL     1      12.775  -9.407 -17.672  1.00  0.00     0.080 N 
HETATM   12  C1  UNL     1      11.956  -8.708 -18.643  1.00  0.00     0.309 C 
HETATM   13  C2  UNL     1      14.144  -8.959 -17.865  1.00  0.00     0.309 C 
ENDBRANCH  10  11
ENDBRANCH   9  10
ENDBRANCH   8   9
ENDBRANCH   7   8
BRANCH   7  14
HETATM   14  C6  UNL     1      12.417 -14.724 -20.230  1.00  0.00     0.275 C 
BRANCH  14  15
HETATM   15  C7  UNL     1      11.006 -14.224 -20.287  1.00  0.00     0.074 C 
BRANCH  15  16
HETATM   16  C8  UNL     1      10.352 -14.464 -21.625  1.00  0.00     0.285 C 
BRANCH  16  17
HETATM   17  N3  UNL     1       9.763 -13.212 -22.088  1.00  0.00    -0.065 N 
ATOM     18  H33 UNL     1      10.420 -12.434 -22.048  1.00  0.00     0.275 HD
ATOM     19  H32 UNL     1       9.599 -13.205 -23.095  1.00  0.00     0.275 HD
ATOM     20  H31 UNL     1       8.914 -13.035 -21.552  1.00  0.00     0.275 HD
ENDBRANCH  16  17
BRANCH  16  21
HETATM   21  C9  UNL     1       9.283 -15.466 -21.616  1.00  0.00     0.204 C 
HETATM   22  O1  UNL     1       8.200 -15.279 -21.000  1.00  0.00    -0.646 OA
HETATM   23  O2  UNL     1       9.395 -16.685 -22.286  1.00  0.00    -0.646 OA
ENDBRANCH  16  21
ENDBRANCH  15  16
ENDBRANCH  14  15
ENDBRANCH   7  14
ENDBRANCH   6   7
ENDBRANCH   1   6
BRANCH   5  24
HETATM   24  O5  UNL     1      14.924 -16.585 -21.552  1.00  0.00    -0.390 OA
ATOM     25  H5  UNL     1      14.624 -16.987 -22.359  1.00  0.00     0.210 HD
ENDBRANCH   5  24
BRANCH   3  26
HETATM   26  N4  UNL     1      15.259 -14.915 -25.475  1.00  0.00    -0.297 N 
HETATM   27  C13 UNL     1      15.561 -15.876 -26.364  1.00  0.00     0.188 A 
HETATM   28  N5  UNL     1      15.871 -15.341 -27.551  1.00  0.00    -0.346 N 
HETATM   29  C14 UNL     1      15.768 -14.022 -27.425  1.00  0.00     0.119 A 
ATOM     30  H5  UNL     1      16.136 -15.849 -28.395  1.00  0.00     0.167 HD
HETATM   31  C15 UNL     1      15.979 -13.015 -28.350  1.00  0.00     0.148 A 
HETATM   32  C17 UNL     1      15.385 -13.758 -26.124  1.00  0.00     0.142 A 
HETATM   33  N6  UNL     1      16.374 -13.276 -29.689  1.00  0.00    -0.080 NA
HETATM   34  N7  UNL     1      15.797 -11.740 -27.937  1.00  0.00    -0.339 N 
HETATM   35  C16 UNL     1      15.426 -11.483 -26.682  1.00  0.00     0.183 A 
ATOM     36  H7  UNL     1      15.944 -10.969 -28.589  1.00  0.00     0.167 HD
HETATM   37  N8  UNL     1      15.221 -12.465 -25.784  1.00  0.00    -0.336 N 
ATOM     38  H8  UNL     1      14.939 -12.227 -24.832  1.00  0.00     0.168 HD
ENDBRANCH   3  26
BRANCH   4  39
HETATM   39  O4  UNL     1      16.612 -16.648 -23.387  1.00  0.00    -0.388 OA
ATOM     40  H4  UNL     1      16.233 -17.289 -22.797  1.00  0.00     0.210 HD
ENDBRANCH   4  39
TORSDOF 14
ENDMDL
