MODEL 3
REMARK VINA RESULT: -9.205750306      2.434      5.027
REMARK  14 active torsions:
REMARK  status: ('A' for Active; 'I' for Inactive)
REMARK    1  A    between atoms: N1_2  and  C3_4 
REMARK    2  A    between atoms: C3_4  and  C4_5 
REMARK    3  A    between atoms: C4_5  and  C5_6 
REMARK    4  A    between atoms: C5_6  and  N2_7 
REMARK    5  A    between atoms: N2_7  and  C6_8 
REMARK    6  A    between atoms: N2_7  and  C10_18 
REMARK    7  A    between atoms: C6_8  and  C7_9 
REMARK    8  A    between atoms: C7_9  and  C8_10 
REMARK    9  A    between atoms: C8_10  and  N3_11 
REMARK   10  A    between atoms: C8_10  and  C9_15 
REMARK   11  A    between atoms: C10_18  and  C11_19 
REMARK   12  A    between atoms: C12_21  and  N4_22 
REMARK   13  A    between atoms: C18_35  and  O4_36 
REMARK   14  A    between atoms: C19_38  and  O5_39 
ROOT
HETATM    1  C11 UNL     1      13.854 -13.791 -21.212  1.00  0.00     0.183 C 
HETATM    2  O3  UNL     1      13.958 -13.072 -22.401  1.00  0.00    -0.354 OA
HETATM    3  C12 UNL     1      14.519 -13.988 -23.279  1.00  0.00     0.262 C 
HETATM    4  C18 UNL     1      15.705 -14.484 -22.475  1.00  0.00     0.198 C 
HETATM    5  C19 UNL     1      15.023 -14.711 -21.118  1.00  0.00     0.182 C 
ENDROOT
BRANCH   1   6
HETATM    6  C10 UNL     1      13.726 -12.867 -20.016  1.00  0.00     0.306 C 
BRANCH   6   7
HETATM    7  N2  UNL     1      12.395 -12.867 -19.474  1.00  0.00     0.091 N 
BRANCH   7   8
HETATM    8  C5  UNL     1      11.937 -14.152 -19.059  1.00  0.00     0.274 C 
BRANCH   8   9
HETATM    9  C4  UNL     1      10.454 -14.367 -19.258  1.00  0.00     0.060 C 
BRANCH   9  10
HETATM   10  C3  UNL     1      10.202 -14.435 -20.740  1.00  0.00     0.273 C 
BRANCH  10  11
HETATM   11  N1  UNL     1      10.484 -15.705 -21.325  1.00  0.00     0.080 N 
HETATM   12  C1  UNL     1      11.135 -15.623 -22.618  1.00  0.00     0.309 C 
HETATM   13  C2  UNL     1       9.301 -16.532 -21.493  1.00  0.00     0.309 C 
ENDBRANCH  10  11
ENDBRANCH   9  10
ENDBRANCH   8   9
ENDBRANCH   7   8
BRANCH   7  14
HETATM   14  C6  UNL     1      12.301 -11.981 -18.298  1.00  0.00     0.275 C 
BRANCH  14  15
HETATM   15  C7  UNL     1      13.298 -10.867 -18.390  1.00  0.00     0.074 C 
BRANCH  15  16
HETATM   16  C8  UNL     1      12.696  -9.514 -18.096  1.00  0.00     0.285 C 
BRANCH  16  17
HETATM   17  N3  UNL     1      11.895  -9.102 -19.243  1.00  0.00    -0.065 N 
ATOM     18  H33 UNL     1      12.261  -8.264 -19.694  1.00  0.00     0.275 HD
ATOM     19  H32 UNL     1      11.988  -9.739 -20.034  1.00  0.00     0.275 HD
ATOM     20  H31 UNL     1      10.927  -8.992 -18.941  1.00  0.00     0.275 HD
ENDBRANCH  16  17
BRANCH  16  21
HETATM   21  C9  UNL     1      13.670  -8.450 -17.845  1.00  0.00     0.204 C 
HETATM   22  O1  UNL     1      13.425  -7.244 -18.118  1.00  0.00    -0.646 OA
HETATM   23  O2  UNL     1      14.925  -8.701 -17.288  1.00  0.00    -0.646 OA
ENDBRANCH  16  21
ENDBRANCH  15  16
ENDBRANCH  14  15
ENDBRANCH   7  14
ENDBRANCH   6   7
ENDBRANCH   1   6
BRANCH   5  24
HETATM   24  O5  UNL     1      14.550 -16.035 -21.160  1.00  0.00    -0.390 OA
ATOM     25  H5  UNL     1      14.049 -16.149 -21.959  1.00  0.00     0.210 HD
ENDBRANCH   5  24
BRANCH   3  26
HETATM   26  N4  UNL     1      14.883 -13.431 -24.536  1.00  0.00    -0.297 N 
HETATM   27  C13 UNL     1      14.919 -12.117 -24.817  1.00  0.00     0.188 A 
HETATM   28  N5  UNL     1      15.300 -11.915 -26.084  1.00  0.00    -0.346 N 
HETATM   29  C14 UNL     1      15.511 -13.111 -26.625  1.00  0.00     0.119 A 
ATOM     30  H5  UNL     1      15.408 -11.013 -26.547  1.00  0.00     0.167 HD
HETATM   31  C15 UNL     1      15.916 -13.456 -27.902  1.00  0.00     0.148 A 
HETATM   32  C17 UNL     1      15.249 -14.057 -25.654  1.00  0.00     0.142 A 
HETATM   33  N6  UNL     1      16.187 -12.490 -28.907  1.00  0.00    -0.080 NA
HETATM   34  N7  UNL     1      16.050 -14.773 -28.179  1.00  0.00    -0.339 N 
HETATM   35  C16 UNL     1      15.799 -15.690 -27.243  1.00  0.00     0.183 A 
ATOM     36  H7  UNL     1      16.346 -15.068 -29.110  1.00  0.00     0.167 HD
HETATM   37  N8  UNL     1      15.405 -15.350 -26.001  1.00  0.00    -0.336 N 
ATOM     38  H8  UNL     1      15.222 -16.081 -25.313  1.00  0.00     0.168 HD
ENDBRANCH   3  26
BRANCH   4  39
HETATM   39  O4  UNL     1      16.215 -15.666 -22.980  1.00  0.00    -0.388 OA
ATOM     40  H4  UNL     1      16.115 -16.387 -22.369  1.00  0.00     0.210 HD
ENDBRANCH   4  39
TORSDOF 14
ENDMDL
