MODEL 6
REMARK VINA RESULT: -5.268597990      1.552      2.101
REMARK  1 active torsions:
REMARK  status: ('A' for Active; 'I' for Inactive)
REMARK    1  A    between atoms: C5_6  and  C6_7 
ROOT
HETATM    1  C1  UNL     1     -17.783   0.766 -12.818  1.00  0.00     0.050 C 
HETATM    2  C2  UNL     1     -17.247   2.014 -12.147  1.00  0.00    -0.038 A 
HETATM    3  C3  UNL     1     -16.560   2.958 -12.800  1.00  0.00     0.015 A 
HETATM    4  C4  UNL     1     -16.131   4.039 -12.076  1.00  0.00     0.051 A 
HETATM    5  S1  UNL     1     -16.702   3.698 -10.505  1.00  0.00    -0.095 SA
HETATM    6  C5  UNL     1     -17.465   2.204 -10.808  1.00  0.00     0.087 A 
ENDROOT
BRANCH   6   7
HETATM    7  C6  UNL     1     -18.187   1.319  -9.866  1.00  0.00     0.217 C 
HETATM    8  O1  UNL     1     -19.274   1.718  -9.383  1.00  0.00    -0.643 OA
HETATM    9  O2  UNL     1     -17.702   0.084  -9.511  1.00  0.00    -0.643 OA
ENDBRANCH   6   7
TORSDOF 1
ENDMDL
