MODEL 13
REMARK VINA RESULT: -5.031089833      1.932      2.863
REMARK  1 active torsions:
REMARK  status: ('A' for Active; 'I' for Inactive)
REMARK    1  A    between atoms: C5_6  and  C6_7 
ROOT
HETATM    1  C1  UNL     1     -16.903   2.415 -14.688  1.00  0.00     0.050 C 
HETATM    2  C2  UNL     1     -16.669   3.032 -13.324  1.00  0.00    -0.038 A 
HETATM    3  C3  UNL     1     -15.958   4.150 -13.138  1.00  0.00     0.015 A 
HETATM    4  C4  UNL     1     -15.821   4.603 -11.853  1.00  0.00     0.051 A 
HETATM    5  S1  UNL     1     -16.693   3.450 -10.946  1.00  0.00    -0.095 SA
HETATM    6  C5  UNL     1     -17.203   2.432 -12.214  1.00  0.00     0.087 A 
ENDROOT
BRANCH   6   7
HETATM    7  C6  UNL     1     -18.020   1.200 -12.146  1.00  0.00     0.217 C 
HETATM    8  O1  UNL     1     -17.703   0.314 -11.315  1.00  0.00    -0.643 OA
HETATM    9  O2  UNL     1     -19.108   1.002 -12.961  1.00  0.00    -0.643 OA
ENDBRANCH   6   7
TORSDOF 1
ENDMDL
