MODEL 16
REMARK VINA RESULT: -5.008819277      2.417      3.311
REMARK  1 active torsions:
REMARK  status: ('A' for Active; 'I' for Inactive)
REMARK    1  A    between atoms: C5_6  and  C6_7 
ROOT
HETATM    1  C1  UNL     1     -16.342   3.709 -14.311  1.00  0.00     0.050 C 
HETATM    2  C2  UNL     1     -16.639   3.398 -12.858  1.00  0.00    -0.038 A 
HETATM    3  C3  UNL     1     -16.215   4.162 -11.845  1.00  0.00     0.015 A 
HETATM    4  C4  UNL     1     -16.553   3.769 -10.577  1.00  0.00     0.051 A 
HETATM    5  S1  UNL     1     -17.451   2.343 -10.843  1.00  0.00    -0.095 SA
HETATM    6  C5  UNL     1     -17.374   2.285 -12.545  1.00  0.00     0.087 A 
ENDROOT
BRANCH   6   7
HETATM    7  C6  UNL     1     -17.954   1.285 -13.469  1.00  0.00     0.217 C 
HETATM    8  O1  UNL     1     -17.758   0.067 -13.235  1.00  0.00    -0.643 OA
HETATM    9  O2  UNL     1     -18.695   1.651 -14.566  1.00  0.00    -0.643 OA
ENDBRANCH   6   7
TORSDOF 1
ENDMDL
