MODEL 1
REMARK VINA RESULT: -6.656207716      0.000      0.000
REMARK  9 active torsions:
REMARK  status: ('A' for Active; 'I' for Inactive)
REMARK    1  A    between atoms: O1_1  and  C1_3 
REMARK    2  A    between atoms: C2_4  and  O2_5 
REMARK    3  A    between atoms: C3_7  and  O3_8 
REMARK    4  A    between atoms: O3_8  and  P1_9 
REMARK    5  A    between atoms: C4_13  and  O7_14 
REMARK    6  A    between atoms: C5_16  and  O8_17 
REMARK    7  A    between atoms: O8_17  and  P2_18 
REMARK    8  A    between atoms: C6_22  and  O12_23 
REMARK    9  A    between atoms: O12_23  and  P3_24 
ROOT
HETATM    1  C1  UNL     1      16.369  10.368 123.859  1.00  0.00     0.181 C 
HETATM    2  C2  UNL     1      15.039  10.648 123.252  1.00  0.00     0.181 C 
HETATM    3  C3  UNL     1      15.098  11.487 122.002  1.00  0.00     0.198 C 
HETATM    4  C4  UNL     1      15.975  12.699 122.212  1.00  0.00     0.182 C 
HETATM    5  C5  UNL     1      17.344  12.323 122.715  1.00  0.00     0.199 C 
HETATM    6  C6  UNL     1      17.211  11.615 124.053  1.00  0.00     0.199 C 
ENDROOT
BRANCH   3   7
HETATM    7  O3  UNL     1      13.800  11.918 121.737  1.00  0.00    -0.272 OA
BRANCH   7   8
HETATM    8  P1  UNL     1      13.089  11.311 120.513  1.00  0.00     0.422 P 
HETATM    9  O4  UNL     1      12.449  10.608 119.304  1.00  0.00    -0.617 OA
HETATM   10  O5  UNL     1      12.190  12.679 120.275  1.00  0.00    -0.617 OA
HETATM   11  O6  UNL     1      14.586  11.229 119.778  1.00  0.00    -0.617 OA
ENDBRANCH   7   8
ENDBRANCH   3   7
BRANCH   2  12
HETATM   12  O2  UNL     1      14.152  11.210 124.184  1.00  0.00    -0.390 OA
ATOM     13  H2  UNL     1      14.452  12.059 124.486  1.00  0.00     0.210 HD
ENDBRANCH   2  12
BRANCH   4  14
HETATM   14  O7  UNL     1      16.107  13.412 121.045  1.00  0.00    -0.390 OA
ATOM     15  H7  UNL     1      17.023  13.565 120.846  1.00  0.00     0.210 HD
ENDBRANCH   4  14
BRANCH   1  16
HETATM   16  O1  UNL     1      16.140   9.841 125.148  1.00  0.00    -0.390 OA
ATOM     17  H1  UNL     1      16.279  10.546 125.770  1.00  0.00     0.210 HD
ENDBRANCH   1  16
BRANCH   5  18
HETATM   18  O8  UNL     1      18.107  13.446 122.824  1.00  0.00    -0.272 OA
BRANCH  18  19
HETATM   19  P2  UNL     1      19.537  13.362 122.001  1.00  0.00     0.422 P 
HETATM   20  O9  UNL     1      19.845  14.836 122.248  1.00  0.00    -0.617 OA
HETATM   21  O10 UNL     1      20.938  12.976 122.871  1.00  0.00    -0.617 OA
HETATM   22  O11 UNL     1      19.609  13.384 120.387  1.00  0.00    -0.617 OA
ENDBRANCH  18  19
ENDBRANCH   5  18
BRANCH   6  23
HETATM   23  O12 UNL     1      18.443  11.208 124.486  1.00  0.00    -0.272 OA
BRANCH  23  24
HETATM   24  P3  UNL     1      18.740  11.822 125.978  1.00  0.00     0.422 P 
HETATM   25  O13 UNL     1      17.721  12.952 125.803  1.00  0.00    -0.617 OA
HETATM   26  O14 UNL     1      19.792  10.736 126.221  1.00  0.00    -0.617 OA
HETATM   27  O15 UNL     1      19.914  13.003 126.118  1.00  0.00    -0.617 OA
ENDBRANCH  23  24
ENDBRANCH   6  23
TORSDOF 9
ENDMDL
