MODEL 3
REMARK VINA RESULT: -6.493970916      1.415      1.843
REMARK  9 active torsions:
REMARK  status: ('A' for Active; 'I' for Inactive)
REMARK    1  A    between atoms: O1_1  and  C1_3 
REMARK    2  A    between atoms: C2_4  and  O2_5 
REMARK    3  A    between atoms: C3_7  and  O3_8 
REMARK    4  A    between atoms: O3_8  and  P1_9 
REMARK    5  A    between atoms: C4_13  and  O7_14 
REMARK    6  A    between atoms: C5_16  and  O8_17 
REMARK    7  A    between atoms: O8_17  and  P2_18 
REMARK    8  A    between atoms: C6_22  and  O12_23 
REMARK    9  A    between atoms: O12_23  and  P3_24 
ROOT
HETATM    1  C1  UNL     1      17.133  10.235 124.943  1.00  0.00     0.181 C 
HETATM    2  C2  UNL     1      15.735  10.007 124.484  1.00  0.00     0.181 C 
HETATM    3  C3  UNL     1      15.467  10.471 123.076  1.00  0.00     0.198 C 
HETATM    4  C4  UNL     1      15.991  11.873 122.865  1.00  0.00     0.182 C 
HETATM    5  C5  UNL     1      17.445  11.992 123.242  1.00  0.00     0.199 C 
HETATM    6  C6  UNL     1      17.612  11.656 124.714  1.00  0.00     0.199 C 
ENDROOT
BRANCH   3   7
HETATM    7  O3  UNL     1      14.085  10.483 122.905  1.00  0.00    -0.272 OA
BRANCH   7   8
HETATM    8  P1  UNL     1      13.478   9.415 121.975  1.00  0.00     0.422 P 
HETATM    9  O4  UNL     1      12.963   8.370 120.972  1.00  0.00    -0.617 OA
HETATM   10  O5  UNL     1      12.183   9.184 122.979  1.00  0.00    -0.617 OA
HETATM   11  O6  UNL     1      13.355  10.605 120.811  1.00  0.00    -0.617 OA
ENDBRANCH   7   8
ENDBRANCH   3   7
BRANCH   2  12
HETATM   12  O2  UNL     1      14.801  10.560 125.374  1.00  0.00    -0.390 OA
ATOM     13  H2  UNL     1      13.989  10.068 125.380  1.00  0.00     0.210 HD
ENDBRANCH   2  12
BRANCH   4  14
HETATM   14  O7  UNL     1      15.835  12.259 121.556  1.00  0.00    -0.390 OA
ATOM     15  H7  UNL     1      15.812  11.502 120.983  1.00  0.00     0.210 HD
ENDBRANCH   4  14
BRANCH   1  16
HETATM   16  O1  UNL     1      17.155  10.030 126.338  1.00  0.00    -0.390 OA
ATOM     17  H1  UNL     1      17.949  10.431 126.670  1.00  0.00     0.210 HD
ENDBRANCH   1  16
BRANCH   5  18
HETATM   18  O8  UNL     1      17.876  13.256 122.972  1.00  0.00    -0.272 OA
BRANCH  18  19
HETATM   19  P2  UNL     1      19.294  13.309 122.127  1.00  0.00     0.422 P 
HETATM   20  O9  UNL     1      19.508  14.786 122.444  1.00  0.00    -0.617 OA
HETATM   21  O10 UNL     1      20.733  12.975 122.956  1.00  0.00    -0.617 OA
HETATM   22  O11 UNL     1      19.337  13.417 120.515  1.00  0.00    -0.617 OA
ENDBRANCH  18  19
ENDBRANCH   5  18
BRANCH   6  23
HETATM   23  O12 UNL     1      18.938  11.694 125.050  1.00  0.00    -0.272 OA
BRANCH  23  24
HETATM   24  P3  UNL     1      19.169  12.744 126.290  1.00  0.00     0.422 P 
HETATM   25  O13 UNL     1      20.650  12.377 126.428  1.00  0.00    -0.617 OA
HETATM   26  O14 UNL     1      17.693  13.148 126.230  1.00  0.00    -0.617 OA
HETATM   27  O15 UNL     1      18.959  12.173 127.846  1.00  0.00    -0.617 OA
ENDBRANCH  23  24
ENDBRANCH   6  23
TORSDOF 9
ENDMDL
