MODEL 2
REMARK VINA RESULT: -6.582536644      2.270      5.005
REMARK  9 active torsions:
REMARK  status: ('A' for Active; 'I' for Inactive)
REMARK    1  A    between atoms: O1_1  and  C1_3 
REMARK    2  A    between atoms: C2_4  and  O2_5 
REMARK    3  A    between atoms: C3_7  and  O3_8 
REMARK    4  A    between atoms: O3_8  and  P1_9 
REMARK    5  A    between atoms: C4_13  and  O7_14 
REMARK    6  A    between atoms: C5_16  and  O8_17 
REMARK    7  A    between atoms: O8_17  and  P2_18 
REMARK    8  A    between atoms: C6_22  and  O12_23 
REMARK    9  A    between atoms: O12_23  and  P3_24 
ROOT
HETATM    1  C1  UNL     1      16.139  11.515 122.835  1.00  0.00     0.181 C 
HETATM    2  C2  UNL     1      15.723  10.121 123.156  1.00  0.00     0.181 C 
HETATM    3  C3  UNL     1      15.961   9.724 124.589  1.00  0.00     0.198 C 
HETATM    4  C4  UNL     1      17.362  10.091 125.021  1.00  0.00     0.182 C 
HETATM    5  C5  UNL     1      17.665  11.545 124.771  1.00  0.00     0.199 C 
HETATM    6  C6  UNL     1      17.553  11.834 123.284  1.00  0.00     0.199 C 
ENDROOT
BRANCH   3   7
HETATM    7  O3  UNL     1      15.823   8.340 124.659  1.00  0.00    -0.272 OA
BRANCH   7   8
HETATM    8  P1  UNL     1      14.851   7.778 125.713  1.00  0.00     0.422 P 
HETATM    9  O4  UNL     1      13.790   7.263 126.700  1.00  0.00    -0.617 OA
HETATM   10  O5  UNL     1      16.091   7.207 126.647  1.00  0.00    -0.617 OA
HETATM   11  O6  UNL     1      14.343   9.346 125.972  1.00  0.00    -0.617 OA
ENDBRANCH   7   8
ENDBRANCH   3   7
BRANCH   2  12
HETATM   12  O2  UNL     1      16.307   9.192 122.281  1.00  0.00    -0.390 OA
ATOM     13  H2  UNL     1      17.035   8.736 122.688  1.00  0.00     0.210 HD
ENDBRANCH   2  12
BRANCH   4  14
HETATM   14  O7  UNL     1      17.547   9.818 126.355  1.00  0.00    -0.390 OA
ATOM     15  H7  UNL     1      17.670  10.620 126.848  1.00  0.00     0.210 HD
ENDBRANCH   4  14
BRANCH   1  16
HETATM   16  O1  UNL     1      16.133  11.641 121.429  1.00  0.00    -0.390 OA
ATOM     17  H1  UNL     1      16.421  12.522 121.224  1.00  0.00     0.210 HD
ENDBRANCH   1  16
BRANCH   5  18
HETATM   18  O8  UNL     1      18.913  11.830 125.237  1.00  0.00    -0.272 OA
BRANCH  18  19
HETATM   19  P2  UNL     1      18.925  12.464 126.762  1.00  0.00     0.422 P 
HETATM   20  O9  UNL     1      20.360  12.964 126.617  1.00  0.00    -0.617 OA
HETATM   21  O10 UNL     1      18.439  14.074 126.963  1.00  0.00    -0.617 OA
HETATM   22  O11 UNL     1      19.139  11.550 128.077  1.00  0.00    -0.617 OA
ENDBRANCH  18  19
ENDBRANCH   5  18
BRANCH   6  23
HETATM   23  O12 UNL     1      17.758  13.166 123.054  1.00  0.00    -0.272 OA
BRANCH  23  24
HETATM   24  P3  UNL     1      19.084  13.371 122.110  1.00  0.00     0.422 P 
HETATM   25  O13 UNL     1      19.072  11.913 121.640  1.00  0.00    -0.617 OA
HETATM   26  O14 UNL     1      19.178  14.835 122.549  1.00  0.00    -0.617 OA
HETATM   27  O15 UNL     1      20.581  13.063 122.786  1.00  0.00    -0.617 OA
ENDBRANCH  23  24
ENDBRANCH   6  23
TORSDOF 9
ENDMDL
