MODEL 1
REMARK VINA RESULT: -7.557017915      0.000      0.000
REMARK  8 active torsions:
REMARK  status: ('A' for Active; 'I' for Inactive)
REMARK    1  A    between atoms: P1_2  and  O4_5 
REMARK    2  A    between atoms: O4_5  and  C1_6 
REMARK    3  A    between atoms: C1_6  and  C2_7 
REMARK    4  A    between atoms: C3_9  and  O6_10 
REMARK    5  A    between atoms: C3_9  and  C4_12 
REMARK    6  A    between atoms: C4_12  and  O7_13 
REMARK    7  A    between atoms: C5_15  and  O8_16 
REMARK    8  A    between atoms: C6_18  and  O9_19 
ROOT
HETATM    1  C2  UNL     1      30.666  74.100  33.229  1.00  0.00     0.181 C 
HETATM    2  O5  UNL     1      30.006  75.060  33.907  1.00  0.00    -0.341 OA
HETATM    3  C3  UNL     1      30.172  76.302  33.392  1.00  0.00     0.213 C 
HETATM    4  C5  UNL     1      31.089  76.106  32.159  1.00  0.00     0.213 C 
HETATM    5  C6  UNL     1      30.750  74.654  31.846  1.00  0.00     0.183 C 
ENDROOT
BRANCH   1   6
HETATM    6  C1  UNL     1      31.995  73.690  33.827  1.00  0.00     0.217 C 
BRANCH   6   7
HETATM    7  O4  UNL     1      32.097  74.358  35.068  1.00  0.00    -0.280 OA
BRANCH   7   8
HETATM    8  P1  UNL     1      33.502  73.804  35.787  1.00  0.00     0.422 P 
HETATM    9  O1  UNL     1      34.352  74.928  36.229  1.00  0.00    -0.617 OA
HETATM   10  O2  UNL     1      34.354  72.949  34.566  1.00  0.00    -0.617 OA
HETATM   11  O3  UNL     1      33.205  72.705  37.022  1.00  0.00    -0.617 OA
ENDBRANCH   7   8
ENDBRANCH   6   7
ENDBRANCH   1   6
BRANCH   5  12
HETATM   12  O9  UNL     1      29.425  74.646  31.355  1.00  0.00    -0.390 OA
ATOM     13  H9  UNL     1      29.325  75.464  30.882  1.00  0.00     0.210 HD
ENDBRANCH   5  12
BRANCH   3  14
HETATM   14  O6  UNL     1      30.777  77.139  34.308  1.00  0.00    -0.362 OA
ATOM     15  H6  UNL     1      30.537  78.045  34.150  1.00  0.00     0.213 HD
ENDBRANCH   3  14
BRANCH   3  16
HETATM   16  C4  UNL     1      28.866  76.901  32.903  1.00  0.00     0.235 C 
BRANCH  16  17
HETATM   17  O7  UNL     1      27.800  76.016  33.092  1.00  0.00    -0.395 OA
ATOM     18  H7  UNL     1      27.389  75.789  32.265  1.00  0.00     0.209 HD
ENDBRANCH  16  17
ENDBRANCH   3  16
BRANCH   4  19
HETATM   19  O8  UNL     1      32.376  76.258  32.616  1.00  0.00    -0.387 OA
ATOM     20  H8  UNL     1      32.898  76.493  31.857  1.00  0.00     0.210 HD
ENDBRANCH   4  19
TORSDOF 8
ENDMDL
