MODEL 3
REMARK VINA RESULT: -7.480103842      1.264      1.761
REMARK  8 active torsions:
REMARK  status: ('A' for Active; 'I' for Inactive)
REMARK    1  A    between atoms: P1_2  and  O4_5 
REMARK    2  A    between atoms: O4_5  and  C1_6 
REMARK    3  A    between atoms: C1_6  and  C2_7 
REMARK    4  A    between atoms: C3_9  and  O6_10 
REMARK    5  A    between atoms: C3_9  and  C4_12 
REMARK    6  A    between atoms: C4_12  and  O7_13 
REMARK    7  A    between atoms: C5_15  and  O8_16 
REMARK    8  A    between atoms: C6_18  and  O9_19 
ROOT
HETATM    1  C2  UNL     1      31.336  74.146  33.875  1.00  0.00     0.181 C 
HETATM    2  O5  UNL     1      31.291  75.319  34.537  1.00  0.00    -0.341 OA
HETATM    3  C3  UNL     1      31.544  76.395  33.754  1.00  0.00     0.213 C 
HETATM    4  C5  UNL     1      31.783  75.815  32.338  1.00  0.00     0.213 C 
HETATM    5  C6  UNL     1      30.980  74.527  32.477  1.00  0.00     0.183 C 
ENDROOT
BRANCH   1   6
HETATM    6  C1  UNL     1      32.637  73.382  34.010  1.00  0.00     0.217 C 
BRANCH   6   7
HETATM    7  O4  UNL     1      32.504  72.569  35.158  1.00  0.00    -0.280 OA
BRANCH   7   8
HETATM    8  P1  UNL     1      33.640  73.116  36.257  1.00  0.00     0.422 P 
HETATM    9  O1  UNL     1      33.046  73.287  37.597  1.00  0.00    -0.617 OA
HETATM   10  O2  UNL     1      34.131  74.664  35.699  1.00  0.00    -0.617 OA
HETATM   11  O3  UNL     1      35.020  72.159  36.288  1.00  0.00    -0.617 OA
ENDBRANCH   7   8
ENDBRANCH   6   7
ENDBRANCH   1   6
BRANCH   5  12
HETATM   12  O9  UNL     1      29.619  74.903  32.522  1.00  0.00    -0.390 OA
ATOM     13  H9  UNL     1      29.129  74.107  32.352  1.00  0.00     0.210 HD
ENDBRANCH   5  12
BRANCH   3  14
HETATM   14  O6  UNL     1      32.669  77.067  34.190  1.00  0.00    -0.362 OA
ATOM     15  H6  UNL     1      33.419  76.484  34.230  1.00  0.00     0.213 HD
ENDBRANCH   3  14
BRANCH   3  16
HETATM   16  C4  UNL     1      30.359  77.338  33.670  1.00  0.00     0.235 C 
BRANCH  16  17
HETATM   17  O7  UNL     1      30.476  78.384  34.591  1.00  0.00    -0.395 OA
ATOM     18  H7  UNL     1      30.366  78.074  35.482  1.00  0.00     0.209 HD
ENDBRANCH  16  17
ENDBRANCH   3  16
BRANCH   4  19
HETATM   19  O8  UNL     1      33.134  75.584  32.245  1.00  0.00    -0.387 OA
ATOM     20  H8  UNL     1      33.478  76.262  31.675  1.00  0.00     0.210 HD
ENDBRANCH   4  19
TORSDOF 8
ENDMDL
