MODEL 2
REMARK VINA RESULT: -7.491473467      1.204      1.931
REMARK  8 active torsions:
REMARK  status: ('A' for Active; 'I' for Inactive)
REMARK    1  A    between atoms: P1_2  and  O4_5 
REMARK    2  A    between atoms: O4_5  and  C1_6 
REMARK    3  A    between atoms: C1_6  and  C2_7 
REMARK    4  A    between atoms: C3_9  and  O6_10 
REMARK    5  A    between atoms: C3_9  and  C4_12 
REMARK    6  A    between atoms: C4_12  and  O7_13 
REMARK    7  A    between atoms: C5_15  and  O8_16 
REMARK    8  A    between atoms: C6_18  and  O9_19 
ROOT
HETATM    1  C2  UNL     1      31.172  74.214  33.881  1.00  0.00     0.181 C 
HETATM    2  O5  UNL     1      31.190  75.379  34.560  1.00  0.00    -0.341 OA
HETATM    3  C3  UNL     1      31.445  76.457  33.782  1.00  0.00     0.213 C 
HETATM    4  C5  UNL     1      31.608  75.890  32.349  1.00  0.00     0.213 C 
HETATM    5  C6  UNL     1      30.771  74.625  32.505  1.00  0.00     0.183 C 
ENDROOT
BRANCH   1   6
HETATM    6  C1  UNL     1      32.452  73.409  33.953  1.00  0.00     0.217 C 
BRANCH   6   7
HETATM    7  O4  UNL     1      32.391  72.669  35.156  1.00  0.00    -0.280 OA
BRANCH   7   8
HETATM    8  P1  UNL     1      33.663  73.204  36.102  1.00  0.00     0.422 P 
HETATM    9  O1  UNL     1      34.806  72.272  36.033  1.00  0.00    -0.617 OA
HETATM   10  O2  UNL     1      33.083  73.204  37.719  1.00  0.00    -0.617 OA
HETATM   11  O3  UNL     1      34.107  74.785  35.752  1.00  0.00    -0.617 OA
ENDBRANCH   7   8
ENDBRANCH   6   7
ENDBRANCH   1   6
BRANCH   5  12
HETATM   12  O9  UNL     1      29.426  75.043  32.611  1.00  0.00    -0.390 OA
ATOM     13  H9  UNL     1      29.320  75.727  31.959  1.00  0.00     0.210 HD
ENDBRANCH   5  12
BRANCH   3  14
HETATM   14  O6  UNL     1      32.608  77.088  34.179  1.00  0.00    -0.362 OA
ATOM     15  H6  UNL     1      33.340  76.827  33.632  1.00  0.00     0.213 HD
ENDBRANCH   3  14
BRANCH   3  16
HETATM   16  C4  UNL     1      30.287  77.437  33.759  1.00  0.00     0.235 C 
BRANCH  16  17
HETATM   17  O7  UNL     1      30.518  78.516  34.619  1.00  0.00    -0.395 OA
ATOM     18  H7  UNL     1      30.742  78.218  35.493  1.00  0.00     0.209 HD
ENDBRANCH  16  17
ENDBRANCH   3  16
BRANCH   4  19
HETATM   19  O8  UNL     1      32.946  75.619  32.198  1.00  0.00    -0.387 OA
ATOM     20  H8  UNL     1      33.144  75.778  31.282  1.00  0.00     0.210 HD
ENDBRANCH   4  19
TORSDOF 8
ENDMDL
