MODEL 4
REMARK VINA RESULT: -7.864618498      3.077      5.270
REMARK  1 active torsions:
REMARK  status: ('A' for Active; 'I' for Inactive)
REMARK    1  A    between atoms: C2_2  and  C3_3 
ROOT
HETATM    1  C3  UNL     1      19.247  27.782   9.270  1.00  0.00     0.041 A 
HETATM    2  N1  UNL     1      19.069  26.473   9.641  1.00  0.00    -0.302 N 
ATOM      3  H1  UNL     1      18.385  25.838   9.229  1.00  0.00     0.186 HD
HETATM    4  N2  UNL     1      19.907  26.154  10.603  1.00  0.00    -0.279 N 
ATOM      5  H2  UNL     1      19.962  25.235  11.043  1.00  0.00     0.189 HD
HETATM    6  C4  UNL     1      20.674  27.193  10.926  1.00  0.00     0.179 A 
HETATM    7  O1  UNL     1      21.642  27.390  11.801  1.00  0.00    -0.255 OA
HETATM    8  C5  UNL     1      22.244  28.542  11.913  1.00  0.00     0.300 A 
HETATM    9  O2  UNL     1      23.177  28.675  12.779  1.00  0.00    -0.259 OA
HETATM   10  C6  UNL     1      21.920  29.628  11.138  1.00  0.00     0.051 A 
HETATM   11  C7  UNL     1      22.569  30.838  11.268  1.00  0.00     0.018 A 
HETATM   12  C8  UNL     1      22.166  31.847  10.443  1.00  0.00     0.001 A 
HETATM   13  C9  UNL     1      21.172  31.715   9.516  1.00  0.00     0.001 A 
HETATM   14  C10 UNL     1      20.511  30.478   9.385  1.00  0.00     0.013 A 
HETATM   15  C11 UNL     1      20.896  29.456  10.199  1.00  0.00    -0.003 A 
HETATM   16  C12 UNL     1      20.264  28.229  10.088  1.00  0.00     0.052 A 
ENDROOT
BRANCH   1  17
HETATM   17  C2  UNL     1      18.440  28.411   8.233  1.00  0.00     0.055 C 
HETATM   18  C1  UNL     1      17.138  29.036   8.764  1.00  0.00     0.011 C 
ENDBRANCH   1  17
TORSDOF 1
ENDMDL
