MODEL 19
REMARK VINA RESULT: -6.385361841      1.528      2.057
REMARK  1 active torsions:
REMARK  status: ('A' for Active; 'I' for Inactive)
REMARK    1  A    between atoms: C2_2  and  C3_3 
ROOT
HETATM    1  C3  UNL     1      21.074  31.739  10.461  1.00  0.00     0.041 A 
HETATM    2  N1  UNL     1      20.465  32.641   9.624  1.00  0.00    -0.302 N 
ATOM      3  H1  UNL     1      20.648  33.644   9.616  1.00  0.00     0.186 HD
HETATM    4  N2  UNL     1      19.612  32.025   8.835  1.00  0.00    -0.279 N 
ATOM      5  H2  UNL     1      19.040  32.487   8.128  1.00  0.00     0.189 HD
HETATM    6  C4  UNL     1      19.597  30.717   9.083  1.00  0.00     0.179 A 
HETATM    7  O1  UNL     1      18.937  29.690   8.585  1.00  0.00    -0.255 OA
HETATM    8  C5  UNL     1      19.118  28.476   9.024  1.00  0.00     0.300 A 
HETATM    9  O2  UNL     1      18.449  27.517   8.501  1.00  0.00    -0.259 OA
HETATM   10  C6  UNL     1      20.001  28.175  10.032  1.00  0.00     0.051 A 
HETATM   11  C7  UNL     1      20.182  26.884  10.483  1.00  0.00     0.018 A 
HETATM   12  C8  UNL     1      21.089  26.702  11.488  1.00  0.00     0.001 A 
HETATM   13  C9  UNL     1      21.806  27.718  12.052  1.00  0.00     0.001 A 
HETATM   14  C10 UNL     1      21.619  29.035  11.589  1.00  0.00     0.013 A 
HETATM   15  C11 UNL     1      20.719  29.241  10.587  1.00  0.00    -0.003 A 
HETATM   16  C12 UNL     1      20.519  30.526  10.112  1.00  0.00     0.052 A 
ENDROOT
BRANCH   1  17
HETATM   17  C2  UNL     1      22.057  32.146  11.457  1.00  0.00     0.055 C 
HETATM   18  C1  UNL     1      23.273  32.873  10.857  1.00  0.00     0.011 C 
ENDBRANCH   1  17
TORSDOF 1
ENDMDL
