MODEL 1
REMARK VINA RESULT: -8.450409409      0.000      0.000
REMARK  1 active torsions:
REMARK  status: ('A' for Active; 'I' for Inactive)
REMARK    1  A    between atoms: C2_2  and  C3_3 
ROOT
HETATM    1  C3  UNL     1      22.479  30.442  11.393  1.00  0.00     0.041 A 
HETATM    2  N1  UNL     1      22.634  31.780  11.128  1.00  0.00    -0.302 N 
ATOM      3  H1  UNL     1      23.369  32.370  11.518  1.00  0.00     0.186 HD
HETATM    4  N2  UNL     1      21.699  32.191  10.299  1.00  0.00    -0.279 N 
ATOM      5  H2  UNL     1      21.608  33.148   9.957  1.00  0.00     0.189 HD
HETATM    6  C4  UNL     1      20.887  31.190   9.967  1.00  0.00     0.179 A 
HETATM    7  O1  UNL     1      19.826  31.080   9.192  1.00  0.00    -0.255 OA
HETATM    8  C5  UNL     1      19.200  29.946   9.039  1.00  0.00     0.300 A 
HETATM    9  O2  UNL     1      18.175  29.899   8.272  1.00  0.00    -0.259 OA
HETATM   10  C6  UNL     1      19.592  28.790   9.667  1.00  0.00     0.051 A 
HETATM   11  C7  UNL     1      18.920  27.599   9.492  1.00  0.00     0.018 A 
HETATM   12  C8  UNL     1      19.401  26.513  10.165  1.00  0.00     0.001 A 
HETATM   13  C9  UNL     1      20.492  26.554  10.984  1.00  0.00     0.001 A 
HETATM   14  C10 UNL     1      21.177  27.772  11.161  1.00  0.00     0.013 A 
HETATM   15  C11 UNL     1      20.715  28.869  10.500  1.00  0.00    -0.003 A 
HETATM   16  C12 UNL     1      21.372  30.078  10.655  1.00  0.00     0.052 A 
ENDROOT
BRANCH   1  17
HETATM   17  C2  UNL     1      23.367  29.723  12.296  1.00  0.00     0.055 C 
HETATM   18  C1  UNL     1      24.340  30.638  13.059  1.00  0.00     0.011 C 
ENDBRANCH   1  17
TORSDOF 1
ENDMDL
