MODEL 11
REMARK VINA RESULT: -7.331318892      3.054      5.699
REMARK  1 active torsions:
REMARK  status: ('A' for Active; 'I' for Inactive)
REMARK    1  A    between atoms: C2_2  and  C3_3 
ROOT
HETATM    1  C3  UNL     1      20.988  29.603  10.439  1.00  0.00     0.041 A 
HETATM    2  N1  UNL     1      20.705  28.272  10.617  1.00  0.00    -0.302 N 
ATOM      3  H1  UNL     1      19.920  27.780  10.191  1.00  0.00     0.186 HD
HETATM    4  N2  UNL     1      21.593  27.721  11.417  1.00  0.00    -0.279 N 
ATOM      5  H2  UNL     1      21.590  26.741  11.697  1.00  0.00     0.189 HD
HETATM    6  C4  UNL     1      22.495  28.617  11.810  1.00  0.00     0.179 A 
HETATM    7  O1  UNL     1      23.558  28.577  12.591  1.00  0.00    -0.255 OA
HETATM    8  C5  UNL     1      24.289  29.633  12.814  1.00  0.00     0.300 A 
HETATM    9  O2  UNL     1      25.310  29.534  13.580  1.00  0.00    -0.259 OA
HETATM   10  C6  UNL     1      24.011  30.859  12.261  1.00  0.00     0.051 A 
HETATM   11  C7  UNL     1      24.797  31.966  12.505  1.00  0.00     0.018 A 
HETATM   12  C8  UNL     1      24.428  33.132  11.899  1.00  0.00     0.001 A 
HETATM   13  C9  UNL     1      23.341  33.248  11.081  1.00  0.00     0.001 A 
HETATM   14  C10 UNL     1      22.540  32.116  10.833  1.00  0.00     0.013 A 
HETATM   15  C11 UNL     1      22.889  30.941  11.427  1.00  0.00    -0.003 A 
HETATM   16  C12 UNL     1      22.120  29.813  11.197  1.00  0.00     0.052 A 
ENDROOT
BRANCH   1  17
HETATM   17  C2  UNL     1      20.157  30.468   9.611  1.00  0.00     0.055 C 
HETATM   18  C1  UNL     1      19.083  29.707   8.814  1.00  0.00     0.011 C 
ENDBRANCH   1  17
TORSDOF 1
ENDMDL
