MODEL 6
REMARK VINA RESULT: -7.646537877      2.897      5.391
REMARK  1 active torsions:
REMARK  status: ('A' for Active; 'I' for Inactive)
REMARK    1  A    between atoms: C2_2  and  C3_3 
ROOT
HETATM    1  C3  UNL     1      20.206  29.011   9.894  1.00  0.00     0.041 A 
HETATM    2  N1  UNL     1      19.946  27.674  10.071  1.00  0.00    -0.302 N 
ATOM      3  H1  UNL     1      19.186  27.164   9.621  1.00  0.00     0.186 HD
HETATM    4  N2  UNL     1      20.818  27.147  10.902  1.00  0.00    -0.279 N 
ATOM      5  H2  UNL     1      20.827  26.169  11.189  1.00  0.00     0.189 HD
HETATM    6  C4  UNL     1      21.687  28.065  11.320  1.00  0.00     0.179 A 
HETATM    7  O1  UNL     1      22.724  28.052  12.136  1.00  0.00    -0.255 OA
HETATM    8  C5  UNL     1      23.425  29.125  12.377  1.00  0.00     0.300 A 
HETATM    9  O2  UNL     1      24.422  29.052  13.177  1.00  0.00    -0.259 OA
HETATM   10  C6  UNL     1      23.139  30.341  11.808  1.00  0.00     0.051 A 
HETATM   11  C7  UNL     1      23.892  31.466  12.072  1.00  0.00     0.018 A 
HETATM   12  C8  UNL     1      23.518  32.621  11.447  1.00  0.00     0.001 A 
HETATM   13  C9  UNL     1      22.457  32.709  10.593  1.00  0.00     0.001 A 
HETATM   14  C10 UNL     1      21.690  31.559  10.325  1.00  0.00     0.013 A 
HETATM   15  C11 UNL     1      22.044  30.395  10.937  1.00  0.00    -0.003 A 
HETATM   16  C12 UNL     1      21.308  29.249  10.688  1.00  0.00     0.052 A 
ENDROOT
BRANCH   1  17
HETATM   17  C2  UNL     1      19.385  29.853   9.035  1.00  0.00     0.055 C 
HETATM   18  C1  UNL     1      18.067  29.187   8.599  1.00  0.00     0.011 C 
ENDBRANCH   1  17
TORSDOF 1
ENDMDL
