MODEL 7
REMARK VINA RESULT: -7.619822147      1.316      1.667
REMARK  1 active torsions:
REMARK  status: ('A' for Active; 'I' for Inactive)
REMARK    1  A    between atoms: C2_2  and  C3_3 
ROOT
HETATM    1  C3  UNL     1      22.799  29.815  11.704  1.00  0.00     0.041 A 
HETATM    2  N1  UNL     1      23.500  30.958  11.998  1.00  0.00    -0.302 N 
ATOM      3  H1  UNL     1      24.319  31.000  12.605  1.00  0.00     0.186 HD
HETATM    4  N2  UNL     1      22.965  31.991  11.384  1.00  0.00    -0.279 N 
ATOM      5  H2  UNL     1      23.312  32.948  11.450  1.00  0.00     0.189 HD
HETATM    6  C4  UNL     1      21.909  31.618  10.665  1.00  0.00     0.179 A 
HETATM    7  O1  UNL     1      21.049  32.251   9.889  1.00  0.00    -0.255 OA
HETATM    8  C5  UNL     1      20.078  31.625   9.285  1.00  0.00     0.300 A 
HETATM    9  O2  UNL     1      19.274  32.292   8.543  1.00  0.00    -0.259 OA
HETATM   10  C6  UNL     1      19.875  30.273   9.408  1.00  0.00     0.051 A 
HETATM   11  C7  UNL     1      18.843  29.627   8.759  1.00  0.00     0.018 A 
HETATM   12  C8  UNL     1      18.739  28.280   8.952  1.00  0.00     0.001 A 
HETATM   13  C9  UNL     1      19.591  27.561   9.740  1.00  0.00     0.001 A 
HETATM   14  C10 UNL     1      20.643  28.223  10.402  1.00  0.00     0.013 A 
HETATM   15  C11 UNL     1      20.767  29.568  10.224  1.00  0.00    -0.003 A 
HETATM   16  C12 UNL     1      21.795  30.242  10.861  1.00  0.00     0.052 A 
ENDROOT
BRANCH   1  17
HETATM   17  C2  UNL     1      23.161  28.519  12.262  1.00  0.00     0.055 C 
HETATM   18  C1  UNL     1      24.431  28.557  13.131  1.00  0.00     0.011 C 
ENDBRANCH   1  17
TORSDOF 1
ENDMDL
