MODEL 7
REMARK VINA RESULT: -7.383929956      0.990      1.071
REMARK  2 active torsions:
REMARK  status: ('A' for Active; 'I' for Inactive)
REMARK    1  A    between atoms: C2_2  and  C3_3 
REMARK    2  A    between atoms: C3_3  and  C4_4 
ROOT
HETATM    1  C4  UNL     1      15.617  -9.276  -6.913  1.00  0.00     0.041 A 
HETATM    2  N1  UNL     1      15.701  -9.974  -5.748  1.00  0.00    -0.302 N 
ATOM      3  H1  UNL     1      16.281  -9.701  -4.955  1.00  0.00     0.186 HD
HETATM    4  N2  UNL     1      14.942 -11.043  -5.774  1.00  0.00    -0.279 N 
ATOM      5  H2  UNL     1      14.839 -11.721  -5.019  1.00  0.00     0.189 HD
HETATM    6  C5  UNL     1      14.326 -11.092  -6.965  1.00  0.00     0.179 A 
HETATM    7  O1  UNL     1      13.481 -11.936  -7.489  1.00  0.00    -0.255 OA
HETATM    8  C6  UNL     1      12.971 -11.826  -8.687  1.00  0.00     0.300 A 
HETATM    9  O2  UNL     1      12.162 -12.692  -9.105  1.00  0.00    -0.259 OA
HETATM   10  C7  UNL     1      13.359 -10.733  -9.452  1.00  0.00     0.051 A 
HETATM   11  C8  UNL     1      12.823 -10.617 -10.717  1.00  0.00     0.018 A 
HETATM   12  C9  UNL     1      13.216  -9.530 -11.464  1.00  0.00     0.001 A 
HETATM   13  C10 UNL     1      14.102  -8.596 -10.986  1.00  0.00     0.001 A 
HETATM   14  C11 UNL     1      14.654  -8.703  -9.703  1.00  0.00     0.013 A 
HETATM   15  C12 UNL     1      14.258  -9.787  -8.962  1.00  0.00    -0.003 A 
HETATM   16  C13 UNL     1      14.744  -9.976  -7.700  1.00  0.00     0.052 A 
ENDROOT
BRANCH   1  17
HETATM   17  C3  UNL     1      16.350  -8.023  -7.190  1.00  0.00     0.059 C 
BRANCH  17  18
HETATM   18  C2  UNL     1      17.002  -7.559  -5.864  1.00  0.00     0.002 C 
HETATM   19  C1  UNL     1      16.444  -6.249  -5.397  1.00  0.00     0.005 C 
ENDBRANCH  17  18
ENDBRANCH   1  17
TORSDOF 2
ENDMDL
