MODEL 6
REMARK VINA RESULT: -7.426158899      2.951      5.675
REMARK  2 active torsions:
REMARK  status: ('A' for Active; 'I' for Inactive)
REMARK    1  A    between atoms: C2_2  and  C3_3 
REMARK    2  A    between atoms: C3_3  and  C4_4 
ROOT
HETATM    1  C4  UNL     1      13.999 -10.043  -8.962  1.00  0.00     0.041 A 
HETATM    2  N1  UNL     1      13.640  -9.647 -10.214  1.00  0.00    -0.302 N 
ATOM      3  H1  UNL     1      13.005 -10.165 -10.821  1.00  0.00     0.186 HD
HETATM    4  N2  UNL     1      14.215  -8.515 -10.541  1.00  0.00    -0.279 N 
ATOM      5  H2  UNL     1      14.100  -8.020 -11.426  1.00  0.00     0.189 HD
HETATM    6  C5  UNL     1      14.980  -8.120  -9.512  1.00  0.00     0.179 A 
HETATM    7  O1  UNL     1      15.747  -7.081  -9.329  1.00  0.00    -0.255 OA
HETATM    8  C6  UNL     1      16.434  -6.849  -8.242  1.00  0.00     0.300 A 
HETATM    9  O2  UNL     1      17.146  -5.817  -8.158  1.00  0.00    -0.259 OA
HETATM   10  C7  UNL     1      16.337  -7.777  -7.212  1.00  0.00     0.051 A 
HETATM   11  C8  UNL     1      17.063  -7.535  -6.065  1.00  0.00     0.018 A 
HETATM   12  C9  UNL     1      16.958  -8.463  -5.053  1.00  0.00     0.001 A 
HETATM   13  C10 UNL     1      16.174  -9.583  -5.167  1.00  0.00     0.001 A 
HETATM   14  C11 UNL     1      15.432  -9.842  -6.327  1.00  0.00     0.013 A 
HETATM   15  C12 UNL     1      15.539  -8.913  -7.332  1.00  0.00    -0.003 A 
HETATM   16  C13 UNL     1      14.853  -9.080  -8.502  1.00  0.00     0.052 A 
ENDROOT
BRANCH   1  17
HETATM   17  C3  UNL     1      13.515 -11.277  -8.306  1.00  0.00     0.059 C 
BRANCH  17  18
HETATM   18  C2  UNL     1      12.210 -11.705  -9.021  1.00  0.00     0.002 C 
HETATM   19  C1  UNL     1      12.367 -13.017  -9.729  1.00  0.00     0.005 C 
ENDBRANCH  17  18
ENDBRANCH   1  17
TORSDOF 2
ENDMDL
