MODEL 5
REMARK VINA RESULT: -7.472563942      3.007      5.391
REMARK  2 active torsions:
REMARK  status: ('A' for Active; 'I' for Inactive)
REMARK    1  A    between atoms: C2_2  and  C3_3 
REMARK    2  A    between atoms: C3_3  and  C4_4 
ROOT
HETATM    1  C4  UNL     1      13.350  -9.655 -10.460  1.00  0.00     0.041 A 
HETATM    2  N1  UNL     1      13.508  -8.836 -11.536  1.00  0.00    -0.302 N 
ATOM      3  H1  UNL     1      12.956  -8.898 -12.391  1.00  0.00     0.186 HD
HETATM    4  N2  UNL     1      14.460  -7.958 -11.334  1.00  0.00    -0.279 N 
ATOM      5  H2  UNL     1      14.762  -7.241 -11.994  1.00  0.00     0.189 HD
HETATM    6  C5  UNL     1      14.970  -8.166 -10.111  1.00  0.00     0.179 A 
HETATM    7  O1  UNL     1      15.920  -7.577  -9.438  1.00  0.00    -0.255 OA
HETATM    8  C6  UNL     1      16.294  -7.917  -8.233  1.00  0.00     0.300 A 
HETATM    9  O2  UNL     1      17.221  -7.287  -7.664  1.00  0.00    -0.259 OA
HETATM   10  C7  UNL     1      15.630  -8.978  -7.630  1.00  0.00     0.051 A 
HETATM   11  C8  UNL     1      16.024  -9.338  -6.359  1.00  0.00     0.018 A 
HETATM   12  C9  UNL     1      15.359 -10.392  -5.774  1.00  0.00     0.001 A 
HETATM   13  C10 UNL     1      14.349 -11.064  -6.416  1.00  0.00     0.001 A 
HETATM   14  C11 UNL     1      13.939 -10.710  -7.707  1.00  0.00     0.013 A 
HETATM   15  C12 UNL     1      14.604  -9.658  -8.285  1.00  0.00    -0.003 A 
HETATM   16  C13 UNL     1      14.275  -9.240  -9.543  1.00  0.00     0.052 A 
ENDROOT
BRANCH   1  17
HETATM   17  C3  UNL     1      12.353 -10.744 -10.379  1.00  0.00     0.059 C 
BRANCH  17  18
HETATM   18  C2  UNL     1      13.122 -12.087 -10.448  1.00  0.00     0.002 C 
HETATM   19  C1  UNL     1      12.383 -13.188  -9.750  1.00  0.00     0.005 C 
ENDBRANCH  17  18
ENDBRANCH   1  17
TORSDOF 2
ENDMDL
