MODEL 9
REMARK VINA RESULT: -7.101673716      2.072      4.833
REMARK  2 active torsions:
REMARK  status: ('A' for Active; 'I' for Inactive)
REMARK    1  A    between atoms: C2_2  and  C3_3 
REMARK    2  A    between atoms: C3_3  and  C4_4 
ROOT
HETATM    1  C4  UNL     1      14.309  -9.960  -8.381  1.00  0.00     0.041 A 
HETATM    2  N1  UNL     1      13.909 -11.144  -7.840  1.00  0.00    -0.302 N 
ATOM      3  H1  UNL     1      13.288 -11.807  -8.303  1.00  0.00     0.186 HD
HETATM    4  N2  UNL     1      14.424 -11.324  -6.648  1.00  0.00    -0.279 N 
ATOM      5  H2  UNL     1      14.270 -12.133  -6.047  1.00  0.00     0.189 HD
HETATM    6  C5  UNL     1      15.186 -10.259  -6.355  1.00  0.00     0.179 A 
HETATM    7  O1  UNL     1      15.904  -9.947  -5.312  1.00  0.00    -0.255 OA
HETATM    8  C6  UNL     1      16.598  -8.846  -5.193  1.00  0.00     0.300 A 
HETATM    9  O2  UNL     1      17.262  -8.634  -4.147  1.00  0.00    -0.259 OA
HETATM   10  C7  UNL     1      16.565  -7.949  -6.253  1.00  0.00     0.051 A 
HETATM   11  C8  UNL     1      17.295  -6.786  -6.128  1.00  0.00     0.018 A 
HETATM   12  C9  UNL     1      17.253  -5.906  -7.186  1.00  0.00     0.001 A 
HETATM   13  C10 UNL     1      16.520  -6.159  -8.318  1.00  0.00     0.001 A 
HETATM   14  C11 UNL     1      15.773  -7.336  -8.458  1.00  0.00     0.013 A 
HETATM   15  C12 UNL     1      15.820  -8.210  -7.402  1.00  0.00    -0.003 A 
HETATM   16  C13 UNL     1      15.123  -9.385  -7.446  1.00  0.00     0.052 A 
ENDROOT
BRANCH   1  17
HETATM   17  C3  UNL     1      13.902  -9.473  -9.717  1.00  0.00     0.059 C 
BRANCH  17  18
HETATM   18  C2  UNL     1      13.112 -10.611 -10.409  1.00  0.00     0.002 C 
HETATM   19  C1  UNL     1      12.234 -10.091 -11.507  1.00  0.00     0.005 C 
ENDBRANCH  17  18
ENDBRANCH   1  17
TORSDOF 2
ENDMDL
