MODEL 1
REMARK VINA RESULT: -8.419929862      0.000      0.000
REMARK  2 active torsions:
REMARK  status: ('A' for Active; 'I' for Inactive)
REMARK    1  A    between atoms: C2_2  and  C3_3 
REMARK    2  A    between atoms: C3_3  and  C4_4 
ROOT
HETATM    1  C4  UNL     1      15.766  -8.842  -7.414  1.00  0.00     0.041 A 
HETATM    2  N1  UNL     1      16.040  -9.337  -6.175  1.00  0.00    -0.302 N 
ATOM      3  H1  UNL     1      16.701  -8.917  -5.522  1.00  0.00     0.186 HD
HETATM    4  N2  UNL     1      15.348 -10.423  -5.929  1.00  0.00    -0.279 N 
ATOM      5  H2  UNL     1      15.383 -10.972  -5.070  1.00  0.00     0.189 HD
HETATM    6  C5  UNL     1      14.587 -10.688  -7.002  1.00  0.00     0.179 A 
HETATM    7  O1  UNL     1      13.733 -11.637  -7.266  1.00  0.00    -0.255 OA
HETATM    8  C6  UNL     1      13.067 -11.744  -8.386  1.00  0.00     0.300 A 
HETATM    9  O2  UNL     1      12.263 -12.696  -8.548  1.00  0.00    -0.259 OA
HETATM   10  C7  UNL     1      13.288 -10.777  -9.359  1.00  0.00     0.051 A 
HETATM   11  C8  UNL     1      12.588 -10.889 -10.541  1.00  0.00     0.018 A 
HETATM   12  C9  UNL     1      12.817  -9.925 -11.496  1.00  0.00     0.001 A 
HETATM   13  C10 UNL     1      13.701  -8.894 -11.296  1.00  0.00     0.001 A 
HETATM   14  C11 UNL     1      14.420  -8.769 -10.101  1.00  0.00     0.013 A 
HETATM   15  C12 UNL     1      14.186  -9.732  -9.152  1.00  0.00    -0.003 A 
HETATM   16  C13 UNL     1      14.841  -9.693  -7.953  1.00  0.00     0.052 A 
ENDROOT
BRANCH   1  17
HETATM   17  C3  UNL     1      16.383  -7.625  -7.982  1.00  0.00     0.059 C 
BRANCH  17  18
HETATM   18  C2  UNL     1      15.584  -6.407  -7.457  1.00  0.00     0.002 C 
HETATM   19  C1  UNL     1      15.988  -5.137  -8.143  1.00  0.00     0.005 C 
ENDBRANCH  17  18
ENDBRANCH   1  17
TORSDOF 2
ENDMDL
