MODEL 11
REMARK VINA RESULT: -7.128490645      1.240      1.517
REMARK  3 active torsions:
REMARK  status: ('A' for Active; 'I' for Inactive)
REMARK    1  A    between atoms: C2_2  and  C3_3 
REMARK    2  A    between atoms: C3_3  and  C4_4 
REMARK    3  A    between atoms: C4_4  and  C5_5 
ROOT
HETATM    1  C5  UNL     1      14.909  -8.987  -7.003  1.00  0.00     0.041 A 
HETATM    2  N1  UNL     1      14.973  -9.674  -5.822  1.00  0.00    -0.302 N 
ATOM      3  H1  UNL     1      15.378  -9.299  -4.964  1.00  0.00     0.186 HD
HETATM    4  N2  UNL     1      14.454 -10.860  -5.926  1.00  0.00    -0.279 N 
ATOM      5  H2  UNL     1      14.386 -11.553  -5.180  1.00  0.00     0.189 HD
HETATM    6  C6  UNL     1      14.021 -11.015  -7.194  1.00  0.00     0.179 A 
HETATM    7  O1  UNL     1      13.427 -12.028  -7.803  1.00  0.00    -0.255 OA
HETATM    8  C7  UNL     1      13.081 -11.973  -9.064  1.00  0.00     0.300 A 
HETATM    9  O2  UNL     1      12.514 -12.934  -9.658  1.00  0.00    -0.259 OA
HETATM   10  C8  UNL     1      13.329 -10.845  -9.807  1.00  0.00     0.051 A 
HETATM   11  C9  UNL     1      12.987 -10.735 -11.133  1.00  0.00     0.018 A 
HETATM   12  C10 UNL     1      13.243  -9.596 -11.862  1.00  0.00     0.001 A 
HETATM   13  C11 UNL     1      13.856  -8.528 -11.265  1.00  0.00     0.001 A 
HETATM   14  C12 UNL     1      14.215  -8.617  -9.911  1.00  0.00     0.013 A 
HETATM   15  C13 UNL     1      13.959  -9.755  -9.183  1.00  0.00    -0.003 A 
HETATM   16  C14 UNL     1      14.309  -9.846  -7.855  1.00  0.00     0.052 A 
ENDROOT
BRANCH   1  17
HETATM   17  C4  UNL     1      15.415  -7.626  -7.191  1.00  0.00     0.059 C 
BRANCH  17  18
HETATM   18  C3  UNL     1      16.945  -7.673  -7.393  1.00  0.00     0.006 C 
BRANCH  18  19
HETATM   19  C2  UNL     1      17.608  -6.662  -6.479  1.00  0.00    -0.004 C 
HETATM   20  C1  UNL     1      17.410  -7.122  -5.064  1.00  0.00     0.005 C 
ENDBRANCH  18  19
ENDBRANCH  17  18
ENDBRANCH   1  17
TORSDOF 3
ENDMDL
