MODEL 1
REMARK VINA RESULT: -8.304847830      0.000      0.000
REMARK  3 active torsions:
REMARK  status: ('A' for Active; 'I' for Inactive)
REMARK    1  A    between atoms: C2_2  and  C3_3 
REMARK    2  A    between atoms: C3_3  and  C4_4 
REMARK    3  A    between atoms: C4_4  and  C5_5 
ROOT
HETATM    1  C5  UNL     1      15.763  -8.586  -7.232  1.00  0.00     0.041 A 
HETATM    2  N1  UNL     1      16.008  -9.054  -5.970  1.00  0.00    -0.302 N 
ATOM      3  H1  UNL     1      16.640  -8.606  -5.306  1.00  0.00     0.186 HD
HETATM    4  N2  UNL     1      15.338 -10.139  -5.721  1.00  0.00    -0.279 N 
ATOM      5  H2  UNL     1      15.357 -10.668  -4.849  1.00  0.00     0.189 HD
HETATM    6  C6  UNL     1      14.613 -10.442  -6.817  1.00  0.00     0.179 A 
HETATM    7  O1  UNL     1      13.777 -11.435  -7.072  1.00  0.00    -0.255 OA
HETATM    8  C7  UNL     1      13.165 -11.547  -8.223  1.00  0.00     0.300 A 
HETATM    9  O2  UNL     1      12.364 -12.491  -8.481  1.00  0.00    -0.259 OA
HETATM   10  C8  UNL     1      13.374 -10.623  -9.218  1.00  0.00     0.051 A 
HETATM   11  C9  UNL     1      12.757 -10.695 -10.444  1.00  0.00     0.018 A 
HETATM   12  C10 UNL     1      12.978  -9.759 -11.429  1.00  0.00     0.001 A 
HETATM   13  C11 UNL     1      13.837  -8.719 -11.200  1.00  0.00     0.001 A 
HETATM   14  C12 UNL     1      14.479  -8.625  -9.956  1.00  0.00     0.013 A 
HETATM   15  C13 UNL     1      14.257  -9.560  -8.972  1.00  0.00    -0.003 A 
HETATM   16  C14 UNL     1      14.885  -9.470  -7.751  1.00  0.00     0.052 A 
ENDROOT
BRANCH   1  17
HETATM   17  C4  UNL     1      16.376  -7.380  -7.794  1.00  0.00     0.059 C 
BRANCH  17  18
HETATM   18  C3  UNL     1      16.126  -6.190  -6.843  1.00  0.00     0.006 C 
BRANCH  18  19
HETATM   19  C2  UNL     1      16.140  -4.898  -7.634  1.00  0.00    -0.004 C 
HETATM   20  C1  UNL     1      16.528  -5.228  -9.046  1.00  0.00     0.005 C 
ENDBRANCH  18  19
ENDBRANCH  17  18
ENDBRANCH   1  17
TORSDOF 3
ENDMDL
