MODEL 5
REMARK VINA RESULT: -7.513870751      1.956      4.798
REMARK  3 active torsions:
REMARK  status: ('A' for Active; 'I' for Inactive)
REMARK    1  A    between atoms: C2_2  and  C3_3 
REMARK    2  A    between atoms: C3_3  and  C4_4 
REMARK    3  A    between atoms: C4_4  and  C5_5 
ROOT
HETATM    1  C5  UNL     1      13.725  -9.526  -8.014  1.00  0.00     0.041 A 
HETATM    2  N1  UNL     1      13.222 -10.630  -7.383  1.00  0.00    -0.302 N 
ATOM      3  H1  UNL     1      12.461 -11.202  -7.750  1.00  0.00     0.186 HD
HETATM    4  N2  UNL     1      13.830 -10.861  -6.259  1.00  0.00    -0.279 N 
ATOM      5  H2  UNL     1      13.631 -11.626  -5.615  1.00  0.00     0.189 HD
HETATM    6  C6  UNL     1      14.772  -9.910  -6.092  1.00  0.00     0.179 A 
HETATM    7  O1  UNL     1      15.649  -9.700  -5.124  1.00  0.00    -0.255 OA
HETATM    8  C7  UNL     1      16.492  -8.700  -5.157  1.00  0.00     0.300 A 
HETATM    9  O2  UNL     1      17.334  -8.487  -4.240  1.00  0.00    -0.259 OA
HETATM   10  C8  UNL     1      16.493  -7.822  -6.214  1.00  0.00     0.051 A 
HETATM   11  C9  UNL     1      17.355  -6.756  -6.298  1.00  0.00     0.018 A 
HETATM   12  C10 UNL     1      17.342  -5.887  -7.365  1.00  0.00     0.001 A 
HETATM   13  C11 UNL     1      16.448  -6.073  -8.384  1.00  0.00     0.001 A 
HETATM   14  C12 UNL     1      15.556  -7.155  -8.321  1.00  0.00     0.013 A 
HETATM   15  C13 UNL     1      15.571  -8.023  -7.254  1.00  0.00    -0.003 A 
HETATM   16  C14 UNL     1      14.698  -9.085  -7.189  1.00  0.00     0.052 A 
ENDROOT
BRANCH   1  17
HETATM   17  C4  UNL     1      13.238  -9.021  -9.300  1.00  0.00     0.059 C 
BRANCH  17  18
HETATM   18  C3  UNL     1      12.810 -10.211 -10.187  1.00  0.00     0.006 C 
BRANCH  18  19
HETATM   19  C2  UNL     1      13.097  -9.889 -11.639  1.00  0.00    -0.004 C 
HETATM   20  C1  UNL     1      13.976  -8.673 -11.675  1.00  0.00     0.005 C 
ENDBRANCH  18  19
ENDBRANCH  17  18
ENDBRANCH   1  17
TORSDOF 3
ENDMDL
