MODEL 14
REMARK VINA RESULT: -7.004895089      1.548      1.672
REMARK  3 active torsions:
REMARK  status: ('A' for Active; 'I' for Inactive)
REMARK    1  A    between atoms: C2_2  and  C3_3 
REMARK    2  A    between atoms: C3_3  and  C4_4 
REMARK    3  A    between atoms: C4_4  and  C5_5 
ROOT
HETATM    1  C5  UNL     1      16.469  -7.882  -6.689  1.00  0.00     0.041 A 
HETATM    2  N1  UNL     1      16.685  -8.246  -5.389  1.00  0.00    -0.302 N 
ATOM      3  H1  UNL     1      17.314  -7.753  -4.754  1.00  0.00     0.186 HD
HETATM    4  N2  UNL     1      15.992  -9.294  -5.060  1.00  0.00    -0.279 N 
ATOM      5  H2  UNL     1      15.988  -9.749  -4.147  1.00  0.00     0.189 HD
HETATM    6  C6  UNL     1      15.281  -9.678  -6.140  1.00  0.00     0.179 A 
HETATM    7  O1  UNL     1      14.432 -10.676  -6.325  1.00  0.00    -0.255 OA
HETATM    8  C7  UNL     1      13.836 -10.875  -7.473  1.00  0.00     0.300 A 
HETATM    9  O2  UNL     1      13.024 -11.824  -7.664  1.00  0.00    -0.259 OA
HETATM   10  C8  UNL     1      14.077 -10.042  -8.539  1.00  0.00     0.051 A 
HETATM   11  C9  UNL     1      13.479 -10.207  -9.765  1.00  0.00     0.018 A 
HETATM   12  C10 UNL     1      13.733  -9.362 -10.821  1.00  0.00     0.001 A 
HETATM   13  C11 UNL     1      14.605  -8.320 -10.666  1.00  0.00     0.001 A 
HETATM   14  C12 UNL     1      15.229  -8.131  -9.423  1.00  0.00     0.013 A 
HETATM   15  C13 UNL     1      14.974  -8.976  -8.368  1.00  0.00    -0.003 A 
HETATM   16  C14 UNL     1      15.584  -8.793  -7.147  1.00  0.00     0.052 A 
ENDROOT
BRANCH   1  17
HETATM   17  C4  UNL     1      17.111  -6.738  -7.341  1.00  0.00     0.059 C 
BRANCH  17  18
HETATM   18  C3  UNL     1      17.933  -5.952  -6.296  1.00  0.00     0.006 C 
BRANCH  18  19
HETATM   19  C2  UNL     1      18.847  -4.972  -7.004  1.00  0.00    -0.004 C 
HETATM   20  C1  UNL     1      20.262  -5.413  -6.771  1.00  0.00     0.005 C 
ENDBRANCH  18  19
ENDBRANCH  17  18
ENDBRANCH   1  17
TORSDOF 3
ENDMDL
