MODEL 8
REMARK VINA RESULT: -7.372685511      3.035      5.871
REMARK  3 active torsions:
REMARK  status: ('A' for Active; 'I' for Inactive)
REMARK    1  A    between atoms: C2_2  and  C3_3 
REMARK    2  A    between atoms: C3_3  and  C4_4 
REMARK    3  A    between atoms: C4_4  and  C5_5 
ROOT
HETATM    1  C5  UNL     1      14.171  -8.841  -9.347  1.00  0.00     0.041 A 
HETATM    2  N1  UNL     1      14.336  -8.264 -10.576  1.00  0.00    -0.302 N 
ATOM      3  H1  UNL     1      13.775  -8.496 -11.396  1.00  0.00     0.186 HD
HETATM    4  N2  UNL     1      15.294  -7.387 -10.572  1.00  0.00    -0.279 N 
ATOM      5  H2  UNL     1      15.600  -6.829 -11.369  1.00  0.00     0.189 HD
HETATM    6  C6  UNL     1      15.812  -7.343  -9.328  1.00  0.00     0.179 A 
HETATM    7  O1  UNL     1      16.793  -6.623  -8.808  1.00  0.00    -0.255 OA
HETATM    8  C7  UNL     1      17.145  -6.735  -7.553  1.00  0.00     0.300 A 
HETATM    9  O2  UNL     1      18.081  -6.054  -7.044  1.00  0.00    -0.259 OA
HETATM   10  C8  UNL     1      16.498  -7.617  -6.722  1.00  0.00     0.051 A 
HETATM   11  C9  UNL     1      16.829  -7.774  -5.397  1.00  0.00     0.018 A 
HETATM   12  C10 UNL     1      16.169  -8.663  -4.580  1.00  0.00     0.001 A 
HETATM   13  C11 UNL     1      15.150  -9.424  -5.083  1.00  0.00     0.001 A 
HETATM   14  C12 UNL     1      14.794  -9.282  -6.433  1.00  0.00     0.013 A 
HETATM   15  C13 UNL     1      15.454  -8.393  -7.250  1.00  0.00    -0.003 A 
HETATM   16  C14 UNL     1      15.108  -8.251  -8.574  1.00  0.00     0.052 A 
ENDROOT
BRANCH   1  17
HETATM   17  C4  UNL     1      13.168  -9.866  -9.048  1.00  0.00     0.059 C 
BRANCH  17  18
HETATM   18  C3  UNL     1      12.898 -10.702 -10.318  1.00  0.00     0.006 C 
BRANCH  18  19
HETATM   19  C2  UNL     1      12.746 -12.161  -9.940  1.00  0.00    -0.004 C 
HETATM   20  C1  UNL     1      12.685 -12.245  -8.443  1.00  0.00     0.005 C 
ENDBRANCH  18  19
ENDBRANCH  17  18
ENDBRANCH   1  17
TORSDOF 3
ENDMDL
