MODEL 9
REMARK VINA RESULT: -7.151604132      3.423      6.165
REMARK  3 active torsions:
REMARK  status: ('A' for Active; 'I' for Inactive)
REMARK    1  A    between atoms: C2_2  and  C3_3 
REMARK    2  A    between atoms: C3_3  and  C4_4 
REMARK    3  A    between atoms: C4_4  and  C5_5 
ROOT
HETATM    1  C5  UNL     1      15.405  -8.234  -8.875  1.00  0.00     0.041 A 
HETATM    2  N1  UNL     1      15.363  -7.574 -10.072  1.00  0.00    -0.302 N 
ATOM      3  H1  UNL     1      14.913  -7.939 -10.912  1.00  0.00     0.186 HD
HETATM    4  N2  UNL     1      15.967  -6.425 -10.010  1.00  0.00    -0.279 N 
ATOM      5  H2  UNL     1      16.065  -5.757 -10.774  1.00  0.00     0.189 HD
HETATM    6  C6  UNL     1      16.441  -6.271  -8.757  1.00  0.00     0.179 A 
HETATM    7  O1  UNL     1      17.121  -5.289  -8.188  1.00  0.00    -0.255 OA
HETATM    8  C7  UNL     1      17.491  -5.339  -6.934  1.00  0.00     0.300 A 
HETATM    9  O2  UNL     1      18.141  -4.409  -6.378  1.00  0.00    -0.259 OA
HETATM   10  C8  UNL     1      17.183  -6.429  -6.157  1.00  0.00     0.051 A 
HETATM   11  C9  UNL     1      17.548  -6.532  -4.836  1.00  0.00     0.018 A 
HETATM   12  C10 UNL     1      17.229  -7.632  -4.073  1.00  0.00     0.001 A 
HETATM   13  C11 UNL     1      16.528  -8.667  -4.629  1.00  0.00     0.001 A 
HETATM   14  C12 UNL     1      16.144  -8.585  -5.976  1.00  0.00     0.013 A 
HETATM   15  C13 UNL     1      16.462  -7.485  -6.738  1.00  0.00    -0.003 A 
HETATM   16  C14 UNL     1      16.087  -7.402  -8.060  1.00  0.00     0.052 A 
ENDROOT
BRANCH   1  17
HETATM   17  C4  UNL     1      14.809  -9.551  -8.642  1.00  0.00     0.059 C 
BRANCH  17  18
HETATM   18  C3  UNL     1      13.311  -9.382  -8.307  1.00  0.00     0.006 C 
BRANCH  18  19
HETATM   19  C2  UNL     1      12.991 -10.126  -7.026  1.00  0.00    -0.004 C 
HETATM   20  C1  UNL     1      13.958 -11.267  -6.905  1.00  0.00     0.005 C 
ENDBRANCH  18  19
ENDBRANCH  17  18
ENDBRANCH   1  17
TORSDOF 3
ENDMDL
