MODEL 3
REMARK VINA RESULT: -8.283290948      5.364      9.004
REMARK  3 active torsions:
REMARK  status: ('A' for Active; 'I' for Inactive)
REMARK    1  A    between atoms: C3_3  and  C4_4 
REMARK    2  A    between atoms: C7_9  and  C8_10 
REMARK    3  A    between atoms: C11_14  and  C12_15 
ROOT
HETATM    1  C1  UNL     1      23.979  12.744  17.587  1.00  0.00     0.112 C 
HETATM    2  C2  UNL     1      23.133  12.244  18.680  1.00  0.00    -0.105 C 
HETATM    3  C3  UNL     1      22.444  11.826  19.583  1.00  0.00    -0.066 C 
ENDROOT
BRANCH   3   4
HETATM    4  C4  UNL     1      21.640  11.342  20.667  1.00  0.00     0.034 A 
HETATM    5  C5  UNL     1      20.969  10.147  20.546  1.00  0.00     0.108 A 
HETATM    6  N1  UNL     1      20.227   9.723  21.580  1.00  0.00    -0.373 N 
HETATM    7  C6  UNL     1      20.113  10.434  22.746  1.00  0.00     0.100 A 
ATOM      8  H1  UNL     1      19.728   8.838  21.496  1.00  0.00     0.164 HD
HETATM    9  C7  UNL     1      20.779  11.629  22.879  1.00  0.00    -0.002 A 
HETATM   10  C17 UNL     1      21.534  12.082  21.855  1.00  0.00     0.036 A 
BRANCH   9  11
HETATM   11  C8  UNL     1      20.666  12.402  24.125  1.00  0.00     0.018 A 
HETATM   12  C9  UNL     1      21.429  12.285  25.264  1.00  0.00     0.044 A 
HETATM   13  C10 UNL     1      21.143  13.100  26.282  1.00  0.00     0.051 A 
HETATM   14 CL1  UNL     1      22.031  13.084  27.834  1.00  0.00    -0.083 Cl
HETATM   15  C11 UNL     1      20.115  13.987  26.111  1.00  0.00     0.034 A 
HETATM   16  S2  UNL     1      19.577  13.654  24.530  1.00  0.00    -0.090 SA
BRANCH  15  17
HETATM   17  C12 UNL     1      19.575  15.015  27.077  1.00  0.00     0.079 C 
HETATM   18  C13 UNL     1      19.389  14.308  28.404  1.00  0.00     0.045 C 
HETATM   19  C14 UNL     1      18.293  15.500  26.496  1.00  0.00     0.199 C 
HETATM   20  S1  UNL     1      18.323  17.232  26.108  1.00  0.00     0.237 S 
HETATM   21  O1  UNL     1      16.929  17.795  26.093  1.00  0.00    -0.205 OA
HETATM   22  O2  UNL     1      18.978  17.389  24.747  1.00  0.00    -0.205 OA
HETATM   23  N2  UNL     1      19.309  17.992  27.297  1.00  0.00    -0.253 N 
HETATM   24  C15 UNL     1      19.024  19.318  27.783  1.00  0.00     0.172 C 
HETATM   25  C16 UNL     1      20.320  17.333  27.753  1.00  0.00     0.200 C 
HETATM   26  N3  UNL     1      21.119  17.968  28.725  1.00  0.00    -0.063 NA
HETATM   27  N4  UNL     1      20.585  16.020  27.276  1.00  0.00    -0.349 N 
ATOM     28  H4  UNL     1      21.552  15.776  27.062  1.00  0.00     0.163 HD
ENDBRANCH  15  17
ENDBRANCH   9  11
ENDBRANCH   3   4
TORSDOF 3
ENDMDL
