MODEL 1
REMARK VINA RESULT: -8.391508243      0.000      0.000
REMARK  3 active torsions:
REMARK  status: ('A' for Active; 'I' for Inactive)
REMARK    1  A    between atoms: C3_3  and  C4_4 
REMARK    2  A    between atoms: C7_9  and  C8_10 
REMARK    3  A    between atoms: C11_14  and  C12_15 
ROOT
HETATM    1  C1  UNL     1      15.586  13.868  25.761  1.00  0.00     0.112 C 
HETATM    2  C2  UNL     1      16.878  13.196  25.556  1.00  0.00    -0.105 C 
HETATM    3  C3  UNL     1      17.935  12.634  25.384  1.00  0.00    -0.066 C 
ENDROOT
BRANCH   3   4
HETATM    4  C4  UNL     1      19.187  11.970  25.157  1.00  0.00     0.034 A 
HETATM    5  C5  UNL     1      19.695  11.117  26.109  1.00  0.00     0.108 A 
HETATM    6  N1  UNL     1      20.868  10.513  25.864  1.00  0.00    -0.373 N 
HETATM    7  C6  UNL     1      21.573  10.715  24.707  1.00  0.00     0.100 A 
ATOM      8  H1  UNL     1      21.249   9.879  26.565  1.00  0.00     0.164 HD
HETATM    9  C7  UNL     1      21.075  11.566  23.749  1.00  0.00    -0.002 A 
HETATM   10  C17 UNL     1      19.897  12.188  23.966  1.00  0.00     0.036 A 
BRANCH   9  11
HETATM   11  C8  UNL     1      21.823  11.791  22.502  1.00  0.00     0.018 A 
HETATM   12  C9  UNL     1      21.374  12.381  21.343  1.00  0.00     0.044 A 
HETATM   13  C10 UNL     1      22.237  12.479  20.329  1.00  0.00     0.051 A 
HETATM   14 CL1  UNL     1      21.824  13.216  18.753  1.00  0.00    -0.083 Cl
HETATM   15  C11 UNL     1      23.499  11.986  20.525  1.00  0.00     0.034 A 
HETATM   16  S2  UNL     1      23.441  11.399  22.122  1.00  0.00    -0.090 SA
BRANCH  15  17
HETATM   17  C12 UNL     1      24.668  11.961  19.569  1.00  0.00     0.079 C 
HETATM   18  C13 UNL     1      24.138  11.444  18.247  1.00  0.00     0.045 C 
HETATM   19  C14 UNL     1      25.684  11.058  20.177  1.00  0.00     0.199 C 
HETATM   20  S1  UNL     1      27.204  11.888  20.562  1.00  0.00     0.237 S 
HETATM   21  O1  UNL     1      28.345  10.910  20.606  1.00  0.00    -0.205 OA
HETATM   22  O2  UNL     1      27.031  12.569  21.908  1.00  0.00    -0.205 OA
HETATM   23  N2  UNL     1      27.436  13.089  19.351  1.00  0.00    -0.253 N 
HETATM   24  C15 UNL     1      28.749  13.436  18.869  1.00  0.00     0.172 C 
HETATM   25  C16 UNL     1      26.391  13.674  18.874  1.00  0.00     0.200 C 
HETATM   26  N3  UNL     1      26.595  14.656  17.884  1.00  0.00    -0.063 NA
HETATM   27  N4  UNL     1      25.099  13.316  19.347  1.00  0.00    -0.349 N 
ATOM     28  H4  UNL     1      24.436  14.066  19.540  1.00  0.00     0.163 HD
ENDBRANCH  15  17
ENDBRANCH   9  11
ENDBRANCH   3   4
TORSDOF 3
ENDMDL
