MODEL 2
REMARK VINA RESULT: -8.348369571      3.611      5.055
REMARK  3 active torsions:
REMARK  status: ('A' for Active; 'I' for Inactive)
REMARK    1  A    between atoms: C3_3  and  C4_4 
REMARK    2  A    between atoms: C7_9  and  C8_10 
REMARK    3  A    between atoms: C11_14  and  C12_15 
ROOT
HETATM    1  C1  UNL     1      18.831   7.664  18.715  1.00  0.00     0.112 C 
HETATM    2  C2  UNL     1      19.672   8.617  19.454  1.00  0.00    -0.105 C 
HETATM    3  C3  UNL     1      20.366   9.407  20.053  1.00  0.00    -0.066 C 
ENDROOT
BRANCH   3   4
HETATM    4  C4  UNL     1      21.174  10.359  20.760  1.00  0.00     0.034 A 
HETATM    5  C5  UNL     1      20.605  11.168  21.715  1.00  0.00     0.108 A 
HETATM    6  N1  UNL     1      21.390  12.047  22.357  1.00  0.00    -0.373 N 
HETATM    7  C6  UNL     1      22.730  12.166  22.096  1.00  0.00     0.100 A 
ATOM      8  H1  UNL     1      20.974  12.649  23.066  1.00  0.00     0.164 HD
HETATM    9  C7  UNL     1      23.309  11.361  21.144  1.00  0.00    -0.002 A 
HETATM   10  C17 UNL     1      22.545  10.468  20.481  1.00  0.00     0.036 A 
BRANCH   9  11
HETATM   11  C8  UNL     1      24.747  11.479  20.854  1.00  0.00     0.018 A 
HETATM   12  C9  UNL     1      25.582  10.525  20.321  1.00  0.00     0.044 A 
HETATM   13  C10 UNL     1      26.862  10.857  20.145  1.00  0.00     0.051 A 
HETATM   14 CL1  UNL     1      28.084   9.743  19.465  1.00  0.00    -0.083 Cl
HETATM   15  C11 UNL     1      27.242  12.121  20.509  1.00  0.00     0.034 A 
HETATM   16  S2  UNL     1      25.795  12.807  21.088  1.00  0.00    -0.090 SA
BRANCH  15  17
HETATM   17  C12 UNL     1      28.605  12.765  20.426  1.00  0.00     0.079 C 
HETATM   18  C13 UNL     1      29.518  11.972  21.339  1.00  0.00     0.045 C 
HETATM   19  C14 UNL     1      28.428  14.175  20.870  1.00  0.00     0.199 C 
HETATM   20  S1  UNL     1      28.812  15.353  19.598  1.00  0.00     0.237 S 
HETATM   21  O1  UNL     1      29.189  16.678  20.201  1.00  0.00    -0.205 OA
HETATM   22  O2  UNL     1      27.586  15.496  18.715  1.00  0.00    -0.205 OA
HETATM   23  N2  UNL     1      30.098  14.682  18.670  1.00  0.00    -0.253 N 
HETATM   24  C15 UNL     1      31.129  15.508  18.096  1.00  0.00     0.172 C 
HETATM   25  C16 UNL     1      30.119  13.403  18.505  1.00  0.00     0.200 C 
HETATM   26  N3  UNL     1      31.177  12.868  17.743  1.00  0.00    -0.063 NA
HETATM   27  N4  UNL     1      29.104  12.596  19.086  1.00  0.00    -0.349 N 
ATOM     28  H4  UNL     1      28.704  11.849  18.518  1.00  0.00     0.163 HD
ENDBRANCH  15  17
ENDBRANCH   9  11
ENDBRANCH   3   4
TORSDOF 3
ENDMDL
