MODEL 2
REMARK VINA RESULT: -11.713323587      4.646     12.921
REMARK  10 active torsions:
REMARK  status: ('A' for Active; 'I' for Inactive)
REMARK    1  A    between atoms: C5_5  and  N1_6 
REMARK       I    between atoms: N1_6  and  C6_8 
REMARK    2  A    between atoms: C6_8  and  C7_10 
REMARK    3  A    between atoms: C10_13  and  C11_14 
REMARK    4  A    between atoms: C11_14  and  N2_15 
REMARK    5  A    between atoms: C17_22  and  C18_23 
REMARK    6  A    between atoms: C21_29  and  O2_30 
REMARK    7  A    between atoms: O2_30  and  C22_31 
REMARK    8  A    between atoms: N4_34  and  C25_35 
REMARK    9  A    between atoms: C25_35  and  O3_36 
REMARK   10  A    between atoms: C25_35  and  C26_38 
ROOT
HETATM    1  C1  UNL     1     -11.196 -24.101 -13.331  1.00  0.00     0.051 C 
HETATM    2  C2  UNL     1     -10.224 -24.965 -14.012  1.00  0.00    -0.029 A 
HETATM    3  C3  UNL     1     -10.228 -24.990 -15.403  1.00  0.00     0.012 A 
HETATM    4  C4  UNL     1      -9.334 -25.791 -16.099  1.00  0.00     0.030 A 
HETATM    5  C5  UNL     1      -8.418 -26.581 -15.461  1.00  0.00     0.037 A 
HETATM    6  C20 UNL     1      -8.418 -26.551 -14.096  1.00  0.00     0.066 A 
HETATM    7  C21 UNL     1      -9.319 -25.744 -13.329  1.00  0.00     0.077 A 
ENDROOT
BRANCH   5   8
HETATM    8  N1  UNL     1      -7.478 -27.442 -16.110  1.00  0.00    -0.323 N 
HETATM    9  C6  UNL     1      -6.971 -28.642 -15.616  1.00  0.00     0.256 C 
HETATM   10  O1  UNL     1      -7.341 -29.064 -14.473  1.00  0.00    -0.267 OA
ATOM     11  H1  UNL     1      -7.145 -27.147 -17.028  1.00  0.00     0.169 HD
BRANCH   9  12
HETATM   12  C7  UNL     1      -6.013 -29.463 -16.362  1.00  0.00     0.033 A 
HETATM   13  C8  UNL     1      -5.444 -28.936 -17.482  1.00  0.00     0.017 A 
HETATM   14  C9  UNL     1      -4.519 -29.700 -18.208  1.00  0.00     0.011 A 
HETATM   15  C10 UNL     1      -4.154 -30.962 -17.847  1.00  0.00    -0.015 A 
HETATM   16  C17 UNL     1      -4.753 -31.472 -16.698  1.00  0.00     0.056 A 
HETATM   17  C19 UNL     1      -5.681 -30.723 -15.958  1.00  0.00     0.034 A 
BRANCH  15  18
HETATM   18  C11 UNL     1      -3.196 -31.802 -18.560  1.00  0.00     0.311 C 
BRANCH  18  19
HETATM   19  N2  UNL     1      -2.291 -31.038 -19.385  1.00  0.00     0.096 N 
HETATM   20  C12 UNL     1      -0.910 -31.256 -19.036  1.00  0.00     0.303 C 
HETATM   21  C13 UNL     1      -0.074 -30.903 -20.271  1.00  0.00     0.302 C 
HETATM   22  N3  UNL     1      -0.221 -31.931 -21.285  1.00  0.00     0.087 N 
HETATM   23  C14 UNL     1       0.773 -32.935 -21.066  1.00  0.00     0.310 C 
HETATM   24  C15 UNL     1      -1.540 -32.561 -21.123  1.00  0.00     0.302 C 
HETATM   25  C16 UNL     1      -2.487 -31.426 -20.810  1.00  0.00     0.303 C 
ENDBRANCH  18  19
ENDBRANCH  15  18
BRANCH  16  26
HETATM   26  C18 UNL     1      -4.385 -32.840 -16.276  1.00  0.00     0.418 C 
HETATM   27  F1  UNL     1      -3.168 -33.259 -16.723  1.00  0.00    -0.166 F 
HETATM   28  F2  UNL     1      -5.384 -33.756 -16.552  1.00  0.00    -0.166 F 
HETATM   29  F3  UNL     1      -4.293 -32.827 -14.876  1.00  0.00    -0.166 F 
ENDBRANCH  16  26
ENDBRANCH   9  12
ENDBRANCH   5   8
BRANCH   7  30
HETATM   30  O2  UNL     1      -9.224 -25.800 -12.006  1.00  0.00    -0.345 OA
BRANCH  30  31
HETATM   31  C22 UNL     1      -8.841 -25.137 -10.940  1.00  0.00     0.132 C 
HETATM   32  C23 UNL     1      -7.673 -25.810 -10.168  1.00  0.00     0.052 C 
HETATM   33  C24 UNL     1      -7.710 -25.155  -8.795  1.00  0.00     0.127 C 
HETATM   34  N4  UNL     1      -8.252 -23.846  -8.904  1.00  0.00    -0.361 N 
HETATM   35  C31 UNL     1      -9.752 -23.856  -9.048  1.00  0.00     0.127 C 
HETATM   36  C32 UNL     1     -10.020 -25.060  -9.935  1.00  0.00     0.052 C 
BRANCH  34  37
HETATM   37  C25 UNL     1      -7.662 -22.585  -8.950  1.00  0.00     0.149 C 
BRANCH  37  38
HETATM   38  O3  UNL     1      -8.017 -21.795  -9.945  1.00  0.00    -0.346 OA
ATOM     39  H3  UNL     1      -7.670 -22.005 -10.804  1.00  0.00     0.219 HD
ENDBRANCH  37  38
BRANCH  37  40
HETATM   40  C26 UNL     1      -6.694 -21.966  -8.065  1.00  0.00     0.030 A 
HETATM   41  C27 UNL     1      -5.588 -21.310  -8.499  1.00  0.00     0.018 A 
HETATM   42  C28 UNL     1      -4.679 -20.791  -7.569  1.00  0.00     0.018 A 
HETATM   43  C29 UNL     1      -4.889 -20.935  -6.234  1.00  0.00     0.087 A 
HETATM   44  N5  UNL     1      -5.995 -21.589  -5.842  1.00  0.00    -0.374 N 
HETATM   45  C30 UNL     1      -6.876 -22.093  -6.699  1.00  0.00     0.103 A 
ATOM     46  H5  UNL     1      -6.165 -21.704  -4.843  1.00  0.00     0.164 HD
ENDBRANCH  37  40
ENDBRANCH  34  37
ENDBRANCH  30  31
ENDBRANCH   7  30
TORSDOF 10
ENDMDL
