MODEL 9
REMARK VINA RESULT: -11.279885985      0.905      1.411
REMARK  10 active torsions:
REMARK  status: ('A' for Active; 'I' for Inactive)
REMARK    1  A    between atoms: C5_5  and  N1_6 
REMARK       I    between atoms: N1_6  and  C6_8 
REMARK    2  A    between atoms: C6_8  and  C7_10 
REMARK    3  A    between atoms: C10_13  and  C11_14 
REMARK    4  A    between atoms: C11_14  and  N2_15 
REMARK    5  A    between atoms: C17_22  and  C18_23 
REMARK    6  A    between atoms: C21_29  and  O2_30 
REMARK    7  A    between atoms: O2_30  and  C22_31 
REMARK    8  A    between atoms: N4_34  and  C25_35 
REMARK    9  A    between atoms: C25_35  and  O3_36 
REMARK   10  A    between atoms: C25_35  and  C26_38 
ROOT
HETATM    1  C1  UNL     1      -4.864 -33.691 -15.984  1.00  0.00     0.051 C 
HETATM    2  C2  UNL     1      -5.517 -32.420 -15.645  1.00  0.00    -0.029 A 
HETATM    3  C3  UNL     1      -6.766 -32.466 -15.034  1.00  0.00     0.012 A 
HETATM    4  C4  UNL     1      -7.431 -31.296 -14.695  1.00  0.00     0.030 A 
HETATM    5  C5  UNL     1      -6.898 -30.061 -14.941  1.00  0.00     0.037 A 
HETATM    6  C20 UNL     1      -5.672 -30.023 -15.539  1.00  0.00     0.066 A 
HETATM    7  C21 UNL     1      -4.943 -31.199 -15.910  1.00  0.00     0.077 A 
ENDROOT
BRANCH   5   8
HETATM    8  N1  UNL     1      -7.531 -28.815 -14.634  1.00  0.00    -0.323 N 
HETATM    9  C6  UNL     1      -7.586 -27.688 -15.451  1.00  0.00     0.256 C 
HETATM   10  O1  UNL     1      -7.029 -27.707 -16.597  1.00  0.00    -0.267 OA
ATOM     11  H1  UNL     1      -7.988 -28.745 -13.725  1.00  0.00     0.169 HD
BRANCH   9  12
HETATM   12  C7  UNL     1      -8.269 -26.454 -15.052  1.00  0.00     0.033 A 
HETATM   13  C8  UNL     1      -8.482 -26.234 -13.724  1.00  0.00     0.017 A 
HETATM   14  C9  UNL     1      -9.127 -25.057 -13.318  1.00  0.00     0.011 A 
HETATM   15  C10 UNL     1      -9.557 -24.107 -14.194  1.00  0.00    -0.015 A 
HETATM   16  C17 UNL     1      -9.324 -24.360 -15.543  1.00  0.00     0.056 A 
HETATM   17  C19 UNL     1      -8.681 -25.533 -15.970  1.00  0.00     0.034 A 
BRANCH  15  18
HETATM   18  C11 UNL     1     -10.229 -22.862 -13.830  1.00  0.00     0.311 C 
BRANCH  18  19
HETATM   19  N2  UNL     1     -11.271 -23.058 -12.849  1.00  0.00     0.096 N 
HETATM   20  C12 UNL     1     -11.332 -24.417 -12.374  1.00  0.00     0.303 C 
HETATM   21  C13 UNL     1     -12.009 -24.381 -11.000  1.00  0.00     0.302 C 
HETATM   22  N3  UNL     1     -11.101 -23.832 -10.009  1.00  0.00     0.087 N 
HETATM   23  C14 UNL     1     -10.330 -24.899  -9.453  1.00  0.00     0.310 C 
HETATM   24  C15 UNL     1     -10.173 -22.913 -10.687  1.00  0.00     0.302 C 
HETATM   25  C16 UNL     1     -11.020 -22.159 -11.687  1.00  0.00     0.303 C 
ENDBRANCH  18  19
ENDBRANCH  15  18
BRANCH  16  26
HETATM   26  C18 UNL     1      -9.780 -23.354 -16.525  1.00  0.00     0.418 C 
HETATM   27  F1  UNL     1     -10.065 -23.859 -17.758  1.00  0.00    -0.166 F 
HETATM   28  F2  UNL     1      -8.924 -22.269 -16.593  1.00  0.00    -0.166 F 
HETATM   29  F3  UNL     1     -10.986 -22.825 -16.042  1.00  0.00    -0.166 F 
ENDBRANCH  16  26
ENDBRANCH   9  12
ENDBRANCH   5   8
BRANCH   7  30
HETATM   30  O2  UNL     1      -3.759 -31.034 -16.488  1.00  0.00    -0.345 OA
BRANCH  30  31
HETATM   31  C22 UNL     1      -3.136 -31.005 -17.643  1.00  0.00     0.132 C 
HETATM   32  C23 UNL     1      -2.025 -29.922 -17.729  1.00  0.00     0.052 C 
HETATM   33  C24 UNL     1      -1.775 -29.764 -19.221  1.00  0.00     0.127 C 
HETATM   34  N4  UNL     1      -2.079 -30.983 -19.887  1.00  0.00    -0.361 N 
HETATM   35  C31 UNL     1      -3.561 -31.191 -20.058  1.00  0.00     0.127 C 
HETATM   36  C32 UNL     1      -4.150 -30.657 -18.763  1.00  0.00     0.052 C 
BRANCH  34  37
HETATM   37  C25 UNL     1      -1.278 -32.021 -20.359  1.00  0.00     0.149 C 
BRANCH  37  38
HETATM   38  O3  UNL     1      -1.895 -33.120 -20.750  1.00  0.00    -0.346 OA
ATOM     39  H3  UNL     1      -1.382 -33.920 -20.759  1.00  0.00     0.219 HD
ENDBRANCH  37  38
BRANCH  37  40
HETATM   40  C26 UNL     1       0.163 -32.108 -20.504  1.00  0.00     0.030 A 
HETATM   41  C27 UNL     1       0.780 -32.862 -21.448  1.00  0.00     0.018 A 
HETATM   42  C28 UNL     1       2.178 -32.930 -21.476  1.00  0.00     0.018 A 
HETATM   43  C29 UNL     1       2.928 -32.249 -20.570  1.00  0.00     0.087 A 
HETATM   44  N5  UNL     1       2.282 -31.513 -19.651  1.00  0.00    -0.374 N 
HETATM   45  C30 UNL     1       0.957 -31.428 -19.598  1.00  0.00     0.103 A 
ATOM     46  H5  UNL     1       2.832 -30.997 -18.964  1.00  0.00     0.164 HD
ENDBRANCH  37  40
ENDBRANCH  34  37
ENDBRANCH  30  31
ENDBRANCH   7  30
TORSDOF 10
ENDMDL
