MODEL 1
REMARK VINA RESULT: -11.827035669      0.000      0.000
REMARK  10 active torsions:
REMARK  status: ('A' for Active; 'I' for Inactive)
REMARK    1  A    between atoms: C5_5  and  N1_6 
REMARK       I    between atoms: N1_6  and  C6_8 
REMARK    2  A    between atoms: C6_8  and  C7_10 
REMARK    3  A    between atoms: C10_13  and  C11_14 
REMARK    4  A    between atoms: C11_14  and  N2_15 
REMARK    5  A    between atoms: C17_22  and  C18_23 
REMARK    6  A    between atoms: C21_29  and  O2_30 
REMARK    7  A    between atoms: O2_30  and  C22_31 
REMARK    8  A    between atoms: N4_34  and  C25_35 
REMARK    9  A    between atoms: C25_35  and  O3_36 
REMARK   10  A    between atoms: C25_35  and  C26_38 
ROOT
HETATM    1  C1  UNL     1      -4.667 -33.685 -15.972  1.00  0.00     0.051 C 
HETATM    2  C2  UNL     1      -5.372 -32.434 -15.663  1.00  0.00    -0.029 A 
HETATM    3  C3  UNL     1      -6.619 -32.517 -15.052  1.00  0.00     0.012 A 
HETATM    4  C4  UNL     1      -7.332 -31.368 -14.740  1.00  0.00     0.030 A 
HETATM    5  C5  UNL     1      -6.850 -30.118 -15.014  1.00  0.00     0.037 A 
HETATM    6  C20 UNL     1      -5.625 -30.043 -15.612  1.00  0.00     0.066 A 
HETATM    7  C21 UNL     1      -4.848 -31.197 -15.956  1.00  0.00     0.077 A 
ENDROOT
BRANCH   5   8
HETATM    8  N1  UNL     1      -7.533 -28.892 -14.736  1.00  0.00    -0.323 N 
HETATM    9  C6  UNL     1      -7.551 -27.751 -15.536  1.00  0.00     0.256 C 
HETATM   10  O1  UNL     1      -6.906 -27.737 -16.635  1.00  0.00    -0.267 OA
ATOM     11  H1  UNL     1      -8.061 -28.849 -13.865  1.00  0.00     0.169 HD
BRANCH   9  12
HETATM   12  C7  UNL     1      -8.291 -26.540 -15.170  1.00  0.00     0.033 A 
HETATM   13  C8  UNL     1      -8.789 -26.444 -13.905  1.00  0.00     0.017 A 
HETATM   14  C9  UNL     1      -9.494 -25.291 -13.530  1.00  0.00     0.011 A 
HETATM   15  C10 UNL     1      -9.711 -24.246 -14.376  1.00  0.00    -0.015 A 
HETATM   16  C17 UNL     1      -9.189 -24.374 -15.661  1.00  0.00     0.056 A 
HETATM   17  C19 UNL     1      -8.480 -25.520 -16.056  1.00  0.00     0.034 A 
BRANCH  15  18
HETATM   18  C11 UNL     1     -10.432 -23.021 -14.042  1.00  0.00     0.311 C 
BRANCH  18  19
HETATM   19  N2  UNL     1     -11.590 -23.266 -13.215  1.00  0.00     0.096 N 
HETATM   20  C12 UNL     1     -11.244 -23.490 -11.834  1.00  0.00     0.303 C 
HETATM   21  C13 UNL     1     -12.487 -23.155 -11.001  1.00  0.00     0.302 C 
HETATM   22  N3  UNL     1     -12.689 -21.718 -10.958  1.00  0.00     0.087 N 
HETATM   23  C14 UNL     1     -11.965 -21.187  -9.846  1.00  0.00     0.310 C 
HETATM   24  C15 UNL     1     -12.124 -21.132 -12.183  1.00  0.00     0.302 C 
HETATM   25  C16 UNL     1     -12.500 -22.088 -13.292  1.00  0.00     0.303 C 
ENDBRANCH  18  19
ENDBRANCH  15  18
BRANCH  16  26
HETATM   26  C18 UNL     1      -9.406 -23.262 -16.610  1.00  0.00     0.418 C 
HETATM   27  F1  UNL     1      -9.142 -22.027 -16.099  1.00  0.00    -0.166 F 
HETATM   28  F2  UNL     1     -10.652 -23.323 -17.206  1.00  0.00    -0.166 F 
HETATM   29  F3  UNL     1      -8.498 -23.440 -17.665  1.00  0.00    -0.166 F 
ENDBRANCH  16  26
ENDBRANCH   9  12
ENDBRANCH   5   8
BRANCH   7  30
HETATM   30  O2  UNL     1      -3.671 -30.997 -16.536  1.00  0.00    -0.345 OA
BRANCH  30  31
HETATM   31  C22 UNL     1      -3.042 -30.995 -17.688  1.00  0.00     0.132 C 
HETATM   32  C23 UNL     1      -1.998 -29.854 -17.830  1.00  0.00     0.052 C 
HETATM   33  C24 UNL     1      -1.746 -29.765 -19.328  1.00  0.00     0.127 C 
HETATM   34  N4  UNL     1      -1.971 -31.035 -19.926  1.00  0.00    -0.361 N 
HETATM   35  C31 UNL     1      -3.438 -31.340 -20.091  1.00  0.00     0.127 C 
HETATM   36  C32 UNL     1      -4.067 -30.771 -18.831  1.00  0.00     0.052 C 
BRANCH  34  37
HETATM   37  C25 UNL     1      -1.107 -32.047 -20.336  1.00  0.00     0.149 C 
BRANCH  37  38
HETATM   38  O3  UNL     1      -1.658 -33.132 -20.847  1.00  0.00    -0.346 OA
ATOM     39  H3  UNL     1      -1.208 -33.539 -21.578  1.00  0.00     0.219 HD
ENDBRANCH  37  38
BRANCH  37  40
HETATM   40  C26 UNL     1       0.341 -32.121 -20.301  1.00  0.00     0.030 A 
HETATM   41  C27 UNL     1       1.110 -31.422 -19.429  1.00  0.00     0.018 A 
HETATM   42  C28 UNL     1       2.505 -31.514 -19.506  1.00  0.00     0.018 A 
HETATM   43  C29 UNL     1       3.102 -32.296 -20.444  1.00  0.00     0.087 A 
HETATM   44  N5  UNL     1       2.308 -32.974 -21.289  1.00  0.00    -0.374 N 
HETATM   45  C30 UNL     1       0.982 -32.908 -21.242  1.00  0.00     0.103 A 
ATOM     46  H5  UNL     1       2.743 -33.565 -21.998  1.00  0.00     0.164 HD
ENDBRANCH  37  40
ENDBRANCH  34  37
ENDBRANCH  30  31
ENDBRANCH   7  30
TORSDOF 10
ENDMDL
