MODEL 4
REMARK VINA RESULT: -11.563695275      4.286     12.551
REMARK  10 active torsions:
REMARK  status: ('A' for Active; 'I' for Inactive)
REMARK    1  A    between atoms: C5_5  and  N1_6 
REMARK       I    between atoms: N1_6  and  C6_8 
REMARK    2  A    between atoms: C6_8  and  C7_10 
REMARK    3  A    between atoms: C10_13  and  C11_14 
REMARK    4  A    between atoms: C11_14  and  N2_15 
REMARK    5  A    between atoms: C17_22  and  C18_23 
REMARK    6  A    between atoms: C21_29  and  O2_30 
REMARK    7  A    between atoms: O2_30  and  C22_31 
REMARK    8  A    between atoms: N4_34  and  C25_35 
REMARK    9  A    between atoms: C25_35  and  O3_36 
REMARK   10  A    between atoms: C25_35  and  C26_38 
ROOT
HETATM    1  C1  UNL     1     -11.543 -22.774 -14.246  1.00  0.00     0.051 C 
HETATM    2  C2  UNL     1     -10.594 -23.779 -14.742  1.00  0.00    -0.029 A 
HETATM    3  C3  UNL     1     -10.667 -24.146 -16.082  1.00  0.00     0.012 A 
HETATM    4  C4  UNL     1      -9.797 -25.093 -16.605  1.00  0.00     0.030 A 
HETATM    5  C5  UNL     1      -8.841 -25.701 -15.840  1.00  0.00     0.037 A 
HETATM    6  C20 UNL     1      -8.773 -25.335 -14.527  1.00  0.00     0.066 A 
HETATM    7  C21 UNL     1      -9.646 -24.365 -13.936  1.00  0.00     0.077 A 
ENDROOT
BRANCH   5   8
HETATM    8  N1  UNL     1      -7.923 -26.694 -16.305  1.00  0.00    -0.323 N 
HETATM    9  C6  UNL     1      -7.483 -27.814 -15.602  1.00  0.00     0.256 C 
HETATM   10  O1  UNL     1      -7.902 -28.023 -14.417  1.00  0.00    -0.267 OA
ATOM     11  H1  UNL     1      -7.552 -26.571 -17.247  1.00  0.00     0.169 HD
BRANCH   9  12
HETATM   12  C7  UNL     1      -6.542 -28.785 -16.168  1.00  0.00     0.033 A 
HETATM   13  C8  UNL     1      -5.787 -28.406 -17.236  1.00  0.00     0.017 A 
HETATM   14  C9  UNL     1      -4.875 -29.316 -17.790  1.00  0.00     0.011 A 
HETATM   15  C10 UNL     1      -4.702 -30.579 -17.309  1.00  0.00    -0.015 A 
HETATM   16  C17 UNL     1      -5.489 -30.936 -16.217  1.00  0.00     0.056 A 
HETATM   17  C19 UNL     1      -6.408 -30.039 -15.648  1.00  0.00     0.034 A 
BRANCH  15  18
HETATM   18  C11 UNL     1      -3.768 -31.567 -17.841  1.00  0.00     0.311 C 
BRANCH  18  19
HETATM   19  N2  UNL     1      -2.624 -30.963 -18.481  1.00  0.00     0.096 N 
HETATM   20  C12 UNL     1      -1.433 -31.763 -18.351  1.00  0.00     0.303 C 
HETATM   21  C13 UNL     1      -0.497 -31.365 -19.497  1.00  0.00     0.302 C 
HETATM   22  N3  UNL     1      -0.993 -31.894 -20.755  1.00  0.00     0.087 N 
HETATM   23  C14 UNL     1      -0.452 -33.202 -20.947  1.00  0.00     0.310 C 
HETATM   24  C15 UNL     1      -2.455 -32.021 -20.662  1.00  0.00     0.302 C 
HETATM   25  C16 UNL     1      -2.917 -30.781 -19.931  1.00  0.00     0.303 C 
ENDBRANCH  18  19
ENDBRANCH  15  18
BRANCH  16  26
HETATM   26  C18 UNL     1      -5.333 -32.299 -15.668  1.00  0.00     0.418 C 
HETATM   27  F1  UNL     1      -4.238 -32.465 -14.875  1.00  0.00    -0.166 F 
HETATM   28  F2  UNL     1      -5.414 -33.268 -16.652  1.00  0.00    -0.166 F 
HETATM   29  F3  UNL     1      -6.442 -32.539 -14.842  1.00  0.00    -0.166 F 
ENDBRANCH  16  26
ENDBRANCH   9  12
ENDBRANCH   5   8
BRANCH   7  30
HETATM   30  O2  UNL     1      -9.484 -24.093 -12.647  1.00  0.00    -0.345 OA
BRANCH  30  31
HETATM   31  C22 UNL     1      -9.971 -24.307 -11.447  1.00  0.00     0.132 C 
HETATM   32  C23 UNL     1     -11.322 -25.073 -11.447  1.00  0.00     0.052 C 
HETATM   33  C24 UNL     1     -11.898 -24.810 -10.063  1.00  0.00     0.127 C 
HETATM   34  N4  UNL     1     -10.839 -24.588  -9.140  1.00  0.00    -0.361 N 
HETATM   35  C31 UNL     1     -10.248 -23.208  -9.265  1.00  0.00     0.127 C 
HETATM   36  C32 UNL     1     -10.259 -22.946 -10.761  1.00  0.00     0.052 C 
BRANCH  34  37
HETATM   37  C25 UNL     1     -10.230 -25.410  -8.194  1.00  0.00     0.149 C 
BRANCH  37  38
HETATM   38  O3  UNL     1     -11.006 -25.912  -7.252  1.00  0.00    -0.346 OA
ATOM     39  H3  UNL     1     -10.656 -25.924  -6.369  1.00  0.00     0.219 HD
ENDBRANCH  37  38
BRANCH  37  40
HETATM   40  C26 UNL     1      -8.847 -25.826  -8.059  1.00  0.00     0.030 A 
HETATM   41  C27 UNL     1      -7.879 -25.527  -8.961  1.00  0.00     0.018 A 
HETATM   42  C28 UNL     1      -6.582 -26.019  -8.775  1.00  0.00     0.018 A 
HETATM   43  C29 UNL     1      -6.277 -26.794  -7.700  1.00  0.00     0.087 A 
HETATM   44  N5  UNL     1      -7.261 -27.068  -6.828  1.00  0.00    -0.374 N 
HETATM   45  C30 UNL     1      -8.502 -26.616  -6.977  1.00  0.00     0.103 A 
ATOM     46  H5  UNL     1      -7.047 -27.648  -6.017  1.00  0.00     0.164 HD
ENDBRANCH  37  40
ENDBRANCH  34  37
ENDBRANCH  30  31
ENDBRANCH   7  30
TORSDOF 10
ENDMDL
