MODEL 3
REMARK VINA RESULT: -11.680779087      5.020     12.109
REMARK  10 active torsions:
REMARK  status: ('A' for Active; 'I' for Inactive)
REMARK    1  A    between atoms: C5_5  and  N1_6 
REMARK       I    between atoms: N1_6  and  C6_8 
REMARK    2  A    between atoms: C6_8  and  C7_10 
REMARK    3  A    between atoms: C10_13  and  C11_14 
REMARK    4  A    between atoms: C11_14  and  N2_15 
REMARK    5  A    between atoms: C17_22  and  C18_23 
REMARK    6  A    between atoms: C21_29  and  O2_30 
REMARK    7  A    between atoms: O2_30  and  C22_31 
REMARK    8  A    between atoms: N4_34  and  C25_35 
REMARK    9  A    between atoms: C25_35  and  O3_36 
REMARK   10  A    between atoms: C25_35  and  C26_38 
ROOT
HETATM    1  C1  UNL     1     -11.381 -23.422 -11.629  1.00  0.00     0.051 C 
HETATM    2  C2  UNL     1     -10.495 -24.411 -12.255  1.00  0.00    -0.029 A 
HETATM    3  C3  UNL     1     -10.861 -24.930 -13.493  1.00  0.00     0.012 A 
HETATM    4  C4  UNL     1     -10.063 -25.870 -14.130  1.00  0.00     0.030 A 
HETATM    5  C5  UNL     1      -8.896 -26.324 -13.581  1.00  0.00     0.037 A 
HETATM    6  C20 UNL     1      -8.542 -25.810 -12.367  1.00  0.00     0.066 A 
HETATM    7  C21 UNL     1      -9.328 -24.839 -11.666  1.00  0.00     0.077 A 
ENDROOT
BRANCH   5   8
HETATM    8  N1  UNL     1      -8.033 -27.301 -14.170  1.00  0.00    -0.323 N 
HETATM    9  C6  UNL     1      -7.668 -27.386 -15.511  1.00  0.00     0.256 C 
HETATM   10  O1  UNL     1      -8.123 -26.540 -16.347  1.00  0.00    -0.267 OA
ATOM     11  H1  UNL     1      -7.646 -28.007 -13.544  1.00  0.00     0.169 HD
BRANCH   9  12
HETATM   12  C7  UNL     1      -6.767 -28.424 -16.022  1.00  0.00     0.033 A 
HETATM   13  C8  UNL     1      -5.944 -28.110 -17.062  1.00  0.00     0.017 A 
HETATM   14  C9  UNL     1      -5.068 -29.084 -17.562  1.00  0.00     0.011 A 
HETATM   15  C10 UNL     1      -4.996 -30.347 -17.057  1.00  0.00    -0.015 A 
HETATM   16  C17 UNL     1      -5.849 -30.636 -15.995  1.00  0.00     0.056 A 
HETATM   17  C19 UNL     1      -6.733 -29.675 -15.480  1.00  0.00     0.034 A 
BRANCH  15  18
HETATM   18  C11 UNL     1      -4.103 -31.400 -17.534  1.00  0.00     0.311 C 
BRANCH  18  19
HETATM   19  N2  UNL     1      -2.845 -30.885 -18.020  1.00  0.00     0.096 N 
HETATM   20  C12 UNL     1      -1.808 -31.885 -18.032  1.00  0.00     0.303 C 
HETATM   21  C13 UNL     1      -0.763 -31.435 -19.060  1.00  0.00     0.302 C 
HETATM   22  N3  UNL     1      -1.274 -31.616 -20.406  1.00  0.00     0.087 N 
HETATM   23  C14 UNL     1      -0.944 -32.935 -20.847  1.00  0.00     0.310 C 
HETATM   24  C15 UNL     1      -2.741 -31.510 -20.365  1.00  0.00     0.302 C 
HETATM   25  C16 UNL     1      -3.031 -30.377 -19.408  1.00  0.00     0.303 C 
ENDBRANCH  18  19
ENDBRANCH  15  18
BRANCH  16  26
HETATM   26  C18 UNL     1      -5.802 -31.997 -15.421  1.00  0.00     0.418 C 
HETATM   27  F1  UNL     1      -4.639 -32.297 -14.777  1.00  0.00    -0.166 F 
HETATM   28  F2  UNL     1      -6.148 -32.965 -16.347  1.00  0.00    -0.166 F 
HETATM   29  F3  UNL     1      -6.807 -32.066 -14.444  1.00  0.00    -0.166 F 
ENDBRANCH  16  26
ENDBRANCH   9  12
ENDBRANCH   5   8
BRANCH   7  30
HETATM   30  O2  UNL     1      -8.880 -24.414 -10.491  1.00  0.00    -0.345 OA
BRANCH  30  31
HETATM   31  C22 UNL     1      -8.362 -24.802  -9.349  1.00  0.00     0.132 C 
HETATM   32  C23 UNL     1      -9.339 -25.623  -8.463  1.00  0.00     0.052 C 
HETATM   33  C24 UNL     1      -8.720 -25.565  -7.074  1.00  0.00     0.127 C 
HETATM   34  N4  UNL     1      -7.311 -25.414  -7.186  1.00  0.00    -0.361 N 
HETATM   35  C31 UNL     1      -6.909 -24.004  -7.532  1.00  0.00     0.127 C 
HETATM   36  C32 UNL     1      -7.982 -23.554  -8.510  1.00  0.00     0.052 C 
BRANCH  34  37
HETATM   37  C25 UNL     1      -6.258 -26.321  -7.083  1.00  0.00     0.149 C 
BRANCH  37  38
HETATM   38  O3  UNL     1      -5.044 -25.815  -6.972  1.00  0.00    -0.346 OA
ATOM     39  H3  UNL     1      -4.427 -26.027  -7.662  1.00  0.00     0.219 HD
ENDBRANCH  37  38
BRANCH  37  40
HETATM   40  C26 UNL     1      -6.261 -27.771  -7.075  1.00  0.00     0.030 A 
HETATM   41  C27 UNL     1      -7.007 -28.518  -6.223  1.00  0.00     0.018 A 
HETATM   42  C28 UNL     1      -6.903 -29.914  -6.250  1.00  0.00     0.018 A 
HETATM   43  C29 UNL     1      -6.064 -30.533  -7.122  1.00  0.00     0.087 A 
HETATM   44  N5  UNL     1      -5.342 -29.761  -7.951  1.00  0.00    -0.374 N 
HETATM   45  C30 UNL     1      -5.418 -28.435  -7.949  1.00  0.00     0.103 A 
ATOM     46  H5  UNL     1      -4.707 -30.213  -8.609  1.00  0.00     0.164 HD
ENDBRANCH  37  40
ENDBRANCH  34  37
ENDBRANCH  30  31
ENDBRANCH   7  30
TORSDOF 10
ENDMDL
