MODEL 3
REMARK VINA RESULT: -5.828629344      0.102      1.432
REMARK  4 active torsions:
REMARK  status: ('A' for Active; 'I' for Inactive)
REMARK    1  A    between atoms: C1_2  and  C2_4 
REMARK    2  A    between atoms: C2_4  and  C3_5 
REMARK    3  A    between atoms: C3_5  and  C4_6 
REMARK    4  A    between atoms: C4_6  and  C5_8 
ROOT
HETATM    1  C3  UNL     1     -29.167  46.880 -23.497  1.00  0.00     0.101 C 
ENDROOT
BRANCH   1   2
HETATM    2  C2  UNL     1     -29.116  48.214 -22.803  1.00  0.00     0.121 C 
BRANCH   2   3
HETATM    3  C1  UNL     1     -29.771  48.178 -21.473  1.00  0.00     0.172 C 
HETATM    4  O1  UNL     1     -30.097  49.235 -20.860  1.00  0.00    -0.648 OA
HETATM    5  O2  UNL     1     -30.062  46.984 -20.829  1.00  0.00    -0.648 OA
ENDBRANCH   2   3
ENDBRANCH   1   2
BRANCH   1   6
HETATM    6  C4  UNL     1     -29.200  47.008 -24.968  1.00  0.00     0.225 C 
HETATM    7  O3  UNL     1     -30.281  46.959 -25.590  1.00  0.00    -0.286 OA
BRANCH   6   8
HETATM    8  C5  UNL     1     -27.970  47.193 -25.711  1.00  0.00     0.246 C 
HETATM    9  O4  UNL     1     -26.866  46.697 -25.297  1.00  0.00    -0.642 OA
HETATM   10  O5  UNL     1     -27.916  47.911 -26.900  1.00  0.00    -0.642 OA
ENDBRANCH   6   8
ENDBRANCH   1   6
TORSDOF 4
ENDMDL
