MODEL 5
REMARK VINA RESULT: -5.777648020      1.221      4.848
REMARK  4 active torsions:
REMARK  status: ('A' for Active; 'I' for Inactive)
REMARK    1  A    between atoms: C1_2  and  C2_4 
REMARK    2  A    between atoms: C2_4  and  C3_5 
REMARK    3  A    between atoms: C3_5  and  C4_6 
REMARK    4  A    between atoms: C4_6  and  C5_8 
ROOT
HETATM    1  C3  UNL     1     -28.158  48.003 -23.344  1.00  0.00     0.101 C 
ENDROOT
BRANCH   1   2
HETATM    2  C2  UNL     1     -28.847  47.474 -24.572  1.00  0.00     0.121 C 
BRANCH   2   3
HETATM    3  C1  UNL     1     -27.907  47.283 -25.703  1.00  0.00     0.172 C 
HETATM    4  O1  UNL     1     -28.157  47.724 -26.861  1.00  0.00    -0.648 OA
HETATM    5  O2  UNL     1     -26.702  46.610 -25.552  1.00  0.00    -0.648 OA
ENDBRANCH   2   3
ENDBRANCH   1   2
BRANCH   1   6
HETATM    6  C4  UNL     1     -28.391  47.159 -22.155  1.00  0.00     0.225 C 
HETATM    7  O3  UNL     1     -27.797  46.070 -22.018  1.00  0.00    -0.286 OA
BRANCH   6   8
HETATM    8  C5  UNL     1     -29.319  47.587 -21.129  1.00  0.00     0.246 C 
HETATM    9  O4  UNL     1     -30.560  47.280 -21.188  1.00  0.00    -0.642 OA
HETATM   10  O5  UNL     1     -28.923  48.345 -20.032  1.00  0.00    -0.642 OA
ENDBRANCH   6   8
ENDBRANCH   1   6
TORSDOF 4
ENDMDL
