MODEL 18
REMARK VINA RESULT: -7.271905040      1.822      3.052
REMARK  9 active torsions:
REMARK  status: ('A' for Active; 'I' for Inactive)
REMARK    1  A    between atoms: N1_5  and  C4_6 
REMARK    2  A    between atoms: C6_8  and  O2_9 
REMARK    3  A    between atoms: C7_11  and  C8_12 
REMARK    4  A    between atoms: C8_12  and  O3_13 
REMARK    5  A    between atoms: O3_13  and  P1_14 
REMARK    6  A    between atoms: P1_14  and  N2_17 
REMARK    7  A    between atoms: N2_17  and  P2_19 
REMARK    8  A    between atoms: P2_19  and  O8_22 
REMARK    9  A    between atoms: O8_22  and  P3_23 
ROOT
HETATM    1  C4  UNL     1      28.812-184.576  27.629  1.00  0.00     0.235 C 
HETATM    2  C5  UNL     1      27.585-183.807  27.201  1.00  0.00     0.088 C 
HETATM    3  C6  UNL     1      28.110-183.074  25.982  1.00  0.00     0.153 C 
HETATM    4  C7  UNL     1      29.095-184.110  25.460  1.00  0.00     0.177 C 
HETATM    5  O12 UNL     1      29.734-184.495  26.611  1.00  0.00    -0.356 OA
ENDROOT
BRANCH   4   6
HETATM    6  C8  UNL     1      30.022-183.537  24.454  1.00  0.00     0.215 C 
BRANCH   6   7
HETATM    7  O3  UNL     1      31.319-184.041  24.547  1.00  0.00    -0.293 OA
BRANCH   7   8
HETATM    8  P1  UNL     1      32.541-183.131  24.314  1.00  0.00     0.368 P 
HETATM    9  O4  UNL     1      33.031-183.666  25.867  1.00  0.00    -0.629 OA
HETATM   10  O5  UNL     1      33.638-182.040  24.514  1.00  0.00    -0.629 OA
BRANCH   8  11
HETATM   11  N2  UNL     1      33.158-183.864  22.989  1.00  0.00    -0.225 N 
ATOM     12  H2  UNL     1      34.007-184.425  23.066  1.00  0.00     0.178 HD
BRANCH  11  13
HETATM   13  P2  UNL     1      32.387-183.692  21.487  1.00  0.00     0.378 P 
HETATM   14  O6  UNL     1      32.886-185.016  20.870  1.00  0.00    -0.629 OA
HETATM   15  O7  UNL     1      31.693-182.328  21.720  1.00  0.00    -0.629 OA
BRANCH  13  16
HETATM   16  O8  UNL     1      33.260-182.924  20.343  1.00  0.00    -0.178 OA
BRANCH  16  17
HETATM   17  P3  UNL     1      34.701-182.472  20.471  1.00  0.00     0.431 P 
HETATM   18  O9  UNL     1      35.232-183.814  21.136  1.00  0.00    -0.616 OA
HETATM   19  O10 UNL     1      34.749-182.203  18.814  1.00  0.00    -0.616 OA
HETATM   20  O11 UNL     1      34.206-181.195  21.455  1.00  0.00    -0.616 OA
ENDBRANCH  16  17
ENDBRANCH  13  16
ENDBRANCH  11  13
ENDBRANCH   8  11
ENDBRANCH   7   8
ENDBRANCH   6   7
ENDBRANCH   4   6
BRANCH   3  21
HETATM   21  O2  UNL     1      27.103-182.819  25.057  1.00  0.00    -0.393 OA
ATOM     22  H2  UNL     1      26.459-182.207  25.394  1.00  0.00     0.210 HD
ENDBRANCH   3  21
BRANCH   1  23
HETATM   23  N1  UNL     1      29.292-183.968  28.859  1.00  0.00    -0.282 N 
HETATM   24  C3  UNL     1      28.501-183.190  29.621  1.00  0.00     0.104 A 
HETATM   25  C2  UNL     1      28.988-182.629  30.783  1.00  0.00     0.092 A 
HETATM   26  C1  UNL     1      30.295-182.856  31.179  1.00  0.00     0.250 A 
HETATM   27  O1  UNL     1      30.725-182.333  32.249  1.00  0.00    -0.268 OA
HETATM   28  N3  UNL     1      31.058-183.634  30.401  1.00  0.00    -0.275 N 
HETATM   29  C9  UNL     1      30.552-184.163  29.281  1.00  0.00     0.331 A 
ATOM     30  H3  UNL     1      32.025-183.823  30.662  1.00  0.00     0.173 HD
HETATM   31  O13 UNL     1      31.274-184.905  28.534  1.00  0.00    -0.246 OA
ENDBRANCH   1  23
TORSDOF 9
ENDMDL
