MODEL 11
REMARK VINA RESULT: -9.221143472      3.135      5.418
REMARK  6 active torsions:
REMARK  status: ('A' for Active; 'I' for Inactive)
REMARK    1  A    between atoms: C1_2  and  C2_4 
REMARK    2  A    between atoms: C6_8  and  O3_9 
REMARK    3  A    between atoms: O3_9  and  C7_10 
REMARK    4  A    between atoms: C12_17  and  C13_18 
REMARK    5  A    between atoms: N2_20  and  C15_21 
REMARK    6  A    between atoms: C18_24  and  O4_25 
ROOT
HETATM    1  C7  UNL     1      -8.066  -3.628   0.824  1.00  0.00     0.088 A 
HETATM    2  C8  UNL     1      -6.671  -3.662   0.866  1.00  0.00     0.038 A 
HETATM    3  C9  UNL     1      -6.011  -4.049  -0.275  1.00  0.00     0.005 A 
HETATM    4  C10 UNL     1      -6.691  -4.390  -1.421  1.00  0.00     0.030 A 
HETATM    5  C11 UNL     1      -8.076  -4.345  -1.434  1.00  0.00     0.045 A 
HETATM    6  N1  UNL     1      -8.757  -4.662  -2.541  1.00  0.00    -0.354 N 
ATOM      7  H1  UNL     1      -8.220  -4.944  -3.360  1.00  0.00     0.166 HD
HETATM    8  C12 UNL     1     -10.089  -4.637  -2.655  1.00  0.00     0.062 A 
HETATM    9  C21 UNL     1     -10.796  -4.253  -1.534  1.00  0.00     0.033 A 
HETATM   10  C22 UNL     1     -10.141  -3.918  -0.369  1.00  0.00     0.019 A 
HETATM   11  C23 UNL     1      -8.769  -3.959  -0.296  1.00  0.00     0.025 A 
ENDROOT
BRANCH   8  12
HETATM   12  C13 UNL     1     -10.745  -5.000  -3.906  1.00  0.00     0.093 A 
HETATM   13  C14 UNL     1     -11.185  -6.238  -4.324  1.00  0.00     0.151 A 
HETATM   14  N2  UNL     1     -11.739  -6.126  -5.557  1.00  0.00    -0.251 N 
HETATM   15  N3  UNL     1     -11.643  -4.871  -5.880  1.00  0.00    -0.235 N 
HETATM   16  N4  UNL     1     -11.048  -4.160  -4.908  1.00  0.00    -0.282 N 
ATOM     17  H3  UNL     1     -11.977  -4.476  -6.760  1.00  0.00     0.209 HD
ATOM     18  H4  UNL     1     -10.860  -3.158  -4.928  1.00  0.00     0.188 HD
BRANCH  14  19
HETATM   19  C15 UNL     1     -12.296  -7.201  -6.295  1.00  0.00     0.060 A 
HETATM   20  C16 UNL     1     -13.660  -7.319  -6.521  1.00  0.00     0.034 A 
HETATM   21  C17 UNL     1     -14.175  -8.376  -7.243  1.00  0.00     0.042 A 
HETATM   22  C18 UNL     1     -13.349  -9.353  -7.765  1.00  0.00     0.104 A 
HETATM   23  C19 UNL     1     -11.992  -9.254  -7.551  1.00  0.00     0.151 A 
HETATM   24  F1  UNL     1     -11.180 -10.204  -8.057  1.00  0.00    -0.203 F 
HETATM   25  C20 UNL     1     -11.503  -8.191  -6.828  1.00  0.00     0.076 A 
BRANCH  22  26
HETATM   26  O4  UNL     1     -13.861 -10.416  -8.491  1.00  0.00    -0.358 OA
ATOM     27  H4  UNL     1     -14.777 -10.661  -8.426  1.00  0.00     0.217 HD
ENDBRANCH  22  26
ENDBRANCH  14  19
ENDBRANCH   8  12
BRANCH   1  28
HETATM   28  O3  UNL     1      -8.733  -3.240   1.972  1.00  0.00    -0.310 OA
BRANCH  28  29
HETATM   29  C6  UNL     1      -8.665  -4.022   3.110  1.00  0.00     0.077 A 
HETATM   30  C5  UNL     1      -8.048  -3.504   4.254  1.00  0.00     0.037 A 
HETATM   31  C4  UNL     1      -7.957  -4.246   5.407  1.00  0.00     0.004 A 
HETATM   32  C3  UNL     1      -8.496  -5.527   5.399  1.00  0.00     0.018 A 
HETATM   33  C2  UNL     1      -9.106  -6.072   4.307  1.00  0.00     0.043 A 
HETATM   34  C24 UNL     1      -9.181  -5.299   3.165  1.00  0.00     0.055 A 
BRANCH  33  35
HETATM   35  C1  UNL     1      -9.655  -7.423   4.354  1.00  0.00     0.209 C 
HETATM   36  O1  UNL     1     -10.488  -7.737   5.234  1.00  0.00    -0.644 OA
HETATM   37  O2  UNL     1      -9.270  -8.386   3.433  1.00  0.00    -0.644 OA
ENDBRANCH  33  35
ENDBRANCH  28  29
ENDBRANCH   1  28
TORSDOF 6
ENDMDL
