MODEL 13
REMARK VINA RESULT: -9.072245405      2.084      3.182
REMARK  6 active torsions:
REMARK  status: ('A' for Active; 'I' for Inactive)
REMARK    1  A    between atoms: C1_2  and  C2_4 
REMARK    2  A    between atoms: C6_8  and  O3_9 
REMARK    3  A    between atoms: O3_9  and  C7_10 
REMARK    4  A    between atoms: C12_17  and  C13_18 
REMARK    5  A    between atoms: N2_20  and  C15_21 
REMARK    6  A    between atoms: C18_24  and  O4_25 
ROOT
HETATM    1  C7  UNL     1      -5.864  -2.772  -1.028  1.00  0.00     0.088 A 
HETATM    2  C8  UNL     1      -5.675  -1.394  -0.910  1.00  0.00     0.038 A 
HETATM    3  C9  UNL     1      -6.535  -0.574  -1.598  1.00  0.00     0.005 A 
HETATM    4  C10 UNL     1      -7.550  -1.083  -2.376  1.00  0.00     0.030 A 
HETATM    5  C11 UNL     1      -7.715  -2.455  -2.472  1.00  0.00     0.045 A 
HETATM    6  N1  UNL     1      -8.702  -2.971  -3.214  1.00  0.00    -0.354 N 
ATOM      7  H1  UNL     1      -9.312  -2.319  -3.706  1.00  0.00     0.166 HD
HETATM    8  C12 UNL     1      -8.949  -4.277  -3.359  1.00  0.00     0.062 A 
HETATM    9  C21 UNL     1      -8.112  -5.141  -2.686  1.00  0.00     0.033 A 
HETATM   10  C22 UNL     1      -7.080  -4.659  -1.910  1.00  0.00     0.019 A 
HETATM   11  C23 UNL     1      -6.861  -3.307  -1.789  1.00  0.00     0.025 A 
ENDROOT
BRANCH   8  12
HETATM   12  C13 UNL     1     -10.051  -4.747  -4.191  1.00  0.00     0.093 A 
HETATM   13  C14 UNL     1     -10.255  -6.000  -4.728  1.00  0.00     0.151 A 
HETATM   14  N2  UNL     1     -11.410  -6.003  -5.438  1.00  0.00    -0.251 N 
HETATM   15  N3  UNL     1     -11.895  -4.801  -5.339  1.00  0.00    -0.235 N 
HETATM   16  N4  UNL     1     -11.102  -4.014  -4.594  1.00  0.00    -0.282 N 
ATOM     17  H3  UNL     1     -12.766  -4.495  -5.773  1.00  0.00     0.209 HD
ATOM     18  H4  UNL     1     -11.268  -3.033  -4.373  1.00  0.00     0.188 HD
BRANCH  14  19
HETATM   19  C15 UNL     1     -11.933  -7.126  -6.129  1.00  0.00     0.060 A 
HETATM   20  C16 UNL     1     -11.152  -8.225  -6.459  1.00  0.00     0.034 A 
HETATM   21  C17 UNL     1     -11.687  -9.305  -7.131  1.00  0.00     0.042 A 
HETATM   22  C18 UNL     1     -13.019  -9.328  -7.498  1.00  0.00     0.104 A 
HETATM   23  C19 UNL     1     -13.810  -8.247  -7.179  1.00  0.00     0.151 A 
HETATM   24  F1  UNL     1     -15.111  -8.263  -7.533  1.00  0.00    -0.203 F 
HETATM   25  C20 UNL     1     -13.254  -7.183  -6.509  1.00  0.00     0.076 A 
BRANCH  22  26
HETATM   26  O4  UNL     1     -13.561 -10.409  -8.172  1.00  0.00    -0.358 OA
ATOM     27  H4  UNL     1     -14.443 -10.381  -8.523  1.00  0.00     0.217 HD
ENDBRANCH  22  26
ENDBRANCH  14  19
ENDBRANCH   8  12
BRANCH   1  28
HETATM   28  O3  UNL     1      -4.999  -3.600  -0.337  1.00  0.00    -0.310 OA
BRANCH  28  29
HETATM   29  C6  UNL     1      -5.087  -3.704   1.038  1.00  0.00     0.077 A 
HETATM   30  C5  UNL     1      -6.257  -4.221   1.606  1.00  0.00     0.037 A 
HETATM   31  C4  UNL     1      -6.389  -4.340   2.969  1.00  0.00     0.004 A 
HETATM   32  C3  UNL     1      -5.325  -3.931   3.763  1.00  0.00     0.018 A 
HETATM   33  C2  UNL     1      -4.167  -3.421   3.252  1.00  0.00     0.043 A 
HETATM   34  C24 UNL     1      -4.066  -3.315   1.878  1.00  0.00     0.055 A 
BRANCH  33  35
HETATM   35  C1  UNL     1      -3.080  -3.006   4.133  1.00  0.00     0.209 C 
HETATM   36  O1  UNL     1      -3.023  -3.429   5.310  1.00  0.00    -0.644 OA
HETATM   37  O2  UNL     1      -2.090  -2.141   3.692  1.00  0.00    -0.644 OA
ENDBRANCH  33  35
ENDBRANCH  28  29
ENDBRANCH   1  28
TORSDOF 6
ENDMDL
