MODEL 4
REMARK VINA RESULT: -9.777154170      1.280      1.447
REMARK  6 active torsions:
REMARK  status: ('A' for Active; 'I' for Inactive)
REMARK    1  A    between atoms: C1_2  and  C2_4 
REMARK    2  A    between atoms: C6_8  and  O3_9 
REMARK    3  A    between atoms: O3_9  and  C7_10 
REMARK    4  A    between atoms: C12_17  and  C13_18 
REMARK    5  A    between atoms: N2_20  and  C15_21 
REMARK    6  A    between atoms: C18_24  and  O4_25 
ROOT
HETATM    1  C7  UNL     1      -6.754  -3.853   0.357  1.00  0.00     0.088 A 
HETATM    2  C8  UNL     1      -7.265  -3.314   1.540  1.00  0.00     0.038 A 
HETATM    3  C9  UNL     1      -8.621  -3.114   1.612  1.00  0.00     0.005 A 
HETATM    4  C10 UNL     1      -9.454  -3.430   0.564  1.00  0.00     0.030 A 
HETATM    5  C11 UNL     1      -8.920  -3.964  -0.597  1.00  0.00     0.045 A 
HETATM    6  N1  UNL     1      -9.713  -4.289  -1.624  1.00  0.00    -0.354 N 
ATOM      7  H1  UNL     1     -10.713  -4.118  -1.520  1.00  0.00     0.166 HD
HETATM    8  C12 UNL     1      -9.295  -4.819  -2.778  1.00  0.00     0.062 A 
HETATM    9  C21 UNL     1      -7.939  -5.041  -2.898  1.00  0.00     0.033 A 
HETATM   10  C22 UNL     1      -7.080  -4.723  -1.869  1.00  0.00     0.019 A 
HETATM   11  C23 UNL     1      -7.554  -4.177  -0.699  1.00  0.00     0.025 A 
ENDROOT
BRANCH   8  12
HETATM   12  C13 UNL     1     -10.236  -5.142  -3.845  1.00  0.00     0.093 A 
HETATM   13  C14 UNL     1     -10.534  -6.372  -4.391  1.00  0.00     0.151 A 
HETATM   14  N2  UNL     1     -11.468  -6.219  -5.362  1.00  0.00    -0.251 N 
HETATM   15  N3  UNL     1     -11.731  -4.947  -5.409  1.00  0.00    -0.235 N 
HETATM   16  N4  UNL     1     -11.006  -4.265  -4.507  1.00  0.00    -0.282 N 
ATOM     17  H3  UNL     1     -12.403  -4.521  -6.048  1.00  0.00     0.209 HD
ATOM     18  H4  UNL     1     -11.036  -3.257  -4.353  1.00  0.00     0.188 HD
BRANCH  14  19
HETATM   19  C15 UNL     1     -12.011  -7.275  -6.138  1.00  0.00     0.060 A 
HETATM   20  C16 UNL     1     -11.238  -8.333  -6.597  1.00  0.00     0.034 A 
HETATM   21  C17 UNL     1     -11.791  -9.348  -7.349  1.00  0.00     0.042 A 
HETATM   22  C18 UNL     1     -13.135  -9.344  -7.671  1.00  0.00     0.104 A 
HETATM   23  C19 UNL     1     -13.919  -8.303  -7.226  1.00  0.00     0.151 A 
HETATM   24  F1  UNL     1     -15.231  -8.294  -7.537  1.00  0.00    -0.203 F 
HETATM   25  C20 UNL     1     -13.343  -7.304  -6.477  1.00  0.00     0.076 A 
BRANCH  22  26
HETATM   26  O4  UNL     1     -13.696 -10.361  -8.427  1.00  0.00    -0.358 OA
ATOM     27  H4  UNL     1     -14.638 -10.476  -8.478  1.00  0.00     0.217 HD
ENDBRANCH  22  26
ENDBRANCH  14  19
ENDBRANCH   8  12
BRANCH   1  28
HETATM   28  O3  UNL     1      -5.389  -4.054   0.280  1.00  0.00    -0.310 OA
BRANCH  28  29
HETATM   29  C6  UNL     1      -4.529  -2.972   0.249  1.00  0.00     0.077 A 
HETATM   30  C5  UNL     1      -4.649  -2.039  -0.786  1.00  0.00     0.037 A 
HETATM   31  C4  UNL     1      -3.814  -0.950  -0.859  1.00  0.00     0.004 A 
HETATM   32  C3  UNL     1      -2.847  -0.806   0.129  1.00  0.00     0.018 A 
HETATM   33  C2  UNL     1      -2.693  -1.692   1.156  1.00  0.00     0.043 A 
HETATM   34  C24 UNL     1      -3.549  -2.776   1.199  1.00  0.00     0.055 A 
BRANCH  33  35
HETATM   35  C1  UNL     1      -1.660  -1.493   2.166  1.00  0.00     0.209 C 
HETATM   36  O1  UNL     1      -1.474  -0.361   2.667  1.00  0.00    -0.644 OA
HETATM   37  O2  UNL     1      -0.863  -2.545   2.593  1.00  0.00    -0.644 OA
ENDBRANCH  33  35
ENDBRANCH  28  29
ENDBRANCH   1  28
TORSDOF 6
ENDMDL
