MODEL 15
REMARK VINA RESULT: -8.873612718      4.417      5.892
REMARK  6 active torsions:
REMARK  status: ('A' for Active; 'I' for Inactive)
REMARK    1  A    between atoms: C1_2  and  C2_4 
REMARK    2  A    between atoms: C6_8  and  O3_9 
REMARK    3  A    between atoms: O3_9  and  C7_10 
REMARK    4  A    between atoms: C12_17  and  C13_18 
REMARK    5  A    between atoms: N2_20  and  C15_21 
REMARK    6  A    between atoms: C18_24  and  O4_25 
ROOT
HETATM    1  C7  UNL     1      -9.454  -0.527  -0.305  1.00  0.00     0.088 A 
HETATM    2  C8  UNL     1      -8.277   0.224  -0.292  1.00  0.00     0.038 A 
HETATM    3  C9  UNL     1      -7.259  -0.177  -1.122  1.00  0.00     0.005 A 
HETATM    4  C10 UNL     1      -7.385  -1.276  -1.940  1.00  0.00     0.030 A 
HETATM    5  C11 UNL     1      -8.565  -2.001  -1.933  1.00  0.00     0.045 A 
HETATM    6  N1  UNL     1      -8.714  -3.067  -2.728  1.00  0.00    -0.354 N 
ATOM      7  H1  UNL     1      -7.927  -3.323  -3.324  1.00  0.00     0.166 HD
HETATM    8  C12 UNL     1      -9.815  -3.821  -2.802  1.00  0.00     0.062 A 
HETATM    9  C21 UNL     1     -10.867  -3.457  -1.988  1.00  0.00     0.033 A 
HETATM   10  C22 UNL     1     -10.763  -2.368  -1.150  1.00  0.00     0.019 A 
HETATM   11  C23 UNL     1      -9.611  -1.620  -1.106  1.00  0.00     0.025 A 
ENDROOT
BRANCH   8  12
HETATM   12  C13 UNL     1      -9.885  -4.967  -3.702  1.00  0.00     0.093 A 
HETATM   13  C14 UNL     1     -10.983  -5.489  -4.352  1.00  0.00     0.151 A 
HETATM   14  N2  UNL     1     -10.601  -6.560  -5.092  1.00  0.00    -0.251 N 
HETATM   15  N3  UNL     1      -9.321  -6.687  -4.904  1.00  0.00    -0.235 N 
HETATM   16  N4  UNL     1      -8.854  -5.744  -4.070  1.00  0.00    -0.282 N 
ATOM     17  H3  UNL     1      -8.745  -7.411  -5.334  1.00  0.00     0.209 HD
ATOM     18  H4  UNL     1      -7.885  -5.636  -3.769  1.00  0.00     0.188 HD
BRANCH  14  19
HETATM   19  C15 UNL     1     -11.471  -7.343  -5.892  1.00  0.00     0.060 A 
HETATM   20  C16 UNL     1     -11.044  -8.482  -6.559  1.00  0.00     0.034 A 
HETATM   21  C17 UNL     1     -11.912  -9.227  -7.331  1.00  0.00     0.042 A 
HETATM   22  C18 UNL     1     -13.238  -8.861  -7.465  1.00  0.00     0.104 A 
HETATM   23  C19 UNL     1     -13.681  -7.734  -6.811  1.00  0.00     0.151 A 
HETATM   24  F1  UNL     1     -14.974  -7.371  -6.938  1.00  0.00    -0.203 F 
HETATM   25  C20 UNL     1     -12.796  -7.009  -6.048  1.00  0.00     0.076 A 
BRANCH  22  26
HETATM   26  O4  UNL     1     -14.114  -9.605  -8.238  1.00  0.00    -0.358 OA
ATOM     27  H4  UNL     1     -15.048  -9.604  -8.065  1.00  0.00     0.217 HD
ENDBRANCH  22  26
ENDBRANCH  14  19
ENDBRANCH   8  12
BRANCH   1  28
HETATM   28  O3  UNL     1     -10.481  -0.127   0.530  1.00  0.00    -0.310 OA
BRANCH  28  29
HETATM   29  C6  UNL     1     -11.310   0.916   0.160  1.00  0.00     0.077 A 
HETATM   30  C5  UNL     1     -11.787   1.787   1.145  1.00  0.00     0.037 A 
HETATM   31  C4  UNL     1     -12.615   2.835   0.822  1.00  0.00     0.004 A 
HETATM   32  C3  UNL     1     -12.963   3.000  -0.513  1.00  0.00     0.018 A 
HETATM   33  C2  UNL     1     -12.522   2.174  -1.506  1.00  0.00     0.043 A 
HETATM   34  C24 UNL     1     -11.691   1.131  -1.147  1.00  0.00     0.055 A 
BRANCH  33  35
HETATM   35  C1  UNL     1     -12.920   2.394  -2.892  1.00  0.00     0.209 C 
HETATM   36  O1  UNL     1     -13.558   3.423  -3.213  1.00  0.00    -0.644 OA
HETATM   37  O2  UNL     1     -12.605   1.476  -3.883  1.00  0.00    -0.644 OA
ENDBRANCH  33  35
ENDBRANCH  28  29
ENDBRANCH   1  28
TORSDOF 6
ENDMDL
