MODEL 5
REMARK VINA RESULT: -9.730693918      2.992      5.286
REMARK  6 active torsions:
REMARK  status: ('A' for Active; 'I' for Inactive)
REMARK    1  A    between atoms: C1_2  and  C2_4 
REMARK    2  A    between atoms: C6_8  and  O3_9 
REMARK    3  A    between atoms: O3_9  and  C7_10 
REMARK    4  A    between atoms: C12_17  and  C13_18 
REMARK    5  A    between atoms: N2_20  and  C15_21 
REMARK    6  A    between atoms: C18_24  and  O4_25 
ROOT
HETATM    1  C7  UNL     1      -7.942  -3.482   0.980  1.00  0.00     0.088 A 
HETATM    2  C8  UNL     1      -6.548  -3.547   1.023  1.00  0.00     0.038 A 
HETATM    3  C9  UNL     1      -5.898  -3.984  -0.105  1.00  0.00     0.005 A 
HETATM    4  C10 UNL     1      -6.587  -4.346  -1.240  1.00  0.00     0.030 A 
HETATM    5  C11 UNL     1      -7.970  -4.270  -1.254  1.00  0.00     0.045 A 
HETATM    6  N1  UNL     1      -8.659  -4.607  -2.350  1.00  0.00    -0.354 N 
ATOM      7  H1  UNL     1      -8.128  -4.927  -3.161  1.00  0.00     0.166 HD
HETATM    8  C12 UNL     1      -9.990  -4.557  -2.465  1.00  0.00     0.062 A 
HETATM    9  C21 UNL     1     -10.688  -4.122  -1.358  1.00  0.00     0.033 A 
HETATM   10  C22 UNL     1     -10.024  -3.765  -0.204  1.00  0.00     0.019 A 
HETATM   11  C23 UNL     1      -8.653  -3.833  -0.130  1.00  0.00     0.025 A 
ENDROOT
BRANCH   8  12
HETATM   12  C13 UNL     1     -10.655  -4.944  -3.704  1.00  0.00     0.093 A 
HETATM   13  C14 UNL     1     -10.989  -6.205  -4.148  1.00  0.00     0.151 A 
HETATM   14  N2  UNL     1     -11.597  -6.112  -5.356  1.00  0.00    -0.251 N 
HETATM   15  N3  UNL     1     -11.634  -4.844  -5.641  1.00  0.00    -0.235 N 
HETATM   16  N4  UNL     1     -11.074  -4.108  -4.667  1.00  0.00    -0.282 N 
ATOM     17  H3  UNL     1     -12.037  -4.458  -6.495  1.00  0.00     0.209 HD
ATOM     18  H4  UNL     1     -10.984  -3.092  -4.661  1.00  0.00     0.188 HD
BRANCH  14  19
HETATM   19  C15 UNL     1     -12.076  -7.214  -6.110  1.00  0.00     0.060 A 
HETATM   20  C16 UNL     1     -11.253  -8.261  -6.500  1.00  0.00     0.034 A 
HETATM   21  C17 UNL     1     -11.744  -9.321  -7.232  1.00  0.00     0.042 A 
HETATM   22  C18 UNL     1     -13.075  -9.376  -7.602  1.00  0.00     0.104 A 
HETATM   23  C19 UNL     1     -13.908  -8.346  -7.225  1.00  0.00     0.151 A 
HETATM   24  F1  UNL     1     -15.208  -8.393  -7.582  1.00  0.00    -0.203 F 
HETATM   25  C20 UNL     1     -13.394  -7.301  -6.495  1.00  0.00     0.076 A 
BRANCH  22  26
HETATM   26  O4  UNL     1     -13.574 -10.439  -8.337  1.00  0.00    -0.358 OA
ATOM     27  H4  UNL     1     -14.370 -10.354  -8.849  1.00  0.00     0.217 HD
ENDBRANCH  22  26
ENDBRANCH  14  19
ENDBRANCH   8  12
BRANCH   1  28
HETATM   28  O3  UNL     1      -8.600  -3.044   2.115  1.00  0.00    -0.310 OA
BRANCH  28  29
HETATM   29  C6  UNL     1      -8.647  -3.844   3.242  1.00  0.00     0.077 A 
HETATM   30  C5  UNL     1      -8.204  -3.323   4.463  1.00  0.00     0.037 A 
HETATM   31  C4  UNL     1      -8.230  -4.083   5.607  1.00  0.00     0.004 A 
HETATM   32  C3  UNL     1      -8.710  -5.384   5.513  1.00  0.00     0.018 A 
HETATM   33  C2  UNL     1      -9.151  -5.932   4.343  1.00  0.00     0.043 A 
HETATM   34  C24 UNL     1      -9.112  -5.141   3.211  1.00  0.00     0.055 A 
BRANCH  33  35
HETATM   35  C1  UNL     1      -9.645  -7.304   4.301  1.00  0.00     0.209 C 
HETATM   36  O1  UNL     1     -10.481  -7.703   5.143  1.00  0.00    -0.644 OA
HETATM   37  O2  UNL     1      -9.204  -8.195   3.333  1.00  0.00    -0.644 OA
ENDBRANCH  33  35
ENDBRANCH  28  29
ENDBRANCH   1  28
TORSDOF 6
ENDMDL
