MODEL 8
REMARK VINA RESULT: -7.553609927      1.866      7.498
REMARK  3 active torsions:
REMARK  status: ('A' for Active; 'I' for Inactive)
REMARK    1  A    between atoms: O1_2  and  C2_3 
REMARK    2  A    between atoms: C5_6  and  N1_7 
REMARK    3  A    between atoms: C10_12  and  O2_13 
ROOT
HETATM    1  N1  UNL     1      33.350 -26.229 -25.381  1.00  0.00    -0.289 N 
HETATM    2  C6  UNL     1      33.464 -24.862 -24.992  1.00  0.00     0.176 A 
HETATM    3  C7  UNL     1      33.600 -23.932 -26.153  1.00  0.00    -0.006 A 
HETATM    4  C8  UNL     1      33.716 -22.584 -25.864  1.00  0.00     0.014 A 
HETATM    5  C9  UNL     1      33.843 -21.674 -26.880  1.00  0.00     0.037 A 
HETATM    6  C10 UNL     1      33.855 -22.104 -28.193  1.00  0.00     0.068 A 
HETATM    7  C11 UNL     1      33.739 -23.445 -28.475  1.00  0.00     0.074 A 
HETATM    8  C12 UNL     1      33.612 -24.349 -27.436  1.00  0.00     0.091 A 
HETATM    9  O3  UNL     1      33.496 -25.704 -27.759  1.00  0.00    -0.260 OA
HETATM   10  C13 UNL     1      33.367 -26.624 -26.740  1.00  0.00     0.373 A 
HETATM   11  O4  UNL     1      33.262 -27.876 -27.051  1.00  0.00    -0.237 OA
ENDROOT
BRANCH   1  12
HETATM   12  C5  UNL     1      33.212 -27.268 -24.401  1.00  0.00     0.040 A 
HETATM   13  C4  UNL     1      32.039 -27.432 -23.697  1.00  0.00     0.032 A 
HETATM   14  C3  UNL     1      31.887 -28.429 -22.749  1.00  0.00     0.039 A 
HETATM   15  C2  UNL     1      32.928 -29.300 -22.482  1.00  0.00     0.068 A 
HETATM   16  C15 UNL     1      34.111 -29.135 -23.192  1.00  0.00     0.039 A 
HETATM   17  C14 UNL     1      34.242 -28.127 -24.141  1.00  0.00     0.032 A 
BRANCH  15  18
HETATM   18  O1  UNL     1      32.808 -30.306 -21.541  1.00  0.00    -0.356 OA
HETATM   19  C1  UNL     1      33.542 -30.196 -20.340  1.00  0.00     0.210 C 
ENDBRANCH  15  18
ENDBRANCH   1  12
BRANCH   6  20
HETATM   20  O2  UNL     1      33.985 -21.174 -29.214  1.00  0.00    -0.361 OA
ATOM     21  H2  UNL     1      34.852 -20.939 -29.524  1.00  0.00     0.217 HD
ENDBRANCH   6  20
TORSDOF 3
ENDMDL
