MODEL 5
REMARK VINA RESULT: -7.911486357      1.102      7.199
REMARK  3 active torsions:
REMARK  status: ('A' for Active; 'I' for Inactive)
REMARK    1  A    between atoms: O1_2  and  C2_3 
REMARK    2  A    between atoms: C5_6  and  N1_7 
REMARK    3  A    between atoms: C10_12  and  O2_13 
ROOT
HETATM    1  N1  UNL     1      32.665 -27.077 -24.676  1.00  0.00    -0.289 N 
HETATM    2  C6  UNL     1      33.569 -26.643 -25.689  1.00  0.00     0.176 A 
HETATM    3  C7  UNL     1      32.984 -25.606 -26.590  1.00  0.00    -0.006 A 
HETATM    4  C8  UNL     1      33.797 -25.128 -27.603  1.00  0.00     0.014 A 
HETATM    5  C9  UNL     1      33.325 -24.175 -28.467  1.00  0.00     0.037 A 
HETATM    6  C10 UNL     1      32.039 -23.691 -28.324  1.00  0.00     0.068 A 
HETATM    7  C11 UNL     1      31.236 -24.169 -27.316  1.00  0.00     0.074 A 
HETATM    8  C12 UNL     1      31.728 -25.132 -26.453  1.00  0.00     0.091 A 
HETATM    9  O3  UNL     1      30.885 -25.594 -25.439  1.00  0.00    -0.260 OA
HETATM   10  C13 UNL     1      31.355 -26.554 -24.568  1.00  0.00     0.373 A 
HETATM   11  O4  UNL     1      30.564 -26.975 -23.634  1.00  0.00    -0.237 OA
ENDROOT
BRANCH   1  12
HETATM   12  C5  UNL     1      33.050 -28.073 -23.716  1.00  0.00     0.040 A 
HETATM   13  C4  UNL     1      32.267 -28.341 -22.615  1.00  0.00     0.032 A 
HETATM   14  C3  UNL     1      32.621 -29.297 -21.679  1.00  0.00     0.039 A 
HETATM   15  C2  UNL     1      33.791 -30.020 -21.831  1.00  0.00     0.068 A 
HETATM   16  C15 UNL     1      34.581 -29.750 -22.942  1.00  0.00     0.039 A 
HETATM   17  C14 UNL     1      34.206 -28.784 -23.870  1.00  0.00     0.032 A 
BRANCH  15  18
HETATM   18  O1  UNL     1      34.174 -30.982 -20.915  1.00  0.00    -0.356 OA
HETATM   19  C1  UNL     1      33.492 -31.045 -19.680  1.00  0.00     0.210 C 
ENDBRANCH  15  18
ENDBRANCH   1  12
BRANCH   6  20
HETATM   20  O2  UNL     1      31.572 -22.726 -29.205  1.00  0.00    -0.361 OA
ATOM     21  H2  UNL     1      30.657 -22.730 -29.459  1.00  0.00     0.217 HD
ENDBRANCH   6  20
TORSDOF 3
ENDMDL
