MODEL 1
REMARK VINA RESULT: -9.604730621      0.000      0.000
REMARK  3 active torsions:
REMARK  status: ('A' for Active; 'I' for Inactive)
REMARK    1  A    between atoms: O1_2  and  C2_3 
REMARK    2  A    between atoms: C5_6  and  N1_7 
REMARK    3  A    between atoms: C10_12  and  O2_13 
ROOT
HETATM    1  N1  UNL     1      32.579 -27.265 -24.411  1.00  0.00    -0.289 N 
HETATM    2  C6  UNL     1      33.733 -28.094 -24.290  1.00  0.00     0.176 A 
HETATM    3  C7  UNL     1      33.679 -29.004 -23.107  1.00  0.00    -0.006 A 
HETATM    4  C8  UNL     1      34.761 -29.844 -22.914  1.00  0.00     0.014 A 
HETATM    5  C9  UNL     1      34.778 -30.705 -21.849  1.00  0.00     0.037 A 
HETATM    6  C10 UNL     1      33.714 -30.734 -20.968  1.00  0.00     0.068 A 
HETATM    7  C11 UNL     1      32.641 -29.897 -21.164  1.00  0.00     0.074 A 
HETATM    8  C12 UNL     1      32.641 -29.034 -22.245  1.00  0.00     0.091 A 
HETATM    9  O3  UNL     1      31.533 -28.198 -22.414  1.00  0.00    -0.260 OA
HETATM   10  C13 UNL     1      31.511 -27.329 -23.485  1.00  0.00     0.373 A 
HETATM   11  O4  UNL     1      30.481 -26.559 -23.630  1.00  0.00    -0.237 OA
ENDROOT
BRANCH   1  12
HETATM   12  C5  UNL     1      32.453 -26.325 -25.488  1.00  0.00     0.040 A 
HETATM   13  C4  UNL     1      31.321 -26.289 -26.273  1.00  0.00     0.032 A 
HETATM   14  C3  UNL     1      31.180 -25.389 -27.315  1.00  0.00     0.039 A 
HETATM   15  C2  UNL     1      32.191 -24.488 -27.597  1.00  0.00     0.068 A 
HETATM   16  C15 UNL     1      33.333 -24.524 -26.805  1.00  0.00     0.039 A 
HETATM   17  C14 UNL     1      33.453 -25.437 -25.763  1.00  0.00     0.032 A 
BRANCH  15  18
HETATM   18  O1  UNL     1      32.082 -23.576 -28.631  1.00  0.00    -0.356 OA
HETATM   19  C1  UNL     1      33.239 -22.872 -29.033  1.00  0.00     0.210 C 
ENDBRANCH  15  18
ENDBRANCH   1  12
BRANCH   6  20
HETATM   20  O2  UNL     1      33.742 -31.611 -19.893  1.00  0.00    -0.361 OA
ATOM     21  H2  UNL     1      32.925 -31.893 -19.501  1.00  0.00     0.217 HD
ENDBRANCH   6  20
TORSDOF 3
ENDMDL
