MODEL 7
REMARK VINA RESULT: -7.563980554      1.852      7.527
REMARK  3 active torsions:
REMARK  status: ('A' for Active; 'I' for Inactive)
REMARK    1  A    between atoms: O1_2  and  C2_3 
REMARK    2  A    between atoms: C5_6  and  N1_7 
REMARK    3  A    between atoms: C10_12  and  O2_13 
ROOT
HETATM    1  N1  UNL     1      33.341 -26.299 -25.325  1.00  0.00    -0.289 N 
HETATM    2  C6  UNL     1      33.498 -24.934 -24.943  1.00  0.00     0.176 A 
HETATM    3  C7  UNL     1      33.626 -24.010 -26.110  1.00  0.00    -0.006 A 
HETATM    4  C8  UNL     1      33.782 -22.665 -25.828  1.00  0.00     0.014 A 
HETATM    5  C9  UNL     1      33.905 -21.761 -26.851  1.00  0.00     0.037 A 
HETATM    6  C10 UNL     1      33.873 -22.195 -28.162  1.00  0.00     0.068 A 
HETATM    7  C11 UNL     1      33.718 -23.533 -28.437  1.00  0.00     0.074 A 
HETATM    8  C12 UNL     1      33.595 -24.431 -27.392  1.00  0.00     0.091 A 
HETATM    9  O3  UNL     1      33.439 -25.784 -27.707  1.00  0.00    -0.260 OA
HETATM   10  C13 UNL     1      33.314 -26.697 -26.682  1.00  0.00     0.373 A 
HETATM   11  O4  UNL     1      33.171 -27.947 -26.986  1.00  0.00    -0.237 OA
ENDROOT
BRANCH   1  12
HETATM   12  C5  UNL     1      33.204 -27.332 -24.338  1.00  0.00     0.040 A 
HETATM   13  C4  UNL     1      34.225 -28.225 -24.096  1.00  0.00     0.032 A 
HETATM   14  C3  UNL     1      34.113 -29.227 -23.149  1.00  0.00     0.039 A 
HETATM   15  C2  UNL     1      32.951 -29.358 -22.409  1.00  0.00     0.068 A 
HETATM   16  C15 UNL     1      31.921 -28.458 -22.653  1.00  0.00     0.039 A 
HETATM   17  C14 UNL     1      32.056 -27.458 -23.610  1.00  0.00     0.032 A 
BRANCH  15  18
HETATM   18  O1  UNL     1      32.807 -30.349 -21.455  1.00  0.00    -0.356 OA
HETATM   19  C1  UNL     1      33.597 -30.279 -20.287  1.00  0.00     0.210 C 
ENDBRANCH  15  18
ENDBRANCH   1  12
BRANCH   6  20
HETATM   20  O2  UNL     1      33.999 -21.270 -29.189  1.00  0.00    -0.361 OA
ATOM     21  H2  UNL     1      34.275 -21.564 -30.049  1.00  0.00     0.217 HD
ENDBRANCH   6  20
TORSDOF 3
ENDMDL
