MODEL 2
REMARK VINA RESULT: -8.950260608      1.130      1.364
REMARK  3 active torsions:
REMARK  status: ('A' for Active; 'I' for Inactive)
REMARK    1  A    between atoms: O1_2  and  C2_3 
REMARK    2  A    between atoms: C5_6  and  N1_7 
REMARK    3  A    between atoms: C10_12  and  O2_13 
ROOT
HETATM    1  N1  UNL     1      33.127 -26.860 -24.686  1.00  0.00    -0.289 N 
HETATM    2  C6  UNL     1      34.183 -27.765 -24.374  1.00  0.00     0.176 A 
HETATM    3  C7  UNL     1      33.819 -28.745 -23.307  1.00  0.00    -0.006 A 
HETATM    4  C8  UNL     1      34.789 -29.662 -22.942  1.00  0.00     0.014 A 
HETATM    5  C9  UNL     1      34.523 -30.590 -21.970  1.00  0.00     0.037 A 
HETATM    6  C10 UNL     1      33.286 -30.609 -21.356  1.00  0.00     0.068 A 
HETATM    7  C11 UNL     1      32.325 -29.696 -21.722  1.00  0.00     0.074 A 
HETATM    8  C12 UNL     1      32.612 -28.766 -22.705  1.00  0.00     0.091 A 
HETATM    9  O3  UNL     1      31.612 -27.853 -23.052  1.00  0.00    -0.260 OA
HETATM   10  C13 UNL     1      31.875 -26.918 -24.030  1.00  0.00     0.373 A 
HETATM   11  O4  UNL     1      30.941 -26.077 -24.343  1.00  0.00    -0.237 OA
ENDROOT
BRANCH   1  12
HETATM   12  C5  UNL     1      33.293 -25.846 -25.688  1.00  0.00     0.040 A 
HETATM   13  C4  UNL     1      33.424 -24.518 -25.341  1.00  0.00     0.032 A 
HETATM   14  C3  UNL     1      33.586 -23.526 -26.291  1.00  0.00     0.039 A 
HETATM   15  C2  UNL     1      33.621 -23.849 -27.636  1.00  0.00     0.068 A 
HETATM   16  C15 UNL     1      33.489 -25.187 -27.986  1.00  0.00     0.039 A 
HETATM   17  C14 UNL     1      33.327 -26.169 -27.014  1.00  0.00     0.032 A 
BRANCH  15  18
HETATM   18  O1  UNL     1      33.782 -22.881 -28.611  1.00  0.00    -0.356 OA
HETATM   19  C1  UNL     1      34.757 -23.088 -29.611  1.00  0.00     0.210 C 
ENDBRANCH  15  18
ENDBRANCH   1  12
BRANCH   6  20
HETATM   20  O2  UNL     1      33.028 -31.554 -20.372  1.00  0.00    -0.361 OA
ATOM     21  H2  UNL     1      33.307 -32.452 -20.505  1.00  0.00     0.217 HD
ENDBRANCH   6  20
TORSDOF 3
ENDMDL
