MODEL 12
REMARK VINA RESULT: -7.577708875      1.936      2.892
REMARK  9 active torsions:
REMARK  status: ('A' for Active; 'I' for Inactive)
REMARK    1  A    between atoms: N1_5  and  C4_6 
REMARK    2  A    between atoms: C6_8  and  O2_9 
REMARK    3  A    between atoms: C7_11  and  C8_12 
REMARK    4  A    between atoms: C8_12  and  O3_13 
REMARK    5  A    between atoms: O3_13  and  P1_14 
REMARK    6  A    between atoms: P1_14  and  N2_17 
REMARK    7  A    between atoms: N2_17  and  P2_19 
REMARK    8  A    between atoms: P2_19  and  O8_22 
REMARK    9  A    between atoms: O8_22  and  P3_23 
ROOT
HETATM    1  C4  UNL     1      14.167   7.919 -29.658  1.00  0.00     0.235 C 
HETATM    2  C5  UNL     1      13.596   9.017 -28.794  1.00  0.00     0.088 C 
HETATM    3  C6  UNL     1      12.293   9.306 -29.513  1.00  0.00     0.153 C 
HETATM    4  C7  UNL     1      11.961   7.910 -30.020  1.00  0.00     0.177 C 
HETATM    5  O12 UNL     1      13.173   7.492 -30.507  1.00  0.00    -0.356 OA
ENDROOT
BRANCH   4   6
HETATM    6  C8  UNL     1      10.903   7.933 -31.059  1.00  0.00     0.215 C 
BRANCH   6   7
HETATM    7  O3  UNL     1      11.405   7.975 -32.359  1.00  0.00    -0.293 OA
BRANCH   7   8
HETATM    8  P1  UNL     1      10.955   9.069 -33.347  1.00  0.00     0.368 P 
HETATM    9  O4  UNL     1      11.566   8.008 -34.547  1.00  0.00    -0.629 OA
HETATM   10  O5  UNL     1      10.962  10.123 -34.497  1.00  0.00    -0.629 OA
BRANCH   8  11
HETATM   11  N2  UNL     1       9.353   9.065 -33.023  1.00  0.00    -0.225 N 
ATOM     12  H2  UNL     1       9.001   9.536 -32.188  1.00  0.00     0.178 HD
BRANCH  11  13
HETATM   13  P2  UNL     1       8.276   8.280 -34.072  1.00  0.00     0.378 P 
HETATM   14  O6  UNL     1       7.460   9.528 -34.471  1.00  0.00    -0.629 OA
HETATM   15  O7  UNL     1       8.814   6.834 -33.942  1.00  0.00    -0.629 OA
BRANCH  13  16
HETATM   16  O8  UNL     1       6.915   7.714 -33.374  1.00  0.00    -0.178 OA
BRANCH  16  17
HETATM   17  P3  UNL     1       5.851   6.867 -34.043  1.00  0.00     0.431 P 
HETATM   18  O9  UNL     1       6.490   6.925 -35.497  1.00  0.00    -0.616 OA
HETATM   19  O10 UNL     1       6.178   5.625 -32.960  1.00  0.00    -0.616 OA
HETATM   20  O11 UNL     1       4.681   7.999 -33.602  1.00  0.00    -0.616 OA
ENDBRANCH  16  17
ENDBRANCH  13  16
ENDBRANCH  11  13
ENDBRANCH   8  11
ENDBRANCH   7   8
ENDBRANCH   6   7
ENDBRANCH   4   6
BRANCH   3  21
HETATM   21  O2  UNL     1      11.315   9.778 -28.644  1.00  0.00    -0.393 OA
ATOM     22  H2  UNL     1      11.420  10.704 -28.461  1.00  0.00     0.210 HD
ENDBRANCH   3  21
BRANCH   1  23
HETATM   23  N1  UNL     1      15.302   8.480 -30.373  1.00  0.00    -0.282 N 
HETATM   24  C3  UNL     1      15.265   8.700 -31.701  1.00  0.00     0.104 A 
HETATM   25  C2  UNL     1      16.359   9.233 -32.348  1.00  0.00     0.092 A 
HETATM   26  C1  UNL     1      17.509   9.548 -31.645  1.00  0.00     0.250 A 
HETATM   27  O1  UNL     1      18.504  10.036 -32.255  1.00  0.00    -0.268 OA
HETATM   28  N3  UNL     1      17.516   9.317 -30.325  1.00  0.00    -0.275 N 
HETATM   29  C9  UNL     1      16.436   8.799 -29.729  1.00  0.00     0.331 A 
ATOM     30  H3  UNL     1      18.346   9.537 -29.775  1.00  0.00     0.173 HD
HETATM   31  O13 UNL     1      16.437   8.577 -28.472  1.00  0.00    -0.246 OA
ENDBRANCH   1  23
TORSDOF 9
ENDMDL
