MODEL 15
REMARK VINA RESULT: -7.527565214      2.077      3.595
REMARK  9 active torsions:
REMARK  status: ('A' for Active; 'I' for Inactive)
REMARK    1  A    between atoms: N1_5  and  C4_6 
REMARK    2  A    between atoms: C6_8  and  O2_9 
REMARK    3  A    between atoms: C7_11  and  C8_12 
REMARK    4  A    between atoms: C8_12  and  O3_13 
REMARK    5  A    between atoms: O3_13  and  P1_14 
REMARK    6  A    between atoms: P1_14  and  N2_17 
REMARK    7  A    between atoms: N2_17  and  P2_19 
REMARK    8  A    between atoms: P2_19  and  O8_22 
REMARK    9  A    between atoms: O8_22  and  P3_23 
ROOT
HETATM    1  C4  UNL     1      13.962   7.864 -29.730  1.00  0.00     0.235 C 
HETATM    2  C5  UNL     1      13.464   8.956 -28.813  1.00  0.00     0.088 C 
HETATM    3  C6  UNL     1      12.145   9.309 -29.471  1.00  0.00     0.153 C 
HETATM    4  C7  UNL     1      11.745   7.941 -30.003  1.00  0.00     0.177 C 
HETATM    5  O12 UNL     1      12.921   7.497 -30.550  1.00  0.00    -0.356 OA
ENDROOT
BRANCH   4   6
HETATM    6  C8  UNL     1      10.648   8.031 -30.998  1.00  0.00     0.215 C 
BRANCH   6   7
HETATM    7  O3  UNL     1      11.071   7.812 -32.309  1.00  0.00    -0.293 OA
BRANCH   7   8
HETATM    8  P1  UNL     1      10.930   8.912 -33.380  1.00  0.00     0.368 P 
HETATM    9  O4  UNL     1      12.384   8.258 -34.009  1.00  0.00    -0.629 OA
HETATM   10  O5  UNL     1      11.246  10.115 -34.321  1.00  0.00    -0.629 OA
BRANCH   8  11
HETATM   11  N2  UNL     1       9.504   8.453 -34.033  1.00  0.00    -0.225 N 
ATOM     12  H2  UNL     1       9.486   7.981 -34.937  1.00  0.00     0.178 HD
BRANCH  11  13
HETATM   13  P2  UNL     1       8.053   8.761 -33.207  1.00  0.00     0.378 P 
HETATM   14  O6  UNL     1       7.433   7.360 -33.392  1.00  0.00    -0.629 OA
HETATM   15  O7  UNL     1       8.302  10.238 -32.813  1.00  0.00    -0.629 OA
BRANCH  13  16
HETATM   16  O8  UNL     1       6.837   9.332 -34.132  1.00  0.00    -0.178 OA
BRANCH  16  17
HETATM   17  P3  UNL     1       6.931   9.724 -35.594  1.00  0.00     0.431 P 
HETATM   18  O9  UNL     1       8.188  10.682 -35.422  1.00  0.00    -0.616 OA
HETATM   19  O10 UNL     1       7.080   8.102 -36.004  1.00  0.00    -0.616 OA
HETATM   20  O11 UNL     1       5.375  10.370 -35.514  1.00  0.00    -0.616 OA
ENDBRANCH  16  17
ENDBRANCH  13  16
ENDBRANCH  11  13
ENDBRANCH   8  11
ENDBRANCH   7   8
ENDBRANCH   6   7
ENDBRANCH   4   6
BRANCH   3  21
HETATM   21  O2  UNL     1      11.218   9.788 -28.551  1.00  0.00    -0.393 OA
ATOM     22  H2  UNL     1      10.499   9.180 -28.423  1.00  0.00     0.210 HD
ENDBRANCH   3  21
BRANCH   1  23
HETATM   23  N1  UNL     1      15.087   8.408 -30.474  1.00  0.00    -0.282 N 
HETATM   24  C3  UNL     1      15.007   8.666 -31.792  1.00  0.00     0.104 A 
HETATM   25  C2  UNL     1      16.092   9.181 -32.468  1.00  0.00     0.092 A 
HETATM   26  C1  UNL     1      17.278   9.437 -31.802  1.00  0.00     0.250 A 
HETATM   27  O1  UNL     1      18.265   9.910 -32.438  1.00  0.00    -0.268 OA
HETATM   28  N3  UNL     1      17.329   9.169 -30.491  1.00  0.00    -0.275 N 
HETATM   29  C9  UNL     1      16.256   8.671 -29.866  1.00  0.00     0.331 A 
ATOM     30  H3  UNL     1      18.186   9.346 -29.968  1.00  0.00     0.173 HD
HETATM   31  O13 UNL     1      16.297   8.413 -28.617  1.00  0.00    -0.246 OA
ENDBRANCH   1  23
TORSDOF 9
ENDMDL
