MODEL 13
REMARK VINA RESULT: -7.559912914      2.199      3.178
REMARK  9 active torsions:
REMARK  status: ('A' for Active; 'I' for Inactive)
REMARK    1  A    between atoms: N1_5  and  C4_6 
REMARK    2  A    between atoms: C6_8  and  O2_9 
REMARK    3  A    between atoms: C7_11  and  C8_12 
REMARK    4  A    between atoms: C8_12  and  O3_13 
REMARK    5  A    between atoms: O3_13  and  P1_14 
REMARK    6  A    between atoms: P1_14  and  N2_17 
REMARK    7  A    between atoms: N2_17  and  P2_19 
REMARK    8  A    between atoms: P2_19  and  O8_22 
REMARK    9  A    between atoms: O8_22  and  P3_23 
ROOT
HETATM    1  C4  UNL     1      13.918   7.753 -29.709  1.00  0.00     0.235 C 
HETATM    2  C5  UNL     1      13.489   8.805 -28.715  1.00  0.00     0.088 C 
HETATM    3  C6  UNL     1      12.198   9.291 -29.344  1.00  0.00     0.153 C 
HETATM    4  C7  UNL     1      11.712   7.993 -29.973  1.00  0.00     0.177 C 
HETATM    5  O12 UNL     1      12.859   7.514 -30.552  1.00  0.00    -0.356 OA
ENDROOT
BRANCH   4   6
HETATM    6  C8  UNL     1      10.626   8.225 -30.957  1.00  0.00     0.215 C 
BRANCH   6   7
HETATM    7  O3  UNL     1      10.973   7.863 -32.259  1.00  0.00    -0.293 OA
BRANCH   7   8
HETATM    8  P1  UNL     1      10.854   8.870 -33.419  1.00  0.00     0.368 P 
HETATM    9  O4  UNL     1      12.511   8.520 -33.679  1.00  0.00    -0.629 OA
HETATM   10  O5  UNL     1      11.121  10.080 -34.367  1.00  0.00    -0.629 OA
BRANCH   8  11
HETATM   11  N2  UNL     1       9.727   8.096 -34.316  1.00  0.00    -0.225 N 
ATOM     12  H2  UNL     1       9.800   8.093 -35.334  1.00  0.00     0.178 HD
BRANCH  11  13
HETATM   13  P2  UNL     1       8.436   7.299 -33.554  1.00  0.00     0.378 P 
HETATM   14  O6  UNL     1       8.926   5.859 -33.820  1.00  0.00    -0.629 OA
HETATM   15  O7  UNL     1       7.620   8.532 -33.097  1.00  0.00    -0.629 OA
BRANCH  13  16
HETATM   16  O8  UNL     1       7.166   6.958 -34.519  1.00  0.00    -0.178 OA
BRANCH  16  17
HETATM   17  P3  UNL     1       5.972   6.097 -34.155  1.00  0.00     0.431 P 
HETATM   18  O9  UNL     1       6.520   5.657 -32.730  1.00  0.00    -0.616 OA
HETATM   19  O10 UNL     1       4.967   7.426 -34.367  1.00  0.00    -0.616 OA
HETATM   20  O11 UNL     1       6.273   5.124 -35.499  1.00  0.00    -0.616 OA
ENDBRANCH  16  17
ENDBRANCH  13  16
ENDBRANCH  11  13
ENDBRANCH   8  11
ENDBRANCH   7   8
ENDBRANCH   6   7
ENDBRANCH   4   6
BRANCH   3  21
HETATM   21  O2  UNL     1      11.301   9.761 -28.390  1.00  0.00    -0.393 OA
ATOM     22  H2  UNL     1      11.727  10.313 -27.745  1.00  0.00     0.210 HD
ENDBRANCH   3  21
BRANCH   1  23
HETATM   23  N1  UNL     1      15.079   8.274 -30.413  1.00  0.00    -0.282 N 
HETATM   24  C3  UNL     1      15.779   9.324 -29.945  1.00  0.00     0.104 A 
HETATM   25  C2  UNL     1      16.874   9.794 -30.638  1.00  0.00     0.092 A 
HETATM   26  C1  UNL     1      17.268   9.195 -31.822  1.00  0.00     0.250 A 
HETATM   27  O1  UNL     1      18.276   9.640 -32.445  1.00  0.00    -0.268 OA
HETATM   28  N3  UNL     1      16.551   8.153 -32.263  1.00  0.00    -0.275 N 
HETATM   29  C9  UNL     1      15.494   7.723 -31.565  1.00  0.00     0.331 A 
ATOM     30  H3  UNL     1      16.812   7.687 -33.132  1.00  0.00     0.173 HD
HETATM   31  O13 UNL     1      14.807   6.730 -31.980  1.00  0.00    -0.246 OA
ENDBRANCH   1  23
TORSDOF 9
ENDMDL
