MODEL 5
REMARK VINA RESULT: -7.707156645      2.046      3.288
REMARK  9 active torsions:
REMARK  status: ('A' for Active; 'I' for Inactive)
REMARK    1  A    between atoms: N1_5  and  C4_6 
REMARK    2  A    between atoms: C6_8  and  O2_9 
REMARK    3  A    between atoms: C7_11  and  C8_12 
REMARK    4  A    between atoms: C8_12  and  O3_13 
REMARK    5  A    between atoms: O3_13  and  P1_14 
REMARK    6  A    between atoms: P1_14  and  N2_17 
REMARK    7  A    between atoms: N2_17  and  P2_19 
REMARK    8  A    between atoms: P2_19  and  O8_22 
REMARK    9  A    between atoms: O8_22  and  P3_23 
ROOT
HETATM    1  C4  UNL     1      13.962   7.872 -29.724  1.00  0.00     0.235 C 
HETATM    2  C5  UNL     1      13.444   8.973 -28.830  1.00  0.00     0.088 C 
HETATM    3  C6  UNL     1      12.131   9.308 -29.509  1.00  0.00     0.153 C 
HETATM    4  C7  UNL     1      11.747   7.929 -30.026  1.00  0.00     0.177 C 
HETATM    5  O12 UNL     1      12.934   7.485 -30.552  1.00  0.00    -0.356 OA
ENDROOT
BRANCH   4   6
HETATM    6  C8  UNL     1      10.662   7.996 -31.035  1.00  0.00     0.215 C 
BRANCH   6   7
HETATM    7  O3  UNL     1      11.115   7.837 -32.345  1.00  0.00    -0.293 OA
BRANCH   7   8
HETATM    8  P1  UNL     1      11.013   8.990 -33.363  1.00  0.00     0.368 P 
HETATM    9  O4  UNL     1      12.436   8.307 -34.032  1.00  0.00    -0.629 OA
HETATM   10  O5  UNL     1      11.372  10.221 -34.251  1.00  0.00    -0.629 OA
BRANCH   8  11
HETATM   11  N2  UNL     1       9.566   8.619 -34.026  1.00  0.00    -0.225 N 
ATOM     12  H2  UNL     1       9.411   7.694 -34.427  1.00  0.00     0.178 HD
BRANCH  11  13
HETATM   13  P2  UNL     1       8.321   9.773 -34.048  1.00  0.00     0.378 P 
HETATM   14  O6  UNL     1       8.087   9.822 -32.522  1.00  0.00    -0.629 OA
HETATM   15  O7  UNL     1       8.237  10.017 -35.574  1.00  0.00    -0.629 OA
BRANCH  13  16
HETATM   16  O8  UNL     1       6.813   9.164 -34.177  1.00  0.00    -0.178 OA
BRANCH  16  17
HETATM   17  P3  UNL     1       6.445   7.696 -34.256  1.00  0.00     0.431 P 
HETATM   18  O9  UNL     1       7.346   7.239 -33.029  1.00  0.00    -0.616 OA
HETATM   19  O10 UNL     1       4.825   8.107 -34.085  1.00  0.00    -0.616 OA
HETATM   20  O11 UNL     1       7.072   7.629 -35.820  1.00  0.00    -0.616 OA
ENDBRANCH  16  17
ENDBRANCH  13  16
ENDBRANCH  11  13
ENDBRANCH   8  11
ENDBRANCH   7   8
ENDBRANCH   6   7
ENDBRANCH   4   6
BRANCH   3  21
HETATM   21  O2  UNL     1      11.190   9.793 -28.607  1.00  0.00    -0.393 OA
ATOM     22  H2  UNL     1      11.067  10.731 -28.694  1.00  0.00     0.210 HD
ENDBRANCH   3  21
BRANCH   1  23
HETATM   23  N1  UNL     1      15.092   8.412 -30.462  1.00  0.00    -0.282 N 
HETATM   24  C3  UNL     1      15.014   8.688 -31.777  1.00  0.00     0.104 A 
HETATM   25  C2  UNL     1      16.104   9.200 -32.447  1.00  0.00     0.092 A 
HETATM   26  C1  UNL     1      17.293   9.435 -31.779  1.00  0.00     0.250 A 
HETATM   27  O1  UNL     1      18.285   9.904 -32.410  1.00  0.00    -0.268 OA
HETATM   28  N3  UNL     1      17.342   9.150 -30.471  1.00  0.00    -0.275 N 
HETATM   29  C9  UNL     1      16.264   8.655 -29.852  1.00  0.00     0.331 A 
ATOM     30  H3  UNL     1      18.201   9.311 -29.946  1.00  0.00     0.173 HD
HETATM   31  O13 UNL     1      16.303   8.381 -28.606  1.00  0.00    -0.246 OA
ENDBRANCH   1  23
TORSDOF 9
ENDMDL
