MODEL 16
REMARK VINA RESULT: -7.521703193      2.723      4.399
REMARK  9 active torsions:
REMARK  status: ('A' for Active; 'I' for Inactive)
REMARK    1  A    between atoms: N1_5  and  C4_6 
REMARK    2  A    between atoms: C6_8  and  O2_9 
REMARK    3  A    between atoms: C7_11  and  C8_12 
REMARK    4  A    between atoms: C8_12  and  O3_13 
REMARK    5  A    between atoms: O3_13  and  P1_14 
REMARK    6  A    between atoms: P1_14  and  N2_17 
REMARK    7  A    between atoms: N2_17  and  P2_19 
REMARK    8  A    between atoms: P2_19  and  O8_22 
REMARK    9  A    between atoms: O8_22  and  P3_23 
ROOT
HETATM    1  C4  UNL     1      17.237   9.779 -31.381  1.00  0.00     0.235 C 
HETATM    2  C5  UNL     1      16.887   8.655 -32.326  1.00  0.00     0.088 C 
HETATM    3  C6  UNL     1      16.080   7.750 -31.417  1.00  0.00     0.153 C 
HETATM    4  C7  UNL     1      15.418   8.795 -30.531  1.00  0.00     0.177 C 
HETATM    5  O12 UNL     1      16.469   9.631 -30.249  1.00  0.00    -0.356 OA
ENDROOT
BRANCH   4   6
HETATM    6  C8  UNL     1      14.823   8.193 -29.312  1.00  0.00     0.215 C 
BRANCH   6   7
HETATM    7  O3  UNL     1      13.501   7.783 -29.488  1.00  0.00    -0.293 OA
BRANCH   7   8
HETATM    8  P1  UNL     1      12.328   8.695 -29.078  1.00  0.00     0.368 P 
HETATM    9  O4  UNL     1      13.470   9.414 -28.022  1.00  0.00    -0.629 OA
HETATM   10  O5  UNL     1      11.279   9.468 -28.220  1.00  0.00    -0.629 OA
BRANCH   8  11
HETATM   11  N2  UNL     1      12.031   9.396 -30.524  1.00  0.00    -0.225 N 
ATOM     12  H2  UNL     1      12.255  10.381 -30.669  1.00  0.00     0.178 HD
BRANCH  11  13
HETATM   13  P2  UNL     1      11.351   8.487 -31.786  1.00  0.00     0.378 P 
HETATM   14  O6  UNL     1      12.614   8.423 -32.671  1.00  0.00    -0.629 OA
HETATM   15  O7  UNL     1       9.918   8.320 -31.224  1.00  0.00    -0.629 OA
BRANCH  13  16
HETATM   16  O8  UNL     1      10.660   9.361 -32.977  1.00  0.00    -0.178 OA
BRANCH  16  17
HETATM   17  P3  UNL     1       9.950   8.808 -34.197  1.00  0.00     0.431 P 
HETATM   18  O9  UNL     1      10.217   7.278 -33.858  1.00  0.00    -0.616 OA
HETATM   19  O10 UNL     1       8.549   9.607 -33.726  1.00  0.00    -0.616 OA
HETATM   20  O11 UNL     1      11.026   9.641 -35.193  1.00  0.00    -0.616 OA
ENDBRANCH  16  17
ENDBRANCH  13  16
ENDBRANCH  11  13
ENDBRANCH   8  11
ENDBRANCH   7   8
ENDBRANCH   6   7
ENDBRANCH   4   6
BRANCH   3  21
HETATM   21  O2  UNL     1      15.136   7.012 -32.125  1.00  0.00    -0.393 OA
ATOM     22  H2  UNL     1      14.338   6.887 -31.625  1.00  0.00     0.210 HD
ENDBRANCH   3  21
BRANCH   1  23
HETATM   23  N1  UNL     1      18.660   9.679 -31.100  1.00  0.00    -0.282 N 
HETATM   24  C3  UNL     1      19.136   8.869 -30.136  1.00  0.00     0.104 A 
HETATM   25  C2  UNL     1      20.492   8.797 -29.895  1.00  0.00     0.092 A 
HETATM   26  C1  UNL     1      21.380   9.556 -30.638  1.00  0.00     0.250 A 
HETATM   27  O1  UNL     1      22.621   9.478 -30.403  1.00  0.00    -0.268 OA
HETATM   28  N3  UNL     1      20.876  10.352 -31.590  1.00  0.00    -0.275 N 
HETATM   29  C9  UNL     1      19.555  10.397 -31.797  1.00  0.00     0.331 A 
ATOM     30  H3  UNL     1      21.501  10.925 -32.157  1.00  0.00     0.173 HD
HETATM   31  O13 UNL     1      19.068  11.154 -32.703  1.00  0.00    -0.246 OA
ENDBRANCH   1  23
TORSDOF 9
ENDMDL
