MODEL 6
REMARK VINA RESULT: -6.478649990      0.787      2.778
REMARK  0 active torsions:
REMARK  status: ('A' for Active; 'I' for Inactive)
ROOT
HETATM    1  C1  UNL     1      -5.291   5.174 -26.897  1.00  0.00     0.048 C 
HETATM    2  C2  UNL     1      -5.805   5.099 -28.291  1.00  0.00    -0.062 A 
HETATM    3  C3  UNL     1      -6.865   4.270 -28.594  1.00  0.00     0.007 A 
HETATM    4  C4  UNL     1      -7.370   4.176 -29.888  1.00  0.00     0.001 A 
HETATM    5  C5  UNL     1      -6.821   4.916 -30.915  1.00  0.00     0.000 A 
HETATM    6  C6  UNL     1      -5.761   5.743 -30.604  1.00  0.00     0.001 A 
HETATM    7  C7  UNL     1      -5.254   5.841 -29.315  1.00  0.00     0.007 A 
ENDROOT
TORSDOF 0
ENDMDL
