MODEL 14
REMARK VINA RESULT: -5.490518095      0.988      2.828
REMARK  0 active torsions:
REMARK  status: ('A' for Active; 'I' for Inactive)
ROOT
HETATM    1  C1  UNL     1      -6.377   3.570 -27.668  1.00  0.00     0.048 C 
HETATM    2  C2  UNL     1      -6.389   4.430 -28.881  1.00  0.00    -0.062 A 
HETATM    3  C3  UNL     1      -6.854   3.932 -30.079  1.00  0.00     0.007 A 
HETATM    4  C4  UNL     1      -6.878   4.710 -31.233  1.00  0.00     0.001 A 
HETATM    5  C5  UNL     1      -6.433   6.017 -31.212  1.00  0.00     0.000 A 
HETATM    6  C6  UNL     1      -5.968   6.508 -30.009  1.00  0.00     0.001 A 
HETATM    7  C7  UNL     1      -5.943   5.736 -28.855  1.00  0.00     0.007 A 
ENDROOT
TORSDOF 0
ENDMDL
