MODEL 9
REMARK VINA RESULT: -6.181188927      1.066      3.289
REMARK  0 active torsions:
REMARK  status: ('A' for Active; 'I' for Inactive)
ROOT
HETATM    1  C1  UNL     1      -6.825   3.615 -27.689  1.00  0.00     0.048 C 
HETATM    2  C2  UNL     1      -6.731   4.296 -29.008  1.00  0.00    -0.062 A 
HETATM    3  C3  UNL     1      -5.954   5.426 -29.152  1.00  0.00     0.007 A 
HETATM    4  C4  UNL     1      -5.845   6.087 -30.371  1.00  0.00     0.001 A 
HETATM    5  C5  UNL     1      -6.518   5.626 -31.485  1.00  0.00     0.000 A 
HETATM    6  C6  UNL     1      -7.294   4.495 -31.334  1.00  0.00     0.001 A 
HETATM    7  C7  UNL     1      -7.405   3.832 -30.119  1.00  0.00     0.007 A 
ENDROOT
TORSDOF 0
ENDMDL
