MODEL 5
REMARK VINA RESULT: -6.483693923      0.784      3.298
REMARK  0 active torsions:
REMARK  status: ('A' for Active; 'I' for Inactive)
ROOT
HETATM    1  C1  UNL     1      -5.273   5.192 -26.880  1.00  0.00     0.048 C 
HETATM    2  C2  UNL     1      -5.809   5.099 -28.264  1.00  0.00    -0.062 A 
HETATM    3  C3  UNL     1      -5.242   5.842 -29.278  1.00  0.00     0.007 A 
HETATM    4  C4  UNL     1      -5.720   5.778 -30.584  1.00  0.00     0.001 A 
HETATM    5  C5  UNL     1      -6.785   4.961 -30.906  1.00  0.00     0.000 A 
HETATM    6  C6  UNL     1      -7.347   4.221 -29.886  1.00  0.00     0.001 A 
HETATM    7  C7  UNL     1      -6.874   4.281 -28.582  1.00  0.00     0.007 A 
ENDROOT
TORSDOF 0
ENDMDL
