MODEL 15
REMARK VINA RESULT: -5.314275982      1.268      3.437
REMARK  0 active torsions:
REMARK  status: ('A' for Active; 'I' for Inactive)
ROOT
HETATM    1  C1  UNL     1      -5.022   5.926 -29.147  1.00  0.00     0.048 C 
HETATM    2  C2  UNL     1      -6.068   5.094 -29.798  1.00  0.00    -0.062 A 
HETATM    3  C3  UNL     1      -6.281   5.186 -31.157  1.00  0.00     0.007 A 
HETATM    4  C4  UNL     1      -7.252   4.422 -31.797  1.00  0.00     0.001 A 
HETATM    5  C5  UNL     1      -8.038   3.539 -31.084  1.00  0.00     0.000 A 
HETATM    6  C6  UNL     1      -7.819   3.452 -29.724  1.00  0.00     0.001 A 
HETATM    7  C7  UNL     1      -6.851   4.212 -29.081  1.00  0.00     0.007 A 
ENDROOT
TORSDOF 0
ENDMDL
