MODEL 7
REMARK VINA RESULT: -7.657139980      0.724      1.324
REMARK  3 active torsions:
REMARK  status: ('A' for Active; 'I' for Inactive)
REMARK    1  A    between atoms: C5_8  and  N2_9 
REMARK    2  A    between atoms: C11_15  and  C12_16 
REMARK    3  A    between atoms: C13_24  and  C14_25 
ROOT
HETATM    1 CL1  UNL     1     -11.943   4.254 -13.900  1.00  0.00    -0.084 Cl
HETATM    2  C1  UNL     1     -12.947   4.661 -12.519  1.00  0.00     0.035 A 
HETATM    3  C2  UNL     1     -14.002   3.847 -12.163  1.00  0.00     0.026 A 
HETATM    4  C3  UNL     1     -14.781   4.180 -11.079  1.00  0.00     0.032 A 
HETATM    5  C4  UNL     1     -14.506   5.325 -10.353  1.00  0.00     0.044 A 
HETATM    6  N1  UNL     1     -15.222   5.698  -9.303  1.00  0.00    -0.341 N 
ATOM      7  H1  UNL     1     -16.005   5.109  -9.022  1.00  0.00     0.167 HD
HETATM    8  C5  UNL     1     -14.970   6.833  -8.569  1.00  0.00     0.118 A 
HETATM    9  C11 UNL     1     -13.935   7.639  -8.921  1.00  0.00     0.066 A 
HETATM   10  C13 UNL     1     -13.134   7.283 -10.038  1.00  0.00     0.004 A 
HETATM   11  C20 UNL     1     -13.453   6.130 -10.717  1.00  0.00     0.004 A 
HETATM   12  C21 UNL     1     -12.665   5.800 -11.806  1.00  0.00     0.038 A 
ENDROOT
BRANCH   9  13
HETATM   13  C12 UNL     1     -13.673   8.897  -8.264  1.00  0.00     0.149 A 
HETATM   14  N3  UNL     1     -14.503   9.978  -8.365  1.00  0.00    -0.271 N 
HETATM   15  N4  UNL     1     -14.029  11.005  -7.693  1.00  0.00    -0.225 N 
ATOM     16  H3  UNL     1     -15.377   9.987  -8.891  1.00  0.00     0.190 HD
HETATM   17  N5  UNL     1     -12.878  10.620  -7.140  1.00  0.00    -0.005 NA
ATOM     18  H4  UNL     1     -14.461  11.925  -7.610  1.00  0.00     0.205 HD
HETATM   19  N6  UNL     1     -12.690   9.335  -7.505  1.00  0.00    -0.266 N 
ATOM     20  H6  UNL     1     -11.887   8.772  -7.226  1.00  0.00     0.186 HD
ENDBRANCH   9  13
BRANCH   8  21
HETATM   21  N2  UNL     1     -15.774   7.047  -7.430  1.00  0.00    -0.366 N 
HETATM   22  C6  UNL     1     -15.242   6.598  -6.133  1.00  0.00     0.124 C 
HETATM   23  C7  UNL     1     -16.265   5.551  -5.659  1.00  0.00     0.020 C 
HETATM   24  C8  UNL     1     -17.505   6.309  -5.288  1.00  0.00     0.003 C 
HETATM   25  C9  UNL     1     -17.566   7.645  -5.969  1.00  0.00     0.020 C 
HETATM   26  C10 UNL     1     -17.086   7.623  -7.403  1.00  0.00     0.124 C 
ENDBRANCH   8  21
BRANCH  10  27
HETATM   27  C14 UNL     1     -12.007   8.109 -10.422  1.00  0.00    -0.024 A 
HETATM   28  C15 UNL     1     -10.732   7.877  -9.914  1.00  0.00     0.012 A 
HETATM   29  C16 UNL     1      -9.685   8.671 -10.309  1.00  0.00     0.001 A 
HETATM   30  C17 UNL     1      -9.834   9.713 -11.205  1.00  0.00     0.000 A 
HETATM   31  C18 UNL     1     -11.098   9.935 -11.702  1.00  0.00     0.001 A 
HETATM   32  C19 UNL     1     -12.166   9.155 -11.323  1.00  0.00     0.012 A 
ENDBRANCH  10  27
TORSDOF 3
ENDMDL
