MODEL 2
REMARK VINA RESULT: -8.392186839      1.836      5.506
REMARK  3 active torsions:
REMARK  status: ('A' for Active; 'I' for Inactive)
REMARK    1  A    between atoms: C5_8  and  N2_9 
REMARK    2  A    between atoms: C11_15  and  C12_16 
REMARK    3  A    between atoms: C13_24  and  C14_25 
ROOT
HETATM    1 CL1  UNL     1     -17.016   2.785  -8.833  1.00  0.00    -0.084 Cl
HETATM    2  C1  UNL     1     -15.877   3.997  -9.391  1.00  0.00     0.035 A 
HETATM    3  C2  UNL     1     -15.100   3.760 -10.505  1.00  0.00     0.026 A 
HETATM    4  C3  UNL     1     -14.210   4.720 -10.930  1.00  0.00     0.032 A 
HETATM    5  C4  UNL     1     -14.097   5.914 -10.241  1.00  0.00     0.044 A 
HETATM    6  N1  UNL     1     -13.257   6.873 -10.600  1.00  0.00    -0.341 N 
ATOM      7  H1  UNL     1     -12.675   6.718 -11.423  1.00  0.00     0.167 HD
HETATM    8  C5  UNL     1     -13.125   8.066  -9.930  1.00  0.00     0.118 A 
HETATM    9  C11 UNL     1     -13.886   8.300  -8.829  1.00  0.00     0.066 A 
HETATM   10  C13 UNL     1     -14.806   7.305  -8.403  1.00  0.00     0.004 A 
HETATM   11  C20 UNL     1     -14.876   6.140  -9.132  1.00  0.00     0.004 A 
HETATM   12  C21 UNL     1     -15.774   5.179  -8.700  1.00  0.00     0.038 A 
ENDROOT
BRANCH   9  13
HETATM   13  C12 UNL     1     -13.731   9.482  -8.015  1.00  0.00     0.149 A 
HETATM   14  N3  UNL     1     -14.696  10.443  -7.905  1.00  0.00    -0.271 N 
HETATM   15  N4  UNL     1     -14.300  11.425  -7.124  1.00  0.00    -0.225 N 
ATOM     16  H3  UNL     1     -15.604  10.404  -8.368  1.00  0.00     0.190 HD
HETATM   17  N5  UNL     1     -13.068  11.130  -6.708  1.00  0.00    -0.005 NA
ATOM     18  H4  UNL     1     -14.836  12.258  -6.882  1.00  0.00     0.205 HD
HETATM   19  N6  UNL     1     -12.751   9.943  -7.265  1.00  0.00    -0.266 N 
ATOM     20  H6  UNL     1     -11.863   9.463  -7.124  1.00  0.00     0.186 HD
ENDBRANCH   9  13
BRANCH   8  21
HETATM   21  N2  UNL     1     -12.245   9.017 -10.488  1.00  0.00    -0.366 N 
HETATM   22  C6  UNL     1     -12.799   9.948 -11.484  1.00  0.00     0.124 C 
HETATM   23  C7  UNL     1     -11.988   9.648 -12.757  1.00  0.00     0.020 C 
HETATM   24  C8  UNL     1     -10.605  10.176 -12.511  1.00  0.00     0.003 C 
HETATM   25  C9  UNL     1     -10.307  10.295 -11.044  1.00  0.00     0.020 C 
HETATM   26  C10 UNL     1     -10.844   9.150 -10.216  1.00  0.00     0.124 C 
ENDBRANCH   8  21
BRANCH  10  27
HETATM   27  C14 UNL     1     -15.649   7.537  -7.248  1.00  0.00    -0.024 A 
HETATM   28  C15 UNL     1     -16.993   7.873  -7.387  1.00  0.00     0.012 A 
HETATM   29  C16 UNL     1     -17.766   8.072  -6.271  1.00  0.00     0.001 A 
HETATM   30  C17 UNL     1     -17.268   7.954  -4.988  1.00  0.00     0.000 A 
HETATM   31  C18 UNL     1     -15.939   7.621  -4.859  1.00  0.00     0.001 A 
HETATM   32  C19 UNL     1     -15.140   7.416  -5.960  1.00  0.00     0.012 A 
ENDBRANCH  10  27
TORSDOF 3
ENDMDL
