MODEL 1
REMARK VINA RESULT: -10.351242159      0.000      0.000
REMARK  3 active torsions:
REMARK  status: ('A' for Active; 'I' for Inactive)
REMARK    1  A    between atoms: C5_8  and  N2_9 
REMARK    2  A    between atoms: C11_15  and  C12_16 
REMARK    3  A    between atoms: C13_24  and  C14_25 
ROOT
HETATM    1 CL1  UNL     1     -12.391   3.986 -13.854  1.00  0.00    -0.084 Cl
HETATM    2  C1  UNL     1     -13.230   4.355 -12.357  1.00  0.00     0.035 A 
HETATM    3  C2  UNL     1     -14.078   3.428 -11.789  1.00  0.00     0.026 A 
HETATM    4  C3  UNL     1     -14.730   3.732 -10.616  1.00  0.00     0.032 A 
HETATM    5  C4  UNL     1     -14.534   4.961 -10.013  1.00  0.00     0.044 A 
HETATM    6  N1  UNL     1     -15.135   5.311  -8.886  1.00  0.00    -0.341 N 
ATOM      7  H1  UNL     1     -15.765   4.639  -8.449  1.00  0.00     0.167 HD
HETATM    8  C5  UNL     1     -14.959   6.528  -8.270  1.00  0.00     0.118 A 
HETATM    9  C11 UNL     1     -14.129   7.445  -8.830  1.00  0.00     0.066 A 
HETATM   10  C13 UNL     1     -13.456   7.118 -10.038  1.00  0.00     0.004 A 
HETATM   11  C20 UNL     1     -13.687   5.878 -10.587  1.00  0.00     0.004 A 
HETATM   12  C21 UNL     1     -13.028   5.578 -11.767  1.00  0.00     0.038 A 
ENDROOT
BRANCH   9  13
HETATM   13  C12 UNL     1     -13.973   8.778  -8.299  1.00  0.00     0.149 A 
HETATM   14  N3  UNL     1     -12.923   9.147  -7.507  1.00  0.00    -0.271 N 
HETATM   15  N4  UNL     1     -13.027  10.405  -7.137  1.00  0.00    -0.225 N 
ATOM     16  H3  UNL     1     -12.159   8.528  -7.237  1.00  0.00     0.190 HD
HETATM   17  N5  UNL     1     -14.147  10.887  -7.677  1.00  0.00    -0.005 NA
ATOM     18  H4  UNL     1     -12.372  10.918  -6.547  1.00  0.00     0.205 HD
HETATM   19  N6  UNL     1     -14.698   9.874  -8.378  1.00  0.00    -0.266 N 
ATOM     20  H6  UNL     1     -15.569   9.949  -8.903  1.00  0.00     0.186 HD
ENDBRANCH   9  13
BRANCH   8  21
HETATM   21  N2  UNL     1     -15.608   6.715  -7.031  1.00  0.00    -0.366 N 
HETATM   22  C6  UNL     1     -17.080   6.742  -7.036  1.00  0.00     0.124 C 
HETATM   23  C7  UNL     1     -17.423   8.146  -6.509  1.00  0.00     0.020 C 
HETATM   24  C8  UNL     1     -17.075   8.147  -5.049  1.00  0.00     0.003 C 
HETATM   25  C9  UNL     1     -16.065   7.086  -4.717  1.00  0.00     0.020 C 
HETATM   26  C10 UNL     1     -14.982   6.926  -5.759  1.00  0.00     0.124 C 
ENDBRANCH   8  21
BRANCH  10  27
HETATM   27  C14 UNL     1     -12.545   8.066 -10.645  1.00  0.00    -0.024 A 
HETATM   28  C15 UNL     1     -11.190   8.075 -10.325  1.00  0.00     0.012 A 
HETATM   29  C16 UNL     1     -10.351   8.978 -10.929  1.00  0.00     0.001 A 
HETATM   30  C17 UNL     1     -10.792   9.900 -11.859  1.00  0.00     0.000 A 
HETATM   31  C18 UNL     1     -12.133   9.884 -12.170  1.00  0.00     0.001 A 
HETATM   32  C19 UNL     1     -12.997   8.990 -11.580  1.00  0.00     0.012 A 
ENDBRANCH  10  27
TORSDOF 3
ENDMDL
