MODEL 3
REMARK VINA RESULT: -8.263160467      1.741      5.303
REMARK  3 active torsions:
REMARK  status: ('A' for Active; 'I' for Inactive)
REMARK    1  A    between atoms: C5_8  and  N2_9 
REMARK    2  A    between atoms: C11_15  and  C12_16 
REMARK    3  A    between atoms: C13_24  and  C14_25 
ROOT
HETATM    1 CL1  UNL     1     -15.478   1.517 -11.092  1.00  0.00    -0.084 Cl
HETATM    2  C1  UNL     1     -14.537   2.993 -11.219  1.00  0.00     0.035 A 
HETATM    3  C2  UNL     1     -13.504   3.082 -12.128  1.00  0.00     0.026 A 
HETATM    4  C3  UNL     1     -12.774   4.245 -12.214  1.00  0.00     0.032 A 
HETATM    5  C4  UNL     1     -13.076   5.316 -11.393  1.00  0.00     0.044 A 
HETATM    6  N1  UNL     1     -12.408   6.459 -11.429  1.00  0.00    -0.341 N 
ATOM      7  H1  UNL     1     -11.641   6.546 -12.096  1.00  0.00     0.167 HD
HETATM    8  C5  UNL     1     -12.688   7.535 -10.620  1.00  0.00     0.118 A 
HETATM    9  C11 UNL     1     -13.701   7.448  -9.720  1.00  0.00     0.066 A 
HETATM   10  C13 UNL     1     -14.452   6.245  -9.644  1.00  0.00     0.004 A 
HETATM   11  C20 UNL     1     -14.107   5.216 -10.490  1.00  0.00     0.004 A 
HETATM   12  C21 UNL     1     -14.846   4.049 -10.399  1.00  0.00     0.038 A 
ENDROOT
BRANCH   9  13
HETATM   13  C12 UNL     1     -13.987   8.495  -8.770  1.00  0.00     0.149 A 
HETATM   14  N3  UNL     1     -13.355   8.599  -7.563  1.00  0.00    -0.271 N 
HETATM   15  N4  UNL     1     -13.812   9.623  -6.875  1.00  0.00    -0.225 N 
ATOM     16  H3  UNL     1     -12.625   7.966  -7.238  1.00  0.00     0.190 HD
HETATM   17  N5  UNL     1     -14.753  10.211  -7.614  1.00  0.00    -0.005 NA
ATOM     18  H4  UNL     1     -13.503   9.914  -5.947  1.00  0.00     0.205 HD
HETATM   19  N6  UNL     1     -14.835   9.503  -8.760  1.00  0.00    -0.266 N 
ATOM     20  H6  UNL     1     -15.475   9.721  -9.523  1.00  0.00     0.186 HD
ENDBRANCH   9  13
BRANCH   8  21
HETATM   21  N2  UNL     1     -11.936   8.709 -10.839  1.00  0.00    -0.366 N 
HETATM   22  C6  UNL     1     -12.550   9.762 -11.665  1.00  0.00     0.124 C 
HETATM   23  C7  UNL     1     -11.591   9.895 -12.861  1.00  0.00     0.020 C 
HETATM   24  C8  UNL     1     -10.345  10.543 -12.334  1.00  0.00     0.003 C 
HETATM   25  C9  UNL     1     -10.201  10.350 -10.851  1.00  0.00     0.020 C 
HETATM   26  C10 UNL     1     -10.607   8.975 -10.372  1.00  0.00     0.124 C 
ENDBRANCH   8  21
BRANCH  10  27
HETATM   27  C14 UNL     1     -15.555   6.131  -8.712  1.00  0.00    -0.024 A 
HETATM   28  C15 UNL     1     -16.844   6.523  -9.063  1.00  0.00     0.012 A 
HETATM   29  C16 UNL     1     -17.869   6.389  -8.161  1.00  0.00     0.001 A 
HETATM   30  C17 UNL     1     -17.683   5.874  -6.892  1.00  0.00     0.000 A 
HETATM   31  C18 UNL     1     -16.406   5.489  -6.553  1.00  0.00     0.001 A 
HETATM   32  C19 UNL     1     -15.360   5.612  -7.437  1.00  0.00     0.012 A 
ENDBRANCH  10  27
TORSDOF 3
ENDMDL
