MODEL 4
REMARK VINA RESULT: -8.130055858      2.291      5.052
REMARK  3 active torsions:
REMARK  status: ('A' for Active; 'I' for Inactive)
REMARK    1  A    between atoms: C5_8  and  N2_9 
REMARK    2  A    between atoms: C11_15  and  C12_16 
REMARK    3  A    between atoms: C13_24  and  C14_25 
ROOT
HETATM    1 CL1  UNL     1      -9.603   7.239 -10.558  1.00  0.00    -0.084 Cl
HETATM    2  C1  UNL     1     -11.166   7.885 -10.090  1.00  0.00     0.035 A 
HETATM    3  C2  UNL     1     -11.274   9.184  -9.639  1.00  0.00     0.026 A 
HETATM    4  C3  UNL     1     -12.506   9.676  -9.273  1.00  0.00     0.032 A 
HETATM    5  C4  UNL     1     -13.627   8.871  -9.359  1.00  0.00     0.044 A 
HETATM    6  N1  UNL     1     -14.838   9.289  -9.020  1.00  0.00    -0.341 N 
ATOM      7  H1  UNL     1     -14.939  10.247  -8.685  1.00  0.00     0.167 HD
HETATM    8  C5  UNL     1     -15.966   8.506  -9.092  1.00  0.00     0.118 A 
HETATM    9  C11 UNL     1     -15.861   7.225  -9.531  1.00  0.00     0.066 A 
HETATM   10  C13 UNL     1     -14.586   6.729  -9.911  1.00  0.00     0.004 A 
HETATM   11  C20 UNL     1     -13.509   7.578  -9.809  1.00  0.00     0.004 A 
HETATM   12  C21 UNL     1     -12.272   7.077 -10.179  1.00  0.00     0.038 A 
ENDROOT
BRANCH   9  13
HETATM   13  C12 UNL     1     -16.980   6.313  -9.537  1.00  0.00     0.149 A 
HETATM   14  N3  UNL     1     -17.333   5.559  -8.454  1.00  0.00    -0.271 N 
HETATM   15  N4  UNL     1     -18.371   4.797  -8.725  1.00  0.00    -0.225 N 
ATOM     16  H3  UNL     1     -16.856   5.585  -7.553  1.00  0.00     0.190 HD
HETATM   17  N5  UNL     1     -18.718   5.032  -9.991  1.00  0.00    -0.005 NA
ATOM     18  H4  UNL     1     -18.825   4.145  -8.085  1.00  0.00     0.205 HD
HETATM   19  N6  UNL     1     -17.855   5.959 -10.456  1.00  0.00    -0.266 N 
ATOM     20  H6  UNL     1     -17.877   6.338 -11.402  1.00  0.00     0.186 HD
ENDBRANCH   9  13
BRANCH   8  21
HETATM   21  N2  UNL     1     -17.193   9.125  -8.772  1.00  0.00    -0.366 N 
HETATM   22  C6  UNL     1     -17.670   9.002  -7.385  1.00  0.00     0.124 C 
HETATM   23  C7  UNL     1     -19.010   8.257  -7.523  1.00  0.00     0.020 C 
HETATM   24  C8  UNL     1     -19.971   9.228  -8.142  1.00  0.00     0.003 C 
HETATM   25  C9  UNL     1     -19.259  10.315  -8.894  1.00  0.00     0.020 C 
HETATM   26  C10 UNL     1     -18.055   9.833  -9.671  1.00  0.00     0.124 C 
ENDBRANCH   8  21
BRANCH  10  27
HETATM   27  C14 UNL     1     -14.448   5.375 -10.407  1.00  0.00    -0.024 A 
HETATM   28  C15 UNL     1     -14.657   4.275  -9.580  1.00  0.00     0.012 A 
HETATM   29  C16 UNL     1     -14.531   3.006 -10.086  1.00  0.00     0.001 A 
HETATM   30  C17 UNL     1     -14.199   2.757 -11.404  1.00  0.00     0.000 A 
HETATM   31  C18 UNL     1     -13.994   3.850 -12.215  1.00  0.00     0.001 A 
HETATM   32  C19 UNL     1     -14.113   5.133 -11.735  1.00  0.00     0.012 A 
ENDBRANCH  10  27
TORSDOF 3
ENDMDL
