MODEL 4
REMARK VINA RESULT: -9.083846498      2.962      5.940
REMARK  4 active torsions:
REMARK  status: ('A' for Active; 'I' for Inactive)
REMARK    1  A    between atoms: C2_2  and  C4_4 
REMARK    2  A    between atoms: C8_8  and  C9_9 
REMARK    3  A    between atoms: C10_10  and  C11_11 
REMARK    4  A    between atoms: C12_14  and  C13_15 
ROOT
HETATM    1  C9  UNL     1      13.231  -2.642 -20.405  1.00  0.00     0.006 A 
HETATM    2  C10 UNL     1      12.544  -1.601 -19.835  1.00  0.00     0.079 A 
HETATM    3  C12 UNL     1      13.136  -0.656 -19.004  1.00  0.00     0.052 A 
HETATM    4  N1  UNL     1      14.467  -0.844 -18.801  1.00  0.00    -0.354 N 
ATOM      5  H1  UNL     1      14.961  -0.182 -18.204  1.00  0.00     0.166 HD
HETATM    6  C16 UNL     1      15.172  -1.858 -19.345  1.00  0.00     0.043 A 
HETATM    7  C17 UNL     1      16.511  -2.036 -19.065  1.00  0.00     0.032 A 
HETATM    8  C18 UNL     1      17.208  -3.116 -19.603  1.00  0.00     0.026 A 
HETATM    9  C19 UNL     1      16.610  -4.032 -20.423  1.00  0.00     0.035 A 
HETATM   10 CL1  UNL     1      17.519  -5.346 -21.067  1.00  0.00    -0.084 Cl
HETATM   11  C20 UNL     1      15.272  -3.858 -20.705  1.00  0.00     0.038 A 
HETATM   12  C21 UNL     1      14.573  -2.805 -20.176  1.00  0.00     0.004 A 
ENDROOT
BRANCH   1  13
HETATM   13  C8  UNL     1      12.588  -3.563 -21.352  1.00  0.00    -0.023 A 
HETATM   14  C7  UNL     1      11.739  -4.549 -20.979  1.00  0.00     0.012 A 
HETATM   15  C6  UNL     1      11.169  -5.382 -21.943  1.00  0.00     0.001 A 
HETATM   16  C5  UNL     1      11.476  -5.192 -23.291  1.00  0.00     0.007 A 
HETATM   17  C4  UNL     1      12.337  -4.201 -23.699  1.00  0.00    -0.054 A 
HETATM   18  C22 UNL     1      12.879  -3.404 -22.718  1.00  0.00     0.019 A 
BRANCH  17  19
HETATM   19  C2  UNL     1      12.666  -4.040 -25.115  1.00  0.00     0.010 C 
HETATM   20  C1  UNL     1      14.171  -4.197 -25.373  1.00  0.00     0.015 C 
HETATM   21  C3  UNL     1      11.946  -4.968 -26.031  1.00  0.00     0.015 C 
ENDBRANCH  17  19
ENDBRANCH   1  13
BRANCH   2  22
HETATM   22  C11 UNL     1      11.134  -1.445 -20.169  1.00  0.00     0.212 C 
HETATM   23  O1  UNL     1      10.881  -0.766 -21.218  1.00  0.00    -0.644 OA
HETATM   24  O2  UNL     1      10.121  -1.954 -19.465  1.00  0.00    -0.644 OA
ENDBRANCH   2  22
BRANCH   3  25
HETATM   25  C13 UNL     1      12.378   0.362 -18.270  1.00  0.00    -0.060 C 
HETATM   26  C14 UNL     1      12.217   0.126 -16.778  1.00  0.00     0.045 C 
HETATM   27  C15 UNL     1      12.415   1.762 -18.755  1.00  0.00     0.045 C 
ENDBRANCH   3  25
TORSDOF 4
ENDMDL
