MODEL 3
REMARK VINA RESULT: -9.130005061      1.656      5.266
REMARK  4 active torsions:
REMARK  status: ('A' for Active; 'I' for Inactive)
REMARK    1  A    between atoms: C2_2  and  C4_4 
REMARK    2  A    between atoms: C8_8  and  C9_9 
REMARK    3  A    between atoms: C10_10  and  C11_11 
REMARK    4  A    between atoms: C12_14  and  C13_15 
ROOT
HETATM    1  C9  UNL     1      14.422  -4.089 -21.912  1.00  0.00     0.006 A 
HETATM    2  C10 UNL     1      15.590  -3.977 -21.203  1.00  0.00     0.079 A 
HETATM    3  C12 UNL     1      16.845  -3.903 -21.799  1.00  0.00     0.052 A 
HETATM    4  N1  UNL     1      16.822  -3.946 -23.157  1.00  0.00    -0.354 N 
ATOM      5  H1  UNL     1      17.711  -3.892 -23.655  1.00  0.00     0.166 HD
HETATM    6  C16 UNL     1      15.692  -4.058 -23.886  1.00  0.00     0.043 A 
HETATM    7  C17 UNL     1      15.726  -4.151 -25.261  1.00  0.00     0.032 A 
HETATM    8  C18 UNL     1      14.549  -4.310 -25.989  1.00  0.00     0.026 A 
HETATM    9  C19 UNL     1      13.324  -4.375 -25.385  1.00  0.00     0.035 A 
HETATM   10 CL1  UNL     1      11.898  -4.565 -26.332  1.00  0.00    -0.084 Cl
HETATM   11  C20 UNL     1      13.285  -4.282 -24.011  1.00  0.00     0.038 A 
HETATM   12  C21 UNL     1      14.436  -4.134 -23.283  1.00  0.00     0.004 A 
ENDROOT
BRANCH   1  13
HETATM   13  C8  UNL     1      13.112  -4.070 -21.247  1.00  0.00    -0.023 A 
HETATM   14  C7  UNL     1      12.438  -5.187 -20.888  1.00  0.00     0.012 A 
HETATM   15  C6  UNL     1      11.197  -5.081 -20.259  1.00  0.00     0.001 A 
HETATM   16  C5  UNL     1      10.656  -3.821 -20.000  1.00  0.00     0.007 A 
HETATM   17  C4  UNL     1      11.317  -2.669 -20.357  1.00  0.00    -0.054 A 
HETATM   18  C22 UNL     1      12.535  -2.816 -20.977  1.00  0.00     0.019 A 
BRANCH  17  19
HETATM   19  C2  UNL     1      10.717  -1.360 -20.102  1.00  0.00     0.010 C 
HETATM   20  C1  UNL     1       9.299  -1.484 -19.527  1.00  0.00     0.015 C 
HETATM   21  C3  UNL     1      11.503  -0.480 -19.193  1.00  0.00     0.015 C 
ENDBRANCH  17  19
ENDBRANCH   1  13
BRANCH   2  22
HETATM   22  C11 UNL     1      15.504  -3.869 -19.752  1.00  0.00     0.212 C 
HETATM   23  O1  UNL     1      15.496  -4.971 -19.110  1.00  0.00    -0.644 OA
HETATM   24  O2  UNL     1      15.436  -2.722 -19.074  1.00  0.00    -0.644 OA
ENDBRANCH   2  22
BRANCH   3  25
HETATM   25  C13 UNL     1      18.101  -3.941 -21.044  1.00  0.00    -0.060 C 
HETATM   26  C14 UNL     1      19.005  -5.133 -21.315  1.00  0.00     0.045 C 
HETATM   27  C15 UNL     1      18.734  -2.660 -20.653  1.00  0.00     0.045 C 
ENDBRANCH   3  25
TORSDOF 4
ENDMDL
