MODEL 1
REMARK VINA RESULT: -10.504460157      0.000      0.000
REMARK  4 active torsions:
REMARK  status: ('A' for Active; 'I' for Inactive)
REMARK    1  A    between atoms: C2_2  and  C4_4 
REMARK    2  A    between atoms: C8_8  and  C9_9 
REMARK    3  A    between atoms: C10_10  and  C11_11 
REMARK    4  A    between atoms: C12_14  and  C13_15 
ROOT
HETATM    1  C9  UNL     1      14.884  -4.337 -21.846  1.00  0.00     0.006 A 
HETATM    2  C10 UNL     1      13.915  -4.382 -20.876  1.00  0.00     0.079 A 
HETATM    3  C12 UNL     1      12.552  -4.356 -21.152  1.00  0.00     0.052 A 
HETATM    4  N1  UNL     1      12.250  -4.286 -22.475  1.00  0.00    -0.354 N 
ATOM      5  H1  UNL     1      11.266  -4.268 -22.744  1.00  0.00     0.166 HD
HETATM    6  C16 UNL     1      13.177  -4.238 -23.455  1.00  0.00     0.043 A 
HETATM    7  C17 UNL     1      12.819  -4.114 -24.781  1.00  0.00     0.032 A 
HETATM    8  C18 UNL     1      13.795  -4.023 -25.771  1.00  0.00     0.026 A 
HETATM    9  C19 UNL     1      15.131  -4.055 -25.481  1.00  0.00     0.035 A 
HETATM   10 CL1  UNL     1      16.297  -3.946 -26.744  1.00  0.00    -0.084 Cl
HETATM   11  C20 UNL     1      15.493  -4.179 -24.157  1.00  0.00     0.038 A 
HETATM   12  C21 UNL     1      14.543  -4.262 -23.173  1.00  0.00     0.004 A 
ENDROOT
BRANCH   1  13
HETATM   13  C8  UNL     1      16.310  -4.461 -21.518  1.00  0.00    -0.023 A 
HETATM   14  C7  UNL     1      16.999  -5.624 -21.599  1.00  0.00     0.012 A 
HETATM   15  C6  UNL     1      18.354  -5.656 -21.269  1.00  0.00     0.001 A 
HETATM   16  C5  UNL     1      18.996  -4.487 -20.859  1.00  0.00     0.007 A 
HETATM   17  C4  UNL     1      18.321  -3.293 -20.765  1.00  0.00    -0.054 A 
HETATM   18  C22 UNL     1      16.987  -3.303 -21.096  1.00  0.00     0.019 A 
BRANCH  17  19
HETATM   19  C2  UNL     1      19.008  -2.086 -20.305  1.00  0.00     0.010 C 
HETATM   20  C1  UNL     1      18.413  -0.817 -20.929  1.00  0.00     0.015 C 
HETATM   21  C3  UNL     1      19.025  -1.905 -18.826  1.00  0.00     0.015 C 
ENDBRANCH  17  19
ENDBRANCH   1  13
BRANCH   2  22
HETATM   22  C11 UNL     1      14.340  -4.525 -19.490  1.00  0.00     0.212 C 
HETATM   23  O1  UNL     1      14.443  -5.722 -19.059  1.00  0.00    -0.644 OA
HETATM   24  O2  UNL     1      14.619  -3.513 -18.667  1.00  0.00    -0.644 OA
ENDBRANCH   2  22
BRANCH   3  25
HETATM   25  C13 UNL     1      11.520  -4.245 -20.115  1.00  0.00    -0.060 C 
HETATM   26  C14 UNL     1      11.156  -2.834 -19.686  1.00  0.00     0.045 C 
HETATM   27  C15 UNL     1      10.471  -5.289 -20.044  1.00  0.00     0.045 C 
ENDBRANCH   3  25
TORSDOF 4
ENDMDL
