MODEL 2
REMARK VINA RESULT: -9.140846455      1.862      5.538
REMARK  4 active torsions:
REMARK  status: ('A' for Active; 'I' for Inactive)
REMARK    1  A    between atoms: C2_2  and  C4_4 
REMARK    2  A    between atoms: C8_8  and  C9_9 
REMARK    3  A    between atoms: C10_10  and  C11_11 
REMARK    4  A    between atoms: C12_14  and  C13_15 
ROOT
HETATM    1  C9  UNL     1      14.518  -3.397 -21.512  1.00  0.00     0.006 A 
HETATM    2  C10 UNL     1      15.695  -3.100 -20.874  1.00  0.00     0.079 A 
HETATM    3  C12 UNL     1      16.941  -3.179 -21.489  1.00  0.00     0.052 A 
HETATM    4  N1  UNL     1      16.900  -3.574 -22.788  1.00  0.00    -0.354 N 
ATOM      5  H1  UNL     1      17.781  -3.648 -23.296  1.00  0.00     0.166 HD
HETATM    6  C16 UNL     1      15.760  -3.875 -23.446  1.00  0.00     0.043 A 
HETATM    7  C17 UNL     1      15.777  -4.322 -24.750  1.00  0.00     0.032 A 
HETATM    8  C18 UNL     1      14.591  -4.669 -25.394  1.00  0.00     0.026 A 
HETATM    9  C19 UNL     1      13.375  -4.579 -24.775  1.00  0.00     0.035 A 
HETATM   10 CL1  UNL     1      11.937  -5.013 -25.619  1.00  0.00    -0.084 Cl
HETATM   11  C20 UNL     1      13.354  -4.132 -23.472  1.00  0.00     0.038 A 
HETATM   12  C21 UNL     1      14.514  -3.796 -22.825  1.00  0.00     0.004 A 
ENDROOT
BRANCH   1  13
HETATM   13  C8  UNL     1      13.217  -3.210 -20.856  1.00  0.00    -0.023 A 
HETATM   14  C7  UNL     1      12.431  -2.123 -21.045  1.00  0.00     0.012 A 
HETATM   15  C6  UNL     1      11.208  -2.024 -20.383  1.00  0.00     0.001 A 
HETATM   16  C5  UNL     1      10.796  -3.047 -19.529  1.00  0.00     0.007 A 
HETATM   17  C4  UNL     1      11.574  -4.161 -19.316  1.00  0.00    -0.054 A 
HETATM   18  C22 UNL     1      12.774  -4.220 -19.985  1.00  0.00     0.019 A 
BRANCH  17  19
HETATM   19  C2  UNL     1      11.135  -5.208 -18.393  1.00  0.00     0.010 C 
HETATM   20  C1  UNL     1      11.831  -6.546 -18.675  1.00  0.00     0.015 C 
HETATM   21  C3  UNL     1      11.326  -4.887 -16.951  1.00  0.00     0.015 C 
ENDBRANCH  17  19
ENDBRANCH   1  13
BRANCH   2  22
HETATM   22  C11 UNL     1      15.628  -2.619 -19.501  1.00  0.00     0.212 C 
HETATM   23  O1  UNL     1      15.498  -1.359 -19.357  1.00  0.00    -0.644 OA
HETATM   24  O2  UNL     1      15.693  -3.394 -18.416  1.00  0.00    -0.644 OA
ENDBRANCH   2  22
BRANCH   3  25
HETATM   25  C13 UNL     1      18.208  -3.016 -20.768  1.00  0.00    -0.060 C 
HETATM   26  C14 UNL     1      19.109  -4.238 -20.722  1.00  0.00     0.045 C 
HETATM   27  C15 UNL     1      18.844  -1.678 -20.745  1.00  0.00     0.045 C 
ENDBRANCH   3  25
TORSDOF 4
ENDMDL
