MODEL 1
REMARK VINA RESULT: -10.585083580      0.000      0.000
REMARK  3 active torsions:
REMARK  status: ('A' for Active; 'I' for Inactive)
REMARK    1  A    between atoms: C1_2  and  C2_4 
REMARK    2  A    between atoms: C3_5  and  N1_6 
REMARK    3  A    between atoms: C15_22  and  C16_23 
ROOT
HETATM    1  C2  UNL     1       4.267  -7.273 -18.385  1.00  0.00     0.096 A 
HETATM    2  C3  UNL     1       5.426  -7.975 -18.543  1.00  0.00     0.122 A 
HETATM    3  N2  UNL     1       5.899  -8.190 -19.768  1.00  0.00    -0.340 N 
ATOM      4  H2  UNL     1       6.767  -8.716 -19.877  1.00  0.00     0.167 HD
HETATM    5  C9  UNL     1       5.263  -7.732 -20.877  1.00  0.00     0.067 A 
HETATM    6  C10 UNL     1       5.787  -7.976 -22.124  1.00  0.00     0.063 A 
HETATM    7 CL1  UNL     1       7.294  -8.892 -22.239  1.00  0.00    -0.082 Cl
HETATM    8  C11 UNL     1       5.159  -7.519 -23.240  1.00  0.00     0.050 A 
HETATM    9  C12 UNL     1       3.984  -6.806 -23.105  1.00  0.00     0.036 A 
HETATM   10 CL2  UNL     1       3.186  -6.224 -24.539  1.00  0.00    -0.084 Cl
HETATM   11  C13 UNL     1       3.431  -6.546 -21.855  1.00  0.00     0.038 A 
HETATM   12  C14 UNL     1       4.101  -7.027 -20.771  1.00  0.00     0.006 A 
HETATM   13  C15 UNL     1       3.600  -6.795 -19.518  1.00  0.00     0.007 A 
ENDROOT
BRANCH   2  14
HETATM   14  N1  UNL     1       6.136  -8.477 -17.420  1.00  0.00    -0.366 N 
HETATM   15  C4  UNL     1       7.098  -7.731 -16.670  1.00  0.00     0.124 C 
HETATM   16  C5  UNL     1       8.323  -8.514 -16.272  1.00  0.00     0.020 C 
HETATM   17  C6  UNL     1       8.174  -9.997 -16.520  1.00  0.00     0.003 C 
HETATM   18  C7  UNL     1       6.776 -10.360 -16.008  1.00  0.00     0.020 C 
HETATM   19  C8  UNL     1       5.811  -9.860 -17.043  1.00  0.00     0.124 C 
ENDBRANCH   2  14
BRANCH   1  20
HETATM   20  C1  UNL     1       3.707  -7.007 -17.053  1.00  0.00     0.214 C 
HETATM   21  O1  UNL     1       4.057  -5.954 -16.462  1.00  0.00    -0.644 OA
HETATM   22  O2  UNL     1       2.821  -7.849 -16.425  1.00  0.00    -0.644 OA
ENDBRANCH   1  20
BRANCH  13  23
HETATM   23  C16 UNL     1       2.358  -6.063 -19.288  1.00  0.00    -0.024 A 
HETATM   24  C17 UNL     1       2.366  -4.666 -19.255  1.00  0.00     0.012 A 
HETATM   25  C18 UNL     1       1.215  -3.938 -19.038  1.00  0.00     0.001 A 
HETATM   26  C19 UNL     1      -0.002  -4.559 -18.841  1.00  0.00     0.000 A 
HETATM   27  C20 UNL     1      -0.020  -5.936 -18.872  1.00  0.00     0.001 A 
HETATM   28  C21 UNL     1       1.139  -6.669 -19.091  1.00  0.00     0.012 A 
ENDBRANCH  13  23
TORSDOF 3
ENDMDL
