MODEL 6
REMARK VINA RESULT: -8.396598258      3.631      5.683
REMARK  3 active torsions:
REMARK  status: ('A' for Active; 'I' for Inactive)
REMARK    1  A    between atoms: C1_2  and  C2_4 
REMARK    2  A    between atoms: C3_5  and  N1_6 
REMARK    3  A    between atoms: C15_22  and  C16_23 
ROOT
HETATM    1  C2  UNL     1       4.376 -10.168 -17.612  1.00  0.00     0.096 A 
HETATM    2  C3  UNL     1       3.252 -10.651 -17.008  1.00  0.00     0.122 A 
HETATM    3  N2  UNL     1       2.104  -9.992 -17.140  1.00  0.00    -0.340 N 
ATOM      4  H2  UNL     1       1.268 -10.360 -16.686  1.00  0.00     0.167 HD
HETATM    5  C9  UNL     1       2.010  -8.846 -17.862  1.00  0.00     0.067 A 
HETATM    6  C10 UNL     1       0.803  -8.197 -17.975  1.00  0.00     0.063 A 
HETATM    7 CL1  UNL     1      -0.604  -8.892 -17.161  1.00  0.00    -0.082 Cl
HETATM    8  C11 UNL     1       0.698  -7.050 -18.698  1.00  0.00     0.050 A 
HETATM    9  C12 UNL     1       1.822  -6.543 -19.318  1.00  0.00     0.036 A 
HETATM   10 CL2  UNL     1       1.680  -5.074 -20.242  1.00  0.00    -0.084 Cl
HETATM   11  C13 UNL     1       3.057  -7.178 -19.220  1.00  0.00     0.038 A 
HETATM   12  C14 UNL     1       3.105  -8.323 -18.483  1.00  0.00     0.006 A 
HETATM   13  C15 UNL     1       4.295  -8.988 -18.359  1.00  0.00     0.007 A 
ENDROOT
BRANCH   2  14
HETATM   14  N1  UNL     1       3.290 -11.846 -16.242  1.00  0.00    -0.366 N 
HETATM   15  C4  UNL     1       3.145 -13.161 -16.784  1.00  0.00     0.124 C 
HETATM   16  C5  UNL     1       2.291 -14.087 -15.957  1.00  0.00     0.020 C 
HETATM   17  C6  UNL     1       1.972 -13.525 -14.593  1.00  0.00     0.003 C 
HETATM   18  C7  UNL     1       3.291 -12.950 -14.067  1.00  0.00     0.020 C 
HETATM   19  C8  UNL     1       3.504 -11.657 -14.800  1.00  0.00     0.124 C 
ENDBRANCH   2  14
BRANCH   1  20
HETATM   20  C1  UNL     1       5.666 -10.861 -17.498  1.00  0.00     0.214 C 
HETATM   21  O1  UNL     1       6.424 -10.550 -16.544  1.00  0.00    -0.644 OA
HETATM   22  O2  UNL     1       6.083 -11.830 -18.379  1.00  0.00    -0.644 OA
ENDBRANCH   1  20
BRANCH  13  23
HETATM   23  C16 UNL     1       5.533  -8.513 -18.971  1.00  0.00    -0.024 A 
HETATM   24  C17 UNL     1       5.888  -8.943 -20.252  1.00  0.00     0.012 A 
HETATM   25  C18 UNL     1       7.049  -8.519 -20.863  1.00  0.00     0.001 A 
HETATM   26  C19 UNL     1       7.917  -7.649 -20.235  1.00  0.00     0.000 A 
HETATM   27  C20 UNL     1       7.575  -7.220 -18.971  1.00  0.00     0.001 A 
HETATM   28  C21 UNL     1       6.405  -7.646 -18.355  1.00  0.00     0.012 A 
ENDBRANCH  13  23
TORSDOF 3
ENDMDL
