MODEL 4
REMARK VINA RESULT: -8.571809810      3.384      5.725
REMARK  3 active torsions:
REMARK  status: ('A' for Active; 'I' for Inactive)
REMARK    1  A    between atoms: C1_2  and  C2_4 
REMARK    2  A    between atoms: C3_5  and  N1_6 
REMARK    3  A    between atoms: C15_22  and  C16_23 
ROOT
HETATM    1  C2  UNL     1       4.959 -10.157 -17.096  1.00  0.00     0.096 A 
HETATM    2  C3  UNL     1       3.815  -9.846 -16.421  1.00  0.00     0.122 A 
HETATM    3  N2  UNL     1       2.996  -8.920 -16.915  1.00  0.00    -0.340 N 
ATOM      4  H2  UNL     1       2.142  -8.694 -16.404  1.00  0.00     0.167 HD
HETATM    5  C9  UNL     1       3.261  -8.268 -18.076  1.00  0.00     0.067 A 
HETATM    6  C10 UNL     1       2.386  -7.319 -18.550  1.00  0.00     0.063 A 
HETATM    7 CL1  UNL     1       0.926  -6.979 -17.615  1.00  0.00    -0.082 Cl
HETATM    8  C11 UNL     1       2.642  -6.663 -19.713  1.00  0.00     0.050 A 
HETATM    9  C12 UNL     1       3.793  -6.960 -20.413  1.00  0.00     0.036 A 
HETATM   10 CL2  UNL     1       4.113  -6.115 -21.901  1.00  0.00    -0.084 Cl
HETATM   11  C13 UNL     1       4.697  -7.915 -19.955  1.00  0.00     0.038 A 
HETATM   12  C14 UNL     1       4.392  -8.543 -18.785  1.00  0.00     0.006 A 
HETATM   13  C15 UNL     1       5.246  -9.493 -18.294  1.00  0.00     0.007 A 
ENDROOT
BRANCH   2  14
HETATM   14  N1  UNL     1       3.484 -10.497 -15.204  1.00  0.00    -0.366 N 
HETATM   15  C4  UNL     1       3.765  -9.974 -13.903  1.00  0.00     0.124 C 
HETATM   16  C5  UNL     1       4.260 -10.997 -12.913  1.00  0.00     0.020 C 
HETATM   17  C6  UNL     1       4.112 -12.414 -13.414  1.00  0.00     0.003 C 
HETATM   18  C7  UNL     1       2.710 -12.489 -14.028  1.00  0.00     0.020 C 
HETATM   19  C8  UNL     1       2.798 -11.788 -15.352  1.00  0.00     0.124 C 
ENDBRANCH   2  14
BRANCH   1  20
HETATM   20  C1  UNL     1       5.893 -11.173 -16.595  1.00  0.00     0.214 C 
HETATM   21  O1  UNL     1       5.779 -12.348 -17.027  1.00  0.00    -0.644 OA
HETATM   22  O2  UNL     1       6.882 -10.903 -15.679  1.00  0.00    -0.644 OA
ENDBRANCH   1  20
BRANCH  13  23
HETATM   23  C16 UNL     1       6.491  -9.857 -18.964  1.00  0.00    -0.024 A 
HETATM   24  C17 UNL     1       6.502 -10.891 -19.903  1.00  0.00     0.012 A 
HETATM   25  C18 UNL     1       7.657 -11.267 -20.556  1.00  0.00     0.001 A 
HETATM   26  C19 UNL     1       8.860 -10.638 -20.309  1.00  0.00     0.000 A 
HETATM   27  C20 UNL     1       8.859  -9.617 -19.383  1.00  0.00     0.001 A 
HETATM   28  C21 UNL     1       7.696  -9.237 -18.727  1.00  0.00     0.012 A 
ENDBRANCH  13  23
TORSDOF 3
ENDMDL
