MODEL 3
REMARK VINA RESULT: -8.629908812      1.533      5.513
REMARK  3 active torsions:
REMARK  status: ('A' for Active; 'I' for Inactive)
REMARK    1  A    between atoms: C1_2  and  C2_4 
REMARK    2  A    between atoms: C3_5  and  N1_6 
REMARK    3  A    between atoms: C15_22  and  C16_23 
ROOT
HETATM    1  C2  UNL     1       3.964  -7.221 -18.566  1.00  0.00     0.096 A 
HETATM    2  C3  UNL     1       3.470  -6.673 -19.714  1.00  0.00     0.122 A 
HETATM    3  N2  UNL     1       4.067  -6.936 -20.874  1.00  0.00    -0.340 N 
ATOM      4  H2  UNL     1       3.691  -6.523 -21.728  1.00  0.00     0.167 HD
HETATM    5  C9  UNL     1       5.159  -7.739 -20.957  1.00  0.00     0.067 A 
HETATM    6  C10 UNL     1       5.744  -7.986 -22.177  1.00  0.00     0.063 A 
HETATM    7 CL1  UNL     1       5.040  -7.237 -23.614  1.00  0.00    -0.082 Cl
HETATM    8  C11 UNL     1       6.837  -8.790 -22.270  1.00  0.00     0.050 A 
HETATM    9  C12 UNL     1       7.353  -9.356 -21.122  1.00  0.00     0.036 A 
HETATM   10 CL2  UNL     1       8.753 -10.384 -21.250  1.00  0.00    -0.084 Cl
HETATM   11  C13 UNL     1       6.783  -9.122 -19.875  1.00  0.00     0.038 A 
HETATM   12  C14 UNL     1       5.690  -8.309 -19.838  1.00  0.00     0.006 A 
HETATM   13  C15 UNL     1       5.090  -8.049 -18.636  1.00  0.00     0.007 A 
ENDROOT
BRANCH   2  14
HETATM   14  N1  UNL     1       2.330  -5.828 -19.689  1.00  0.00    -0.366 N 
HETATM   15  C4  UNL     1       2.373  -4.403 -19.798  1.00  0.00     0.124 C 
HETATM   16  C5  UNL     1       1.434  -3.677 -18.870  1.00  0.00     0.020 C 
HETATM   17  C6  UNL     1       0.448  -4.602 -18.196  1.00  0.00     0.003 C 
HETATM   18  C7  UNL     1      -0.060  -5.535 -19.300  1.00  0.00     0.020 C 
HETATM   19  C8  UNL     1       1.042  -6.523 -19.551  1.00  0.00     0.124 C 
ENDBRANCH   2  14
BRANCH   1  20
HETATM   20  C1  UNL     1       3.339  -6.963 -17.263  1.00  0.00     0.214 C 
HETATM   21  O1  UNL     1       3.692  -5.936 -16.629  1.00  0.00    -0.644 OA
HETATM   22  O2  UNL     1       2.390  -7.786 -16.704  1.00  0.00    -0.644 OA
ENDBRANCH   1  20
BRANCH  13  23
HETATM   23  C16 UNL     1       5.580  -8.596 -17.374  1.00  0.00    -0.024 A 
HETATM   24  C17 UNL     1       5.118  -9.835 -16.923  1.00  0.00     0.012 A 
HETATM   25  C18 UNL     1       5.556 -10.385 -15.737  1.00  0.00     0.001 A 
HETATM   26  C19 UNL     1       6.471  -9.733 -14.936  1.00  0.00     0.000 A 
HETATM   27  C20 UNL     1       6.932  -8.509 -15.372  1.00  0.00     0.001 A 
HETATM   28  C21 UNL     1       6.493  -7.956 -16.568  1.00  0.00     0.012 A 
ENDBRANCH  13  23
TORSDOF 3
ENDMDL
