MODEL 2
REMARK VINA RESULT: -10.213239712      0.513      1.117
REMARK  3 active torsions:
REMARK  status: ('A' for Active; 'I' for Inactive)
REMARK    1  A    between atoms: C1_2  and  C2_4 
REMARK    2  A    between atoms: C3_5  and  N1_6 
REMARK    3  A    between atoms: C15_22  and  C16_23 
ROOT
HETATM    1  C2  UNL     1       4.268  -7.391 -18.678  1.00  0.00     0.096 A 
HETATM    2  C3  UNL     1       5.396  -8.118 -18.928  1.00  0.00     0.122 A 
HETATM    3  N2  UNL     1       5.808  -8.274 -20.184  1.00  0.00    -0.340 N 
ATOM      4  H2  UNL     1       6.652  -8.819 -20.362  1.00  0.00     0.167 HD
HETATM    5  C9  UNL     1       5.139  -7.733 -21.235  1.00  0.00     0.067 A 
HETATM    6  C10 UNL     1       5.600  -7.919 -22.516  1.00  0.00     0.063 A 
HETATM    7 CL1  UNL     1       7.070  -8.872 -22.752  1.00  0.00    -0.082 Cl
HETATM    8  C11 UNL     1       4.939  -7.378 -23.575  1.00  0.00     0.050 A 
HETATM    9  C12 UNL     1       3.796  -6.640 -23.346  1.00  0.00     0.036 A 
HETATM   10 CL2  UNL     1       2.955  -5.951 -24.706  1.00  0.00    -0.084 Cl
HETATM   11  C13 UNL     1       3.306  -6.437 -22.059  1.00  0.00     0.038 A 
HETATM   12  C14 UNL     1       4.007  -7.001 -21.036  1.00  0.00     0.006 A 
HETATM   13  C15 UNL     1       3.568  -6.828 -19.750  1.00  0.00     0.007 A 
ENDROOT
BRANCH   2  14
HETATM   14  N1  UNL     1       6.137  -8.705 -17.870  1.00  0.00    -0.366 N 
HETATM   15  C4  UNL     1       5.875  -9.998 -17.316  1.00  0.00     0.124 C 
HETATM   16  C5  UNL     1       5.980 -10.067 -15.814  1.00  0.00     0.020 C 
HETATM   17  C6  UNL     1       6.594  -8.824 -15.214  1.00  0.00     0.003 C 
HETATM   18  C7  UNL     1       7.801  -8.494 -16.099  1.00  0.00     0.020 C 
HETATM   19  C8  UNL     1       7.244  -7.888 -17.354  1.00  0.00     0.124 C 
ENDBRANCH   2  14
BRANCH   1  20
HETATM   20  C1  UNL     1       3.776  -7.187 -17.309  1.00  0.00     0.214 C 
HETATM   21  O1  UNL     1       4.153  -6.159 -16.691  1.00  0.00    -0.644 OA
HETATM   22  O2  UNL     1       2.926  -8.061 -16.675  1.00  0.00    -0.644 OA
ENDBRANCH   1  20
BRANCH  13  23
HETATM   23  C16 UNL     1       2.362  -6.073 -19.422  1.00  0.00    -0.024 A 
HETATM   24  C17 UNL     1       2.413  -4.680 -19.332  1.00  0.00     0.012 A 
HETATM   25  C18 UNL     1       1.297  -3.932 -19.022  1.00  0.00     0.001 A 
HETATM   26  C19 UNL     1       0.075  -4.527 -18.786  1.00  0.00     0.000 A 
HETATM   27  C20 UNL     1       0.015  -5.901 -18.872  1.00  0.00     0.001 A 
HETATM   28  C21 UNL     1       1.139  -6.655 -19.185  1.00  0.00     0.012 A 
ENDBRANCH  13  23
TORSDOF 3
ENDMDL
