MODEL 9
REMARK VINA RESULT: -8.184489955      2.711      4.996
REMARK  1 active torsions:
REMARK  status: ('A' for Active; 'I' for Inactive)
REMARK    1  A    between atoms: C16_19  and  C17_20 
ROOT
HETATM    1  C1  UNL     1     -14.075  47.495 -43.692  1.00  0.00     0.069 C 
HETATM    2  C2  UNL     1     -13.699  48.555 -42.690  1.00  0.00     0.023 A 
HETATM    3  N1  UNL     1     -13.765  49.856 -42.990  1.00  0.00    -0.358 N 
ATOM      4  H1  UNL     1     -14.079  50.136 -43.919  1.00  0.00     0.166 HD
HETATM    5  C3  UNL     1     -13.432  50.796 -42.104  1.00  0.00     0.043 A 
HETATM    6  C4  UNL     1     -13.514  52.143 -42.440  1.00  0.00     0.032 A 
HETATM    7  C5  UNL     1     -13.166  53.073 -41.499  1.00  0.00     0.026 A 
HETATM    8  C6  UNL     1     -12.738  52.714 -40.237  1.00  0.00     0.035 A 
HETATM    9 CL1  UNL     1     -12.294  53.894 -39.026  1.00  0.00    -0.084 Cl
HETATM   10  C7  UNL     1     -12.653  51.392 -39.893  1.00  0.00     0.038 A 
HETATM   11  C8  UNL     1     -13.000  50.433 -40.828  1.00  0.00     0.004 A 
HETATM   12  C9  UNL     1     -12.921  49.082 -40.483  1.00  0.00     0.006 A 
HETATM   13  C10 UNL     1     -12.483  48.732 -39.152  1.00  0.00    -0.024 A 
HETATM   14  C11 UNL     1     -13.380  48.992 -38.103  1.00  0.00     0.012 A 
HETATM   15  C12 UNL     1     -13.090  48.694 -36.789  1.00  0.00     0.001 A 
HETATM   16  C13 UNL     1     -11.881  48.120 -36.463  1.00  0.00     0.000 A 
HETATM   17  C14 UNL     1     -10.997  47.861 -37.481  1.00  0.00     0.001 A 
HETATM   18  C15 UNL     1     -11.296  48.162 -38.799  1.00  0.00     0.012 A 
HETATM   19  C16 UNL     1     -13.275  48.160 -41.432  1.00  0.00     0.074 A 
ENDROOT
BRANCH  19  20
HETATM   20  C17 UNL     1     -13.179  46.745 -41.075  1.00  0.00     0.212 C 
HETATM   21  O1  UNL     1     -14.132  46.215 -40.473  1.00  0.00    -0.644 OA
HETATM   22  O2  UNL     1     -12.017  46.036 -41.425  1.00  0.00    -0.644 OA
ENDBRANCH  19  20
TORSDOF 1
ENDMDL
