MODEL 6
REMARK VINA RESULT: -8.335250815      3.047      4.809
REMARK  1 active torsions:
REMARK  status: ('A' for Active; 'I' for Inactive)
REMARK    1  A    between atoms: C16_19  and  C17_20 
ROOT
HETATM    1  C1  UNL     1     -11.624  47.484 -36.568  1.00  0.00     0.069 C 
HETATM    2  C2  UNL     1     -11.948  48.440 -37.687  1.00  0.00     0.023 A 
HETATM    3  N1  UNL     1     -11.537  49.711 -37.661  1.00  0.00    -0.358 N 
ATOM      4  H1  UNL     1     -10.991  50.042 -36.866  1.00  0.00     0.166 HD
HETATM    5  C3  UNL     1     -11.824  50.559 -38.652  1.00  0.00     0.043 A 
HETATM    6  C4  UNL     1     -11.380  51.876 -38.603  1.00  0.00     0.032 A 
HETATM    7  C5  UNL     1     -11.695  52.709 -39.642  1.00  0.00     0.026 A 
HETATM    8  C6  UNL     1     -12.434  52.282 -40.726  1.00  0.00     0.035 A 
HETATM    9 CL1  UNL     1     -12.838  53.337 -42.060  1.00  0.00    -0.084 Cl
HETATM   10  C7  UNL     1     -12.876  50.988 -40.786  1.00  0.00     0.038 A 
HETATM   11  C8  UNL     1     -12.571  50.127 -39.748  1.00  0.00     0.004 A 
HETATM   12  C9  UNL     1     -13.014  48.803 -39.805  1.00  0.00     0.006 A 
HETATM   13  C10 UNL     1     -13.775  48.377 -40.956  1.00  0.00    -0.024 A 
HETATM   14  C11 UNL     1     -13.070  48.238 -42.163  1.00  0.00     0.012 A 
HETATM   15  C12 UNL     1     -13.675  47.827 -43.331  1.00  0.00     0.001 A 
HETATM   16  C13 UNL     1     -15.021  47.536 -43.344  1.00  0.00     0.000 A 
HETATM   17  C14 UNL     1     -15.719  47.667 -42.170  1.00  0.00     0.001 A 
HETATM   18  C15 UNL     1     -15.105  48.080 -41.000  1.00  0.00     0.012 A 
HETATM   19  C16 UNL     1     -12.691  47.978 -38.761  1.00  0.00     0.074 A 
ENDROOT
BRANCH  19  20
HETATM   20  C17 UNL     1     -13.167  46.597 -38.814  1.00  0.00     0.212 C 
HETATM   21  O1  UNL     1     -12.475  45.748 -39.409  1.00  0.00    -0.644 OA
HETATM   22  O2  UNL     1     -14.386  46.276 -38.192  1.00  0.00    -0.644 OA
ENDBRANCH  19  20
TORSDOF 1
ENDMDL
