MODEL 1
REMARK VINA RESULT: -9.859110943      0.000      0.000
REMARK  1 active torsions:
REMARK  status: ('A' for Active; 'I' for Inactive)
REMARK    1  A    between atoms: C16_19  and  C17_20 
ROOT
HETATM    1  C1  UNL     1     -16.646  48.467 -40.476  1.00  0.00     0.069 C 
HETATM    2  C2  UNL     1     -15.302  48.956 -40.003  1.00  0.00     0.023 A 
HETATM    3  N1  UNL     1     -14.700  48.423 -38.935  1.00  0.00    -0.358 N 
ATOM      4  H1  UNL     1     -15.162  47.667 -38.430  1.00  0.00     0.166 HD
HETATM    5  C3  UNL     1     -13.510  48.856 -38.515  1.00  0.00     0.043 A 
HETATM    6  C4  UNL     1     -12.903  48.280 -37.404  1.00  0.00     0.032 A 
HETATM    7  C5  UNL     1     -11.681  48.753 -37.011  1.00  0.00     0.026 A 
HETATM    8  C6  UNL     1     -11.040  49.776 -37.680  1.00  0.00     0.035 A 
HETATM    9 CL1  UNL     1      -9.477  50.384 -37.188  1.00  0.00    -0.084 Cl
HETATM   10  C7  UNL     1     -11.626  50.350 -38.775  1.00  0.00     0.038 A 
HETATM   11  C8  UNL     1     -12.862  49.889 -39.192  1.00  0.00     0.004 A 
HETATM   12  C9  UNL     1     -13.464  50.466 -40.313  1.00  0.00     0.006 A 
HETATM   13  C10 UNL     1     -12.768  51.526 -41.004  1.00  0.00    -0.024 A 
HETATM   14  C11 UNL     1     -11.636  51.158 -41.749  1.00  0.00     0.012 A 
HETATM   15  C12 UNL     1     -10.890  52.070 -42.464  1.00  0.00     0.001 A 
HETATM   16  C13 UNL     1     -11.246  53.400 -42.465  1.00  0.00     0.000 A 
HETATM   17  C14 UNL     1     -12.351  53.771 -41.741  1.00  0.00     0.001 A 
HETATM   18  C15 UNL     1     -13.096  52.849 -41.025  1.00  0.00     0.012 A 
HETATM   19  C16 UNL     1     -14.686  49.984 -40.698  1.00  0.00     0.074 A 
ENDROOT
BRANCH  19  20
HETATM   20  C17 UNL     1     -15.323  50.598 -41.863  1.00  0.00     0.212 C 
HETATM   21  O1  UNL     1     -15.011  50.191 -42.999  1.00  0.00    -0.644 OA
HETATM   22  O2  UNL     1     -16.264  51.622 -41.659  1.00  0.00    -0.644 OA
ENDBRANCH  19  20
TORSDOF 1
ENDMDL
