MODEL 4
REMARK VINA RESULT: -8.513323586      1.100      1.247
REMARK  1 active torsions:
REMARK  status: ('A' for Active; 'I' for Inactive)
REMARK    1  A    between atoms: C16_19  and  C17_20 
ROOT
HETATM    1  C1  UNL     1     -16.357  48.688 -41.511  1.00  0.00     0.069 C 
HETATM    2  C2  UNL     1     -15.096  49.099 -40.797  1.00  0.00     0.023 A 
HETATM    3  N1  UNL     1     -14.378  48.224 -40.086  1.00  0.00    -0.358 N 
ATOM      4  H1  UNL     1     -14.691  47.255 -40.027  1.00  0.00     0.166 HD
HETATM    5  C3  UNL     1     -13.260  48.587 -39.453  1.00  0.00     0.043 A 
HETATM    6  C4  UNL     1     -12.529  47.655 -38.724  1.00  0.00     0.032 A 
HETATM    7  C5  UNL     1     -11.388  48.071 -38.094  1.00  0.00     0.026 A 
HETATM    8  C6  UNL     1     -10.948  49.377 -38.160  1.00  0.00     0.035 A 
HETATM    9 CL1  UNL     1      -9.489  49.917 -37.361  1.00  0.00    -0.084 Cl
HETATM   10  C7  UNL     1     -11.658  50.303 -38.875  1.00  0.00     0.038 A 
HETATM   11  C8  UNL     1     -12.816  49.907 -39.521  1.00  0.00     0.004 A 
HETATM   12  C9  UNL     1     -13.543  50.846 -40.256  1.00  0.00     0.006 A 
HETATM   13  C10 UNL     1     -13.055  52.203 -40.321  1.00  0.00    -0.024 A 
HETATM   14  C11 UNL     1     -11.904  52.425 -41.095  1.00  0.00     0.012 A 
HETATM   15  C12 UNL     1     -11.344  53.674 -41.250  1.00  0.00     0.001 A 
HETATM   16  C13 UNL     1     -11.912  54.766 -40.631  1.00  0.00     0.000 A 
HETATM   17  C14 UNL     1     -13.038  54.561 -39.873  1.00  0.00     0.001 A 
HETATM   18  C15 UNL     1     -13.596  53.302 -39.723  1.00  0.00     0.012 A 
HETATM   19  C16 UNL     1     -14.681  50.418 -40.885  1.00  0.00     0.074 A 
ENDROOT
BRANCH  19  20
HETATM   20  C17 UNL     1     -15.451  51.404 -41.643  1.00  0.00     0.212 C 
HETATM   21  O1  UNL     1     -15.446  51.337 -42.887  1.00  0.00    -0.644 OA
HETATM   22  O2  UNL     1     -16.167  52.390 -40.942  1.00  0.00    -0.644 OA
ENDBRANCH  19  20
TORSDOF 1
ENDMDL
