MODEL 8
REMARK VINA RESULT: -8.273430789      1.690      1.798
REMARK  1 active torsions:
REMARK  status: ('A' for Active; 'I' for Inactive)
REMARK    1  A    between atoms: C16_19  and  C17_20 
ROOT
HETATM    1  C1  UNL     1     -15.024  46.306 -42.604  1.00  0.00     0.069 C 
HETATM    2  C2  UNL     1     -14.216  47.151 -41.655  1.00  0.00     0.023 A 
HETATM    3  N1  UNL     1     -13.736  46.654 -40.511  1.00  0.00    -0.358 N 
ATOM      4  H1  UNL     1     -13.921  45.679 -40.276  1.00  0.00     0.166 HD
HETATM    5  C3  UNL     1     -13.020  47.401 -39.668  1.00  0.00     0.043 A 
HETATM    6  C4  UNL     1     -12.528  46.858 -38.487  1.00  0.00     0.032 A 
HETATM    7  C5  UNL     1     -11.796  47.660 -37.655  1.00  0.00     0.026 A 
HETATM    8  C6  UNL     1     -11.535  48.982 -37.953  1.00  0.00     0.035 A 
HETATM    9 CL1  UNL     1     -10.598  50.014 -36.899  1.00  0.00    -0.084 Cl
HETATM   10  C7  UNL     1     -12.013  49.529 -39.113  1.00  0.00     0.038 A 
HETATM   11  C8  UNL     1     -12.756  48.737 -39.971  1.00  0.00     0.004 A 
HETATM   12  C9  UNL     1     -13.242  49.287 -41.159  1.00  0.00     0.006 A 
HETATM   13  C10 UNL     1     -12.945  50.669 -41.455  1.00  0.00    -0.024 A 
HETATM   14  C11 UNL     1     -11.619  50.968 -41.809  1.00  0.00     0.012 A 
HETATM   15  C12 UNL     1     -11.207  52.244 -42.127  1.00  0.00     0.001 A 
HETATM   16  C13 UNL     1     -12.109  53.285 -42.104  1.00  0.00     0.000 A 
HETATM   17  C14 UNL     1     -13.407  53.004 -41.760  1.00  0.00     0.001 A 
HETATM   18  C15 UNL     1     -13.814  51.719 -41.443  1.00  0.00     0.012 A 
HETATM   19  C16 UNL     1     -13.971  48.474 -41.985  1.00  0.00     0.074 A 
ENDROOT
BRANCH  19  20
HETATM   20  C17 UNL     1     -14.492  49.053 -43.223  1.00  0.00     0.212 C 
HETATM   21  O1  UNL     1     -13.785  49.008 -44.248  1.00  0.00    -0.644 OA
HETATM   22  O2  UNL     1     -15.770  49.639 -43.211  1.00  0.00    -0.644 OA
ENDBRANCH  19  20
TORSDOF 1
ENDMDL
