MODEL 11
REMARK VINA RESULT: -8.026016654      3.011      5.021
REMARK  1 active torsions:
REMARK  status: ('A' for Active; 'I' for Inactive)
REMARK    1  A    between atoms: C16_19  and  C17_20 
ROOT
HETATM    1  C1  UNL     1     -14.561  46.522 -43.142  1.00  0.00     0.069 C 
HETATM    2  C2  UNL     1     -14.276  47.751 -42.318  1.00  0.00     0.023 A 
HETATM    3  N1  UNL     1     -14.678  48.964 -42.710  1.00  0.00    -0.358 N 
ATOM      4  H1  UNL     1     -15.190  49.059 -43.587  1.00  0.00     0.166 HD
HETATM    5  C3  UNL     1     -14.425  50.053 -41.982  1.00  0.00     0.043 A 
HETATM    6  C4  UNL     1     -14.859  51.303 -42.410  1.00  0.00     0.032 A 
HETATM    7  C5  UNL     1     -14.582  52.392 -41.630  1.00  0.00     0.026 A 
HETATM    8  C6  UNL     1     -13.888  52.285 -40.441  1.00  0.00     0.035 A 
HETATM    9 CL1  UNL     1     -13.532  53.670 -39.436  1.00  0.00    -0.084 Cl
HETATM   10  C7  UNL     1     -13.457  51.061 -40.008  1.00  0.00     0.038 A 
HETATM   11  C8  UNL     1     -13.726  49.944 -40.780  1.00  0.00     0.004 A 
HETATM   12  C9  UNL     1     -13.293  48.691 -40.342  1.00  0.00     0.006 A 
HETATM   13  C10 UNL     1     -12.581  48.603 -39.089  1.00  0.00    -0.024 A 
HETATM   14  C11 UNL     1     -13.334  48.799 -37.920  1.00  0.00     0.012 A 
HETATM   15  C12 UNL     1     -12.779  48.730 -36.660  1.00  0.00     0.001 A 
HETATM   16  C13 UNL     1     -11.436  48.461 -36.513  1.00  0.00     0.000 A 
HETATM   17  C14 UNL     1     -10.691  48.267 -37.649  1.00  0.00     0.001 A 
HETATM   18  C15 UNL     1     -11.256  48.337 -38.912  1.00  0.00     0.012 A 
HETATM   19  C16 UNL     1     -13.579  47.608 -41.130  1.00  0.00     0.074 A 
ENDROOT
BRANCH  19  20
HETATM   20  C17 UNL     1     -13.113  46.297 -40.678  1.00  0.00     0.212 C 
HETATM   21  O1  UNL     1     -12.037  45.858 -41.126  1.00  0.00    -0.644 OA
HETATM   22  O2  UNL     1     -13.896  45.581 -39.755  1.00  0.00    -0.644 OA
ENDBRANCH  19  20
TORSDOF 1
ENDMDL
