MODEL 2
REMARK VINA RESULT: -7.411670967      2.601      5.294
REMARK  7 active torsions:
REMARK  status: ('A' for Active; 'I' for Inactive)
REMARK    1  A    between atoms: C2_2  and  C3_3 
REMARK    2  A    between atoms: C3_3  and  C4_4 
REMARK    3  A    between atoms: C4_4  and  N1_5 
REMARK    4  A    between atoms: C6_7  and  C7_8 
REMARK    5  A    between atoms: C11_12  and  C12_13 
REMARK    6  A    between atoms: C12_13  and  O1_14 
REMARK    7  A    between atoms: C12_13  and  N2_16 
ROOT
HETATM    1  N1  UNL     1     -11.328  18.256   5.786  1.00  0.00    -0.345 N 
HETATM    2  C5  UNL     1     -10.556  17.839   6.902  1.00  0.00     0.140 C 
HETATM    3  C6  UNL     1      -9.506  18.762   7.389  1.00  0.00     0.072 C 
HETATM    4  C16 UNL     1      -9.655  20.166   6.950  1.00  0.00    -0.014 A 
HETATM    5  C17 UNL     1      -8.955  21.279   7.371  1.00  0.00     0.027 A 
HETATM    6  C18 UNL     1      -9.442  22.368   6.680  1.00  0.00     0.089 A 
HETATM    7  N3  UNL     1     -10.409  21.921   5.863  1.00  0.00    -0.361 N 
ATOM      8  H3  UNL     1     -10.954  22.500   5.224  1.00  0.00     0.165 HD
HETATM    9  C19 UNL     1     -10.550  20.586   6.015  1.00  0.00     0.107 A 
HETATM   10  C20 UNL     1     -11.441  19.603   5.387  1.00  0.00     0.271 C 
HETATM   11  O2  UNL     1     -12.264  20.007   4.524  1.00  0.00    -0.266 OA
ENDROOT
BRANCH   3  12
HETATM   12  C7  UNL     1      -8.121  18.309   7.016  1.00  0.00    -0.047 A 
HETATM   13  C8  UNL     1      -7.488  18.918   5.955  1.00  0.00     0.008 A 
HETATM   14  C9  UNL     1      -6.221  18.526   5.588  1.00  0.00     0.002 A 
HETATM   15  C10 UNL     1      -5.602  17.494   6.323  1.00  0.00     0.016 A 
HETATM   16  C11 UNL     1      -6.207  16.873   7.378  1.00  0.00     0.015 A 
HETATM   17  C15 UNL     1      -7.494  17.303   7.716  1.00  0.00     0.023 A 
BRANCH  16  18
HETATM   18  C12 UNL     1      -5.601  15.814   8.150  1.00  0.00     0.147 C 
BRANCH  18  19
HETATM   19  O1  UNL     1      -5.306  16.112   9.395  1.00  0.00    -0.346 OA
ATOM     20  H1  UNL     1      -4.456  16.512   9.533  1.00  0.00     0.219 HD
ENDBRANCH  18  19
BRANCH  18  21
HETATM   21  N2  UNL     1      -5.274  14.521   7.794  1.00  0.00    -0.370 N 
HETATM   22  C13 UNL     1      -4.428  13.748   8.750  1.00  0.00     0.151 C 
HETATM   23  C14 UNL     1      -5.626  13.774   6.619  1.00  0.00     0.151 C 
ENDBRANCH  18  21
ENDBRANCH  16  18
ENDBRANCH   3  12
BRANCH   1  24
HETATM   24  C4  UNL     1     -12.052  17.282   4.996  1.00  0.00     0.130 C 
BRANCH  24  25
HETATM   25  C3  UNL     1     -12.563  16.120   5.788  1.00  0.00     0.046 C 
BRANCH  25  26
HETATM   26  C2  UNL     1     -13.976  15.829   5.355  1.00  0.00    -0.035 C 
HETATM   27  C1  UNL     1     -14.819  16.813   5.099  1.00  0.00     0.007 C 
ENDBRANCH  25  26
ENDBRANCH  24  25
ENDBRANCH   1  24
TORSDOF 7
ENDMDL
