MODEL 3
REMARK VINA RESULT: -7.208096150      2.317      6.455
REMARK  7 active torsions:
REMARK  status: ('A' for Active; 'I' for Inactive)
REMARK    1  A    between atoms: C2_2  and  C3_3 
REMARK    2  A    between atoms: C3_3  and  C4_4 
REMARK    3  A    between atoms: C4_4  and  N1_5 
REMARK    4  A    between atoms: C6_7  and  C7_8 
REMARK    5  A    between atoms: C11_12  and  C12_13 
REMARK    6  A    between atoms: C12_13  and  O1_14 
REMARK    7  A    between atoms: C12_13  and  N2_16 
ROOT
HETATM    1  N1  UNL     1      -6.245  17.018   6.799  1.00  0.00    -0.345 N 
HETATM    2  C5  UNL     1      -6.842  17.594   5.647  1.00  0.00     0.140 C 
HETATM    3  C6  UNL     1      -6.682  19.053   5.453  1.00  0.00     0.072 C 
HETATM    4  C16 UNL     1      -5.583  19.670   6.225  1.00  0.00    -0.014 A 
HETATM    5  C17 UNL     1      -5.074  20.950   6.128  1.00  0.00     0.027 A 
HETATM    6  C18 UNL     1      -4.058  21.069   7.052  1.00  0.00     0.089 A 
HETATM    7  N3  UNL     1      -3.958  19.891   7.689  1.00  0.00    -0.361 N 
ATOM      8  H3  UNL     1      -3.290  19.678   8.430  1.00  0.00     0.165 HD
HETATM    9  C19 UNL     1      -4.877  19.031   7.198  1.00  0.00     0.107 A 
HETATM   10  C20 UNL     1      -5.205  17.638   7.520  1.00  0.00     0.271 C 
HETATM   11  O2  UNL     1      -4.543  17.061   8.422  1.00  0.00    -0.266 OA
ENDROOT
BRANCH   3  12
HETATM   12  C7  UNL     1      -7.941  19.817   5.756  1.00  0.00    -0.047 A 
HETATM   13  C8  UNL     1      -7.855  20.959   6.521  1.00  0.00     0.008 A 
HETATM   14  C9  UNL     1      -8.989  21.681   6.818  1.00  0.00     0.002 A 
HETATM   15  C10 UNL     1     -10.224  21.218   6.320  1.00  0.00     0.016 A 
HETATM   16  C11 UNL     1     -10.338  20.089   5.559  1.00  0.00     0.015 A 
HETATM   17  C15 UNL     1      -9.161  19.387   5.283  1.00  0.00     0.023 A 
BRANCH  16  18
HETATM   18  C12 UNL     1     -11.587  19.589   5.035  1.00  0.00     0.147 C 
BRANCH  18  19
HETATM   19  O1  UNL     1     -12.035  20.190   3.956  1.00  0.00    -0.346 OA
ATOM     20  H1  UNL     1     -12.762  20.787   4.088  1.00  0.00     0.219 HD
ENDBRANCH  18  19
BRANCH  18  21
HETATM   21  N2  UNL     1     -12.403  18.570   5.483  1.00  0.00    -0.370 N 
HETATM   22  C13 UNL     1     -13.869  18.841   5.519  1.00  0.00     0.151 C 
HETATM   23  C14 UNL     1     -12.060  17.250   5.935  1.00  0.00     0.151 C 
ENDBRANCH  18  21
ENDBRANCH  16  18
ENDBRANCH   3  12
BRANCH   1  24
HETATM   24  C4  UNL     1      -6.697  15.731   7.287  1.00  0.00     0.130 C 
BRANCH  24  25
HETATM   25  C3  UNL     1      -6.405  14.596   6.358  1.00  0.00     0.046 C 
BRANCH  25  26
HETATM   26  C2  UNL     1      -5.303  13.760   6.954  1.00  0.00    -0.035 C 
HETATM   27  C1  UNL     1      -4.038  14.011   6.671  1.00  0.00     0.007 C 
ENDBRANCH  25  26
ENDBRANCH  24  25
ENDBRANCH   1  24
TORSDOF 7
ENDMDL
