MODEL 1
REMARK VINA RESULT: -7.519788926      0.000      0.000
REMARK  7 active torsions:
REMARK  status: ('A' for Active; 'I' for Inactive)
REMARK    1  A    between atoms: C2_2  and  C3_3 
REMARK    2  A    between atoms: C3_3  and  C4_4 
REMARK    3  A    between atoms: C4_4  and  N1_5 
REMARK    4  A    between atoms: C6_7  and  C7_8 
REMARK    5  A    between atoms: C11_12  and  C12_13 
REMARK    6  A    between atoms: C12_13  and  O1_14 
REMARK    7  A    between atoms: C12_13  and  N2_16 
ROOT
HETATM    1  N1  UNL     1      -6.710  20.986   6.475  1.00  0.00    -0.345 N 
HETATM    2  C5  UNL     1      -6.318  19.914   5.630  1.00  0.00     0.140 C 
HETATM    3  C6  UNL     1      -7.228  18.750   5.538  1.00  0.00     0.072 C 
HETATM    4  C16 UNL     1      -8.615  19.003   5.982  1.00  0.00    -0.014 A 
HETATM    5  C17 UNL     1      -9.723  18.190   5.854  1.00  0.00     0.027 A 
HETATM    6  C18 UNL     1     -10.795  18.847   6.418  1.00  0.00     0.089 A 
HETATM    7  N3  UNL     1     -10.343  20.026   6.874  1.00  0.00    -0.361 N 
ATOM      8  H3  UNL     1     -10.911  20.732   7.344  1.00  0.00     0.165 HD
HETATM    9  C19 UNL     1      -9.022  20.136   6.617  1.00  0.00     0.107 A 
HETATM   10  C20 UNL     1      -8.041  21.194   6.889  1.00  0.00     0.271 C 
HETATM   11  O2  UNL     1      -8.433  22.235   7.478  1.00  0.00    -0.266 OA
ENDROOT
BRANCH   3  12
HETATM   12  C7  UNL     1      -6.714  17.556   6.294  1.00  0.00    -0.047 A 
HETATM   13  C8  UNL     1      -6.527  17.663   7.654  1.00  0.00     0.008 A 
HETATM   14  C9  UNL     1      -6.057  16.589   8.375  1.00  0.00     0.002 A 
HETATM   15  C10 UNL     1      -5.778  15.392   7.684  1.00  0.00     0.016 A 
HETATM   16  C11 UNL     1      -5.955  15.258   6.337  1.00  0.00     0.015 A 
HETATM   17  C15 UNL     1      -6.434  16.375   5.644  1.00  0.00     0.023 A 
BRANCH  16  18
HETATM   18  C12 UNL     1      -5.679  14.047   5.600  1.00  0.00     0.147 C 
BRANCH  18  19
HETATM   19  O1  UNL     1      -6.698  13.527   4.955  1.00  0.00    -0.346 OA
ATOM     20  H1  UNL     1      -6.563  12.653   4.607  1.00  0.00     0.219 HD
ENDBRANCH  18  19
BRANCH  18  21
HETATM   21  N2  UNL     1      -4.506  13.333   5.458  1.00  0.00    -0.370 N 
HETATM   22  C13 UNL     1      -3.835  13.388   4.126  1.00  0.00     0.151 C 
HETATM   23  C14 UNL     1      -3.804  12.520   6.412  1.00  0.00     0.151 C 
ENDBRANCH  18  21
ENDBRANCH  16  18
ENDBRANCH   3  12
BRANCH   1  24
HETATM   24  C4  UNL     1      -5.725  21.935   6.954  1.00  0.00     0.130 C 
BRANCH  24  25
HETATM   25  C3  UNL     1      -4.318  21.579   6.592  1.00  0.00     0.046 C 
BRANCH  25  26
HETATM   26  C2  UNL     1      -3.681  20.888   7.769  1.00  0.00    -0.035 C 
HETATM   27  C1  UNL     1      -3.323  19.619   7.693  1.00  0.00     0.007 C 
ENDBRANCH  25  26
ENDBRANCH  24  25
ENDBRANCH   1  24
TORSDOF 7
ENDMDL
