MODEL 4
REMARK VINA RESULT: -7.106140793      2.030      4.446
REMARK  7 active torsions:
REMARK  status: ('A' for Active; 'I' for Inactive)
REMARK    1  A    between atoms: C2_2  and  C3_3 
REMARK    2  A    between atoms: C3_3  and  C4_4 
REMARK    3  A    between atoms: C4_4  and  N1_5 
REMARK    4  A    between atoms: C6_7  and  C7_8 
REMARK    5  A    between atoms: C11_12  and  C12_13 
REMARK    6  A    between atoms: C12_13  and  O1_14 
REMARK    7  A    between atoms: C12_13  and  N2_16 
ROOT
HETATM    1  N1  UNL     1      -7.440  18.609   6.566  1.00  0.00    -0.345 N 
HETATM    2  C5  UNL     1      -7.202  17.581   7.516  1.00  0.00     0.140 C 
HETATM    3  C6  UNL     1      -5.799  17.160   7.728  1.00  0.00     0.072 C 
HETATM    4  C16 UNL     1      -4.779  18.124   7.262  1.00  0.00    -0.014 A 
HETATM    5  C17 UNL     1      -3.415  18.105   7.474  1.00  0.00     0.027 A 
HETATM    6  C18 UNL     1      -2.877  19.208   6.847  1.00  0.00     0.089 A 
HETATM    7  N3  UNL     1      -3.892  19.874   6.272  1.00  0.00    -0.361 N 
ATOM      8  H3  UNL     1      -3.800  20.735   5.733  1.00  0.00     0.165 HD
HETATM    9  C19 UNL     1      -5.053  19.228   6.515  1.00  0.00     0.107 A 
HETATM   10  C20 UNL     1      -6.443  19.506   6.134  1.00  0.00     0.271 C 
HETATM   11  O2  UNL     1      -6.680  20.531   5.443  1.00  0.00    -0.266 OA
ENDROOT
BRANCH   3  12
HETATM   12  C7  UNL     1      -5.494  15.829   7.098  1.00  0.00    -0.047 A 
HETATM   13  C8  UNL     1      -5.795  15.642   5.767  1.00  0.00     0.008 A 
HETATM   14  C9  UNL     1      -5.530  14.435   5.160  1.00  0.00     0.002 A 
HETATM   15  C10 UNL     1      -4.949  13.412   5.937  1.00  0.00     0.016 A 
HETATM   16  C11 UNL     1      -4.641  13.570   7.257  1.00  0.00     0.015 A 
HETATM   17  C15 UNL     1      -4.927  14.812   7.832  1.00  0.00     0.023 A 
BRANCH  16  18
HETATM   18  C12 UNL     1      -4.046  12.542   8.079  1.00  0.00     0.147 C 
BRANCH  18  19
HETATM   19  O1  UNL     1      -4.542  12.422   9.290  1.00  0.00    -0.346 OA
ATOM     20  H1  UNL     1      -3.922  12.527  10.002  1.00  0.00     0.219 HD
ENDBRANCH  18  19
BRANCH  18  21
HETATM   21  N2  UNL     1      -3.028  11.651   7.804  1.00  0.00    -0.370 N 
HETATM   22  C13 UNL     1      -1.637  12.189   7.807  1.00  0.00     0.151 C 
HETATM   23  C14 UNL     1      -3.092  10.247   7.506  1.00  0.00     0.151 C 
ENDBRANCH  18  21
ENDBRANCH  16  18
ENDBRANCH   3  12
BRANCH   1  24
HETATM   24  C4  UNL     1      -8.760  18.779   5.991  1.00  0.00     0.130 C 
BRANCH  24  25
HETATM   25  C3  UNL     1      -9.830  19.042   7.003  1.00  0.00     0.046 C 
BRANCH  25  26
HETATM   26  C2  UNL     1      -9.937  20.530   7.211  1.00  0.00    -0.035 C 
HETATM   27  C1  UNL     1     -10.078  21.347   6.183  1.00  0.00     0.007 C 
ENDBRANCH  25  26
ENDBRANCH  24  25
ENDBRANCH   1  24
TORSDOF 7
ENDMDL
