MODEL 9
REMARK VINA RESULT: -8.073655484      1.138      1.291
REMARK  4 active torsions:
REMARK  status: ('A' for Active; 'I' for Inactive)
REMARK    1  A    between atoms: N1_2  and  C3_4 
REMARK    2  A    between atoms: C3_4  and  O1_5 
REMARK    3  A    between atoms: C3_4  and  C4_7 
REMARK    4  A    between atoms: C8_11  and  C9_12 
ROOT
HETATM    1  C4  UNL     1       6.287  -8.801  -1.021  1.00  0.00     0.015 A 
HETATM    2  C5  UNL     1       7.381  -8.426  -1.741  1.00  0.00     0.016 A 
HETATM    3  C6  UNL     1       7.291  -8.114  -3.098  1.00  0.00     0.002 A 
HETATM    4  C7  UNL     1       6.091  -8.180  -3.731  1.00  0.00     0.012 A 
HETATM    5  C8  UNL     1       4.965  -8.553  -3.046  1.00  0.00    -0.023 A 
HETATM    6  C17 UNL     1       5.060  -8.853  -1.733  1.00  0.00     0.028 A 
ENDROOT
BRANCH   5   7
HETATM    7  C9  UNL     1       3.688  -8.611  -3.792  1.00  0.00     0.003 A 
HETATM    8  C10 UNL     1       2.496  -8.888  -3.161  1.00  0.00     0.107 A 
HETATM    9  N2  UNL     1       1.314  -8.946  -3.783  1.00  0.00    -0.326 N 
HETATM   10  C11 UNL     1       0.078  -9.244  -3.077  1.00  0.00     0.159 C 
HETATM   11  C12 UNL     1       1.266  -8.721  -5.115  1.00  0.00     0.274 A 
HETATM   12  O2  UNL     1       0.163  -8.772  -5.720  1.00  0.00    -0.265 OA
HETATM   13  C13 UNL     1       2.432  -8.434  -5.824  1.00  0.00     0.112 A 
HETATM   14  N3  UNL     1       2.640  -8.182  -7.121  1.00  0.00    -0.361 N 
HETATM   15  C16 UNL     1       3.644  -8.380  -5.150  1.00  0.00     0.010 A 
HETATM   16  C14 UNL     1       3.966  -7.960  -7.330  1.00  0.00     0.089 A 
ATOM     17  H3  UNL     1       1.917  -8.159  -7.840  1.00  0.00     0.165 HD
HETATM   18  C15 UNL     1       4.594  -8.085  -6.093  1.00  0.00     0.032 A 
ENDBRANCH   5   7
BRANCH   1  19
HETATM   19  C3  UNL     1       6.319  -9.130   0.362  1.00  0.00     0.147 C 
BRANCH  19  20
HETATM   20  N1  UNL     1       7.326  -9.010   1.303  1.00  0.00    -0.370 N 
HETATM   21  C1  UNL     1       7.477  -7.667   1.998  1.00  0.00     0.151 C 
HETATM   22  C2  UNL     1       8.285  -9.968   1.748  1.00  0.00     0.151 C 
ENDBRANCH  19  20
BRANCH  19  23
HETATM   23  O1  UNL     1       5.197  -9.636   0.820  1.00  0.00    -0.346 OA
ATOM     24  H1  UNL     1       4.673 -10.091   0.172  1.00  0.00     0.219 HD
ENDBRANCH  19  23
ENDBRANCH   1  19
TORSDOF 4
ENDMDL
