MODEL 3
REMARK VINA RESULT: -8.478952462      1.931      6.727
REMARK  4 active torsions:
REMARK  status: ('A' for Active; 'I' for Inactive)
REMARK    1  A    between atoms: N1_2  and  C3_4 
REMARK    2  A    between atoms: C3_4  and  O1_5 
REMARK    3  A    between atoms: C3_4  and  C4_7 
REMARK    4  A    between atoms: C8_11  and  C9_12 
ROOT
HETATM    1  C4  UNL     1       1.768  -9.249  -5.340  1.00  0.00     0.015 A 
HETATM    2  C5  UNL     1       1.733  -8.741  -6.603  1.00  0.00     0.016 A 
HETATM    3  C6  UNL     1       2.854  -8.144  -7.181  1.00  0.00     0.002 A 
HETATM    4  C7  UNL     1       4.015  -8.060  -6.481  1.00  0.00     0.012 A 
HETATM    5  C8  UNL     1       4.095  -8.558  -5.207  1.00  0.00    -0.023 A 
HETATM    6  C17 UNL     1       3.006  -9.135  -4.655  1.00  0.00     0.028 A 
ENDROOT
BRANCH   5   7
HETATM    7  C9  UNL     1       5.385  -8.434  -4.495  1.00  0.00     0.003 A 
HETATM    8  C10 UNL     1       6.587  -8.483  -5.164  1.00  0.00     0.107 A 
HETATM    9  N2  UNL     1       7.781  -8.370  -4.572  1.00  0.00    -0.326 N 
HETATM   10  C11 UNL     1       9.028  -8.430  -5.319  1.00  0.00     0.159 C 
HETATM   11  C12 UNL     1       7.831  -8.195  -3.232  1.00  0.00     0.274 A 
HETATM   12  O2  UNL     1       8.945  -8.087  -2.656  1.00  0.00    -0.265 OA
HETATM   13  C13 UNL     1       6.656  -8.135  -2.485  1.00  0.00     0.112 A 
HETATM   14  N3  UNL     1       6.447  -7.974  -1.174  1.00  0.00    -0.361 N 
HETATM   15  C16 UNL     1       5.431  -8.255  -3.129  1.00  0.00     0.010 A 
HETATM   16  C14 UNL     1       5.109  -7.983  -0.925  1.00  0.00     0.089 A 
ATOM     17  H3  UNL     1       7.177  -7.861  -0.471  1.00  0.00     0.165 HD
HETATM   18  C15 UNL     1       4.474  -8.160  -2.152  1.00  0.00     0.032 A 
ENDBRANCH   5   7
BRANCH   1  19
HETATM   19  C3  UNL     1       0.658  -9.868  -4.700  1.00  0.00     0.147 C 
BRANCH  19  20
HETATM   20  N1  UNL     1      -0.138  -9.446  -3.650  1.00  0.00    -0.370 N 
HETATM   21  C1  UNL     1      -1.637  -9.386  -3.891  1.00  0.00     0.151 C 
HETATM   22  C2  UNL     1       0.222  -9.042  -2.330  1.00  0.00     0.151 C 
ENDBRANCH  19  20
BRANCH  19  23
HETATM   23  O1  UNL     1       0.341 -11.043  -5.193  1.00  0.00    -0.346 OA
ATOM     24  H1  UNL     1       0.706 -11.783  -4.723  1.00  0.00     0.219 HD
ENDBRANCH  19  23
ENDBRANCH   1  19
TORSDOF 4
ENDMDL
