MODEL 1
REMARK VINA RESULT: -8.660857589      0.000      0.000
REMARK  4 active torsions:
REMARK  status: ('A' for Active; 'I' for Inactive)
REMARK    1  A    between atoms: N1_2  and  C3_4 
REMARK    2  A    between atoms: C3_4  and  O1_5 
REMARK    3  A    between atoms: C3_4  and  C4_7 
REMARK    4  A    between atoms: C8_11  and  C9_12 
ROOT
HETATM    1  C4  UNL     1       6.262  -7.819  -1.485  1.00  0.00     0.015 A 
HETATM    2  C5  UNL     1       7.279  -7.993  -2.375  1.00  0.00     0.016 A 
HETATM    3  C6  UNL     1       7.035  -8.332  -3.706  1.00  0.00     0.002 A 
HETATM    4  C7  UNL     1       5.758  -8.497  -4.142  1.00  0.00     0.012 A 
HETATM    5  C8  UNL     1       4.705  -8.333  -3.281  1.00  0.00    -0.023 A 
HETATM    6  C17 UNL     1       4.950  -8.003  -1.994  1.00  0.00     0.028 A 
ENDROOT
BRANCH   5   7
HETATM    7  C9  UNL     1       3.339  -8.530  -3.813  1.00  0.00     0.003 A 
HETATM    8  C10 UNL     1       2.277  -8.815  -2.986  1.00  0.00     0.107 A 
HETATM    9  N2  UNL     1       1.021  -8.996  -3.411  1.00  0.00    -0.326 N 
HETATM   10  C11 UNL     1      -0.072  -9.297  -2.500  1.00  0.00     0.159 C 
HETATM   11  C12 UNL     1       0.760  -8.896  -4.733  1.00  0.00     0.274 A 
HETATM   12  O2  UNL     1      -0.414  -9.063  -5.154  1.00  0.00    -0.265 OA
HETATM   13  C13 UNL     1       1.785  -8.610  -5.634  1.00  0.00     0.112 A 
HETATM   14  N3  UNL     1       1.779  -8.465  -6.964  1.00  0.00    -0.361 N 
HETATM   15  C16 UNL     1       3.077  -8.427  -5.162  1.00  0.00     0.010 A 
HETATM   16  C14 UNL     1       3.041  -8.189  -7.393  1.00  0.00     0.089 A 
ATOM     17  H3  UNL     1       0.958  -8.548  -7.563  1.00  0.00     0.165 HD
HETATM   18  C15 UNL     1       3.853  -8.166  -6.262  1.00  0.00     0.032 A 
ENDBRANCH   5   7
BRANCH   1  19
HETATM   19  C3  UNL     1       6.450  -7.473  -0.119  1.00  0.00     0.147 C 
BRANCH  19  20
HETATM   20  N1  UNL     1       6.750  -8.253   0.984  1.00  0.00    -0.370 N 
HETATM   21  C1  UNL     1       5.917  -9.506   1.201  1.00  0.00     0.151 C 
HETATM   22  C2  UNL     1       7.744  -8.075   1.992  1.00  0.00     0.151 C 
ENDBRANCH  19  20
BRANCH  19  23
HETATM   23  O1  UNL     1       6.313  -6.192   0.135  1.00  0.00    -0.346 OA
ATOM     24  H1  UNL     1       5.975  -5.678  -0.588  1.00  0.00     0.219 HD
ENDBRANCH  19  23
ENDBRANCH   1  19
TORSDOF 4
ENDMDL
