MODEL 4
REMARK VINA RESULT: -8.307372711      1.676      6.351
REMARK  4 active torsions:
REMARK  status: ('A' for Active; 'I' for Inactive)
REMARK    1  A    between atoms: N1_2  and  C3_4 
REMARK    2  A    between atoms: C3_4  and  O1_5 
REMARK    3  A    between atoms: C3_4  and  C4_7 
REMARK    4  A    between atoms: C8_11  and  C9_12 
ROOT
HETATM    1  C4  UNL     1       1.688  -9.281  -4.952  1.00  0.00     0.015 A 
HETATM    2  C5  UNL     1       1.913  -8.870  -6.231  1.00  0.00     0.016 A 
HETATM    3  C6  UNL     1       3.130  -8.306  -6.614  1.00  0.00     0.002 A 
HETATM    4  C7  UNL     1       4.125  -8.156  -5.701  1.00  0.00     0.012 A 
HETATM    5  C8  UNL     1       3.942  -8.555  -4.404  1.00  0.00    -0.023 A 
HETATM    6  C17 UNL     1       2.761  -9.102  -4.041  1.00  0.00     0.028 A 
ENDROOT
BRANCH   5   7
HETATM    7  C9  UNL     1       5.061  -8.362  -3.455  1.00  0.00     0.003 A 
HETATM    8  C10 UNL     1       4.849  -8.259  -2.100  1.00  0.00     0.107 A 
HETATM    9  N2  UNL     1       5.822  -8.090  -1.197  1.00  0.00    -0.326 N 
HETATM   10  C11 UNL     1       5.550  -7.984   0.228  1.00  0.00     0.159 C 
HETATM   11  C12 UNL     1       7.101  -8.015  -1.625  1.00  0.00     0.274 A 
HETATM   12  O2  UNL     1       8.032  -7.856  -0.793  1.00  0.00    -0.265 OA
HETATM   13  C13 UNL     1       7.397  -8.112  -2.984  1.00  0.00     0.112 A 
HETATM   14  N3  UNL     1       8.560  -8.066  -3.643  1.00  0.00    -0.361 N 
HETATM   15  C16 UNL     1       6.365  -8.287  -3.896  1.00  0.00     0.010 A 
HETATM   16  C14 UNL     1       8.329  -8.206  -4.977  1.00  0.00     0.089 A 
ATOM     17  H3  UNL     1       9.477  -7.945  -3.212  1.00  0.00     0.165 HD
HETATM   18  C15 UNL     1       6.953  -8.344  -5.133  1.00  0.00     0.032 A 
ENDBRANCH   5   7
BRANCH   1  19
HETATM   19  C3  UNL     1       0.469  -9.863  -4.506  1.00  0.00     0.147 C 
BRANCH  19  20
HETATM   20  N1  UNL     1      -0.422  -9.467  -3.524  1.00  0.00    -0.370 N 
HETATM   21  C1  UNL     1      -1.891  -9.384  -3.906  1.00  0.00     0.151 C 
HETATM   22  C2  UNL     1      -0.189  -9.108  -2.163  1.00  0.00     0.151 C 
ENDBRANCH  19  20
BRANCH  19  23
HETATM   23  O1  UNL     1       0.138 -10.967  -5.134  1.00  0.00    -0.346 OA
ATOM     24  H1  UNL     1       0.083 -10.885  -6.079  1.00  0.00     0.219 HD
ENDBRANCH  19  23
ENDBRANCH   1  19
TORSDOF 4
ENDMDL
