MODEL 5
REMARK VINA RESULT: -8.237622755      2.750      5.710
REMARK  4 active torsions:
REMARK  status: ('A' for Active; 'I' for Inactive)
REMARK    1  A    between atoms: N1_2  and  C3_4 
REMARK    2  A    between atoms: C3_4  and  O1_5 
REMARK    3  A    between atoms: C3_4  and  C4_7 
REMARK    4  A    between atoms: C8_11  and  C9_12 
ROOT
HETATM    1  C4  UNL     1      -0.843  -9.193  -2.153  1.00  0.00     0.015 A 
HETATM    2  C5  UNL     1      -1.685  -9.486  -3.182  1.00  0.00     0.016 A 
HETATM    3  C6  UNL     1      -1.225  -9.591  -4.495  1.00  0.00     0.002 A 
HETATM    4  C7  UNL     1       0.092  -9.399  -4.771  1.00  0.00     0.012 A 
HETATM    5  C8  UNL     1       0.974  -9.101  -3.766  1.00  0.00    -0.023 A 
HETATM    6  C17 UNL     1       0.521  -9.002  -2.497  1.00  0.00     0.028 A 
ENDROOT
BRANCH   5   7
HETATM    7  C9  UNL     1       2.394  -8.898  -4.129  1.00  0.00     0.003 A 
HETATM    8  C10 UNL     1       3.400  -9.006  -3.196  1.00  0.00     0.107 A 
HETATM    9  N2  UNL     1       4.698  -8.840  -3.469  1.00  0.00    -0.326 N 
HETATM   10  C11 UNL     1       5.729  -8.963  -2.449  1.00  0.00     0.159 C 
HETATM   11  C12 UNL     1       5.066  -8.547  -4.736  1.00  0.00     0.274 A 
HETATM   12  O2  UNL     1       6.283  -8.386  -5.014  1.00  0.00    -0.265 OA
HETATM   13  C13 UNL     1       4.104  -8.421  -5.737  1.00  0.00     0.112 A 
HETATM   14  N3  UNL     1       4.215  -8.141  -7.040  1.00  0.00    -0.361 N 
HETATM   15  C16 UNL     1       2.764  -8.600  -5.423  1.00  0.00     0.010 A 
HETATM   16  C14 UNL     1       2.976  -8.128  -7.605  1.00  0.00     0.089 A 
ATOM     17  H3  UNL     1       5.089  -7.965  -7.533  1.00  0.00     0.165 HD
HETATM   18  C15 UNL     1       2.069  -8.416  -6.589  1.00  0.00     0.032 A 
ENDBRANCH   5   7
BRANCH   1  19
HETATM   19  C3  UNL     1      -1.254  -9.074  -0.796  1.00  0.00     0.147 C 
BRANCH  19  20
HETATM   20  N1  UNL     1      -0.656  -8.451   0.285  1.00  0.00    -0.370 N 
HETATM   21  C1  UNL     1       0.302  -9.278   1.126  1.00  0.00     0.151 C 
HETATM   22  C2  UNL     1      -0.790  -7.114   0.763  1.00  0.00     0.151 C 
ENDBRANCH  19  20
BRANCH  19  23
HETATM   23  O1  UNL     1      -2.398  -9.660  -0.528  1.00  0.00    -0.346 OA
ATOM     24  H1  UNL     1      -2.390 -10.606  -0.617  1.00  0.00     0.219 HD
ENDBRANCH  19  23
ENDBRANCH   1  19
TORSDOF 4
ENDMDL
