MODEL 8
REMARK VINA RESULT: -8.082717231      1.177      1.394
REMARK  4 active torsions:
REMARK  status: ('A' for Active; 'I' for Inactive)
REMARK    1  A    between atoms: N1_2  and  C3_4 
REMARK    2  A    between atoms: C3_4  and  O1_5 
REMARK    3  A    between atoms: C3_4  and  C4_7 
REMARK    4  A    between atoms: C8_11  and  C9_12 
ROOT
HETATM    1  C4  UNL     1       7.039  -8.353  -2.277  1.00  0.00     0.015 A 
HETATM    2  C5  UNL     1       7.920  -8.145  -3.296  1.00  0.00     0.016 A 
HETATM    3  C6  UNL     1       7.500  -8.090  -4.625  1.00  0.00     0.002 A 
HETATM    4  C7  UNL     1       6.184  -8.247  -4.928  1.00  0.00     0.012 A 
HETATM    5  C8  UNL     1       5.264  -8.459  -3.936  1.00  0.00    -0.023 A 
HETATM    6  C17 UNL     1       5.679  -8.509  -2.651  1.00  0.00     0.028 A 
ENDROOT
BRANCH   5   7
HETATM    7  C9  UNL     1       3.848  -8.626  -4.328  1.00  0.00     0.003 A 
HETATM    8  C10 UNL     1       2.883  -8.983  -3.414  1.00  0.00     0.107 A 
HETATM    9  N2  UNL     1       1.588  -9.142  -3.712  1.00  0.00    -0.326 N 
HETATM   10  C11 UNL     1       0.602  -9.521  -2.712  1.00  0.00     0.159 C 
HETATM   11  C12 UNL     1       1.183  -8.943  -4.986  1.00  0.00     0.274 A 
HETATM   12  O2  UNL     1      -0.030  -9.087  -5.287  1.00  0.00    -0.265 OA
HETATM   13  C13 UNL     1       2.103  -8.580  -5.969  1.00  0.00     0.112 A 
HETATM   14  N3  UNL     1       1.951  -8.333  -7.275  1.00  0.00    -0.361 N 
HETATM   15  C16 UNL     1       3.439  -8.422  -5.629  1.00  0.00     0.010 A 
HETATM   16  C14 UNL     1       3.158  -8.014  -7.817  1.00  0.00     0.089 A 
ATOM     17  H3  UNL     1       1.069  -8.377  -7.785  1.00  0.00     0.165 HD
HETATM   18  C15 UNL     1       4.089  -8.071  -6.783  1.00  0.00     0.032 A 
ENDBRANCH   5   7
BRANCH   1  19
HETATM   19  C3  UNL     1       7.409  -8.417  -0.906  1.00  0.00     0.147 C 
BRANCH  19  20
HETATM   20  N1  UNL     1       6.790  -7.920   0.228  1.00  0.00    -0.370 N 
HETATM   21  C1  UNL     1       7.087  -6.480   0.612  1.00  0.00     0.151 C 
HETATM   22  C2  UNL     1       5.887  -8.553   1.133  1.00  0.00     0.151 C 
ENDBRANCH  19  20
BRANCH  19  23
HETATM   23  O1  UNL     1       8.534  -9.057  -0.681  1.00  0.00    -0.346 OA
ATOM     24  H1  UNL     1       8.754  -9.713  -1.333  1.00  0.00     0.219 HD
ENDBRANCH  19  23
ENDBRANCH   1  19
TORSDOF 4
ENDMDL
