MODEL 1
REMARK VINA RESULT: -10.045644941      0.000      0.000
REMARK  10 active torsions:
REMARK  status: ('A' for Active; 'I' for Inactive)
REMARK    1  A    between atoms: C1_2  and  C2_3 
REMARK       I    between atoms: C1_2  and  N2_15 
REMARK    2  A    between atoms: C2_3  and  C3_4 
REMARK    3  A    between atoms: C3_4  and  C4_5 
REMARK    4  A    between atoms: N2_15  and  S1_17 
REMARK    5  A    between atoms: S1_17  and  O4_20 
REMARK    6  A    between atoms: O4_20  and  C12_21 
REMARK    7  A    between atoms: C12_21  and  C13_22 
REMARK    8  A    between atoms: C14_24  and  N3_25 
REMARK    9  A    between atoms: C22_40  and  O6_41 
REMARK   10  A    between atoms: C23_43  and  O7_44 
ROOT
HETATM    1  C13 UNL     1     -29.431   4.520 -27.598  1.00  0.00     0.180 C 
HETATM    2  O5  UNL     1     -29.730   4.027 -28.877  1.00  0.00    -0.353 OA
HETATM    3  C14 UNL     1     -29.112   5.028 -29.641  1.00  0.00     0.262 C 
HETATM    4  C22 UNL     1     -29.742   6.280 -29.114  1.00  0.00     0.198 C 
HETATM    5  C23 UNL     1     -29.889   5.952 -27.614  1.00  0.00     0.182 C 
ENDROOT
BRANCH   1   6
HETATM    6  C12 UNL     1     -30.067   3.750 -26.490  1.00  0.00     0.226 C 
BRANCH   6   7
HETATM    7  O4  UNL     1     -29.913   4.526 -25.319  1.00  0.00    -0.257 OA
BRANCH   7   8
HETATM    8  S1  UNL     1     -31.125   4.315 -24.220  1.00  0.00     0.364 S 
HETATM    9  O2  UNL     1     -30.528   4.140 -22.835  1.00  0.00    -0.175 OA
HETATM   10  O3  UNL     1     -31.912   3.056 -24.503  1.00  0.00    -0.175 OA
BRANCH   8  11
HETATM   11  N2  UNL     1     -32.149   5.688 -24.155  1.00  0.00    -0.231 N 
HETATM   12  C1  UNL     1     -31.538   7.015 -24.237  1.00  0.00     0.232 C 
HETATM   13  O1  UNL     1     -30.295   7.079 -24.340  1.00  0.00    -0.273 OA
ATOM     14  H2  UNL     1     -33.159   5.582 -24.062  1.00  0.00     0.183 HD
BRANCH  12  15
HETATM   15  C2  UNL     1     -32.454   8.134 -24.195  1.00  0.00     0.108 C 
BRANCH  15  16
HETATM   16  C3  UNL     1     -32.902   8.596 -22.864  1.00  0.00     0.050 C 
BRANCH  16  17
HETATM   17  C4  UNL     1     -34.320   8.930 -22.740  1.00  0.00    -0.030 A 
HETATM   18  C5  UNL     1     -35.220   8.716 -23.791  1.00  0.00     0.096 A 
HETATM   19  N1  UNL     1     -36.414   9.189 -23.452  1.00  0.00    -0.365 N 
HETATM   20  C6  UNL     1     -36.345   9.705 -22.217  1.00  0.00     0.042 A 
ATOM     21  H1  UNL     1     -37.250   9.163 -24.036  1.00  0.00     0.165 HD
HETATM   22  C7  UNL     1     -37.273  10.295 -21.376  1.00  0.00     0.030 A 
HETATM   23  C11 UNL     1     -35.038   9.551 -21.754  1.00  0.00    -0.002 A 
HETATM   24  C8  UNL     1     -36.939  10.722 -20.116  1.00  0.00     0.002 A 
HETATM   25  C9  UNL     1     -35.640  10.554 -19.681  1.00  0.00     0.001 A 
HETATM   26  C10 UNL     1     -34.700   9.979 -20.479  1.00  0.00     0.014 A 
ENDBRANCH  16  17
ENDBRANCH  15  16
ENDBRANCH  12  15
ENDBRANCH   8  11
ENDBRANCH   7   8
ENDBRANCH   6   7
ENDBRANCH   1   6
BRANCH   5  27
HETATM   27  O7  UNL     1     -28.948   6.688 -26.884  1.00  0.00    -0.390 OA
ATOM     28  H7  UNL     1     -29.405   7.058 -26.137  1.00  0.00     0.210 HD
ENDBRANCH   5  27
BRANCH   3  29
HETATM   29  N3  UNL     1     -29.189   4.826 -31.050  1.00  0.00    -0.297 N 
HETATM   30  C15 UNL     1     -30.287   4.709 -31.803  1.00  0.00     0.188 A 
HETATM   31  N4  UNL     1     -29.918   4.517 -33.107  1.00  0.00    -0.346 N 
HETATM   32  C16 UNL     1     -28.570   4.511 -33.190  1.00  0.00     0.123 A 
ATOM     33  H4  UNL     1     -30.559   4.399 -33.892  1.00  0.00     0.167 HD
HETATM   34  C17 UNL     1     -28.133   4.705 -31.897  1.00  0.00     0.142 A 
HETATM   35  C21 UNL     1     -27.694   4.356 -34.244  1.00  0.00     0.143 A 
HETATM   36  N5  UNL     1     -26.817   4.742 -31.680  1.00  0.00    -0.336 N 
HETATM   37  C18 UNL     1     -25.948   4.593 -32.693  1.00  0.00     0.191 A 
ATOM     38  H5  UNL     1     -26.467   4.885 -30.732  1.00  0.00     0.168 HD
HETATM   39  N6  UNL     1     -26.381   4.401 -33.978  1.00  0.00    -0.301 N 
HETATM   40  C19 UNL     1     -25.666   4.233 -35.097  1.00  0.00     0.116 A 
HETATM   41  C20 UNL     1     -26.588   4.072 -36.155  1.00  0.00     0.107 A 
HETATM   42  N7  UNL     1     -27.811   4.158 -35.558  1.00  0.00    -0.349 N 
ATOM     43  H7  UNL     1     -28.700   4.081 -36.052  1.00  0.00     0.167 HD
ENDBRANCH   3  29
BRANCH   4  44
HETATM   44  O6  UNL     1     -28.876   7.379 -29.265  1.00  0.00    -0.388 OA
ATOM     45  H6  UNL     1     -29.295   8.074 -29.758  1.00  0.00     0.210 HD
ENDBRANCH   4  44
TORSDOF 10
ENDMDL
