MODEL 6
REMARK VINA RESULT: -9.754490167      2.230     11.978
REMARK  10 active torsions:
REMARK  status: ('A' for Active; 'I' for Inactive)
REMARK    1  A    between atoms: C1_2  and  C2_3 
REMARK       I    between atoms: C1_2  and  N2_15 
REMARK    2  A    between atoms: C2_3  and  C3_4 
REMARK    3  A    between atoms: C3_4  and  C4_5 
REMARK    4  A    between atoms: N2_15  and  S1_17 
REMARK    5  A    between atoms: S1_17  and  O4_20 
REMARK    6  A    between atoms: O4_20  and  C12_21 
REMARK    7  A    between atoms: C12_21  and  C13_22 
REMARK    8  A    between atoms: C14_24  and  N3_25 
REMARK    9  A    between atoms: C22_40  and  O6_41 
REMARK   10  A    between atoms: C23_43  and  O7_44 
ROOT
HETATM    1  C13 UNL     1     -32.674   7.748 -24.104  1.00  0.00     0.180 C 
HETATM    2  O5  UNL     1     -33.025   8.788 -23.229  1.00  0.00    -0.353 OA
HETATM    3  C14 UNL     1     -33.790   9.561 -24.115  1.00  0.00     0.262 C 
HETATM    4  C22 UNL     1     -32.847   9.781 -25.258  1.00  0.00     0.198 C 
HETATM    5  C23 UNL     1     -32.100   8.432 -25.314  1.00  0.00     0.182 C 
ENDROOT
BRANCH   1   6
HETATM    6  C12 UNL     1     -31.715   6.766 -23.520  1.00  0.00     0.226 C 
BRANCH   6   7
HETATM    7  O4  UNL     1     -32.231   5.481 -23.804  1.00  0.00    -0.257 OA
BRANCH   7   8
HETATM    8  S1  UNL     1     -31.090   4.408 -24.323  1.00  0.00     0.364 S 
HETATM    9  O2  UNL     1     -31.772   3.215 -24.969  1.00  0.00    -0.175 OA
HETATM   10  O3  UNL     1     -30.284   3.859 -23.167  1.00  0.00    -0.175 OA
BRANCH   8  11
HETATM   11  N2  UNL     1     -30.074   5.110 -25.511  1.00  0.00    -0.231 N 
HETATM   12  C1  UNL     1     -29.578   4.258 -26.592  1.00  0.00     0.232 C 
HETATM   13  O1  UNL     1     -29.915   3.055 -26.587  1.00  0.00    -0.273 OA
ATOM     14  H2  UNL     1     -29.821   6.097 -25.465  1.00  0.00     0.183 HD
BRANCH  12  15
HETATM   15  C2  UNL     1     -28.740   4.910 -27.575  1.00  0.00     0.108 C 
BRANCH  15  16
HETATM   16  C3  UNL     1     -29.418   5.661 -28.654  1.00  0.00     0.050 C 
BRANCH  16  17
HETATM   17  C4  UNL     1     -29.319   5.093 -29.997  1.00  0.00    -0.030 A 
HETATM   18  C5  UNL     1     -30.414   4.483 -30.620  1.00  0.00     0.096 A 
HETATM   19  N1  UNL     1     -30.030   3.973 -31.785  1.00  0.00    -0.365 N 
HETATM   20  C6  UNL     1     -28.726   4.222 -31.963  1.00  0.00     0.042 A 
ATOM     21  H1  UNL     1     -30.632   3.472 -32.439  1.00  0.00     0.165 HD
HETATM   22  C7  UNL     1     -27.833   3.948 -32.985  1.00  0.00     0.030 A 
HETATM   23  C11 UNL     1     -28.262   4.925 -30.851  1.00  0.00    -0.002 A 
HETATM   24  C8  UNL     1     -26.523   4.352 -32.928  1.00  0.00     0.002 A 
HETATM   25  C9  UNL     1     -26.091   5.049 -31.818  1.00  0.00     0.001 A 
HETATM   26  C10 UNL     1     -26.939   5.336 -30.794  1.00  0.00     0.014 A 
ENDBRANCH  16  17
ENDBRANCH  15  16
ENDBRANCH  12  15
ENDBRANCH   8  11
ENDBRANCH   7   8
ENDBRANCH   6   7
ENDBRANCH   1   6
BRANCH   5  27
HETATM   27  O7  UNL     1     -32.532   7.709 -26.433  1.00  0.00    -0.390 OA
ATOM     28  H7  UNL     1     -33.445   7.491 -26.284  1.00  0.00     0.210 HD
ENDBRANCH   5  27
BRANCH   3  29
HETATM   29  N3  UNL     1     -34.361  10.731 -23.533  1.00  0.00    -0.297 N 
HETATM   30  C15 UNL     1     -34.358  11.975 -24.021  1.00  0.00     0.188 A 
HETATM   31  N4  UNL     1     -35.009  12.801 -23.144  1.00  0.00    -0.346 N 
HETATM   32  C16 UNL     1     -35.431  12.078 -22.084  1.00  0.00     0.123 A 
ATOM     33  H4  UNL     1     -35.152  13.803 -23.271  1.00  0.00     0.167 HD
HETATM   34  C17 UNL     1     -35.018  10.790 -22.344  1.00  0.00     0.142 A 
HETATM   35  C21 UNL     1     -36.121  12.409 -20.936  1.00  0.00     0.143 A 
HETATM   36  N5  UNL     1     -35.305   9.846 -21.446  1.00  0.00    -0.336 N 
HETATM   37  C18 UNL     1     -35.977  10.149 -20.322  1.00  0.00     0.191 A 
ATOM     38  H5  UNL     1     -35.012   8.884 -21.614  1.00  0.00     0.168 HD
HETATM   39  N6  UNL     1     -36.388  11.429 -20.063  1.00  0.00    -0.301 N 
HETATM   40  C19 UNL     1     -37.056  11.906 -19.005  1.00  0.00     0.116 A 
HETATM   41  C20 UNL     1     -37.232  13.291 -19.220  1.00  0.00     0.107 A 
HETATM   42  N7  UNL     1     -36.633  13.529 -20.423  1.00  0.00    -0.349 N 
ATOM     43  H7  UNL     1     -36.583  14.443 -20.871  1.00  0.00     0.167 HD
ENDBRANCH   3  29
BRANCH   4  44
HETATM   44  O6  UNL     1     -33.553   9.969 -26.460  1.00  0.00    -0.388 OA
ATOM     45  H6  UNL     1     -34.206  10.653 -26.366  1.00  0.00     0.210 HD
ENDBRANCH   4  44
TORSDOF 10
ENDMDL
