MODEL 5
REMARK VINA RESULT: -9.759729567      2.135     11.783
REMARK  10 active torsions:
REMARK  status: ('A' for Active; 'I' for Inactive)
REMARK    1  A    between atoms: C1_2  and  C2_3 
REMARK       I    between atoms: C1_2  and  N2_15 
REMARK    2  A    between atoms: C2_3  and  C3_4 
REMARK    3  A    between atoms: C3_4  and  C4_5 
REMARK    4  A    between atoms: N2_15  and  S1_17 
REMARK    5  A    between atoms: S1_17  and  O4_20 
REMARK    6  A    between atoms: O4_20  and  C12_21 
REMARK    7  A    between atoms: C12_21  and  C13_22 
REMARK    8  A    between atoms: C14_24  and  N3_25 
REMARK    9  A    between atoms: C22_40  and  O6_41 
REMARK   10  A    between atoms: C23_43  and  O7_44 
ROOT
HETATM    1  C13 UNL     1     -30.058   6.849 -25.034  1.00  0.00     0.180 C 
HETATM    2  O5  UNL     1     -30.958   7.832 -24.591  1.00  0.00    -0.353 OA
HETATM    3  C14 UNL     1     -31.417   7.191 -23.430  1.00  0.00     0.262 C 
HETATM    4  C22 UNL     1     -31.891   5.869 -23.949  1.00  0.00     0.198 C 
HETATM    5  C23 UNL     1     -30.852   5.572 -25.050  1.00  0.00     0.182 C 
ENDROOT
BRANCH   1   6
HETATM    6  C12 UNL     1     -29.455   7.140 -26.366  1.00  0.00     0.226 C 
BRANCH   6   7
HETATM    7  O4  UNL     1     -30.173   8.231 -26.905  1.00  0.00    -0.257 OA
BRANCH   7   8
HETATM    8  S1  UNL     1     -30.911   7.894 -28.341  1.00  0.00     0.364 S 
HETATM    9  O2  UNL     1     -31.023   9.165 -29.165  1.00  0.00    -0.175 OA
HETATM   10  O3  UNL     1     -32.325   7.401 -28.132  1.00  0.00    -0.175 OA
BRANCH   8  11
HETATM   11  N2  UNL     1     -29.993   6.779 -29.263  1.00  0.00    -0.231 N 
HETATM   12  C1  UNL     1     -30.352   5.362 -29.198  1.00  0.00     0.232 C 
HETATM   13  O1  UNL     1     -31.308   5.036 -28.462  1.00  0.00    -0.273 OA
ATOM     14  H2  UNL     1     -29.216   7.095 -29.843  1.00  0.00     0.183 HD
BRANCH  12  15
HETATM   15  C2  UNL     1     -29.553   4.471 -30.012  1.00  0.00     0.108 C 
BRANCH  15  16
HETATM   16  C3  UNL     1     -29.268   4.893 -31.400  1.00  0.00     0.050 C 
BRANCH  16  17
HETATM   17  C4  UNL     1     -27.876   4.786 -31.833  1.00  0.00    -0.030 A 
HETATM   18  C5  UNL     1     -26.812   5.019 -30.953  1.00  0.00     0.096 A 
HETATM   19  N1  UNL     1     -25.665   4.948 -31.619  1.00  0.00    -0.365 N 
HETATM   20  C6  UNL     1     -25.923   4.675 -32.906  1.00  0.00     0.042 A 
ATOM     21  H1  UNL     1     -24.737   5.080 -31.217  1.00  0.00     0.165 HD
HETATM   22  C7  UNL     1     -25.122   4.471 -34.017  1.00  0.00     0.030 A 
HETATM   23  C11 UNL     1     -27.305   4.569 -33.059  1.00  0.00    -0.002 A 
HETATM   24  C8  UNL     1     -25.654   4.168 -35.245  1.00  0.00     0.002 A 
HETATM   25  C9  UNL     1     -27.025   4.065 -35.368  1.00  0.00     0.001 A 
HETATM   26  C10 UNL     1     -27.843   4.260 -34.299  1.00  0.00     0.014 A 
ENDBRANCH  16  17
ENDBRANCH  15  16
ENDBRANCH  12  15
ENDBRANCH   8  11
ENDBRANCH   7   8
ENDBRANCH   6   7
ENDBRANCH   1   6
BRANCH   5  27
HETATM   27  O7  UNL     1     -29.993   4.555 -24.615  1.00  0.00    -0.390 OA
ATOM     28  H7  UNL     1     -30.184   4.408 -23.695  1.00  0.00     0.210 HD
ENDBRANCH   5  27
BRANCH   3  29
HETATM   29  N3  UNL     1     -32.360   7.949 -22.674  1.00  0.00    -0.297 N 
HETATM   30  C15 UNL     1     -32.553   7.933 -21.352  1.00  0.00     0.188 A 
HETATM   31  N4  UNL     1     -33.561   8.804 -21.036  1.00  0.00    -0.346 N 
HETATM   32  C16 UNL     1     -34.018   9.382 -22.168  1.00  0.00     0.123 A 
ATOM     33  H4  UNL     1     -33.911   8.987 -20.096  1.00  0.00     0.167 HD
HETATM   34  C17 UNL     1     -33.258   8.836 -23.179  1.00  0.00     0.142 A 
HETATM   35  C21 UNL     1     -35.007  10.311 -22.414  1.00  0.00     0.143 A 
HETATM   36  N5  UNL     1     -33.500   9.233 -24.429  1.00  0.00    -0.336 N 
HETATM   37  C18 UNL     1     -34.458  10.138 -24.690  1.00  0.00     0.191 A 
ATOM     38  H5  UNL     1     -32.950   8.846 -25.197  1.00  0.00     0.168 HD
HETATM   39  N6  UNL     1     -35.215  10.681 -23.686  1.00  0.00    -0.301 N 
HETATM   40  C19 UNL     1     -36.202  11.581 -23.762  1.00  0.00     0.116 A 
HETATM   41  C20 UNL     1     -36.657  11.806 -22.443  1.00  0.00     0.107 A 
HETATM   42  N7  UNL     1     -35.880  10.993 -21.671  1.00  0.00    -0.349 N 
ATOM     43  H7  UNL     1     -35.956  10.917 -20.657  1.00  0.00     0.167 HD
ENDBRANCH   3  29
BRANCH   4  44
HETATM   44  O6  UNL     1     -31.805   4.880 -22.953  1.00  0.00    -0.388 OA
ATOM     45  H6  UNL     1     -31.154   4.226 -23.180  1.00  0.00     0.210 HD
ENDBRANCH   4  44
TORSDOF 10
ENDMDL
