MODEL 2
REMARK VINA RESULT: -10.015836146      1.080      1.394
REMARK  10 active torsions:
REMARK  status: ('A' for Active; 'I' for Inactive)
REMARK    1  A    between atoms: C1_2  and  C2_3 
REMARK       I    between atoms: C1_2  and  N2_15 
REMARK    2  A    between atoms: C2_3  and  C3_4 
REMARK    3  A    between atoms: C3_4  and  C4_5 
REMARK    4  A    between atoms: N2_15  and  S1_17 
REMARK    5  A    between atoms: S1_17  and  O4_20 
REMARK    6  A    between atoms: O4_20  and  C12_21 
REMARK    7  A    between atoms: C12_21  and  C13_22 
REMARK    8  A    between atoms: C14_24  and  N3_25 
REMARK    9  A    between atoms: C22_40  and  O6_41 
REMARK   10  A    between atoms: C23_43  and  O7_44 
ROOT
HETATM    1  C13 UNL     1     -29.445   4.843 -27.354  1.00  0.00     0.180 C 
HETATM    2  O5  UNL     1     -29.633   4.253 -28.614  1.00  0.00    -0.353 OA
HETATM    3  C14 UNL     1     -29.051   5.254 -29.406  1.00  0.00     0.262 C 
HETATM    4  C22 UNL     1     -29.803   6.481 -28.994  1.00  0.00     0.198 C 
HETATM    5  C23 UNL     1     -30.009   6.231 -27.485  1.00  0.00     0.182 C 
ENDROOT
BRANCH   1   6
HETATM    6  C12 UNL     1     -30.083   4.092 -26.234  1.00  0.00     0.226 C 
BRANCH   6   7
HETATM    7  O4  UNL     1     -29.825   4.830 -25.056  1.00  0.00    -0.257 OA
BRANCH   7   8
HETATM    8  S1  UNL     1     -30.965   4.622 -23.882  1.00  0.00     0.364 S 
HETATM    9  O2  UNL     1     -30.379   3.802 -22.746  1.00  0.00    -0.175 OA
HETATM   10  O3  UNL     1     -32.151   3.839 -24.399  1.00  0.00    -0.175 OA
BRANCH   8  11
HETATM   11  N2  UNL     1     -31.452   6.124 -23.218  1.00  0.00    -0.231 N 
HETATM   12  C1  UNL     1     -31.986   7.143 -24.122  1.00  0.00     0.232 C 
HETATM   13  O1  UNL     1     -32.050   6.867 -25.339  1.00  0.00    -0.273 OA
ATOM     14  H2  UNL     1     -31.372   6.303 -22.217  1.00  0.00     0.183 HD
BRANCH  12  15
HETATM   15  C2  UNL     1     -32.398   8.383 -23.501  1.00  0.00     0.108 C 
BRANCH  15  16
HETATM   16  C3  UNL     1     -33.831   8.534 -23.171  1.00  0.00     0.050 C 
BRANCH  16  17
HETATM   17  C4  UNL     1     -34.135   9.188 -21.899  1.00  0.00    -0.030 A 
HETATM   18  C5  UNL     1     -33.558   8.761 -20.697  1.00  0.00     0.096 A 
HETATM   19  N1  UNL     1     -34.071   9.459 -19.690  1.00  0.00    -0.365 N 
HETATM   20  C6  UNL     1     -34.963  10.334 -20.174  1.00  0.00     0.042 A 
ATOM     21  H1  UNL     1     -33.825   9.347 -18.706  1.00  0.00     0.165 HD
HETATM   22  C7  UNL     1     -35.760  11.305 -19.591  1.00  0.00     0.030 A 
HETATM   23  C11 UNL     1     -35.016  10.179 -21.559  1.00  0.00    -0.002 A 
HETATM   24  C8  UNL     1     -36.585  12.107 -20.339  1.00  0.00     0.002 A 
HETATM   25  C9  UNL     1     -36.616  11.935 -21.708  1.00  0.00     0.001 A 
HETATM   26  C10 UNL     1     -35.847  10.991 -22.315  1.00  0.00     0.014 A 
ENDBRANCH  16  17
ENDBRANCH  15  16
ENDBRANCH  12  15
ENDBRANCH   8  11
ENDBRANCH   7   8
ENDBRANCH   6   7
ENDBRANCH   1   6
BRANCH   5  27
HETATM   27  O7  UNL     1     -29.170   7.081 -26.755  1.00  0.00    -0.390 OA
ATOM     28  H7  UNL     1     -29.571   7.943 -26.769  1.00  0.00     0.210 HD
ENDBRANCH   5  27
BRANCH   3  29
HETATM   29  N3  UNL     1     -29.032   4.963 -30.802  1.00  0.00    -0.297 N 
HETATM   30  C15 UNL     1     -30.075   4.737 -31.606  1.00  0.00     0.188 A 
HETATM   31  N4  UNL     1     -29.619   4.489 -32.873  1.00  0.00    -0.346 N 
HETATM   32  C16 UNL     1     -28.270   4.557 -32.879  1.00  0.00     0.123 A 
ATOM     33  H4  UNL     1     -30.204   4.286 -33.683  1.00  0.00     0.167 HD
HETATM   34  C17 UNL     1     -27.922   4.853 -31.579  1.00  0.00     0.142 A 
HETATM   35  C21 UNL     1     -27.325   4.390 -33.871  1.00  0.00     0.143 A 
HETATM   36  N5  UNL     1     -26.626   4.980 -31.290  1.00  0.00    -0.336 N 
HETATM   37  C18 UNL     1     -25.691   4.822 -32.242  1.00  0.00     0.191 A 
ATOM     38  H5  UNL     1     -26.341   5.200 -30.336  1.00  0.00     0.168 HD
HETATM   39  N6  UNL     1     -26.035   4.527 -33.535  1.00  0.00    -0.301 N 
HETATM   40  C19 UNL     1     -25.246   4.334 -34.598  1.00  0.00     0.116 A 
HETATM   41  C20 UNL     1     -26.093   4.057 -35.694  1.00  0.00     0.107 A 
HETATM   42  N7  UNL     1     -27.352   4.107 -35.174  1.00  0.00    -0.349 N 
ATOM     43  H7  UNL     1     -28.204   3.948 -35.711  1.00  0.00     0.167 HD
ENDBRANCH   3  29
BRANCH   4  44
HETATM   44  O6  UNL     1     -29.017   7.634 -29.168  1.00  0.00    -0.388 OA
ATOM     45  H6  UNL     1     -29.464   8.402 -28.833  1.00  0.00     0.210 HD
ENDBRANCH   4  44
TORSDOF 10
ENDMDL
