MODEL 15
REMARK VINA RESULT: -9.525191956      0.935      1.576
REMARK  10 active torsions:
REMARK  status: ('A' for Active; 'I' for Inactive)
REMARK    1  A    between atoms: C1_2  and  C2_3 
REMARK       I    between atoms: C1_2  and  N2_15 
REMARK    2  A    between atoms: C2_3  and  C3_4 
REMARK    3  A    between atoms: C3_4  and  C4_5 
REMARK    4  A    between atoms: N2_15  and  S1_17 
REMARK    5  A    between atoms: S1_17  and  O4_20 
REMARK    6  A    between atoms: O4_20  and  C12_21 
REMARK    7  A    between atoms: C12_21  and  C13_22 
REMARK    8  A    between atoms: C14_24  and  N3_25 
REMARK    9  A    between atoms: C22_40  and  O6_41 
REMARK   10  A    between atoms: C23_43  and  O7_44 
ROOT
HETATM    1  C13 UNL     1     -29.480   5.010 -27.512  1.00  0.00     0.180 C 
HETATM    2  O5  UNL     1     -28.935   4.393 -28.649  1.00  0.00    -0.353 OA
HETATM    3  C14 UNL     1     -28.374   5.526 -29.258  1.00  0.00     0.262 C 
HETATM    4  C22 UNL     1     -29.541   6.459 -29.354  1.00  0.00     0.198 C 
HETATM    5  C23 UNL     1     -30.296   6.156 -28.044  1.00  0.00     0.182 C 
ENDROOT
BRANCH   1   6
HETATM    6  C12 UNL     1     -30.299   4.097 -26.663  1.00  0.00     0.226 C 
BRANCH   6   7
HETATM    7  O4  UNL     1     -29.873   4.297 -25.330  1.00  0.00    -0.257 OA
BRANCH   7   8
HETATM    8  S1  UNL     1     -31.083   4.146 -24.220  1.00  0.00     0.364 S 
HETATM    9  O2  UNL     1     -30.483   3.929 -22.842  1.00  0.00    -0.175 OA
HETATM   10  O3  UNL     1     -31.942   2.933 -24.501  1.00  0.00    -0.175 OA
BRANCH   8  11
HETATM   11  N2  UNL     1     -32.030   5.572 -24.136  1.00  0.00    -0.231 N 
HETATM   12  C1  UNL     1     -31.343   6.864 -24.152  1.00  0.00     0.232 C 
HETATM   13  O1  UNL     1     -30.095   6.860 -24.216  1.00  0.00    -0.273 OA
ATOM     14  H2  UNL     1     -33.047   5.521 -24.076  1.00  0.00     0.183 HD
BRANCH  12  15
HETATM   15  C2  UNL     1     -32.195   8.032 -24.097  1.00  0.00     0.108 C 
BRANCH  15  16
HETATM   16  C3  UNL     1     -32.827   8.350 -22.799  1.00  0.00     0.050 C 
BRANCH  16  17
HETATM   17  C4  UNL     1     -34.020   9.194 -22.852  1.00  0.00    -0.030 A 
HETATM   18  C5  UNL     1     -34.608   9.560 -24.069  1.00  0.00     0.096 A 
HETATM   19  N1  UNL     1     -35.613  10.398 -23.839  1.00  0.00    -0.365 N 
HETATM   20  C6  UNL     1     -35.718  10.601 -22.518  1.00  0.00     0.042 A 
ATOM     21  H1  UNL     1     -36.208  10.819 -24.552  1.00  0.00     0.165 HD
HETATM   22  C7  UNL     1     -36.583  11.345 -21.734  1.00  0.00     0.030 A 
HETATM   23  C11 UNL     1     -34.727   9.853 -21.883  1.00  0.00    -0.002 A 
HETATM   24  C8  UNL     1     -36.488  11.357 -20.365  1.00  0.00     0.002 A 
HETATM   25  C9  UNL     1     -35.501  10.605 -19.761  1.00  0.00     0.001 A 
HETATM   26  C10 UNL     1     -34.632   9.863 -20.499  1.00  0.00     0.014 A 
ENDBRANCH  16  17
ENDBRANCH  15  16
ENDBRANCH  12  15
ENDBRANCH   8  11
ENDBRANCH   7   8
ENDBRANCH   6   7
ENDBRANCH   1   6
BRANCH   5  27
HETATM   27  O7  UNL     1     -30.126   7.223 -27.153  1.00  0.00    -0.390 OA
ATOM     28  H7  UNL     1     -30.036   6.846 -26.285  1.00  0.00     0.210 HD
ENDBRANCH   5  27
BRANCH   3  29
HETATM   29  N3  UNL     1     -27.677   5.257 -30.473  1.00  0.00    -0.297 N 
HETATM   30  C15 UNL     1     -26.356   5.237 -30.673  1.00  0.00     0.188 A 
HETATM   31  N4  UNL     1     -26.107   4.944 -31.987  1.00  0.00    -0.346 N 
HETATM   32  C16 UNL     1     -27.281   4.776 -32.634  1.00  0.00     0.123 A 
ATOM     33  H4  UNL     1     -25.183   4.865 -32.410  1.00  0.00     0.167 HD
HETATM   34  C17 UNL     1     -28.249   4.975 -31.674  1.00  0.00     0.142 A 
HETATM   35  C21 UNL     1     -27.598   4.477 -33.943  1.00  0.00     0.143 A 
HETATM   36  N5  UNL     1     -29.527   4.869 -32.041  1.00  0.00    -0.336 N 
HETATM   37  C18 UNL     1     -29.856   4.578 -33.310  1.00  0.00     0.191 A 
ATOM     38  H5  UNL     1     -30.264   5.011 -31.349  1.00  0.00     0.168 HD
HETATM   39  N6  UNL     1     -28.895   4.380 -34.266  1.00  0.00    -0.301 N 
HETATM   40  C19 UNL     1     -29.039   4.090 -35.564  1.00  0.00     0.116 A 
HETATM   41  C20 UNL     1     -27.740   3.990 -36.110  1.00  0.00     0.107 A 
HETATM   42  N7  UNL     1     -26.907   4.240 -35.060  1.00  0.00    -0.349 N 
ATOM     43  H7  UNL     1     -25.890   4.245 -35.119  1.00  0.00     0.167 HD
ENDBRANCH   3  29
BRANCH   4  44
HETATM   44  O6  UNL     1     -29.112   7.799 -29.342  1.00  0.00    -0.388 OA
ATOM     45  H6  UNL     1     -29.854   8.392 -29.384  1.00  0.00     0.210 HD
ENDBRANCH   4  44
TORSDOF 10
ENDMDL
