MODEL 3
REMARK VINA RESULT: -9.900832768      2.023     12.639
REMARK  10 active torsions:
REMARK  status: ('A' for Active; 'I' for Inactive)
REMARK    1  A    between atoms: C1_2  and  C2_3 
REMARK       I    between atoms: C1_2  and  N2_15 
REMARK    2  A    between atoms: C2_3  and  C3_4 
REMARK    3  A    between atoms: C3_4  and  C4_5 
REMARK    4  A    between atoms: N2_15  and  S1_17 
REMARK    5  A    between atoms: S1_17  and  O4_20 
REMARK    6  A    between atoms: O4_20  and  C12_21 
REMARK    7  A    between atoms: C12_21  and  C13_22 
REMARK    8  A    between atoms: C14_24  and  N3_25 
REMARK    9  A    between atoms: C22_40  and  O6_41 
REMARK   10  A    between atoms: C23_43  and  O7_44 
ROOT
HETATM    1  C13 UNL     1     -31.942   6.890 -24.156  1.00  0.00     0.180 C 
HETATM    2  O5  UNL     1     -32.081   7.333 -22.832  1.00  0.00    -0.353 OA
HETATM    3  C14 UNL     1     -33.226   8.128 -22.992  1.00  0.00     0.262 C 
HETATM    4  C22 UNL     1     -32.827   9.060 -24.094  1.00  0.00     0.198 C 
HETATM    5  C23 UNL     1     -31.973   8.140 -24.991  1.00  0.00     0.182 C 
ENDROOT
BRANCH   1   6
HETATM    6  C12 UNL     1     -30.705   6.094 -24.401  1.00  0.00     0.226 C 
BRANCH   6   7
HETATM    7  O4  UNL     1     -30.448   6.164 -25.789  1.00  0.00    -0.257 OA
BRANCH   7   8
HETATM    8  S1  UNL     1     -30.115   4.702 -26.475  1.00  0.00     0.364 S 
HETATM    9  O2  UNL     1     -31.156   3.687 -26.036  1.00  0.00    -0.175 OA
HETATM   10  O3  UNL     1     -28.780   4.166 -26.010  1.00  0.00    -0.175 OA
BRANCH   8  11
HETATM   11  N2  UNL     1     -30.189   4.789 -28.185  1.00  0.00    -0.231 N 
HETATM   12  C1  UNL     1     -29.572   5.937 -28.850  1.00  0.00     0.232 C 
HETATM   13  O1  UNL     1     -29.029   6.804 -28.132  1.00  0.00    -0.273 OA
ATOM     14  H2  UNL     1     -30.651   4.058 -28.726  1.00  0.00     0.183 HD
BRANCH  12  15
HETATM   15  C2  UNL     1     -29.650   5.945 -30.295  1.00  0.00     0.108 C 
BRANCH  15  16
HETATM   16  C3  UNL     1     -29.250   4.711 -31.003  1.00  0.00     0.050 C 
BRANCH  16  17
HETATM   17  C4  UNL     1     -27.890   4.686 -31.539  1.00  0.00    -0.030 A 
HETATM   18  C5  UNL     1     -26.777   4.951 -30.733  1.00  0.00     0.096 A 
HETATM   19  N1  UNL     1     -25.680   4.955 -31.482  1.00  0.00    -0.365 N 
HETATM   20  C6  UNL     1     -26.019   4.699 -32.754  1.00  0.00     0.042 A 
ATOM     21  H1  UNL     1     -24.733   5.125 -31.145  1.00  0.00     0.165 HD
HETATM   22  C7  UNL     1     -25.294   4.563 -33.925  1.00  0.00     0.030 A 
HETATM   23  C11 UNL     1     -27.402   4.526 -32.809  1.00  0.00    -0.002 A 
HETATM   24  C8  UNL     1     -25.899   4.263 -35.119  1.00  0.00     0.002 A 
HETATM   25  C9  UNL     1     -27.268   4.093 -35.145  1.00  0.00     0.001 A 
HETATM   26  C10 UNL     1     -28.014   4.220 -34.014  1.00  0.00     0.014 A 
ENDBRANCH  16  17
ENDBRANCH  15  16
ENDBRANCH  12  15
ENDBRANCH   8  11
ENDBRANCH   7   8
ENDBRANCH   6   7
ENDBRANCH   1   6
BRANCH   5  27
HETATM   27  O7  UNL     1     -32.688   7.834 -26.156  1.00  0.00    -0.390 OA
ATOM     28  H7  UNL     1     -32.839   8.654 -26.611  1.00  0.00     0.210 HD
ENDBRANCH   5  27
BRANCH   3  29
HETATM   29  N3  UNL     1     -33.695   8.734 -21.790  1.00  0.00    -0.297 N 
HETATM   30  C15 UNL     1     -33.157   8.656 -20.569  1.00  0.00     0.188 A 
HETATM   31  N4  UNL     1     -33.925   9.379 -19.695  1.00  0.00    -0.346 N 
HETATM   32  C16 UNL     1     -34.964   9.924 -20.364  1.00  0.00     0.123 A 
ATOM     33  H4  UNL     1     -33.741   9.489 -18.698  1.00  0.00     0.167 HD
HETATM   34  C17 UNL     1     -34.804   9.510 -21.669  1.00  0.00     0.142 A 
HETATM   35  C21 UNL     1     -36.018  10.723 -19.972  1.00  0.00     0.143 A 
HETATM   36  N5  UNL     1     -35.707   9.908 -22.567  1.00  0.00    -0.336 N 
HETATM   37  C18 UNL     1     -36.740  10.687 -22.206  1.00  0.00     0.191 A 
ATOM     38  H5  UNL     1     -35.611   9.617 -23.541  1.00  0.00     0.168 HD
HETATM   39  N6  UNL     1     -36.900  11.098 -20.909  1.00  0.00    -0.301 N 
HETATM   40  C19 UNL     1     -37.860  11.863 -20.376  1.00  0.00     0.116 A 
HETATM   41  C20 UNL     1     -37.569  11.990 -19.000  1.00  0.00     0.107 A 
HETATM   42  N7  UNL     1     -36.427  11.265 -18.824  1.00  0.00    -0.349 N 
ATOM     43  H7  UNL     1     -35.948  11.151 -17.931  1.00  0.00     0.167 HD
ENDBRANCH   3  29
BRANCH   4  44
HETATM   44  O6  UNL     1     -33.954   9.493 -24.816  1.00  0.00    -0.388 OA
ATOM     45  H6  UNL     1     -34.405   8.757 -25.214  1.00  0.00     0.210 HD
ENDBRANCH   4  44
TORSDOF 10
ENDMDL
