MODEL 3
REMARK VINA RESULT: -7.241183440      1.233      1.914
REMARK  7 active torsions:
REMARK  status: ('A' for Active; 'I' for Inactive)
REMARK       I    between atoms: C2_2  and  N1_4 
REMARK    1  A    between atoms: N1_4  and  S1_6 
REMARK    2  A    between atoms: S1_6  and  N2_9 
REMARK    3  A    between atoms: N2_9  and  C3_11 
REMARK    4  A    between atoms: C3_11  and  C4_12 
REMARK    5  A    between atoms: C5_14  and  N3_15 
REMARK    6  A    between atoms: C11_28  and  O5_29 
REMARK    7  A    between atoms: C12_31  and  O6_32 
ROOT
HETATM    1  C4  UNL     1     -30.121   6.818 -25.979  1.00  0.00     0.174 C 
HETATM    2  O4  UNL     1     -30.923   7.771 -25.407  1.00  0.00    -0.354 OA
HETATM    3  C5  UNL     1     -31.105   7.236 -24.111  1.00  0.00     0.262 C 
HETATM    4  C11 UNL     1     -31.525   5.795 -24.403  1.00  0.00     0.198 C 
HETATM    5  C12 UNL     1     -30.871   5.545 -25.760  1.00  0.00     0.181 C 
ENDROOT
BRANCH   3   6
HETATM    6  N3  UNL     1     -32.155   7.888 -23.381  1.00  0.00    -0.297 N 
HETATM    7  C6  UNL     1     -32.354   7.641 -22.051  1.00  0.00     0.188 A 
HETATM    8  N4  UNL     1     -33.387   8.378 -21.637  1.00  0.00    -0.346 N 
HETATM    9  C7  UNL     1     -33.835   9.080 -22.685  1.00  0.00     0.119 A 
ATOM     10  H4  UNL     1     -33.767   8.401 -20.692  1.00  0.00     0.167 HD
HETATM   11  C8  UNL     1     -34.887   9.994 -22.790  1.00  0.00     0.148 A 
HETATM   12  C10 UNL     1     -33.067   8.776 -23.778  1.00  0.00     0.142 A 
HETATM   13  N5  UNL     1     -35.651  10.277 -21.640  1.00  0.00    -0.080 NA
HETATM   14  N6  UNL     1     -35.103  10.551 -23.999  1.00  0.00    -0.339 N 
HETATM   15  C9  UNL     1     -34.332  10.232 -25.051  1.00  0.00     0.183 A 
ATOM     16  H6  UNL     1     -35.862  11.222 -24.116  1.00  0.00     0.167 HD
HETATM   17  N7  UNL     1     -33.317   9.351 -24.951  1.00  0.00    -0.336 N 
ATOM     18  H7  UNL     1     -32.747   9.127 -25.767  1.00  0.00     0.168 HD
ENDBRANCH   3   6
BRANCH   4  19
HETATM   19  O5  UNL     1     -30.981   4.943 -23.433  1.00  0.00    -0.388 OA
ATOM     20  H5  UNL     1     -31.681   4.482 -22.986  1.00  0.00     0.210 HD
ENDBRANCH   4  19
BRANCH   1  21
HETATM   21  C3  UNL     1     -29.704   7.067 -27.375  1.00  0.00     0.168 C 
BRANCH  21  22
HETATM   22  N2  UNL     1     -29.329   5.912 -28.124  1.00  0.00    -0.300 N 
ATOM     23  H2  UNL     1     -28.615   5.232 -27.861  1.00  0.00     0.173 HD
BRANCH  22  24
HETATM   24  S1  UNL     1     -30.296   5.865 -29.554  1.00  0.00     0.321 S 
HETATM   25  O2  UNL     1     -31.623   5.235 -29.169  1.00  0.00    -0.182 OA
HETATM   26  O3  UNL     1     -30.596   7.249 -30.055  1.00  0.00    -0.182 OA
BRANCH  24  27
HETATM   27  N1  UNL     1     -29.619   4.915 -30.792  1.00  0.00    -0.238 N 
HETATM   28  C2  UNL     1     -28.267   5.110 -31.168  1.00  0.00     0.228 C 
HETATM   29  C1  UNL     1     -27.597   4.319 -32.244  1.00  0.00     0.118 C 
HETATM   30  O1  UNL     1     -27.604   5.993 -30.565  1.00  0.00    -0.273 OA
ATOM     31  H1  UNL     1     -30.183   4.207 -31.262  1.00  0.00     0.183 HD
ENDBRANCH  24  27
ENDBRANCH  22  24
ENDBRANCH  21  22
ENDBRANCH   1  21
BRANCH   5  32
HETATM   32  O6  UNL     1     -30.026   4.432 -25.706  1.00  0.00    -0.390 OA
ATOM     33  H6  UNL     1     -30.370   3.743 -25.149  1.00  0.00     0.210 HD
ENDBRANCH   5  32
TORSDOF 7
ENDMDL
