MODEL 1
REMARK VINA RESULT: -7.589472440      0.000      0.000
REMARK  7 active torsions:
REMARK  status: ('A' for Active; 'I' for Inactive)
REMARK       I    between atoms: C2_2  and  N1_4 
REMARK    1  A    between atoms: N1_4  and  S1_6 
REMARK    2  A    between atoms: S1_6  and  N2_9 
REMARK    3  A    between atoms: N2_9  and  C3_11 
REMARK    4  A    between atoms: C3_11  and  C4_12 
REMARK    5  A    between atoms: C5_14  and  N3_15 
REMARK    6  A    between atoms: C11_28  and  O5_29 
REMARK    7  A    between atoms: C12_31  and  O6_32 
ROOT
HETATM    1  C4  UNL     1     -30.633   6.619 -26.726  1.00  0.00     0.174 C 
HETATM    2  O4  UNL     1     -31.338   6.496 -25.557  1.00  0.00    -0.354 OA
HETATM    3  C5  UNL     1     -31.865   7.800 -25.414  1.00  0.00     0.262 C 
HETATM    4  C11 UNL     1     -30.630   8.680 -25.606  1.00  0.00     0.198 C 
HETATM    5  C12 UNL     1     -29.746   7.797 -26.483  1.00  0.00     0.181 C 
ENDROOT
BRANCH   3   6
HETATM    6  N3  UNL     1     -32.410   8.041 -24.108  1.00  0.00    -0.297 N 
HETATM    7  C6  UNL     1     -31.959   7.357 -23.013  1.00  0.00     0.188 A 
HETATM    8  N4  UNL     1     -32.636   7.782 -21.945  1.00  0.00    -0.346 N 
HETATM    9  C7  UNL     1     -33.501   8.718 -22.353  1.00  0.00     0.119 A 
ATOM     10  H4  UNL     1     -32.517   7.451 -20.988  1.00  0.00     0.167 HD
HETATM   11  C8  UNL     1     -34.434   9.474 -21.638  1.00  0.00     0.148 A 
HETATM   12  C10 UNL     1     -33.363   8.884 -23.706  1.00  0.00     0.142 A 
HETATM   13  N5  UNL     1     -34.543   9.271 -20.248  1.00  0.00    -0.080 NA
HETATM   14  N6  UNL     1     -35.179  10.356 -22.336  1.00  0.00    -0.339 N 
HETATM   15  C9  UNL     1     -35.019  10.495 -23.662  1.00  0.00     0.183 A 
ATOM     16  H6  UNL     1     -35.872  10.925 -21.850  1.00  0.00     0.167 HD
HETATM   17  N7  UNL     1     -34.118   9.767 -24.352  1.00  0.00    -0.336 N 
ATOM     18  H7  UNL     1     -34.017   9.893 -25.359  1.00  0.00     0.168 HD
ENDBRANCH   3   6
BRANCH   4  19
HETATM   19  O5  UNL     1     -30.990   9.848 -26.293  1.00  0.00    -0.388 OA
ATOM     20  H5  UNL     1     -30.984  10.584 -25.692  1.00  0.00     0.210 HD
ENDBRANCH   4  19
BRANCH   1  21
HETATM   21  C3  UNL     1     -29.943   5.403 -27.204  1.00  0.00     0.168 C 
BRANCH  21  22
HETATM   22  N2  UNL     1     -29.077   5.583 -28.324  1.00  0.00    -0.300 N 
ATOM     23  H2  UNL     1     -28.061   5.673 -28.288  1.00  0.00     0.173 HD
BRANCH  22  24
HETATM   24  S1  UNL     1     -30.048   5.621 -29.751  1.00  0.00     0.321 S 
HETATM   25  O2  UNL     1     -31.334   4.880 -29.429  1.00  0.00    -0.182 OA
HETATM   26  O3  UNL     1     -30.432   7.029 -30.111  1.00  0.00    -0.182 OA
BRANCH  24  27
HETATM   27  N1  UNL     1     -29.325   4.840 -31.077  1.00  0.00    -0.238 N 
HETATM   28  C2  UNL     1     -27.982   5.135 -31.420  1.00  0.00     0.228 C 
HETATM   29  C1  UNL     1     -27.274   4.494 -32.568  1.00  0.00     0.118 C 
HETATM   30  O1  UNL     1     -27.363   5.979 -30.722  1.00  0.00    -0.273 OA
ATOM     31  H1  UNL     1     -29.855   4.161 -31.623  1.00  0.00     0.183 HD
ENDBRANCH  24  27
ENDBRANCH  22  24
ENDBRANCH  21  22
ENDBRANCH   1  21
BRANCH   5  32
HETATM   32  O6  UNL     1     -29.404   8.457 -27.668  1.00  0.00    -0.390 OA
ATOM     33  H6  UNL     1     -28.778   9.157 -27.523  1.00  0.00     0.210 HD
ENDBRANCH   5  32
TORSDOF 7
ENDMDL
