MODEL 5
REMARK VINA RESULT: -7.171258688      1.613      2.755
REMARK  7 active torsions:
REMARK  status: ('A' for Active; 'I' for Inactive)
REMARK       I    between atoms: C2_2  and  N1_4 
REMARK    1  A    between atoms: N1_4  and  S1_6 
REMARK    2  A    between atoms: S1_6  and  N2_9 
REMARK    3  A    between atoms: N2_9  and  C3_11 
REMARK    4  A    between atoms: C3_11  and  C4_12 
REMARK    5  A    between atoms: C5_14  and  N3_15 
REMARK    6  A    between atoms: C11_28  and  O5_29 
REMARK    7  A    between atoms: C12_31  and  O6_32 
ROOT
HETATM    1  C4  UNL     1     -30.495   7.577 -25.004  1.00  0.00     0.174 C 
HETATM    2  O4  UNL     1     -31.484   8.491 -24.753  1.00  0.00    -0.354 OA
HETATM    3  C5  UNL     1     -32.077   7.943 -23.593  1.00  0.00     0.262 C 
HETATM    4  C11 UNL     1     -32.309   6.486 -23.995  1.00  0.00     0.198 C 
HETATM    5  C12 UNL     1     -31.219   6.271 -25.042  1.00  0.00     0.181 C 
ENDROOT
BRANCH   3   6
HETATM    6  N3  UNL     1     -33.342   8.545 -23.276  1.00  0.00    -0.297 N 
HETATM    7  C6  UNL     1     -34.219   8.913 -24.258  1.00  0.00     0.188 A 
HETATM    8  N4  UNL     1     -35.300   9.440 -23.679  1.00  0.00    -0.346 N 
HETATM    9  C7  UNL     1     -35.113   9.406 -22.355  1.00  0.00     0.119 A 
ATOM     10  H4  UNL     1     -36.122   9.804 -24.161  1.00  0.00     0.167 HD
HETATM   11  C8  UNL     1     -35.933   9.829 -21.305  1.00  0.00     0.148 A 
HETATM   12  C10 UNL     1     -33.889   8.847 -22.098  1.00  0.00     0.142 A 
HETATM   13  N5  UNL     1     -37.184  10.399 -21.615  1.00  0.00    -0.080 NA
HETATM   14  N6  UNL     1     -35.466   9.663 -20.051  1.00  0.00    -0.339 N 
HETATM   15  C9  UNL     1     -34.262   9.111 -19.832  1.00  0.00     0.183 A 
ATOM     16  H6  UNL     1     -36.035   9.960 -19.258  1.00  0.00     0.167 HD
HETATM   17  N7  UNL     1     -33.470   8.702 -20.844  1.00  0.00    -0.336 N 
ATOM     18  H7  UNL     1     -32.559   8.286 -20.649  1.00  0.00     0.168 HD
ENDBRANCH   3   6
BRANCH   4  19
HETATM   19  O5  UNL     1     -32.096   5.656 -22.887  1.00  0.00    -0.388 OA
ATOM     20  H5  UNL     1     -32.924   5.486 -22.453  1.00  0.00     0.210 HD
ENDBRANCH   4  19
BRANCH   1  21
HETATM   21  C3  UNL     1     -29.634   7.850 -26.174  1.00  0.00     0.168 C 
BRANCH  21  22
HETATM   22  N2  UNL     1     -29.477   6.768 -27.093  1.00  0.00    -0.300 N 
ATOM     23  H2  UNL     1     -29.012   5.881 -26.900  1.00  0.00     0.173 HD
BRANCH  22  24
HETATM   24  S1  UNL     1     -30.213   7.224 -28.587  1.00  0.00     0.321 S 
HETATM   25  O2  UNL     1     -31.480   6.398 -28.725  1.00  0.00    -0.182 OA
HETATM   26  O3  UNL     1     -30.630   8.668 -28.571  1.00  0.00    -0.182 OA
BRANCH  24  27
HETATM   27  N1  UNL     1     -29.238   6.898 -29.942  1.00  0.00    -0.238 N 
HETATM   28  C2  UNL     1     -28.514   5.682 -30.010  1.00  0.00     0.228 C 
HETATM   29  C1  UNL     1     -27.636   5.319 -31.164  1.00  0.00     0.118 C 
HETATM   30  O1  UNL     1     -28.616   4.875 -29.052  1.00  0.00    -0.273 OA
ATOM     31  H1  UNL     1     -29.175   7.575 -30.703  1.00  0.00     0.183 HD
ENDBRANCH  24  27
ENDBRANCH  22  24
ENDBRANCH  21  22
ENDBRANCH   1  21
BRANCH   5  32
HETATM   32  O6  UNL     1     -30.397   5.196 -24.688  1.00  0.00    -0.390 OA
ATOM     33  H6  UNL     1     -30.742   4.363 -24.987  1.00  0.00     0.210 HD
ENDBRANCH   5  32
TORSDOF 7
ENDMDL
