MODEL 2
REMARK VINA RESULT: -7.455310996      2.627      9.082
REMARK  7 active torsions:
REMARK  status: ('A' for Active; 'I' for Inactive)
REMARK       I    between atoms: C2_2  and  N1_4 
REMARK    1  A    between atoms: N1_4  and  S1_6 
REMARK    2  A    between atoms: S1_6  and  N2_9 
REMARK    3  A    between atoms: N2_9  and  C3_11 
REMARK    4  A    between atoms: C3_11  and  C4_12 
REMARK    5  A    between atoms: C5_14  and  N3_15 
REMARK    6  A    between atoms: C11_28  and  O5_29 
REMARK    7  A    between atoms: C12_31  and  O6_32 
ROOT
HETATM    1  C4  UNL     1     -29.803   5.704 -27.627  1.00  0.00     0.174 C 
HETATM    2  O4  UNL     1     -29.697   5.018 -28.809  1.00  0.00    -0.354 OA
HETATM    3  C5  UNL     1     -29.211   6.029 -29.670  1.00  0.00     0.262 C 
HETATM    4  C11 UNL     1     -30.180   7.182 -29.408  1.00  0.00     0.198 C 
HETATM    5  C12 UNL     1     -30.636   6.893 -27.980  1.00  0.00     0.181 C 
ENDROOT
BRANCH   3   6
HETATM    6  N3  UNL     1     -29.287   5.663 -31.057  1.00  0.00    -0.297 N 
HETATM    7  C6  UNL     1     -30.487   5.604 -31.711  1.00  0.00     0.188 A 
HETATM    8  N4  UNL     1     -30.258   5.242 -32.975  1.00  0.00    -0.346 N 
HETATM    9  C7  UNL     1     -28.938   5.077 -33.121  1.00  0.00     0.119 A 
ATOM     10  H4  UNL     1     -30.963   5.114 -33.700  1.00  0.00     0.167 HD
HETATM   11  C8  UNL     1     -28.182   4.706 -34.236  1.00  0.00     0.148 A 
HETATM   12  C10 UNL     1     -28.326   5.339 -31.924  1.00  0.00     0.142 A 
HETATM   13  N5  UNL     1     -28.852   4.445 -35.448  1.00  0.00    -0.080 NA
HETATM   14  N6  UNL     1     -26.845   4.620 -34.075  1.00  0.00    -0.339 N 
HETATM   15  C9  UNL     1     -26.277   4.884 -32.888  1.00  0.00     0.183 A 
ATOM     16  H6  UNL     1     -26.259   4.352 -34.866  1.00  0.00     0.167 HD
HETATM   17  N7  UNL     1     -27.005   5.243 -31.812  1.00  0.00    -0.336 N 
ATOM     18  H7  UNL     1     -26.547   5.438 -30.922  1.00  0.00     0.168 HD
ENDBRANCH   3   6
BRANCH   4  19
HETATM   19  O5  UNL     1     -29.486   8.398 -29.465  1.00  0.00    -0.388 OA
ATOM     20  H5  UNL     1     -30.037   9.060 -29.866  1.00  0.00     0.210 HD
ENDBRANCH   4  19
BRANCH   1  21
HETATM   21  C3  UNL     1     -30.281   4.928 -26.463  1.00  0.00     0.168 C 
BRANCH  21  22
HETATM   22  N2  UNL     1     -30.137   5.566 -25.194  1.00  0.00    -0.300 N 
ATOM     23  H2  UNL     1     -29.413   6.238 -24.939  1.00  0.00     0.173 HD
BRANCH  22  24
HETATM   24  S1  UNL     1     -31.404   5.002 -24.166  1.00  0.00     0.321 S 
HETATM   25  O2  UNL     1     -32.036   3.807 -24.859  1.00  0.00    -0.182 OA
HETATM   26  O3  UNL     1     -30.863   4.511 -22.853  1.00  0.00    -0.182 OA
BRANCH  24  27
HETATM   27  N1  UNL     1     -32.629   6.155 -23.914  1.00  0.00    -0.238 N 
HETATM   28  C2  UNL     1     -32.323   7.535 -24.001  1.00  0.00     0.228 C 
HETATM   29  C1  UNL     1     -33.339   8.611 -23.794  1.00  0.00     0.118 C 
HETATM   30  O1  UNL     1     -31.138   7.866 -24.263  1.00  0.00    -0.273 OA
ATOM     31  H1  UNL     1     -33.580   5.854 -23.702  1.00  0.00     0.183 HD
ENDBRANCH  24  27
ENDBRANCH  22  24
ENDBRANCH  21  22
ENDBRANCH   1  21
BRANCH   5  32
HETATM   32  O6  UNL     1     -30.380   7.987 -27.147  1.00  0.00    -0.390 OA
ATOM     33  H6  UNL     1     -30.990   8.701 -27.290  1.00  0.00     0.210 HD
ENDBRANCH   5  32
TORSDOF 7
ENDMDL
