MODEL 10
REMARK VINA RESULT: -5.179573595      1.456      2.930
REMARK  2 active torsions:
REMARK  status: ('A' for Active; 'I' for Inactive)
REMARK    1  A    between atoms: O1_1  and  C1_3 
REMARK    2  A    between atoms: C4_6  and  O2_7 
ROOT
HETATM    1  C1  UNL     1       1.465 101.310  24.593  1.00  0.00     0.065 A 
HETATM    2  C2  UNL     1       2.701 100.988  24.075  1.00  0.00     0.039 A 
HETATM    3  C3  UNL     1       3.509 100.090  24.730  1.00  0.00     0.039 A 
HETATM    4  C4  UNL     1       3.113  99.494  25.908  1.00  0.00     0.065 A 
HETATM    5  C5  UNL     1       1.874  99.819  26.421  1.00  0.00     0.039 A 
HETATM    6  C6  UNL     1       1.041 100.728  25.771  1.00  0.00     0.039 A 
ENDROOT
BRANCH   1   7
HETATM    7  O1  UNL     1       0.696 102.226  23.880  1.00  0.00    -0.361 OA
ATOM      8  H1  UNL     1      -0.115 101.908  23.501  1.00  0.00     0.217 HD
ENDBRANCH   1   7
BRANCH   4   9
HETATM    9  O2  UNL     1       3.937  98.585  26.568  1.00  0.00    -0.361 OA
ATOM     10  H2  UNL     1       4.469  98.852  27.309  1.00  0.00     0.217 HD
ENDBRANCH   4   9
TORSDOF 2
ENDMDL
