MODEL 9
REMARK VINA RESULT: -5.187106462      1.461      1.886
REMARK  2 active torsions:
REMARK  status: ('A' for Active; 'I' for Inactive)
REMARK    1  A    between atoms: O1_1  and  C1_3 
REMARK    2  A    between atoms: C4_6  and  O2_7 
ROOT
HETATM    1  C1  UNL     1       3.073  99.503  25.923  1.00  0.00     0.065 A 
HETATM    2  C2  UNL     1       3.511 100.070  24.746  1.00  0.00     0.039 A 
HETATM    3  C3  UNL     1       2.715 100.968  24.076  1.00  0.00     0.039 A 
HETATM    4  C4  UNL     1       1.473 101.322  24.556  1.00  0.00     0.065 A 
HETATM    5  C5  UNL     1       1.039 100.752  25.734  1.00  0.00     0.039 A 
HETATM    6  C6  UNL     1       1.833  99.839  26.427  1.00  0.00     0.039 A 
ENDROOT
BRANCH   1   7
HETATM    7  O1  UNL     1       3.927  98.601  26.551  1.00  0.00    -0.361 OA
ATOM      8  H1  UNL     1       3.528  97.864  26.999  1.00  0.00     0.217 HD
ENDBRANCH   1   7
BRANCH   4   9
HETATM    9  O2  UNL     1       0.669 102.233  23.872  1.00  0.00    -0.361 OA
ATOM     10  H2  UNL     1       0.172 101.971  23.106  1.00  0.00     0.217 HD
ENDBRANCH   4   9
TORSDOF 2
ENDMDL
