MODEL 11
REMARK VINA RESULT: -5.129411461      1.465      2.234
REMARK  2 active torsions:
REMARK  status: ('A' for Active; 'I' for Inactive)
REMARK    1  A    between atoms: O1_1  and  C1_3 
REMARK    2  A    between atoms: C4_6  and  O2_7 
ROOT
HETATM    1  C1  UNL     1       3.138  99.510  25.876  1.00  0.00     0.065 A 
HETATM    2  C2  UNL     1       1.901  99.828  26.396  1.00  0.00     0.039 A 
HETATM    3  C3  UNL     1       1.086 100.715  25.737  1.00  0.00     0.039 A 
HETATM    4  C4  UNL     1       1.474 101.305  24.553  1.00  0.00     0.065 A 
HETATM    5  C5  UNL     1       2.712 100.983  24.037  1.00  0.00     0.039 A 
HETATM    6  C6  UNL     1       3.554 100.085  24.692  1.00  0.00     0.039 A 
ENDROOT
BRANCH   1   7
HETATM    7  O1  UNL     1       3.915  98.604  26.593  1.00  0.00    -0.361 OA
ATOM      8  H1  UNL     1       4.810  98.858  26.787  1.00  0.00     0.217 HD
ENDBRANCH   1   7
BRANCH   4   9
HETATM    9  O2  UNL     1       0.643 102.205  23.889  1.00  0.00    -0.361 OA
ATOM     10  H2  UNL     1       0.070 101.919  23.187  1.00  0.00     0.217 HD
ENDBRANCH   4   9
TORSDOF 2
ENDMDL
