MODEL 12
REMARK VINA RESULT: -5.128943687      1.467      3.159
REMARK  2 active torsions:
REMARK  status: ('A' for Active; 'I' for Inactive)
REMARK    1  A    between atoms: O1_1  and  C1_3 
REMARK    2  A    between atoms: C4_6  and  O2_7 
ROOT
HETATM    1  C1  UNL     1       1.502 101.305  24.527  1.00  0.00     0.065 A 
HETATM    2  C2  UNL     1       1.069 100.742  25.709  1.00  0.00     0.039 A 
HETATM    3  C3  UNL     1       1.871  99.855  26.384  1.00  0.00     0.039 A 
HETATM    4  C4  UNL     1       3.116  99.505  25.906  1.00  0.00     0.065 A 
HETATM    5  C5  UNL     1       3.545 100.071  24.724  1.00  0.00     0.039 A 
HETATM    6  C6  UNL     1       2.745 100.974  24.025  1.00  0.00     0.039 A 
ENDROOT
BRANCH   1   7
HETATM    7  O1  UNL     1       0.642 102.197  23.894  1.00  0.00    -0.361 OA
ATOM      8  H1  UNL     1       1.035 102.941  23.453  1.00  0.00     0.217 HD
ENDBRANCH   1   7
BRANCH   4   9
HETATM    9  O2  UNL     1       3.925  98.603  26.595  1.00  0.00    -0.361 OA
ATOM     10  H2  UNL     1       3.548  97.914  27.128  1.00  0.00     0.217 HD
ENDBRANCH   4   9
TORSDOF 2
ENDMDL
