MODEL 1
REMARK VINA RESULT: -5.397758926      0.000      0.000
REMARK  2 active torsions:
REMARK  status: ('A' for Active; 'I' for Inactive)
REMARK    1  A    between atoms: O1_1  and  C1_3 
REMARK    2  A    between atoms: C4_6  and  O2_7 
ROOT
HETATM    1  C1  UNL     1       1.747  99.810  26.337  1.00  0.00     0.065 A 
HETATM    2  C2  UNL     1       3.000  99.494  25.857  1.00  0.00     0.039 A 
HETATM    3  C3  UNL     1       3.574 100.262  24.875  1.00  0.00     0.039 A 
HETATM    4  C4  UNL     1       2.924 101.357  24.347  1.00  0.00     0.065 A 
HETATM    5  C5  UNL     1       1.671 101.670  24.831  1.00  0.00     0.039 A 
HETATM    6  C6  UNL     1       1.072 100.901  25.828  1.00  0.00     0.039 A 
ENDROOT
BRANCH   1   7
HETATM    7  O1  UNL     1       1.222  98.991  27.333  1.00  0.00    -0.361 OA
ATOM      8  H1  UNL     1       0.780  99.418  28.058  1.00  0.00     0.217 HD
ENDBRANCH   1   7
BRANCH   4   9
HETATM    9  O2  UNL     1       3.512 102.133  23.349  1.00  0.00    -0.361 OA
ATOM     10  H2  UNL     1       3.814 103.016  23.527  1.00  0.00     0.217 HD
ENDBRANCH   4   9
TORSDOF 2
ENDMDL
