MODEL 7
REMARK VINA RESULT: -8.576949780      2.566      6.517
REMARK  6 active torsions:
REMARK  status: ('A' for Active; 'I' for Inactive)
REMARK    1  A    between atoms: C12_17  and  C13_18 
REMARK    2  A    between atoms: C13_18  and  C14_19 
REMARK    3  A    between atoms: C14_19  and  C16_21 
REMARK       I    between atoms: C16_21  and  N4_23 
REMARK    4  A    between atoms: N4_23  and  C17_25 
REMARK    5  A    between atoms: C17_25  and  C18_26 
REMARK    6  A    between atoms: C18_26  and  C19_27 
ROOT
HETATM    1  C1  UNL     1      67.537  54.334  11.365  1.00  0.00     0.050 C 
HETATM    2  C2  UNL     1      66.431  53.413  11.683  1.00  0.00    -0.034 A 
HETATM    3  C3  UNL     1      65.128  53.931  11.684  1.00  0.00     0.010 A 
HETATM    4  C4  UNL     1      64.087  53.078  11.967  1.00  0.00     0.018 A 
HETATM    5  C5  UNL     1      64.365  51.758  12.235  1.00  0.00     0.088 A 
HETATM    6  N1  UNL     1      65.615  51.271  12.233  1.00  0.00    -0.365 N 
ATOM      7  H1  UNL     1      65.779  50.285  12.437  1.00  0.00     0.165 HD
HETATM    8  C6  UNL     1      66.669  52.096  11.956  1.00  0.00     0.048 A 
HETATM    9  C7  UNL     1      68.004  51.553  11.948  1.00  0.00    -0.008 A 
HETATM   10  C8  UNL     1      69.052  52.156  12.602  1.00  0.00     0.016 A 
HETATM   11  C9  UNL     1      70.330  51.588  12.552  1.00  0.00     0.031 A 
HETATM   12  C10 UNL     1      70.560  50.423  11.852  1.00  0.00     0.043 A 
HETATM   13  N2  UNL     1      71.803  49.862  11.798  1.00  0.00    -0.344 N 
ATOM     14  H2  UNL     1      72.581  50.311  12.283  1.00  0.00     0.167 HD
HETATM   15  C11 UNL     1      72.014  48.718  11.107  1.00  0.00     0.123 A 
HETATM   16  N3  UNL     1      73.311  48.156  11.066  1.00  0.00    -0.082 NA
HETATM   17  C12 UNL     1      71.003  48.081  10.441  1.00  0.00    -0.015 A 
HETATM   18  C23 UNL     1      69.742  48.621  10.477  1.00  0.00     0.024 A 
HETATM   19  C24 UNL     1      69.518  49.806  11.190  1.00  0.00    -0.008 A 
HETATM   20  C25 UNL     1      68.270  50.378  11.251  1.00  0.00     0.027 A 
ENDROOT
BRANCH  17  21
HETATM   21  C13 UNL     1      71.267  46.838   9.699  1.00  0.00     0.055 C 
BRANCH  21  22
HETATM   22  C14 UNL     1      70.803  47.019   8.277  1.00  0.00     0.078 C 
HETATM   23  C15 UNL     1      71.745  46.307   7.353  1.00  0.00     0.020 C 
BRANCH  22  24
HETATM   24  C16 UNL     1      69.399  46.642   8.081  1.00  0.00     0.221 C 
HETATM   25  O1  UNL     1      68.883  45.593   8.550  1.00  0.00    -0.273 OA
HETATM   26  N4  UNL     1      68.532  47.507   7.306  1.00  0.00    -0.361 N 
ATOM     27  H4  UNL     1      68.900  48.369   6.904  1.00  0.00     0.162 HD
BRANCH  26  28
HETATM   28  C17 UNL     1      67.153  47.155   7.100  1.00  0.00     0.123 C 
BRANCH  28  29
HETATM   29  C18 UNL     1      66.215  48.078   7.788  1.00  0.00     0.028 C 
BRANCH  29  30
HETATM   30  C19 UNL     1      65.259  47.488   8.748  1.00  0.00    -0.050 C 
HETATM   31  C20 UNL     1      63.871  47.423   8.119  1.00  0.00     0.014 C 
HETATM   32  C21 UNL     1      65.617  46.171   9.326  1.00  0.00     0.014 C 
HETATM   33  C22 UNL     1      65.072  48.518   9.900  1.00  0.00     0.014 C 
ENDBRANCH  29  30
ENDBRANCH  28  29
ENDBRANCH  26  28
ENDBRANCH  22  24
ENDBRANCH  21  22
ENDBRANCH  17  21
TORSDOF 6
ENDMDL
