MODEL 3
REMARK VINA RESULT: -8.821140624      0.650      1.103
REMARK  6 active torsions:
REMARK  status: ('A' for Active; 'I' for Inactive)
REMARK    1  A    between atoms: C12_17  and  C13_18 
REMARK    2  A    between atoms: C13_18  and  C14_19 
REMARK    3  A    between atoms: C14_19  and  C16_21 
REMARK       I    between atoms: C16_21  and  N4_23 
REMARK    4  A    between atoms: N4_23  and  C17_25 
REMARK    5  A    between atoms: C17_25  and  C18_26 
REMARK    6  A    between atoms: C18_26  and  C19_27 
ROOT
HETATM    1  C1  UNL     1      71.597  51.071  13.532  1.00  0.00     0.050 C 
HETATM    2  C2  UNL     1      71.625  50.029  12.491  1.00  0.00    -0.034 A 
HETATM    3  C3  UNL     1      72.790  49.260  12.366  1.00  0.00     0.010 A 
HETATM    4  C4  UNL     1      72.823  48.275  11.407  1.00  0.00     0.018 A 
HETATM    5  C5  UNL     1      71.716  48.086  10.613  1.00  0.00     0.088 A 
HETATM    6  N1  UNL     1      70.604  48.827  10.738  1.00  0.00    -0.365 N 
ATOM      7  H1  UNL     1      69.804  48.654  10.130  1.00  0.00     0.165 HD
HETATM    8  C6  UNL     1      70.544  49.813  11.683  1.00  0.00     0.048 A 
HETATM    9  C7  UNL     1      69.339  50.593  11.811  1.00  0.00    -0.008 A 
HETATM   10  C8  UNL     1      69.350  51.965  11.883  1.00  0.00     0.016 A 
HETATM   11  C9  UNL     1      68.148  52.670  12.015  1.00  0.00     0.031 A 
HETATM   12  C10 UNL     1      66.941  52.006  12.075  1.00  0.00     0.043 A 
HETATM   13  N2  UNL     1      65.765  52.686  12.205  1.00  0.00    -0.344 N 
ATOM     14  H2  UNL     1      65.773  53.705  12.259  1.00  0.00     0.167 HD
HETATM   15  C11 UNL     1      64.587  52.021  12.262  1.00  0.00     0.123 A 
HETATM   16  N3  UNL     1      63.381  52.748  12.396  1.00  0.00    -0.082 NA
HETATM   17  C12 UNL     1      64.526  50.656  12.193  1.00  0.00    -0.015 A 
HETATM   18  C23 UNL     1      65.693  49.946  12.063  1.00  0.00     0.024 A 
HETATM   19  C24 UNL     1      66.914  50.629  12.004  1.00  0.00    -0.008 A 
HETATM   20  C25 UNL     1      68.104  49.953  11.874  1.00  0.00     0.027 A 
ENDROOT
BRANCH  17  21
HETATM   21  C13 UNL     1      63.228  49.966  12.259  1.00  0.00     0.055 C 
BRANCH  21  22
HETATM   22  C14 UNL     1      63.299  48.913  13.334  1.00  0.00     0.078 C 
HETATM   23  C15 UNL     1      62.189  49.133  14.319  1.00  0.00     0.020 C 
BRANCH  22  24
HETATM   24  C16 UNL     1      63.336  47.548  12.798  1.00  0.00     0.221 C 
HETATM   25  O1  UNL     1      64.066  46.633  13.261  1.00  0.00    -0.273 OA
HETATM   26  N4  UNL     1      62.495  47.204  11.668  1.00  0.00    -0.361 N 
ATOM     27  H4  UNL     1      61.885  47.909  11.256  1.00  0.00     0.162 HD
BRANCH  26  28
HETATM   28  C17 UNL     1      62.517  45.873  11.126  1.00  0.00     0.123 C 
BRANCH  28  29
HETATM   29  C18 UNL     1      62.471  45.856   9.642  1.00  0.00     0.028 C 
BRANCH  29  30
HETATM   30  C19 UNL     1      63.755  45.981   8.919  1.00  0.00    -0.050 C 
HETATM   31  C20 UNL     1      63.867  47.373   8.306  1.00  0.00     0.014 C 
HETATM   32  C21 UNL     1      64.985  45.659   9.679  1.00  0.00     0.014 C 
HETATM   33  C22 UNL     1      63.669  45.055   7.670  1.00  0.00     0.014 C 
ENDBRANCH  29  30
ENDBRANCH  28  29
ENDBRANCH  26  28
ENDBRANCH  22  24
ENDBRANCH  21  22
ENDBRANCH  17  21
TORSDOF 6
ENDMDL
