MODEL 1
REMARK VINA RESULT: -9.003398465      0.000      0.000
REMARK  6 active torsions:
REMARK  status: ('A' for Active; 'I' for Inactive)
REMARK    1  A    between atoms: C12_17  and  C13_18 
REMARK    2  A    between atoms: C13_18  and  C14_19 
REMARK    3  A    between atoms: C14_19  and  C16_21 
REMARK       I    between atoms: C16_21  and  N4_23 
REMARK    4  A    between atoms: N4_23  and  C17_25 
REMARK    5  A    between atoms: C17_25  and  C18_26 
REMARK    6  A    between atoms: C18_26  and  C19_27 
ROOT
HETATM    1  C1  UNL     1      71.608  51.200  13.521  1.00  0.00     0.050 C 
HETATM    2  C2  UNL     1      71.628  50.114  12.525  1.00  0.00    -0.034 A 
HETATM    3  C3  UNL     1      72.797  49.347  12.417  1.00  0.00     0.010 A 
HETATM    4  C4  UNL     1      72.823  48.322  11.500  1.00  0.00     0.018 A 
HETATM    5  C5  UNL     1      71.706  48.093  10.730  1.00  0.00     0.088 A 
HETATM    6  N1  UNL     1      70.592  48.833  10.839  1.00  0.00    -0.365 N 
ATOM      7  H1  UNL     1      69.785  48.630  10.249  1.00  0.00     0.165 HD
HETATM    8  C6  UNL     1      70.539  49.858  11.741  1.00  0.00     0.048 A 
HETATM    9  C7  UNL     1      69.331  50.636  11.852  1.00  0.00    -0.008 A 
HETATM   10  C8  UNL     1      69.334  52.010  11.866  1.00  0.00     0.016 A 
HETATM   11  C9  UNL     1      68.129  52.713  11.984  1.00  0.00     0.031 A 
HETATM   12  C10 UNL     1      66.927  52.045  12.089  1.00  0.00     0.043 A 
HETATM   13  N2  UNL     1      65.749  52.723  12.205  1.00  0.00    -0.344 N 
ATOM     14  H2  UNL     1      65.751  53.743  12.215  1.00  0.00     0.167 HD
HETATM   15  C11 UNL     1      64.576  52.055  12.306  1.00  0.00     0.123 A 
HETATM   16  N3  UNL     1      63.367  52.780  12.425  1.00  0.00    -0.082 NA
HETATM   17  C12 UNL     1      64.522  50.688  12.296  1.00  0.00    -0.015 A 
HETATM   18  C23 UNL     1      65.692  49.979  12.181  1.00  0.00     0.024 A 
HETATM   19  C24 UNL     1      66.908  50.666  12.076  1.00  0.00    -0.008 A 
HETATM   20  C25 UNL     1      68.101  49.992  11.959  1.00  0.00     0.027 A 
ENDROOT
BRANCH  17  21
HETATM   21  C13 UNL     1      63.230  49.993  12.408  1.00  0.00     0.055 C 
BRANCH  21  22
HETATM   22  C14 UNL     1      63.410  48.783  13.288  1.00  0.00     0.078 C 
HETATM   23  C15 UNL     1      62.681  48.997  14.582  1.00  0.00     0.020 C 
BRANCH  22  24
HETATM   24  C16 UNL     1      63.049  47.529  12.618  1.00  0.00     0.221 C 
HETATM   25  O1  UNL     1      61.868  47.106  12.514  1.00  0.00    -0.273 OA
HETATM   26  N4  UNL     1      64.092  46.709  12.033  1.00  0.00    -0.361 N 
ATOM     27  H4  UNL     1      65.065  47.008  12.090  1.00  0.00     0.162 HD
BRANCH  26  28
HETATM   28  C17 UNL     1      63.760  45.476  11.373  1.00  0.00     0.123 C 
BRANCH  28  29
HETATM   29  C18 UNL     1      64.220  45.438   9.962  1.00  0.00     0.028 C 
BRANCH  29  30
HETATM   30  C19 UNL     1      63.248  45.824   8.917  1.00  0.00    -0.050 C 
HETATM   31  C20 UNL     1      63.522  45.033   7.641  1.00  0.00     0.014 C 
HETATM   32  C21 UNL     1      61.813  45.734   9.273  1.00  0.00     0.014 C 
HETATM   33  C22 UNL     1      63.580  47.286   8.500  1.00  0.00     0.014 C 
ENDBRANCH  29  30
ENDBRANCH  28  29
ENDBRANCH  26  28
ENDBRANCH  22  24
ENDBRANCH  21  22
ENDBRANCH  17  21
TORSDOF 6
ENDMDL
