MODEL 2
REMARK VINA RESULT: -8.853743508      2.469      4.734
REMARK  6 active torsions:
REMARK  status: ('A' for Active; 'I' for Inactive)
REMARK    1  A    between atoms: C12_17  and  C13_18 
REMARK    2  A    between atoms: C13_18  and  C14_19 
REMARK    3  A    between atoms: C14_19  and  C16_21 
REMARK       I    between atoms: C16_21  and  N4_23 
REMARK    4  A    between atoms: N4_23  and  C17_25 
REMARK    5  A    between atoms: C17_25  and  C18_26 
REMARK    6  A    between atoms: C18_26  and  C19_27 
ROOT
HETATM    1  C1  UNL     1      70.377  51.986  13.144  1.00  0.00     0.050 C 
HETATM    2  C2  UNL     1      71.353  50.882  13.151  1.00  0.00    -0.034 A 
HETATM    3  C3  UNL     1      72.271  50.826  14.209  1.00  0.00     0.010 A 
HETATM    4  C4  UNL     1      73.178  49.793  14.233  1.00  0.00     0.018 A 
HETATM    5  C5  UNL     1      73.146  48.859  13.223  1.00  0.00     0.088 A 
HETATM    6  N1  UNL     1      72.264  48.919  12.214  1.00  0.00    -0.365 N 
ATOM      7  H1  UNL     1      72.274  48.206  11.485  1.00  0.00     0.165 HD
HETATM    8  C6  UNL     1      71.352  49.936  12.165  1.00  0.00     0.048 A 
HETATM    9  C7  UNL     1      70.405  49.980  11.079  1.00  0.00    -0.008 A 
HETATM   10  C8  UNL     1      70.161  51.122  10.356  1.00  0.00     0.016 A 
HETATM   11  C9  UNL     1      69.223  51.108   9.317  1.00  0.00     0.031 A 
HETATM   12  C10 UNL     1      68.533  49.957   9.002  1.00  0.00     0.043 A 
HETATM   13  N2  UNL     1      67.617  49.934   7.991  1.00  0.00    -0.344 N 
ATOM     14  H2  UNL     1      67.435  50.782   7.455  1.00  0.00     0.167 HD
HETATM   15  C11 UNL     1      66.947  48.796   7.693  1.00  0.00     0.123 A 
HETATM   16  N3  UNL     1      66.002  48.798   6.641  1.00  0.00    -0.082 NA
HETATM   17  C12 UNL     1      67.156  47.634   8.384  1.00  0.00    -0.015 A 
HETATM   18  C23 UNL     1      68.072  47.627   9.407  1.00  0.00     0.024 A 
HETATM   19  C24 UNL     1      68.767  48.801   9.719  1.00  0.00    -0.008 A 
HETATM   20  C25 UNL     1      69.692  48.835  10.736  1.00  0.00     0.027 A 
ENDROOT
BRANCH  17  21
HETATM   21  C13 UNL     1      66.410  46.415   8.034  1.00  0.00     0.055 C 
BRANCH  21  22
HETATM   22  C14 UNL     1      64.950  46.646   8.325  1.00  0.00     0.078 C 
HETATM   23  C15 UNL     1      64.208  45.348   8.205  1.00  0.00     0.020 C 
BRANCH  22  24
HETATM   24  C16 UNL     1      64.721  47.330   9.602  1.00  0.00     0.221 C 
HETATM   25  O1  UNL     1      64.856  46.779  10.726  1.00  0.00    -0.273 OA
HETATM   26  N4  UNL     1      64.315  48.722   9.601  1.00  0.00    -0.361 N 
ATOM     27  H4  UNL     1      64.192  49.215   8.717  1.00  0.00     0.162 HD
BRANCH  26  28
HETATM   28  C17 UNL     1      64.084  49.410  10.842  1.00  0.00     0.123 C 
BRANCH  28  29
HETATM   29  C18 UNL     1      65.072  50.491  11.092  1.00  0.00     0.028 C 
BRANCH  29  30
HETATM   30  C19 UNL     1      65.466  50.743  12.495  1.00  0.00    -0.050 C 
HETATM   31  C20 UNL     1      65.202  52.203  12.849  1.00  0.00     0.014 C 
HETATM   32  C21 UNL     1      64.878  49.855  13.524  1.00  0.00     0.014 C 
HETATM   33  C22 UNL     1      67.018  50.643  12.559  1.00  0.00     0.014 C 
ENDBRANCH  29  30
ENDBRANCH  28  29
ENDBRANCH  26  28
ENDBRANCH  22  24
ENDBRANCH  21  22
ENDBRANCH  17  21
TORSDOF 6
ENDMDL
