MODEL 3
REMARK VINA RESULT: -10.196774339      4.058     10.021
REMARK  3 active torsions:
REMARK  status: ('A' for Active; 'I' for Inactive)
REMARK    1  A    between atoms: C6_10  and  N3_11 
REMARK       I    between atoms: N3_11  and  C7_13 
REMARK    2  A    between atoms: C7_13  and  C8_15 
REMARK    3  A    between atoms: C18_31  and  C19_32 
ROOT
HETATM    1  N1  UNL     1      66.720  45.869   9.003  1.00  0.00    -0.056 NA
HETATM    2  C1  UNL     1      67.315  47.132   8.587  1.00  0.00     0.228 C 
HETATM    3  N2  UNL     1      68.434  47.591   9.003  1.00  0.00    -0.339 N 
ATOM      4  H2  UNL     1      69.032  47.114   9.678  1.00  0.00     0.164 HD
HETATM    5  C2  UNL     1      68.753  48.891   8.391  1.00  0.00     0.115 A 
HETATM    6  C3  UNL     1      67.816  48.850   7.211  1.00  0.00     0.219 C 
HETATM    7  O1  UNL     1      66.781  48.031   7.692  1.00  0.00    -0.321 OA
HETATM    8  C4  UNL     1      68.423  49.907   9.367  1.00  0.00     0.013 A 
HETATM    9  C5  UNL     1      67.113  50.090   9.824  1.00  0.00     0.042 A 
HETATM   10  C6  UNL     1      66.749  51.045  10.751  1.00  0.00     0.035 A 
HETATM   11  C13 UNL     1      67.713  51.860  11.254  1.00  0.00     0.032 A 
HETATM   12  C14 UNL     1      69.029  51.703  10.819  1.00  0.00     0.040 A 
HETATM   13  C15 UNL     1      69.366  50.743   9.893  1.00  0.00     0.085 A 
HETATM   14  O3  UNL     1      70.721  50.661   9.517  1.00  0.00    -0.308 OA
HETATM   15  C16 UNL     1      71.067  49.694   8.585  1.00  0.00     0.100 A 
HETATM   16  C17 UNL     1      72.411  49.579   8.181  1.00  0.00     0.126 A 
HETATM   17  N5  UNL     1      72.841  48.690   7.300  1.00  0.00    -0.362 N 
ATOM     18  H5  UNL     1      73.825  48.642   7.037  1.00  0.00     0.165 HD
HETATM   19  C18 UNL     1      71.925  47.836   6.752  1.00  0.00     0.044 A 
HETATM   20  C24 UNL     1      70.611  47.890   7.093  1.00  0.00     0.043 A 
HETATM   21  C25 UNL     1      70.156  48.835   8.031  1.00  0.00     0.014 A 
ENDROOT
BRANCH  10  22
HETATM   22  N3  UNL     1      65.396  51.170  11.146  1.00  0.00    -0.322 N 
HETATM   23  C7  UNL     1      64.517  50.162  11.560  1.00  0.00     0.272 C 
HETATM   24  O2  UNL     1      64.906  48.974  11.604  1.00  0.00    -0.266 OA
ATOM     25  H3  UNL     1      65.012  52.116  11.128  1.00  0.00     0.169 HD
BRANCH  23  26
HETATM   26  C8  UNL     1      63.116  50.464  11.952  1.00  0.00     0.101 A 
HETATM   27  C9  UNL     1      62.452  51.480  11.309  1.00  0.00     0.037 A 
HETATM   28  C10 UNL     1      61.146  51.811  11.629  1.00  0.00     0.028 A 
HETATM   29  C11 UNL     1      60.540  51.074  12.624  1.00  0.00     0.049 A 
HETATM   30 CL1  UNL     1      58.877  51.393  13.128  1.00  0.00    -0.083 Cl
HETATM   31  C12 UNL     1      61.203  50.050  13.274  1.00  0.00     0.112 A 
HETATM   32  N4  UNL     1      62.471  49.790  12.907  1.00  0.00    -0.360 N 
ATOM     33  H4  UNL     1      62.966  49.037  13.385  1.00  0.00     0.165 HD
ENDBRANCH  23  26
ENDBRANCH  10  22
BRANCH  19  34
HETATM   34  C19 UNL     1      72.468  46.890   5.794  1.00  0.00     0.012 A 
HETATM   35  C20 UNL     1      72.465  47.154   4.510  1.00  0.00     0.148 A 
HETATM   36  O4  UNL     1      72.971  46.283   3.551  1.00  0.00    -0.358 OA
HETATM   37  C21 UNL     1      73.530  45.051   3.864  1.00  0.00     0.202 A 
HETATM   38  C22 UNL     1      73.533  44.756   5.298  1.00  0.00     0.000 A 
HETATM   39  C23 UNL     1      73.044  45.604   6.187  1.00  0.00     0.013 A 
ENDBRANCH  19  34
TORSDOF 3
ENDMDL
