MODEL 6
REMARK VINA RESULT: -10.100689463      4.088     10.202
REMARK  3 active torsions:
REMARK  status: ('A' for Active; 'I' for Inactive)
REMARK    1  A    between atoms: C6_10  and  N3_11 
REMARK       I    between atoms: N3_11  and  C7_13 
REMARK    2  A    between atoms: C7_13  and  C8_15 
REMARK    3  A    between atoms: C18_31  and  C19_32 
ROOT
HETATM    1  N1  UNL     1      66.692  45.639   9.038  1.00  0.00    -0.056 NA
HETATM    2  C1  UNL     1      67.153  46.970   8.664  1.00  0.00     0.228 C 
HETATM    3  N2  UNL     1      68.200  47.543   9.124  1.00  0.00    -0.339 N 
ATOM      4  H2  UNL     1      68.828  47.122   9.809  1.00  0.00     0.164 HD
HETATM    5  C2  UNL     1      68.388  48.883   8.545  1.00  0.00     0.115 A 
HETATM    6  C3  UNL     1      67.496  48.762   7.335  1.00  0.00     0.219 C 
HETATM    7  O1  UNL     1      66.547  47.822   7.769  1.00  0.00    -0.321 OA
HETATM    8  C4  UNL     1      67.917  49.835   9.528  1.00  0.00     0.013 A 
HETATM    9  C5  UNL     1      66.582  49.859   9.947  1.00  0.00     0.042 A 
HETATM   10  C6  UNL     1      66.085  50.748  10.879  1.00  0.00     0.035 A 
HETATM   11  C13 UNL     1      66.935  51.655  11.426  1.00  0.00     0.032 A 
HETATM   12  C14 UNL     1      68.273  51.657  11.030  1.00  0.00     0.040 A 
HETATM   13  C15 UNL     1      68.743  50.760  10.099  1.00  0.00     0.085 A 
HETATM   14  O3  UNL     1      70.109  50.839   9.765  1.00  0.00    -0.308 OA
HETATM   15  C16 UNL     1      70.590  49.937   8.827  1.00  0.00     0.100 A 
HETATM   16  C17 UNL     1      71.950  49.982   8.464  1.00  0.00     0.126 A 
HETATM   17  N5  UNL     1      72.503  49.165   7.582  1.00  0.00    -0.362 N 
ATOM     18  H5  UNL     1      73.494  49.235   7.350  1.00  0.00     0.165 HD
HETATM   19  C18 UNL     1      71.706  48.227   6.990  1.00  0.00     0.044 A 
HETATM   20  C24 UNL     1      70.385  48.124   7.290  1.00  0.00     0.043 A 
HETATM   21  C25 UNL     1      69.798  48.993   8.229  1.00  0.00     0.014 A 
ENDROOT
BRANCH  10  22
HETATM   22  N3  UNL     1      64.715  50.712  11.233  1.00  0.00    -0.322 N 
HETATM   23  C7  UNL     1      64.110  51.183  12.404  1.00  0.00     0.272 C 
HETATM   24  O2  UNL     1      64.808  51.710  13.298  1.00  0.00    -0.266 OA
ATOM     25  H3  UNL     1      64.089  50.289  10.547  1.00  0.00     0.169 HD
BRANCH  23  26
HETATM   26  C8  UNL     1      62.644  51.076  12.620  1.00  0.00     0.101 A 
HETATM   27  C9  UNL     1      61.815  51.972  11.992  1.00  0.00     0.037 A 
HETATM   28  C10 UNL     1      60.439  51.926  12.153  1.00  0.00     0.028 A 
HETATM   29  C11 UNL     1      59.939  50.937  12.973  1.00  0.00     0.049 A 
HETATM   30 CL1  UNL     1      58.205  50.767  13.263  1.00  0.00    -0.083 Cl
HETATM   31  C12 UNL     1      60.769  50.032  13.607  1.00  0.00     0.112 A 
HETATM   32  N4  UNL     1      62.094  50.143  13.402  1.00  0.00    -0.360 N 
ATOM     33  H4  UNL     1      62.712  49.479  13.868  1.00  0.00     0.165 HD
ENDBRANCH  23  26
ENDBRANCH  10  22
BRANCH  19  34
HETATM   34  C19 UNL     1      72.381  47.368   6.033  1.00  0.00     0.012 A 
HETATM   35  C20 UNL     1      73.268  46.487   6.427  1.00  0.00     0.148 A 
HETATM   36  O4  UNL     1      73.943  45.641   5.554  1.00  0.00    -0.358 OA
HETATM   37  C21 UNL     1      73.740  45.650   4.179  1.00  0.00     0.202 A 
HETATM   38  C22 UNL     1      72.750  46.634   3.740  1.00  0.00     0.000 A 
HETATM   39  C23 UNL     1      72.124  47.425   4.594  1.00  0.00     0.013 A 
ENDBRANCH  19  34
TORSDOF 3
ENDMDL
