MODEL 4
REMARK VINA RESULT: -10.160590016      2.519      5.062
REMARK  3 active torsions:
REMARK  status: ('A' for Active; 'I' for Inactive)
REMARK    1  A    between atoms: C6_10  and  N3_11 
REMARK       I    between atoms: N3_11  and  C7_13 
REMARK    2  A    between atoms: C7_13  and  C8_15 
REMARK    3  A    between atoms: C18_31  and  C19_32 
ROOT
HETATM    1  N1  UNL     1      72.786  46.559  10.867  1.00  0.00    -0.056 NA
HETATM    2  C1  UNL     1      71.850  46.572   9.751  1.00  0.00     0.228 C 
HETATM    3  N2  UNL     1      70.621  46.223   9.816  1.00  0.00    -0.339 N 
ATOM      4  H2  UNL     1      70.165  45.895  10.667  1.00  0.00     0.164 HD
HETATM    5  C2  UNL     1      69.947  46.352   8.515  1.00  0.00     0.115 A 
HETATM    6  C3  UNL     1      70.917  47.273   7.819  1.00  0.00     0.219 C 
HETATM    7  O1  UNL     1      72.127  46.955   8.459  1.00  0.00    -0.321 OA
HETATM    8  C4  UNL     1      69.884  45.025   7.941  1.00  0.00     0.013 A 
HETATM    9  C5  UNL     1      71.041  44.304   7.624  1.00  0.00     0.042 A 
HETATM   10  C6  UNL     1      71.033  43.039   7.075  1.00  0.00     0.035 A 
HETATM   11  C13 UNL     1      69.834  42.450   6.824  1.00  0.00     0.032 A 
HETATM   12  C14 UNL     1      68.661  43.141   7.129  1.00  0.00     0.040 A 
HETATM   13  C15 UNL     1      68.697  44.402   7.677  1.00  0.00     0.085 A 
HETATM   14  O3  UNL     1      67.461  45.019   7.951  1.00  0.00    -0.308 OA
HETATM   15  C16 UNL     1      67.491  46.291   8.503  1.00  0.00     0.100 A 
HETATM   16  C17 UNL     1      66.277  46.943   8.793  1.00  0.00     0.126 A 
HETATM   17  N5  UNL     1      66.200  48.154   9.320  1.00  0.00    -0.362 N 
ATOM     18  H5  UNL     1      65.297  48.588   9.513  1.00  0.00     0.165 HD
HETATM   19  C18 UNL     1      67.367  48.807   9.599  1.00  0.00     0.044 A 
HETATM   20  C24 UNL     1      68.576  48.241   9.346  1.00  0.00     0.043 A 
HETATM   21  C25 UNL     1      68.656  46.952   8.785  1.00  0.00     0.014 A 
ENDROOT
BRANCH  10  22
HETATM   22  N3  UNL     1      72.253  42.389   6.771  1.00  0.00    -0.322 N 
HETATM   23  C7  UNL     1      73.020  42.489   5.604  1.00  0.00     0.272 C 
HETATM   24  O2  UNL     1      72.637  43.222   4.667  1.00  0.00    -0.266 OA
ATOM     25  H3  UNL     1      72.620  41.769   7.494  1.00  0.00     0.169 HD
BRANCH  23  26
HETATM   26  C8  UNL     1      74.293  41.739   5.444  1.00  0.00     0.101 A 
HETATM   27  C9  UNL     1      75.265  41.872   6.406  1.00  0.00     0.037 A 
HETATM   28  C10 UNL     1      76.473  41.201   6.315  1.00  0.00     0.028 A 
HETATM   29  C11 UNL     1      76.657  40.392   5.213  1.00  0.00     0.049 A 
HETATM   30 CL1  UNL     1      78.152  39.480   4.976  1.00  0.00    -0.083 Cl
HETATM   31  C12 UNL     1      75.683  40.255   4.243  1.00  0.00     0.112 A 
HETATM   32  N4  UNL     1      74.536  40.940   4.403  1.00  0.00    -0.360 N 
ATOM     33  H4  UNL     1      73.814  40.844   3.689  1.00  0.00     0.165 HD
ENDBRANCH  23  26
ENDBRANCH  10  22
BRANCH  19  34
HETATM   34  C19 UNL     1      67.205  50.130  10.175  1.00  0.00     0.012 A 
HETATM   35  C20 UNL     1      66.017  50.588  10.487  1.00  0.00     0.148 A 
HETATM   36  O4  UNL     1      65.806  51.846  11.040  1.00  0.00    -0.358 OA
HETATM   37  C21 UNL     1      66.836  52.738  11.314  1.00  0.00     0.202 A 
HETATM   38  C22 UNL     1      68.162  52.227  10.964  1.00  0.00     0.000 A 
HETATM   39  C23 UNL     1      68.332  51.025  10.439  1.00  0.00     0.013 A 
ENDBRANCH  19  34
TORSDOF 3
ENDMDL
