MODEL 2
REMARK VINA RESULT: -9.472076731      2.254      3.137
REMARK  13 active torsions:
REMARK  status: ('A' for Active; 'I' for Inactive)
REMARK    1  A    between atoms: C2_2  and  C5_5 
REMARK    2  A    between atoms: C5_5  and  C6_6 
REMARK    3  A    between atoms: C6_6  and  N1_7 
REMARK       I    between atoms: N1_7  and  C7_9 
REMARK    4  A    between atoms: C7_9  and  C8_11 
REMARK    5  A    between atoms: C8_11  and  C9_12 
REMARK    6  A    between atoms: C9_12  and  C10_13 
REMARK    7  A    between atoms: C14_17  and  C15_18 
REMARK    8  A    between atoms: C20_23  and  C21_24 
REMARK    9  A    between atoms: C21_24  and  C22_25 
REMARK   10  A    between atoms: C22_25  and  C23_26 
REMARK   11  A    between atoms: C23_26  and  C24_27 
REMARK   12  A    between atoms: C24_27  and  N2_28 
REMARK       I    between atoms: N2_28  and  C25_30 
REMARK   13  A    between atoms: C25_30  and  C26_32 
ROOT
HETATM    1  C10 UNL     1      11.835 -39.334  13.404  1.00  0.00    -0.016 A 
HETATM    2  C11 UNL     1      13.107 -39.726  13.766  1.00  0.00     0.024 A 
HETATM    3  C12 UNL     1      14.209 -38.975  13.406  1.00  0.00    -0.008 A 
HETATM    4  C13 UNL     1      15.499 -39.351  13.758  1.00  0.00     0.026 A 
HETATM    5  C14 UNL     1      16.599 -38.589  13.391  1.00  0.00    -0.024 A 
HETATM    6  C34 UNL     1      16.355 -37.446  12.662  1.00  0.00     0.014 A 
HETATM    7  C35 UNL     1      15.064 -37.073  12.311  1.00  0.00     0.031 A 
HETATM    8  C36 UNL     1      13.969 -37.831  12.678  1.00  0.00     0.043 A 
HETATM    9  N3  UNL     1      12.713 -37.460  12.330  1.00  0.00    -0.344 N 
ATOM     10  H3  UNL     1      12.590 -36.603  11.790  1.00  0.00     0.167 HD
HETATM   11  C37 UNL     1      11.622 -38.169  12.664  1.00  0.00     0.123 A 
HETATM   12  N4  UNL     1      10.304 -37.780  12.301  1.00  0.00    -0.082 NA
ENDROOT
BRANCH   5  13
HETATM   13  C15 UNL     1      17.963 -38.954  13.727  1.00  0.00    -0.007 A 
HETATM   14  C16 UNL     1      18.575 -38.605  14.913  1.00  0.00     0.014 A 
HETATM   15  C17 UNL     1      19.867 -38.976  15.212  1.00  0.00     0.001 A 
HETATM   16  C18 UNL     1      20.599 -39.723  14.318  1.00  0.00     0.002 A 
HETATM   17  C19 UNL     1      20.012 -40.085  13.129  1.00  0.00     0.021 A 
HETATM   18  C20 UNL     1      18.706 -39.697  12.846  1.00  0.00     0.028 A 
BRANCH  18  19
HETATM   19  C21 UNL     1      18.138 -40.084  11.587  1.00  0.00    -0.066 C 
BRANCH  19  20
HETATM   20  C22 UNL     1      17.630 -40.399  10.517  1.00  0.00    -0.099 C 
BRANCH  20  21
HETATM   21  C23 UNL     1      17.018 -40.802   9.249  1.00  0.00     0.125 C 
BRANCH  21  22
HETATM   22  C24 UNL     1      15.849 -41.773   9.487  1.00  0.00     0.043 A 
HETATM   23  C32 UNL     1      15.064 -41.450  10.756  1.00  0.00     0.034 A 
HETATM   24  C33 UNL     1      14.520 -41.193   9.344  1.00  0.00     0.034 A 
BRANCH  22  25
HETATM   25  N2  UNL     1      16.169 -43.145   9.315  1.00  0.00    -0.347 N 
HETATM   26  C25 UNL     1      15.918 -43.903   8.145  1.00  0.00     0.252 C 
HETATM   27  O2  UNL     1      15.358 -43.256   7.194  1.00  0.00    -0.268 OA
ATOM     28  H2  UNL     1      16.616 -43.623  10.098  1.00  0.00     0.163 HD
BRANCH  26  29
HETATM   29  C26 UNL     1      16.240 -45.296   7.965  1.00  0.00     0.032 A 
HETATM   30  C27 UNL     1      17.388 -45.640   7.284  1.00  0.00     0.020 A 
HETATM   31  C28 UNL     1      17.752 -46.962   7.074  1.00  0.00     0.043 A 
HETATM   32  C29 UNL     1      16.953 -47.978   7.556  1.00  0.00     0.116 A 
HETATM   33  F1  UNL     1      17.274 -49.302   7.371  1.00  0.00    -0.206 F 
HETATM   34  C30 UNL     1      15.812 -47.640   8.233  1.00  0.00     0.043 A 
HETATM   35  C31 UNL     1      15.457 -46.302   8.438  1.00  0.00     0.020 A 
ENDBRANCH  26  29
ENDBRANCH  22  25
ENDBRANCH  21  22
ENDBRANCH  20  21
ENDBRANCH  19  20
ENDBRANCH  18  19
ENDBRANCH   5  13
BRANCH   1  36
HETATM   36  C9  UNL     1      10.631 -40.109  13.770  1.00  0.00     0.051 C 
BRANCH  36  37
HETATM   37  C8  UNL     1      11.083 -41.416  14.374  1.00  0.00     0.107 C 
BRANCH  37  38
HETATM   38  C7  UNL     1      10.837 -42.563  13.496  1.00  0.00     0.217 C 
HETATM   39  N1  UNL     1      11.766 -42.895  12.488  1.00  0.00    -0.361 N 
ATOM     40  H1  UNL     1      12.605 -42.324  12.382  1.00  0.00     0.162 HD
HETATM   41  O1  UNL     1       9.807 -43.255  13.634  1.00  0.00    -0.274 OA
BRANCH  39  42
HETATM   42  C6  UNL     1      11.567 -44.000  11.611  1.00  0.00     0.123 C 
BRANCH  42  43
HETATM   43  C5  UNL     1      12.290 -43.975  10.316  1.00  0.00     0.028 C 
BRANCH  43  44
HETATM   44  C2  UNL     1      11.480 -44.120   9.082  1.00  0.00    -0.050 C 
HETATM   45  C1  UNL     1      10.047 -44.464   9.364  1.00  0.00     0.014 C 
HETATM   46  C3  UNL     1      12.058 -45.134   8.115  1.00  0.00     0.014 C 
HETATM   47  C4  UNL     1      11.469 -42.792   8.315  1.00  0.00     0.014 C 
ENDBRANCH  43  44
ENDBRANCH  42  43
ENDBRANCH  39  42
ENDBRANCH  37  38
ENDBRANCH  36  37
ENDBRANCH   1  36
TORSDOF 13
ENDMDL
