MODEL 4
REMARK VINA RESULT: -9.218559482      2.013      2.646
REMARK  13 active torsions:
REMARK  status: ('A' for Active; 'I' for Inactive)
REMARK    1  A    between atoms: C2_2  and  C5_5 
REMARK    2  A    between atoms: C5_5  and  C6_6 
REMARK    3  A    between atoms: C6_6  and  N1_7 
REMARK       I    between atoms: N1_7  and  C7_9 
REMARK    4  A    between atoms: C7_9  and  C8_11 
REMARK    5  A    between atoms: C8_11  and  C9_12 
REMARK    6  A    between atoms: C9_12  and  C10_13 
REMARK    7  A    between atoms: C14_17  and  C15_18 
REMARK    8  A    between atoms: C20_23  and  C21_24 
REMARK    9  A    between atoms: C21_24  and  C22_25 
REMARK   10  A    between atoms: C22_25  and  C23_26 
REMARK   11  A    between atoms: C23_26  and  C24_27 
REMARK   12  A    between atoms: C24_27  and  N2_28 
REMARK       I    between atoms: N2_28  and  C25_30 
REMARK   13  A    between atoms: C25_30  and  C26_32 
ROOT
HETATM    1  C10 UNL     1      11.879 -39.187  12.821  1.00  0.00    -0.016 A 
HETATM    2  C11 UNL     1      13.119 -39.654  13.201  1.00  0.00     0.024 A 
HETATM    3  C12 UNL     1      14.257 -38.906  12.978  1.00  0.00    -0.008 A 
HETATM    4  C13 UNL     1      15.517 -39.356  13.351  1.00  0.00     0.026 A 
HETATM    5  C14 UNL     1      16.655 -38.596  13.121  1.00  0.00    -0.024 A 
HETATM    6  C34 UNL     1      16.479 -37.375  12.506  1.00  0.00     0.014 A 
HETATM    7  C35 UNL     1      15.219 -36.927  12.134  1.00  0.00     0.031 A 
HETATM    8  C36 UNL     1      14.086 -37.684  12.363  1.00  0.00     0.043 A 
HETATM    9  N3  UNL     1      12.860 -37.239  11.995  1.00  0.00    -0.344 N 
ATOM     10  H3  UNL     1      12.788 -36.327  11.544  1.00  0.00     0.167 HD
HETATM   11  C37 UNL     1      11.735 -37.945  12.199  1.00  0.00     0.123 A 
HETATM   12  N4  UNL     1      10.448 -37.478  11.814  1.00  0.00    -0.082 NA
ENDROOT
BRANCH   5  13
HETATM   13  C15 UNL     1      17.989 -39.036  13.484  1.00  0.00    -0.007 A 
HETATM   14  C16 UNL     1      18.706 -38.509  14.538  1.00  0.00     0.014 A 
HETATM   15  C17 UNL     1      19.965 -38.956  14.868  1.00  0.00     0.001 A 
HETATM   16  C18 UNL     1      20.558 -39.963  14.141  1.00  0.00     0.002 A 
HETATM   17  C19 UNL     1      19.865 -40.506  13.085  1.00  0.00     0.021 A 
HETATM   18  C20 UNL     1      18.593 -40.038  12.767  1.00  0.00     0.028 A 
BRANCH  18  19
HETATM   19  C21 UNL     1      17.912 -40.622  11.649  1.00  0.00    -0.066 C 
BRANCH  19  20
HETATM   20  C22 UNL     1      17.328 -41.145  10.707  1.00  0.00    -0.099 C 
BRANCH  20  21
HETATM   21  C23 UNL     1      16.639 -41.749   9.564  1.00  0.00     0.125 C 
BRANCH  21  22
HETATM   22  C24 UNL     1      15.191 -41.242   9.464  1.00  0.00     0.043 A 
HETATM   23  C32 UNL     1      15.092 -39.722   9.561  1.00  0.00     0.034 A 
HETATM   24  C33 UNL     1      14.876 -40.495   8.253  1.00  0.00     0.034 A 
BRANCH  22  25
HETATM   25  N2  UNL     1      14.254 -41.953  10.257  1.00  0.00    -0.347 N 
HETATM   26  C25 UNL     1      13.551 -43.114   9.849  1.00  0.00     0.252 C 
HETATM   27  O2  UNL     1      13.816 -43.515   8.663  1.00  0.00    -0.268 OA
ATOM     28  H2  UNL     1      14.072 -41.601  11.197  1.00  0.00     0.163 HD
BRANCH  26  29
HETATM   29  C26 UNL     1      12.598 -43.840  10.650  1.00  0.00     0.032 A 
HETATM   30  C27 UNL     1      12.408 -45.185  10.417  1.00  0.00     0.020 A 
HETATM   31  C28 UNL     1      11.503 -45.939  11.149  1.00  0.00     0.043 A 
HETATM   32  C29 UNL     1      10.762 -45.341  12.148  1.00  0.00     0.116 A 
HETATM   33  F1  UNL     1       9.853 -46.049  12.899  1.00  0.00    -0.206 F 
HETATM   34  C30 UNL     1      10.948 -44.005  12.382  1.00  0.00     0.043 A 
HETATM   35  C31 UNL     1      11.864 -43.256  11.634  1.00  0.00     0.020 A 
ENDBRANCH  26  29
ENDBRANCH  22  25
ENDBRANCH  21  22
ENDBRANCH  20  21
ENDBRANCH  19  20
ENDBRANCH  18  19
ENDBRANCH   5  13
BRANCH   1  36
HETATM   36  C9  UNL     1      10.637 -39.958  13.042  1.00  0.00     0.051 C 
BRANCH  36  37
HETATM   37  C8  UNL     1      10.773 -40.694  14.353  1.00  0.00     0.107 C 
BRANCH  37  38
HETATM   38  C7  UNL     1       9.478 -41.050  14.941  1.00  0.00     0.217 C 
HETATM   39  N1  UNL     1       8.285 -40.792  14.235  1.00  0.00    -0.361 N 
ATOM     40  H1  UNL     1       8.340 -40.356  13.314  1.00  0.00     0.162 HD
HETATM   41  O1  UNL     1       9.422 -41.583  16.068  1.00  0.00    -0.274 OA
BRANCH  39  42
HETATM   42  C6  UNL     1       7.005 -41.121  14.768  1.00  0.00     0.123 C 
BRANCH  42  43
HETATM   43  C5  UNL     1       6.155 -42.036  13.970  1.00  0.00     0.028 C 
BRANCH  43  44
HETATM   44  C2  UNL     1       6.173 -43.473  14.335  1.00  0.00    -0.050 C 
HETATM   45  C1  UNL     1       5.747 -43.719  15.752  1.00  0.00     0.014 C 
HETATM   46  C3  UNL     1       7.521 -44.125  14.096  1.00  0.00     0.014 C 
HETATM   47  C4  UNL     1       5.190 -44.242  13.443  1.00  0.00     0.014 C 
ENDBRANCH  43  44
ENDBRANCH  42  43
ENDBRANCH  39  42
ENDBRANCH  37  38
ENDBRANCH  36  37
ENDBRANCH   1  36
TORSDOF 13
ENDMDL
