MODEL 6
REMARK VINA RESULT: -9.183756786      4.277      6.564
REMARK  13 active torsions:
REMARK  status: ('A' for Active; 'I' for Inactive)
REMARK    1  A    between atoms: C2_2  and  C5_5 
REMARK    2  A    between atoms: C5_5  and  C6_6 
REMARK    3  A    between atoms: C6_6  and  N1_7 
REMARK       I    between atoms: N1_7  and  C7_9 
REMARK    4  A    between atoms: C7_9  and  C8_11 
REMARK    5  A    between atoms: C8_11  and  C9_12 
REMARK    6  A    between atoms: C9_12  and  C10_13 
REMARK    7  A    between atoms: C14_17  and  C15_18 
REMARK    8  A    between atoms: C20_23  and  C21_24 
REMARK    9  A    between atoms: C21_24  and  C22_25 
REMARK   10  A    between atoms: C22_25  and  C23_26 
REMARK   11  A    between atoms: C23_26  and  C24_27 
REMARK   12  A    between atoms: C24_27  and  N2_28 
REMARK       I    between atoms: N2_28  and  C25_30 
REMARK   13  A    between atoms: C25_30  and  C26_32 
ROOT
HETATM    1  C10 UNL     1      14.772 -42.022   8.979  1.00  0.00    -0.016 A 
HETATM    2  C11 UNL     1      15.594 -41.973  10.085  1.00  0.00     0.024 A 
HETATM    3  C12 UNL     1      16.160 -40.782  10.494  1.00  0.00    -0.008 A 
HETATM    4  C13 UNL     1      16.993 -40.708  11.604  1.00  0.00     0.026 A 
HETATM    5  C14 UNL     1      17.556 -39.506  12.007  1.00  0.00    -0.024 A 
HETATM    6  C34 UNL     1      17.255 -38.390  11.257  1.00  0.00     0.014 A 
HETATM    7  C35 UNL     1      16.422 -38.466  10.148  1.00  0.00     0.031 A 
HETATM    8  C36 UNL     1      15.861 -39.663   9.748  1.00  0.00     0.043 A 
HETATM    9  N3  UNL     1      15.050 -39.728   8.663  1.00  0.00    -0.344 N 
ATOM     10  H3  UNL     1      14.861 -38.871   8.144  1.00  0.00     0.167 HD
HETATM   11  C37 UNL     1      14.486 -40.872   8.240  1.00  0.00     0.123 A 
HETATM   12  N4  UNL     1      13.635 -40.941   7.103  1.00  0.00    -0.082 NA
ENDROOT
BRANCH   5  13
HETATM   13  C15 UNL     1      18.441 -39.389  13.151  1.00  0.00    -0.007 A 
HETATM   14  C16 UNL     1      18.066 -38.817  14.349  1.00  0.00     0.014 A 
HETATM   15  C17 UNL     1      18.923 -38.732  15.423  1.00  0.00     0.001 A 
HETATM   16  C18 UNL     1      20.203 -39.226  15.332  1.00  0.00     0.002 A 
HETATM   17  C19 UNL     1      20.602 -39.802  14.149  1.00  0.00     0.021 A 
HETATM   18  C20 UNL     1      19.721 -39.877  13.074  1.00  0.00     0.028 A 
BRANCH  18  19
HETATM   19  C21 UNL     1      20.183 -40.472  11.854  1.00  0.00    -0.066 C 
BRANCH  19  20
HETATM   20  C22 UNL     1      20.562 -40.964  10.797  1.00  0.00    -0.099 C 
BRANCH  20  21
HETATM   21  C23 UNL     1      20.992 -41.540   9.521  1.00  0.00     0.125 C 
BRANCH  21  22
HETATM   22  C24 UNL     1      20.711 -40.573   8.359  1.00  0.00     0.043 A 
HETATM   23  C32 UNL     1      19.834 -39.394   8.772  1.00  0.00     0.034 A 
HETATM   24  C33 UNL     1      21.334 -39.260   8.478  1.00  0.00     0.034 A 
BRANCH  22  25
HETATM   25  N2  UNL     1      20.337 -41.197   7.141  1.00  0.00    -0.347 N 
HETATM   26  C25 UNL     1      21.056 -41.111   5.923  1.00  0.00     0.252 C 
HETATM   27  O2  UNL     1      22.122 -40.404   5.975  1.00  0.00    -0.268 OA
ATOM     28  H2  UNL     1      19.482 -41.753   7.143  1.00  0.00     0.163 HD
BRANCH  26  29
HETATM   29  C26 UNL     1      20.681 -41.743   4.683  1.00  0.00     0.032 A 
HETATM   30  C27 UNL     1      20.204 -40.967   3.649  1.00  0.00     0.020 A 
HETATM   31  C28 UNL     1      19.822 -41.514   2.433  1.00  0.00     0.043 A 
HETATM   32  C29 UNL     1      19.919 -42.876   2.234  1.00  0.00     0.116 A 
HETATM   33  F1  UNL     1      19.552 -43.463   1.045  1.00  0.00    -0.206 F 
HETATM   34  C30 UNL     1      20.393 -43.650   3.259  1.00  0.00     0.043 A 
HETATM   35  C31 UNL     1      20.773 -43.084   4.481  1.00  0.00     0.020 A 
ENDBRANCH  26  29
ENDBRANCH  22  25
ENDBRANCH  21  22
ENDBRANCH  20  21
ENDBRANCH  19  20
ENDBRANCH  18  19
ENDBRANCH   5  13
BRANCH   1  36
HETATM   36  C9  UNL     1      14.147 -43.276   8.509  1.00  0.00     0.051 C 
BRANCH  36  37
HETATM   37  C8  UNL     1      13.163 -43.729   9.559  1.00  0.00     0.107 C 
BRANCH  37  38
HETATM   38  C7  UNL     1      12.355 -42.629  10.094  1.00  0.00     0.217 C 
HETATM   39  N1  UNL     1      12.695 -42.036  11.327  1.00  0.00    -0.361 N 
ATOM     40  H1  UNL     1      13.507 -42.386  11.837  1.00  0.00     0.162 HD
HETATM   41  O1  UNL     1      11.364 -42.209   9.463  1.00  0.00    -0.274 OA
BRANCH  39  42
HETATM   42  C6  UNL     1      11.939 -40.965  11.885  1.00  0.00     0.123 C 
BRANCH  42  43
HETATM   43  C5  UNL     1      12.464 -39.592  11.687  1.00  0.00     0.028 C 
BRANCH  43  44
HETATM   44  C2  UNL     1      13.035 -38.905  12.871  1.00  0.00    -0.050 C 
HETATM   45  C1  UNL     1      14.158 -39.672  13.504  1.00  0.00     0.014 C 
HETATM   46  C3  UNL     1      11.992 -38.582  13.924  1.00  0.00     0.014 C 
HETATM   47  C4  UNL     1      13.614 -37.549  12.448  1.00  0.00     0.014 C 
ENDBRANCH  43  44
ENDBRANCH  42  43
ENDBRANCH  39  42
ENDBRANCH  37  38
ENDBRANCH  36  37
ENDBRANCH   1  36
TORSDOF 13
ENDMDL
