MODEL 1
REMARK VINA RESULT: -9.490597536      0.000      0.000
REMARK  13 active torsions:
REMARK  status: ('A' for Active; 'I' for Inactive)
REMARK    1  A    between atoms: C2_2  and  C5_5 
REMARK    2  A    between atoms: C5_5  and  C6_6 
REMARK    3  A    between atoms: C6_6  and  N1_7 
REMARK       I    between atoms: N1_7  and  C7_9 
REMARK    4  A    between atoms: C7_9  and  C8_11 
REMARK    5  A    between atoms: C8_11  and  C9_12 
REMARK    6  A    between atoms: C9_12  and  C10_13 
REMARK    7  A    between atoms: C14_17  and  C15_18 
REMARK    8  A    between atoms: C20_23  and  C21_24 
REMARK    9  A    between atoms: C21_24  and  C22_25 
REMARK   10  A    between atoms: C22_25  and  C23_26 
REMARK   11  A    between atoms: C23_26  and  C24_27 
REMARK   12  A    between atoms: C24_27  and  N2_28 
REMARK       I    between atoms: N2_28  and  C25_30 
REMARK   13  A    between atoms: C25_30  and  C26_32 
ROOT
HETATM    1  C10 UNL     1      11.756 -39.342  13.428  1.00  0.00    -0.016 A 
HETATM    2  C11 UNL     1      13.035 -39.717  13.779  1.00  0.00     0.024 A 
HETATM    3  C12 UNL     1      14.129 -38.996  13.342  1.00  0.00    -0.008 A 
HETATM    4  C13 UNL     1      15.428 -39.354  13.681  1.00  0.00     0.026 A 
HETATM    5  C14 UNL     1      16.520 -38.623  13.236  1.00  0.00    -0.024 A 
HETATM    6  C34 UNL     1      16.258 -37.526  12.444  1.00  0.00     0.014 A 
HETATM    7  C35 UNL     1      14.959 -37.169  12.106  1.00  0.00     0.031 A 
HETATM    8  C36 UNL     1      13.873 -37.898  12.549  1.00  0.00     0.043 A 
HETATM    9  N3  UNL     1      12.608 -37.544  12.214  1.00  0.00    -0.344 N 
ATOM     10  H3  UNL     1      12.473 -36.722  11.624  1.00  0.00     0.167 HD
HETATM   11  C37 UNL     1      11.525 -38.225  12.622  1.00  0.00     0.123 A 
HETATM   12  N4  UNL     1      10.198 -37.854  12.272  1.00  0.00    -0.082 NA
ENDROOT
BRANCH   5  13
HETATM   13  C15 UNL     1      17.891 -38.972  13.557  1.00  0.00    -0.007 A 
HETATM   14  C16 UNL     1      18.620 -38.359  14.555  1.00  0.00     0.014 A 
HETATM   15  C17 UNL     1      19.916 -38.721  14.847  1.00  0.00     0.001 A 
HETATM   16  C18 UNL     1      20.534 -39.724  14.137  1.00  0.00     0.002 A 
HETATM   17  C19 UNL     1      19.830 -40.351  13.137  1.00  0.00     0.021 A 
HETATM   18  C20 UNL     1      18.521 -39.969  12.857  1.00  0.00     0.028 A 
BRANCH  18  19
HETATM   19  C21 UNL     1      17.828 -40.639  11.795  1.00  0.00    -0.066 C 
BRANCH  19  20
HETATM   20  C22 UNL     1      17.250 -41.236  10.893  1.00  0.00    -0.099 C 
BRANCH  20  21
HETATM   21  C23 UNL     1      16.584 -41.958   9.807  1.00  0.00     0.125 C 
BRANCH  21  22
HETATM   22  C24 UNL     1      15.264 -41.272   9.420  1.00  0.00     0.043 A 
HETATM   23  C32 UNL     1      15.130 -39.873  10.014  1.00  0.00     0.034 A 
HETATM   24  C33 UNL     1      15.395 -40.130   8.525  1.00  0.00     0.034 A 
BRANCH  22  25
HETATM   25  N2  UNL     1      14.109 -42.088   9.547  1.00  0.00    -0.347 N 
HETATM   26  C25 UNL     1      13.769 -43.164   8.690  1.00  0.00     0.252 C 
HETATM   27  O2  UNL     1      14.600 -43.380   7.741  1.00  0.00    -0.268 OA
ATOM     28  H2  UNL     1      13.473 -41.883  10.318  1.00  0.00     0.163 HD
BRANCH  26  29
HETATM   29  C26 UNL     1      12.598 -43.995   8.813  1.00  0.00     0.032 A 
HETATM   30  C27 UNL     1      12.730 -45.363   8.714  1.00  0.00     0.020 A 
HETATM   31  C28 UNL     1      11.642 -46.217   8.820  1.00  0.00     0.043 A 
HETATM   32  C29 UNL     1      10.382 -45.699   9.033  1.00  0.00     0.116 A 
HETATM   33  F1  UNL     1       9.274 -46.507   9.144  1.00  0.00    -0.206 F 
HETATM   34  C30 UNL     1      10.247 -44.340   9.132  1.00  0.00     0.043 A 
HETATM   35  C31 UNL     1      11.354 -43.490   9.022  1.00  0.00     0.020 A 
ENDBRANCH  26  29
ENDBRANCH  22  25
ENDBRANCH  21  22
ENDBRANCH  20  21
ENDBRANCH  19  20
ENDBRANCH  18  19
ENDBRANCH   5  13
BRANCH   1  36
HETATM   36  C9  UNL     1      10.560 -40.088  13.875  1.00  0.00     0.051 C 
BRANCH  36  37
HETATM   37  C8  UNL     1      10.977 -41.012  14.993  1.00  0.00     0.107 C 
BRANCH  37  38
HETATM   38  C7  UNL     1      10.527 -42.392  14.787  1.00  0.00     0.217 C 
HETATM   39  N1  UNL     1      11.179 -43.455  15.444  1.00  0.00    -0.361 N 
ATOM     40  H1  UNL     1      11.965 -43.247  16.061  1.00  0.00     0.162 HD
HETATM   41  O1  UNL     1       9.564 -42.636  14.031  1.00  0.00    -0.274 OA
BRANCH  39  42
HETATM   42  C6  UNL     1      10.776 -44.811  15.274  1.00  0.00     0.123 C 
BRANCH  42  43
HETATM   43  C5  UNL     1      11.697 -45.701  14.526  1.00  0.00     0.028 C 
BRANCH  43  44
HETATM   44  C2  UNL     1      11.492 -45.816  13.061  1.00  0.00    -0.050 C 
HETATM   45  C1  UNL     1      12.129 -47.043  12.479  1.00  0.00     0.014 C 
HETATM   46  C3  UNL     1      11.971 -44.594  12.302  1.00  0.00     0.014 C 
HETATM   47  C4  UNL     1       9.992 -45.915  12.759  1.00  0.00     0.014 C 
ENDBRANCH  43  44
ENDBRANCH  42  43
ENDBRANCH  39  42
ENDBRANCH  37  38
ENDBRANCH  36  37
ENDBRANCH   1  36
TORSDOF 13
ENDMDL
