MODEL 2
REMARK VINA RESULT: -10.411967612      4.576      7.070
REMARK  12 active torsions:
REMARK  status: ('A' for Active; 'I' for Inactive)
REMARK    1  A    between atoms: C2_2  and  C5_5 
REMARK    2  A    between atoms: C5_5  and  C6_6 
REMARK    3  A    between atoms: C6_6  and  N1_7 
REMARK       I    between atoms: N1_7  and  C7_9 
REMARK    4  A    between atoms: C7_9  and  C8_11 
REMARK    5  A    between atoms: C8_11  and  C9_12 
REMARK    6  A    between atoms: C9_12  and  C10_13 
REMARK    7  A    between atoms: C14_17  and  C15_18 
REMARK    8  A    between atoms: C20_23  and  C21_24 
REMARK    9  A    between atoms: C21_24  and  C22_25 
REMARK   10  A    between atoms: C22_25  and  C23_26 
REMARK   11  A    between atoms: C26_29  and  N2_30 
REMARK       I    between atoms: N2_30  and  C27_32 
REMARK   12  A    between atoms: C27_32  and  C28_34 
ROOT
HETATM    1  C15 UNL     1      18.250  38.649 -12.422  1.00  0.00    -0.020 A 
HETATM    2  C16 UNL     1      18.591  38.822 -13.778  1.00  0.00     0.013 A 
HETATM    3  C17 UNL     1      19.618  39.637 -14.186  1.00  0.00     0.001 A 
HETATM    4  C18 UNL     1      20.328  40.302 -13.211  1.00  0.00     0.001 A 
HETATM    5  C19 UNL     1      20.041  40.173 -11.875  1.00  0.00     0.008 A 
HETATM    6  C20 UNL     1      18.980  39.329 -11.495  1.00  0.00    -0.047 A 
ENDROOT
BRANCH   1   7
HETATM    7  C14 UNL     1      17.184  37.741 -12.051  1.00  0.00    -0.025 A 
HETATM    8  C13 UNL     1      15.920  37.930 -12.546  1.00  0.00     0.026 A 
HETATM    9  C12 UNL     1      14.870  37.063 -12.234  1.00  0.00    -0.008 A 
HETATM   10  C11 UNL     1      13.598  37.249 -12.730  1.00  0.00     0.024 A 
HETATM   11  C37 UNL     1      15.089  35.985 -11.407  1.00  0.00     0.043 A 
HETATM   12  C10 UNL     1      12.563  36.388 -12.418  1.00  0.00    -0.016 A 
HETATM   13  C38 UNL     1      12.831  35.321 -11.587  1.00  0.00     0.123 A 
HETATM   14  N4  UNL     1      14.076  35.140 -11.101  1.00  0.00    -0.344 N 
HETATM   15  N5  UNL     1      11.800  34.396 -11.228  1.00  0.00    -0.082 NA
ATOM     16  H4  UNL     1      14.260  34.346 -10.487  1.00  0.00     0.167 HD
HETATM   17  C36 UNL     1      16.364  35.801 -10.913  1.00  0.00     0.031 A 
HETATM   18  C35 UNL     1      17.394  36.646 -11.216  1.00  0.00     0.014 A 
BRANCH  12  19
HETATM   19  C9  UNL     1      11.207  36.626 -12.975  1.00  0.00     0.051 C 
BRANCH  19  20
HETATM   20  C8  UNL     1      10.394  37.542 -12.092  1.00  0.00     0.107 C 
BRANCH  20  21
HETATM   21  C7  UNL     1      10.133  38.803 -12.815  1.00  0.00     0.217 C 
HETATM   22  N1  UNL     1      11.010  39.914 -12.779  1.00  0.00    -0.361 N 
ATOM     23  H1  UNL     1      11.863  39.831 -12.225  1.00  0.00     0.162 HD
HETATM   24  O1  UNL     1       9.084  38.897 -13.498  1.00  0.00    -0.274 OA
BRANCH  22  25
HETATM   25  C6  UNL     1      10.775  41.154 -13.472  1.00  0.00     0.123 C 
BRANCH  25  26
HETATM   26  C5  UNL     1      11.199  42.297 -12.607  1.00  0.00     0.028 C 
BRANCH  26  27
HETATM   27  C2  UNL     1      10.728  43.633 -13.171  1.00  0.00    -0.050 C 
HETATM   28  C1  UNL     1      11.230  43.693 -14.600  1.00  0.00     0.014 C 
HETATM   29  C3  UNL     1      11.420  44.769 -12.427  1.00  0.00     0.014 C 
HETATM   30  C4  UNL     1       9.230  43.774 -13.073  1.00  0.00     0.014 C 
ENDBRANCH  26  27
ENDBRANCH  25  26
ENDBRANCH  22  25
ENDBRANCH  20  21
ENDBRANCH  19  20
ENDBRANCH  12  19
ENDBRANCH   1   7
BRANCH   6  31
HETATM   31  C21 UNL     1      18.679  39.256 -10.059  1.00  0.00     0.045 C 
BRANCH  31  32
HETATM   32  C22 UNL     1      18.688  40.658  -9.441  1.00  0.00     0.061 C 
BRANCH  32  33
HETATM   33  C23 UNL     1      17.341  41.283  -9.488  1.00  0.00     0.009 A 
HETATM   34  C24 UNL     1      16.312  40.684 -10.175  1.00  0.00     0.027 A 
HETATM   35  C25 UNL     1      15.042  41.299 -10.204  1.00  0.00     0.033 A 
HETATM   36  C26 UNL     1      14.790  42.485  -9.567  1.00  0.00     0.050 A 
HETATM   37  C34 UNL     1      15.884  43.040  -8.885  1.00  0.00     0.117 A 
HETATM   38  N3  UNL     1      17.086  42.446  -8.864  1.00  0.00    -0.367 N 
ATOM     39  H3  UNL     1      17.843  42.897  -8.350  1.00  0.00     0.165 HD
BRANCH  36  40
HETATM   40  N2  UNL     1      13.559  43.164  -9.549  1.00  0.00    -0.322 N 
HETATM   41  C27 UNL     1      12.366  42.818  -8.909  1.00  0.00     0.256 C 
HETATM   42  O2  UNL     1      12.333  41.765  -8.243  1.00  0.00    -0.267 OA
ATOM     43  H2  UNL     1      13.533  44.034 -10.081  1.00  0.00     0.169 HD
BRANCH  41  44
HETATM   44  C28 UNL     1      11.144  43.615  -8.968  1.00  0.00     0.032 A 
HETATM   45  C29 UNL     1      11.196  44.944  -8.605  1.00  0.00     0.020 A 
HETATM   46  C30 UNL     1      10.113  45.790  -8.620  1.00  0.00     0.043 A 
HETATM   47  C31 UNL     1       8.889  45.312  -9.015  1.00  0.00     0.116 A 
HETATM   48  F1  UNL     1       7.772  46.090  -9.055  1.00  0.00    -0.206 F 
HETATM   49  C32 UNL     1       8.802  43.987  -9.384  1.00  0.00     0.043 A 
HETATM   50  C33 UNL     1       9.918  43.143  -9.362  1.00  0.00     0.020 A 
ENDBRANCH  41  44
ENDBRANCH  36  40
ENDBRANCH  32  33
ENDBRANCH  31  32
ENDBRANCH   6  31
TORSDOF 12
ENDMDL
