MODEL 5
REMARK VINA RESULT: -9.924459850      4.491      7.393
REMARK  12 active torsions:
REMARK  status: ('A' for Active; 'I' for Inactive)
REMARK    1  A    between atoms: C2_2  and  C5_5 
REMARK    2  A    between atoms: C5_5  and  C6_6 
REMARK    3  A    between atoms: C6_6  and  N1_7 
REMARK       I    between atoms: N1_7  and  C7_9 
REMARK    4  A    between atoms: C7_9  and  C8_11 
REMARK    5  A    between atoms: C8_11  and  C9_12 
REMARK    6  A    between atoms: C9_12  and  C10_13 
REMARK    7  A    between atoms: C14_17  and  C15_18 
REMARK    8  A    between atoms: C20_23  and  C21_24 
REMARK    9  A    between atoms: C21_24  and  C22_25 
REMARK   10  A    between atoms: C22_25  and  C23_26 
REMARK   11  A    between atoms: C26_29  and  N2_30 
REMARK       I    between atoms: N2_30  and  C27_32 
REMARK   12  A    between atoms: C27_32  and  C28_34 
ROOT
HETATM    1  C15 UNL     1      18.199  39.366 -11.585  1.00  0.00    -0.020 A 
HETATM    2  C16 UNL     1      18.962  39.935 -12.623  1.00  0.00     0.013 A 
HETATM    3  C17 UNL     1      20.240  40.401 -12.436  1.00  0.00     0.001 A 
HETATM    4  C18 UNL     1      20.775  40.296 -11.171  1.00  0.00     0.001 A 
HETATM    5  C19 UNL     1      20.080  39.752 -10.120  1.00  0.00     0.008 A 
HETATM    6  C20 UNL     1      18.771  39.286 -10.351  1.00  0.00    -0.047 A 
ENDROOT
BRANCH   1   7
HETATM    7  C14 UNL     1      16.872  38.852 -11.855  1.00  0.00    -0.025 A 
HETATM    8  C13 UNL     1      15.794  39.699 -11.845  1.00  0.00     0.026 A 
HETATM    9  C12 UNL     1      14.502  39.249 -12.125  1.00  0.00    -0.008 A 
HETATM   10  C11 UNL     1      13.417  40.097 -12.117  1.00  0.00     0.024 A 
HETATM   11  C37 UNL     1      14.283  37.923 -12.421  1.00  0.00     0.043 A 
HETATM   12  C10 UNL     1      12.139  39.646 -12.396  1.00  0.00    -0.016 A 
HETATM   13  C38 UNL     1      11.969  38.309 -12.687  1.00  0.00     0.123 A 
HETATM   14  N4  UNL     1      13.033  37.480 -12.694  1.00  0.00    -0.344 N 
HETATM   15  N5  UNL     1      10.672  37.784 -12.983  1.00  0.00    -0.082 NA
ATOM     16  H4  UNL     1      12.892  36.493 -12.911  1.00  0.00     0.167 HD
HETATM   17  C36 UNL     1      15.372  37.076 -12.429  1.00  0.00     0.031 A 
HETATM   18  C35 UNL     1      16.639  37.512 -12.156  1.00  0.00     0.014 A 
BRANCH  12  19
HETATM   19  C9  UNL     1      10.998  40.596 -12.376  1.00  0.00     0.051 C 
BRANCH  19  20
HETATM   20  C8  UNL     1      10.970  41.462 -13.612  1.00  0.00     0.107 C 
BRANCH  20  21
HETATM   21  C7  UNL     1      10.540  42.824 -13.238  1.00  0.00     0.217 C 
HETATM   22  N1  UNL     1      11.433  43.916 -13.125  1.00  0.00    -0.361 N 
ATOM     23  H1  UNL     1      12.421  43.746 -13.316  1.00  0.00     0.162 HD
HETATM   24  O1  UNL     1       9.322  43.026 -13.008  1.00  0.00    -0.274 OA
BRANCH  22  25
HETATM   25  C6  UNL     1      11.038  45.251 -12.758  1.00  0.00     0.123 C 
BRANCH  25  26
HETATM   26  C5  UNL     1      12.221  45.993 -12.226  1.00  0.00     0.028 C 
BRANCH  26  27
HETATM   27  C2  UNL     1      12.512  47.246 -13.044  1.00  0.00    -0.050 C 
HETATM   28  C1  UNL     1      14.011  47.461 -12.973  1.00  0.00     0.014 C 
HETATM   29  C3  UNL     1      11.876  48.453 -12.365  1.00  0.00     0.014 C 
HETATM   30  C4  UNL     1      12.009  47.110 -14.458  1.00  0.00     0.014 C 
ENDBRANCH  26  27
ENDBRANCH  25  26
ENDBRANCH  22  25
ENDBRANCH  20  21
ENDBRANCH  19  20
ENDBRANCH  12  19
ENDBRANCH   1   7
BRANCH   6  31
HETATM   31  C21 UNL     1      18.048  38.754  -9.189  1.00  0.00     0.045 C 
BRANCH  31  32
HETATM   32  C22 UNL     1      18.000  39.796  -8.067  1.00  0.00     0.061 C 
BRANCH  32  33
HETATM   33  C23 UNL     1      16.761  40.613  -8.135  1.00  0.00     0.009 A 
HETATM   34  C24 UNL     1      16.803  41.921  -8.557  1.00  0.00     0.027 A 
HETATM   35  C25 UNL     1      15.611  42.675  -8.612  1.00  0.00     0.033 A 
HETATM   36  C26 UNL     1      14.398  42.150  -8.256  1.00  0.00     0.050 A 
HETATM   37  C34 UNL     1      14.427  40.811  -7.835  1.00  0.00     0.117 A 
HETATM   38  N3  UNL     1      15.566  40.104  -7.788  1.00  0.00    -0.367 N 
ATOM     39  H3  UNL     1      15.524  39.135  -7.474  1.00  0.00     0.165 HD
BRANCH  36  40
HETATM   40  N2  UNL     1      13.169  42.831  -8.278  1.00  0.00    -0.322 N 
HETATM   41  C27 UNL     1      12.383  43.206  -9.371  1.00  0.00     0.256 C 
HETATM   42  O2  UNL     1      12.783  42.919 -10.517  1.00  0.00    -0.267 OA
ATOM     43  H2  UNL     1      12.796  43.089  -7.364  1.00  0.00     0.169 HD
BRANCH  41  44
HETATM   44  C28 UNL     1      11.112  43.917  -9.261  1.00  0.00     0.032 A 
HETATM   45  C29 UNL     1      11.105  45.195  -8.747  1.00  0.00     0.020 A 
HETATM   46  C30 UNL     1       9.973  45.960  -8.596  1.00  0.00     0.043 A 
HETATM   47  C31 UNL     1       8.758  45.446  -8.971  1.00  0.00     0.116 A 
HETATM   48  F1  UNL     1       7.594  46.143  -8.852  1.00  0.00    -0.206 F 
HETATM   49  C32 UNL     1       8.729  44.168  -9.490  1.00  0.00     0.043 A 
HETATM   50  C33 UNL     1       9.894  43.408  -9.635  1.00  0.00     0.020 A 
ENDBRANCH  41  44
ENDBRANCH  36  40
ENDBRANCH  32  33
ENDBRANCH  31  32
ENDBRANCH   6  31
TORSDOF 12
ENDMDL
