MODEL 1
REMARK VINA RESULT: -10.751790634      0.000      0.000
REMARK  12 active torsions:
REMARK  status: ('A' for Active; 'I' for Inactive)
REMARK    1  A    between atoms: C2_2  and  C5_5 
REMARK    2  A    between atoms: C5_5  and  C6_6 
REMARK    3  A    between atoms: C6_6  and  N1_7 
REMARK       I    between atoms: N1_7  and  C7_9 
REMARK    4  A    between atoms: C7_9  and  C8_11 
REMARK    5  A    between atoms: C8_11  and  C9_12 
REMARK    6  A    between atoms: C9_12  and  C10_13 
REMARK    7  A    between atoms: C14_17  and  C15_18 
REMARK    8  A    between atoms: C20_23  and  C21_24 
REMARK    9  A    between atoms: C21_24  and  C22_25 
REMARK   10  A    between atoms: C22_25  and  C23_26 
REMARK   11  A    between atoms: C26_29  and  N2_30 
REMARK       I    between atoms: N2_30  and  C27_32 
REMARK   12  A    between atoms: C27_32  and  C28_34 
ROOT
HETATM    1  C15 UNL     1      18.504  39.369 -12.654  1.00  0.00    -0.020 A 
HETATM    2  C16 UNL     1      18.163  38.576 -13.767  1.00  0.00     0.013 A 
HETATM    3  C17 UNL     1      18.983  38.440 -14.860  1.00  0.00     0.001 A 
HETATM    4  C18 UNL     1      20.182  39.116 -14.843  1.00  0.00     0.001 A 
HETATM    5  C19 UNL     1      20.568  39.904 -13.787  1.00  0.00     0.008 A 
HETATM    6  C20 UNL     1      19.700  40.020 -12.685  1.00  0.00    -0.047 A 
ENDROOT
BRANCH   1   7
HETATM    7  C14 UNL     1      17.616  39.438 -11.511  1.00  0.00    -0.025 A 
HETATM    8  C13 UNL     1      16.869  40.566 -11.292  1.00  0.00     0.026 A 
HETATM    9  C12 UNL     1      15.982  40.664 -10.218  1.00  0.00    -0.008 A 
HETATM   10  C11 UNL     1      15.228  41.796  -9.995  1.00  0.00     0.024 A 
HETATM   11  C37 UNL     1      15.841  39.612  -9.342  1.00  0.00     0.043 A 
HETATM   12  C10 UNL     1      14.351  41.887  -8.930  1.00  0.00    -0.016 A 
HETATM   13  C38 UNL     1      14.244  40.807  -8.080  1.00  0.00     0.123 A 
HETATM   14  N4  UNL     1      14.983  39.699  -8.298  1.00  0.00    -0.344 N 
HETATM   15  N5  UNL     1      13.354  40.842  -6.960  1.00  0.00    -0.082 NA
ATOM     16  H4  UNL     1      14.893  38.908  -7.661  1.00  0.00     0.167 HD
HETATM   17  C36 UNL     1      16.597  38.480  -9.569  1.00  0.00     0.031 A 
HETATM   18  C35 UNL     1      17.465  38.379 -10.619  1.00  0.00     0.014 A 
BRANCH  12  19
HETATM   19  C9  UNL     1      13.559  43.126  -8.727  1.00  0.00     0.051 C 
BRANCH  19  20
HETATM   20  C8  UNL     1      12.613  43.377  -9.877  1.00  0.00     0.107 C 
BRANCH  20  21
HETATM   21  C7  UNL     1      12.005  42.097 -10.291  1.00  0.00     0.217 C 
HETATM   22  N1  UNL     1      12.452  41.351 -11.409  1.00  0.00    -0.361 N 
ATOM     23  H1  UNL     1      13.235  41.723 -11.947  1.00  0.00     0.162 HD
HETATM   24  O1  UNL     1      11.045  41.643  -9.621  1.00  0.00    -0.274 OA
BRANCH  22  25
HETATM   25  C6  UNL     1      11.874  40.103 -11.834  1.00  0.00     0.123 C 
BRANCH  25  26
HETATM   26  C5  UNL     1      12.727  38.971 -11.361  1.00  0.00     0.028 C 
BRANCH  26  27
HETATM   27  C2  UNL     1      13.364  38.223 -12.526  1.00  0.00    -0.050 C 
HETATM   28  C1  UNL     1      12.221  37.673 -13.355  1.00  0.00     0.014 C 
HETATM   29  C3  UNL     1      14.126  37.014 -11.995  1.00  0.00     0.014 C 
HETATM   30  C4  UNL     1      14.283  39.117 -13.319  1.00  0.00     0.014 C 
ENDBRANCH  26  27
ENDBRANCH  25  26
ENDBRANCH  22  25
ENDBRANCH  20  21
ENDBRANCH  19  20
ENDBRANCH  12  19
ENDBRANCH   1   7
BRANCH   6  31
HETATM   31  C21 UNL     1      20.132  40.909 -11.598  1.00  0.00     0.045 C 
BRANCH  31  32
HETATM   32  C22 UNL     1      20.913  40.119 -10.542  1.00  0.00     0.061 C 
BRANCH  32  33
HETATM   33  C23 UNL     1      20.675  40.654  -9.176  1.00  0.00     0.009 A 
HETATM   34  C24 UNL     1      19.788  40.039  -8.325  1.00  0.00     0.027 A 
HETATM   35  C25 UNL     1      19.580  40.567  -7.033  1.00  0.00     0.033 A 
HETATM   36  C26 UNL     1      20.235  41.684  -6.587  1.00  0.00     0.050 A 
HETATM   37  C34 UNL     1      21.125  42.261  -7.506  1.00  0.00     0.117 A 
HETATM   38  N3  UNL     1      21.315  41.749  -8.731  1.00  0.00    -0.367 N 
ATOM     39  H3  UNL     1      21.976  42.212  -9.355  1.00  0.00     0.165 HD
BRANCH  36  40
HETATM   40  N2  UNL     1      20.083  42.275  -5.321  1.00  0.00    -0.322 N 
HETATM   41  C27 UNL     1      20.747  41.989  -4.125  1.00  0.00     0.256 C 
HETATM   42  O2  UNL     1      21.608  41.088  -4.123  1.00  0.00    -0.267 OA
ATOM     43  H2  UNL     1      19.389  43.021  -5.267  1.00  0.00     0.169 HD
BRANCH  41  44
HETATM   44  C28 UNL     1      20.497  42.682  -2.863  1.00  0.00     0.032 A 
HETATM   45  C29 UNL     1      19.416  42.305  -2.097  1.00  0.00     0.020 A 
HETATM   46  C30 UNL     1      19.082  42.884  -0.896  1.00  0.00     0.043 A 
HETATM   47  C31 UNL     1      19.855  43.904  -0.401  1.00  0.00     0.116 A 
HETATM   48  F1  UNL     1      19.588  44.525   0.780  1.00  0.00    -0.206 F 
HETATM   49  C32 UNL     1      20.946  44.306  -1.143  1.00  0.00     0.043 A 
HETATM   50  C33 UNL     1      21.267  43.702  -2.364  1.00  0.00     0.020 A 
ENDBRANCH  41  44
ENDBRANCH  36  40
ENDBRANCH  32  33
ENDBRANCH  31  32
ENDBRANCH   6  31
TORSDOF 12
ENDMDL
