MODEL 4
REMARK VINA RESULT: -10.173967213      2.714      7.172
REMARK  12 active torsions:
REMARK  status: ('A' for Active; 'I' for Inactive)
REMARK    1  A    between atoms: C2_2  and  C5_5 
REMARK    2  A    between atoms: C5_5  and  C6_6 
REMARK    3  A    between atoms: C6_6  and  N1_7 
REMARK       I    between atoms: N1_7  and  C7_9 
REMARK    4  A    between atoms: C7_9  and  C8_11 
REMARK    5  A    between atoms: C8_11  and  C9_12 
REMARK    6  A    between atoms: C9_12  and  C10_13 
REMARK    7  A    between atoms: C14_17  and  C15_18 
REMARK    8  A    between atoms: C20_23  and  C21_24 
REMARK    9  A    between atoms: C21_24  and  C22_25 
REMARK   10  A    between atoms: C22_25  and  C23_26 
REMARK   11  A    between atoms: C26_29  and  N2_30 
REMARK       I    between atoms: N2_30  and  C27_32 
REMARK   12  A    between atoms: C27_32  and  C28_34 
ROOT
HETATM    1  C15 UNL     1      14.427  36.771 -12.364  1.00  0.00    -0.020 A 
HETATM    2  C16 UNL     1      14.340  35.391 -12.632  1.00  0.00     0.013 A 
HETATM    3  C17 UNL     1      13.207  34.802 -13.138  1.00  0.00     0.001 A 
HETATM    4  C18 UNL     1      12.124  35.617 -13.386  1.00  0.00     0.001 A 
HETATM    5  C19 UNL     1      12.150  36.968 -13.144  1.00  0.00     0.008 A 
HETATM    6  C20 UNL     1      13.329  37.535 -12.624  1.00  0.00    -0.047 A 
ENDROOT
BRANCH   1   7
HETATM    7  C14 UNL     1      15.665  37.340 -11.872  1.00  0.00    -0.025 A 
HETATM    8  C13 UNL     1      16.491  38.024 -12.724  1.00  0.00     0.026 A 
HETATM    9  C12 UNL     1      17.680  38.609 -12.285  1.00  0.00    -0.008 A 
HETATM   10  C11 UNL     1      18.513  39.299 -13.139  1.00  0.00     0.024 A 
HETATM   11  C37 UNL     1      18.051  38.508 -10.963  1.00  0.00     0.043 A 
HETATM   12  C10 UNL     1      19.689  39.877 -12.698  1.00  0.00    -0.016 A 
HETATM   13  C38 UNL     1      20.018  39.749 -11.365  1.00  0.00     0.123 A 
HETATM   14  N4  UNL     1      19.202  39.074 -10.530  1.00  0.00    -0.344 N 
HETATM   15  N5  UNL     1      21.222  40.326 -10.850  1.00  0.00    -0.082 NA
ATOM     16  H4  UNL     1      19.459  38.988  -9.546  1.00  0.00     0.167 HD
HETATM   17  C36 UNL     1      17.214  37.818 -10.111  1.00  0.00     0.031 A 
HETATM   18  C35 UNL     1      16.049  37.243 -10.537  1.00  0.00     0.014 A 
BRANCH  12  19
HETATM   19  C9  UNL     1      20.558  40.610 -13.653  1.00  0.00     0.051 C 
BRANCH  19  20
HETATM   20  C8  UNL     1      20.010  41.983 -13.964  1.00  0.00     0.107 C 
BRANCH  20  21
HETATM   21  C7  UNL     1      20.858  43.000 -13.312  1.00  0.00     0.217 C 
HETATM   22  N1  UNL     1      21.042  43.074 -11.910  1.00  0.00    -0.361 N 
ATOM     23  H1  UNL     1      20.564  42.385 -11.330  1.00  0.00     0.162 HD
HETATM   24  O1  UNL     1      21.447  43.842 -14.033  1.00  0.00    -0.274 OA
BRANCH  22  25
HETATM   25  C6  UNL     1      21.861  44.058 -11.251  1.00  0.00     0.123 C 
BRANCH  25  26
HETATM   26  C5  UNL     1      21.751  43.888  -9.771  1.00  0.00     0.028 C 
BRANCH  26  27
HETATM   27  C2  UNL     1      23.084  43.482  -9.152  1.00  0.00    -0.050 C 
HETATM   28  C1  UNL     1      22.841  42.164  -8.443  1.00  0.00     0.014 C 
HETATM   29  C3  UNL     1      23.466  44.484  -8.069  1.00  0.00     0.014 C 
HETATM   30  C4  UNL     1      24.170  43.392 -10.193  1.00  0.00     0.014 C 
ENDBRANCH  26  27
ENDBRANCH  25  26
ENDBRANCH  22  25
ENDBRANCH  20  21
ENDBRANCH  19  20
ENDBRANCH  12  19
ENDBRANCH   1   7
BRANCH   6  31
HETATM   31  C21 UNL     1      13.297  38.975 -12.338  1.00  0.00     0.045 C 
BRANCH  31  32
HETATM   32  C22 UNL     1      12.948  39.218 -10.866  1.00  0.00     0.061 C 
BRANCH  32  33
HETATM   33  C23 UNL     1      14.052  39.911 -10.152  1.00  0.00     0.009 A 
HETATM   34  C24 UNL     1      14.919  40.734 -10.829  1.00  0.00     0.027 A 
HETATM   35  C25 UNL     1      15.960  41.380 -10.127  1.00  0.00     0.033 A 
HETATM   36  C26 UNL     1      16.142  41.216  -8.779  1.00  0.00     0.050 A 
HETATM   37  C34 UNL     1      15.221  40.363  -8.151  1.00  0.00     0.117 A 
HETATM   38  N3  UNL     1      14.236  39.756  -8.829  1.00  0.00    -0.367 N 
ATOM     39  H3  UNL     1      13.597  39.148  -8.318  1.00  0.00     0.165 HD
BRANCH  36  40
HETATM   40  N2  UNL     1      17.152  41.817  -8.007  1.00  0.00    -0.322 N 
HETATM   41  C27 UNL     1      18.395  41.306  -7.624  1.00  0.00     0.256 C 
HETATM   42  O2  UNL     1      18.705  40.157  -7.993  1.00  0.00    -0.267 OA
ATOM     43  H2  UNL     1      16.947  42.761  -7.680  1.00  0.00     0.169 HD
BRANCH  41  44
HETATM   44  C28 UNL     1      19.366  42.037  -6.813  1.00  0.00     0.032 A 
HETATM   45  C29 UNL     1      20.160  41.336  -5.931  1.00  0.00     0.020 A 
HETATM   46  C30 UNL     1      21.105  41.914  -5.118  1.00  0.00     0.043 A 
HETATM   47  C31 UNL     1      21.294  43.273  -5.164  1.00  0.00     0.116 A 
HETATM   48  F1  UNL     1      22.211  43.916  -4.390  1.00  0.00    -0.206 F 
HETATM   49  C32 UNL     1      20.515  44.004  -6.036  1.00  0.00     0.043 A 
HETATM   50  C33 UNL     1      19.558  43.394  -6.854  1.00  0.00     0.020 A 
ENDBRANCH  41  44
ENDBRANCH  36  40
ENDBRANCH  32  33
ENDBRANCH  31  32
ENDBRANCH   6  31
TORSDOF 12
ENDMDL
