MODEL 1
REMARK VINA RESULT: -7.899379036      0.000      0.000
REMARK  3 active torsions:
REMARK  status: ('A' for Active; 'I' for Inactive)
REMARK       I    between atoms: C1_2  and  N1_3 
REMARK       I    between atoms: C1_2  and  N2_14 
REMARK    1  A    between atoms: N1_3  and  C2_5 
REMARK    2  A    between atoms: C6_9  and  C7_10 
REMARK    3  A    between atoms: N2_14  and  C9_16 
ROOT
HETATM    1  O1  UNL     1     -27.240  -7.019 -26.360  1.00  0.00    -0.247 OA
HETATM    2  C1  UNL     1     -27.519  -8.019 -25.684  1.00  0.00     0.325 C 
HETATM    3  N1  UNL     1     -27.614  -7.925 -24.284  1.00  0.00    -0.309 N 
ATOM      4  H1  UNL     1     -27.850  -8.774 -23.771  1.00  0.00     0.170 HD
HETATM    5  N2  UNL     1     -27.732  -9.231 -26.382  1.00  0.00    -0.309 N 
ATOM      6  H2  UNL     1     -27.956 -10.040 -25.804  1.00  0.00     0.170 HD
ENDROOT
BRANCH   3   7
HETATM    7  C2  UNL     1     -27.408  -6.749 -23.536  1.00  0.00     0.037 A 
HETATM    8  C3  UNL     1     -26.094  -6.273 -23.365  1.00  0.00     0.029 A 
HETATM    9  C4  UNL     1     -25.800  -5.130 -22.666  1.00  0.00     0.003 A 
HETATM   10  C5  UNL     1     -26.785  -4.370 -22.083  1.00  0.00     0.018 A 
HETATM   11  C6  UNL     1     -28.077  -4.809 -22.234  1.00  0.00     0.043 A 
HETATM   12  C8  UNL     1     -28.377  -5.981 -22.950  1.00  0.00     0.048 A 
BRANCH  11  13
HETATM   13  C7  UNL     1     -29.178  -4.047 -21.639  1.00  0.00     0.209 C 
HETATM   14  O2  UNL     1     -30.330  -4.088 -22.129  1.00  0.00    -0.644 OA
HETATM   15  O3  UNL     1     -28.927  -3.275 -20.518  1.00  0.00    -0.644 OA
ENDBRANCH  11  13
ENDBRANCH   3   7
BRANCH   5  16
HETATM   16  C9  UNL     1     -27.675  -9.467 -27.758  1.00  0.00     0.038 A 
HETATM   17  C10 UNL     1     -28.134  -8.624 -28.729  1.00  0.00     0.031 A 
HETATM   18  C11 UNL     1     -28.030  -8.923 -30.103  1.00  0.00     0.028 A 
HETATM   19  C12 UNL     1     -27.449 -10.096 -30.485  1.00  0.00     0.055 A 
HETATM   20 CL1  UNL     1     -27.320 -10.465 -32.198  1.00  0.00    -0.083 Cl
HETATM   21  C13 UNL     1     -26.967 -10.989 -29.535  1.00  0.00     0.058 A 
HETATM   22 CL2  UNL     1     -26.230 -12.482 -30.086  1.00  0.00    -0.082 Cl
HETATM   23  C14 UNL     1     -27.088 -10.661 -28.224  1.00  0.00     0.055 A 
ENDBRANCH   5  16
TORSDOF 3
ENDMDL
