MODEL 13
REMARK VINA RESULT: -6.974167456      4.316      4.807
REMARK  3 active torsions:
REMARK  status: ('A' for Active; 'I' for Inactive)
REMARK       I    between atoms: C1_2  and  N1_3 
REMARK       I    between atoms: C1_2  and  N2_14 
REMARK    1  A    between atoms: N1_3  and  C2_5 
REMARK    2  A    between atoms: C6_9  and  C7_10 
REMARK    3  A    between atoms: N2_14  and  C9_16 
ROOT
HETATM    1  O1  UNL     1     -29.061 -10.805 -24.543  1.00  0.00    -0.247 OA
HETATM    2  C1  UNL     1     -28.297  -9.846 -24.366  1.00  0.00     0.325 C 
HETATM    3  N1  UNL     1     -28.204  -9.238 -23.101  1.00  0.00    -0.309 N 
ATOM      4  H1  UNL     1     -27.559  -8.454 -23.002  1.00  0.00     0.170 HD
HETATM    5  N2  UNL     1     -27.544  -9.407 -25.479  1.00  0.00    -0.309 N 
ATOM      6  H2  UNL     1     -26.926  -8.613 -25.309  1.00  0.00     0.170 HD
ENDROOT
BRANCH   3   7
HETATM    7  C2  UNL     1     -28.932  -9.628 -21.960  1.00  0.00     0.037 A 
HETATM    8  C3  UNL     1     -30.294  -9.279 -21.869  1.00  0.00     0.029 A 
HETATM    9  C4  UNL     1     -31.084  -9.629 -20.804  1.00  0.00     0.003 A 
HETATM   10  C5  UNL     1     -30.586 -10.352 -19.747  1.00  0.00     0.018 A 
HETATM   11  C6  UNL     1     -29.262 -10.707 -19.807  1.00  0.00     0.043 A 
HETATM   12  C8  UNL     1     -28.452 -10.348 -20.899  1.00  0.00     0.048 A 
BRANCH  11  13
HETATM   13  C7  UNL     1     -28.665 -11.479 -18.713  1.00  0.00     0.209 C 
HETATM   14  O2  UNL     1     -29.335 -11.782 -17.699  1.00  0.00    -0.644 OA
HETATM   15  O3  UNL     1     -27.343 -11.873 -18.817  1.00  0.00    -0.644 OA
ENDBRANCH  11  13
ENDBRANCH   3   7
BRANCH   5  16
HETATM   16  C9  UNL     1     -27.533  -9.914 -26.781  1.00  0.00     0.038 A 
HETATM   17  C10 UNL     1     -28.253  -9.423 -27.831  1.00  0.00     0.031 A 
HETATM   18  C11 UNL     1     -28.181  -9.978 -29.125  1.00  0.00     0.028 A 
HETATM   19  C12 UNL     1     -27.363 -11.046 -29.345  1.00  0.00     0.055 A 
HETATM   20 CL1  UNL     1     -27.274 -11.736 -30.958  1.00  0.00    -0.083 Cl
HETATM   21  C13 UNL     1     -26.609 -11.584 -28.308  1.00  0.00     0.058 A 
HETATM   22 CL2  UNL     1     -25.573 -12.959 -28.649  1.00  0.00    -0.082 Cl
HETATM   23  C14 UNL     1     -26.709 -11.019 -27.078  1.00  0.00     0.055 A 
ENDBRANCH   5  16
TORSDOF 3
ENDMDL
