MODEL 3
REMARK VINA RESULT: -7.345590001      3.602      3.941
REMARK  3 active torsions:
REMARK  status: ('A' for Active; 'I' for Inactive)
REMARK       I    between atoms: C1_2  and  N1_3 
REMARK       I    between atoms: C1_2  and  N2_14 
REMARK    1  A    between atoms: N1_3  and  C2_5 
REMARK    2  A    between atoms: C6_9  and  C7_10 
REMARK    3  A    between atoms: N2_14  and  C9_16 
ROOT
HETATM    1  O1  UNL     1     -26.393  -8.359 -24.572  1.00  0.00    -0.247 OA
HETATM    2  C1  UNL     1     -25.419  -8.350 -23.807  1.00  0.00     0.325 C 
HETATM    3  N1  UNL     1     -25.149  -7.220 -23.015  1.00  0.00    -0.309 N 
ATOM      4  H1  UNL     1     -24.338  -7.260 -22.398  1.00  0.00     0.170 HD
HETATM    5  N2  UNL     1     -24.611  -9.511 -23.777  1.00  0.00    -0.309 N 
ATOM      6  H2  UNL     1     -23.813  -9.477 -23.143  1.00  0.00     0.170 HD
ENDROOT
BRANCH   3   7
HETATM    7  C2  UNL     1     -25.913  -6.036 -23.007  1.00  0.00     0.037 A 
HETATM    8  C3  UNL     1     -25.507  -4.958 -23.818  1.00  0.00     0.029 A 
HETATM    9  C4  UNL     1     -26.196  -3.774 -23.885  1.00  0.00     0.003 A 
HETATM   10  C5  UNL     1     -27.342  -3.567 -23.157  1.00  0.00     0.018 A 
HETATM   11  C6  UNL     1     -27.764  -4.601 -22.358  1.00  0.00     0.043 A 
HETATM   12  C8  UNL     1     -27.056  -5.814 -22.289  1.00  0.00     0.048 A 
BRANCH  11  13
HETATM   13  C7  UNL     1     -28.980  -4.448 -21.553  1.00  0.00     0.209 C 
HETATM   14  O2  UNL     1     -29.640  -5.447 -21.189  1.00  0.00    -0.644 OA
HETATM   15  O3  UNL     1     -29.390  -3.175 -21.198  1.00  0.00    -0.644 OA
ENDBRANCH  11  13
ENDBRANCH   3   7
BRANCH   5  16
HETATM   16  C9  UNL     1     -24.761 -10.697 -24.499  1.00  0.00     0.038 A 
HETATM   17  C10 UNL     1     -24.126 -11.001 -25.669  1.00  0.00     0.031 A 
HETATM   18  C11 UNL     1     -24.315 -12.229 -26.337  1.00  0.00     0.028 A 
HETATM   19  C12 UNL     1     -25.162 -13.153 -25.801  1.00  0.00     0.055 A 
HETATM   20 CL1  UNL     1     -25.395 -14.681 -26.635  1.00  0.00    -0.083 Cl
HETATM   21  C13 UNL     1     -25.833 -12.892 -24.612  1.00  0.00     0.058 A 
HETATM   22 CL2  UNL     1     -26.910 -14.119 -23.969  1.00  0.00    -0.082 Cl
HETATM   23  C14 UNL     1     -25.622 -11.697 -24.003  1.00  0.00     0.055 A 
ENDBRANCH   5  16
TORSDOF 3
ENDMDL
