MODEL 2
REMARK VINA RESULT: -7.396699819      3.620      4.023
REMARK  3 active torsions:
REMARK  status: ('A' for Active; 'I' for Inactive)
REMARK       I    between atoms: C1_2  and  N1_3 
REMARK       I    between atoms: C1_2  and  N2_14 
REMARK    1  A    between atoms: N1_3  and  C2_5 
REMARK    2  A    between atoms: C6_9  and  C7_10 
REMARK    3  A    between atoms: N2_14  and  C9_16 
ROOT
HETATM    1  O1  UNL     1     -26.748  -8.148 -24.119  1.00  0.00    -0.247 OA
HETATM    2  C1  UNL     1     -25.802  -8.117 -23.319  1.00  0.00     0.325 C 
HETATM    3  N1  UNL     1     -25.458  -6.915 -22.674  1.00  0.00    -0.309 N 
ATOM      4  H1  UNL     1     -24.675  -6.940 -22.021  1.00  0.00     0.170 HD
HETATM    5  N2  UNL     1     -25.105  -9.327 -23.098  1.00  0.00    -0.309 N 
ATOM      6  H2  UNL     1     -24.328  -9.275 -22.439  1.00  0.00     0.170 HD
ENDROOT
BRANCH   3   7
HETATM    7  C2  UNL     1     -26.112  -5.681 -22.859  1.00  0.00     0.037 A 
HETATM    8  C3  UNL     1     -25.511  -4.709 -23.682  1.00  0.00     0.029 A 
HETATM    9  C4  UNL     1     -26.081  -3.487 -23.931  1.00  0.00     0.003 A 
HETATM   10  C5  UNL     1     -27.291  -3.134 -23.385  1.00  0.00     0.018 A 
HETATM   11  C6  UNL     1     -27.902  -4.062 -22.578  1.00  0.00     0.043 A 
HETATM   12  C8  UNL     1     -27.317  -5.314 -22.323  1.00  0.00     0.048 A 
BRANCH  11  13
HETATM   13  C7  UNL     1     -29.196  -3.751 -21.963  1.00  0.00     0.209 C 
HETATM   14  O2  UNL     1     -30.269  -4.044 -22.537  1.00  0.00    -0.644 OA
HETATM   15  O3  UNL     1     -29.215  -3.124 -20.729  1.00  0.00    -0.644 OA
ENDBRANCH  11  13
ENDBRANCH   3   7
BRANCH   5  16
HETATM   16  C9  UNL     1     -25.337 -10.584 -23.662  1.00  0.00     0.038 A 
HETATM   17  C10 UNL     1     -26.193 -11.528 -23.173  1.00  0.00     0.031 A 
HETATM   18  C11 UNL     1     -26.388 -12.773 -23.805  1.00  0.00     0.028 A 
HETATM   19  C12 UNL     1     -25.700 -13.053 -24.948  1.00  0.00     0.055 A 
HETATM   20 CL1  UNL     1     -25.946 -14.605 -25.734  1.00  0.00    -0.083 Cl
HETATM   21  C13 UNL     1     -24.815 -12.125 -25.486  1.00  0.00     0.058 A 
HETATM   22 CL2  UNL     1     -23.958 -12.540 -26.960  1.00  0.00    -0.082 Cl
HETATM   23  C14 UNL     1     -24.658 -10.940 -24.845  1.00  0.00     0.055 A 
ENDBRANCH   5  16
TORSDOF 3
ENDMDL
