MODEL 1
REMARK VINA RESULT: -11.212100266      0.000      0.000
REMARK  15 active torsions:
REMARK  status: ('A' for Active; 'I' for Inactive)
REMARK    1  A    between atoms: C1_2  and  C2_4 
REMARK    2  A    between atoms: N2_8  and  C6_9 
REMARK    3  A    between atoms: C7_11  and  C8_12 
REMARK    4  A    between atoms: C8_12  and  O3_13 
REMARK    5  A    between atoms: O3_13  and  P1_14 
REMARK    6  A    between atoms: P1_14  and  O6_17 
REMARK    7  A    between atoms: O6_17  and  P2_18 
REMARK    8  A    between atoms: P2_18  and  O9_21 
REMARK    9  A    between atoms: O9_21  and  C9_22 
REMARK   10  A    between atoms: C9_22  and  C10_23 
REMARK   11  A    between atoms: C11_25  and  N3_26 
REMARK   12  A    between atoms: C17_39  and  O11_40 
REMARK   13  A    between atoms: C18_42  and  O12_43 
REMARK   14  A    between atoms: C19_45  and  O13_46 
REMARK   15  A    between atoms: C20_48  and  O14_49 
ROOT
HETATM    1  P2  UNL     1      19.976 -10.016 -16.847  1.00  0.00     0.417 P 
HETATM    2  O7  UNL     1      18.863  -9.187 -16.279  1.00  0.00    -0.624 OA
HETATM    3  O8  UNL     1      20.353 -11.194 -15.610  1.00  0.00    -0.624 OA
ENDROOT
BRANCH   1   4
HETATM    4  O6  UNL     1      19.606 -10.771 -18.224  1.00  0.00    -0.180 OA
BRANCH   4   5
HETATM    5  P1  UNL     1      20.794 -11.634 -18.984  1.00  0.00     0.417 P 
HETATM    6  O4  UNL     1      21.089 -12.941 -18.382  1.00  0.00    -0.624 OA
HETATM    7  O5  UNL     1      22.316 -10.714 -18.749  1.00  0.00    -0.624 OA
BRANCH   5   8
HETATM    8  O3  UNL     1      20.581 -11.627 -20.608  1.00  0.00    -0.287 OA
BRANCH   8   9
HETATM    9  C8  UNL     1      20.351 -10.343 -21.149  1.00  0.00     0.216 C 
BRANCH   9  10
HETATM   10  C7  UNL     1      21.616 -10.191 -22.049  1.00  0.00     0.180 C 
HETATM   11  O2  UNL     1      21.241 -10.313 -23.364  1.00  0.00    -0.353 OA
HETATM   12  C6  UNL     1      21.791  -9.314 -24.132  1.00  0.00     0.259 C 
HETATM   13  C20 UNL     1      22.973  -8.816 -23.293  1.00  0.00     0.198 C 
HETATM   14  C19 UNL     1      22.328  -8.918 -21.879  1.00  0.00     0.182 C 
BRANCH  12  15
HETATM   15  N2  UNL     1      20.789  -8.227 -24.113  1.00  0.00    -0.336 N 
HETATM   16  C5  UNL     1      21.131  -6.963 -23.854  1.00  0.00     0.093 A 
HETATM   17  C4  UNL     1      20.140  -5.989 -23.729  1.00  0.00     0.018 A 
HETATM   18  C3  UNL     1      18.827  -6.335 -23.868  1.00  0.00     0.019 A 
HETATM   19  C2  UNL     1      18.514  -7.642 -24.131  1.00  0.00     0.044 A 
HETATM   20  C21 UNL     1      19.508  -8.588 -24.253  1.00  0.00     0.110 A 
BRANCH  19  21
HETATM   21  C1  UNL     1      17.131  -8.068 -24.241  1.00  0.00     0.266 C 
HETATM   22  N1  UNL     1      16.727  -8.892 -25.315  1.00  0.00    -0.057 NA
HETATM   23  O1  UNL     1      16.231  -7.728 -23.400  1.00  0.00    -0.271 OA
ENDBRANCH  19  21
ENDBRANCH  12  15
BRANCH  13  24
HETATM   24  O14 UNL     1      23.990  -9.769 -23.301  1.00  0.00    -0.388 OA
ATOM     25  H14 UNL     1      24.115 -10.098 -24.183  1.00  0.00     0.210 HD
ENDBRANCH  13  24
BRANCH  14  26
HETATM   26  O13 UNL     1      23.323  -8.920 -20.893  1.00  0.00    -0.390 OA
ATOM     27  H13 UNL     1      24.183  -9.196 -21.188  1.00  0.00     0.210 HD
ENDBRANCH  14  26
ENDBRANCH   9  10
ENDBRANCH   8   9
ENDBRANCH   5   8
ENDBRANCH   4   5
ENDBRANCH   1   4
BRANCH   1  28
HETATM   28  O9  UNL     1      21.377  -9.003 -16.816  1.00  0.00    -0.287 OA
BRANCH  28  29
HETATM   29  C9  UNL     1      21.710  -8.984 -15.421  1.00  0.00     0.216 C 
BRANCH  29  30
HETATM   30  C10 UNL     1      23.103  -8.544 -15.271  1.00  0.00     0.180 C 
HETATM   31  O10 UNL     1      23.876  -9.624 -14.760  1.00  0.00    -0.353 OA
HETATM   32  C11 UNL     1      25.148  -9.016 -14.768  1.00  0.00     0.262 C 
HETATM   33  C17 UNL     1      25.199  -8.755 -16.298  1.00  0.00     0.198 C 
HETATM   34  C18 UNL     1      23.803  -8.093 -16.481  1.00  0.00     0.182 C 
BRANCH  32  35
HETATM   35  N3  UNL     1      26.116  -9.943 -14.326  1.00  0.00    -0.297 N 
HETATM   36  C12 UNL     1      27.309 -10.288 -14.919  1.00  0.00     0.188 A 
HETATM   37  N4  UNL     1      27.951 -11.199 -14.186  1.00  0.00    -0.346 N 
HETATM   38  C13 UNL     1      27.167 -11.442 -13.095  1.00  0.00     0.119 A 
ATOM     39  H4  UNL     1      28.850 -11.629 -14.399  1.00  0.00     0.167 HD
HETATM   40  C14 UNL     1      27.337 -12.287 -12.037  1.00  0.00     0.148 A 
HETATM   41  C16 UNL     1      26.031 -10.654 -13.205  1.00  0.00     0.142 A 
HETATM   42  N5  UNL     1      28.519 -13.069 -11.904  1.00  0.00    -0.080 NA
HETATM   43  N6  UNL     1      26.388 -12.372 -11.091  1.00  0.00    -0.339 N 
HETATM   44  C15 UNL     1      25.279 -11.633 -11.179  1.00  0.00     0.183 A 
ATOM     45  H6  UNL     1      26.515 -13.005 -10.301  1.00  0.00     0.167 HD
HETATM   46  N7  UNL     1      25.116 -10.780 -12.236  1.00  0.00    -0.336 N 
ATOM     47  H7  UNL     1      24.265 -10.220 -12.288  1.00  0.00     0.168 HD
ENDBRANCH  32  35
BRANCH  33  48
HETATM   48  O11 UNL     1      26.242  -7.994 -16.697  1.00  0.00    -0.388 OA
ATOM     49  H11 UNL     1      26.513  -8.142 -17.596  1.00  0.00     0.210 HD
ENDBRANCH  33  48
BRANCH  34  50
HETATM   50  O12 UNL     1      24.051  -6.688 -16.391  1.00  0.00    -0.390 OA
ATOM     51  H12 UNL     1      23.417  -6.222 -16.922  1.00  0.00     0.210 HD
ENDBRANCH  34  50
ENDBRANCH  29  30
ENDBRANCH  28  29
ENDBRANCH   1  28
TORSDOF 15
ENDMDL
