MODEL 10
REMARK VINA RESULT: -10.713969912      2.232     10.070
REMARK  15 active torsions:
REMARK  status: ('A' for Active; 'I' for Inactive)
REMARK    1  A    between atoms: C1_2  and  C2_4 
REMARK    2  A    between atoms: N2_8  and  C6_9 
REMARK    3  A    between atoms: C7_11  and  C8_12 
REMARK    4  A    between atoms: C8_12  and  O3_13 
REMARK    5  A    between atoms: O3_13  and  P1_14 
REMARK    6  A    between atoms: P1_14  and  O6_17 
REMARK    7  A    between atoms: O6_17  and  P2_18 
REMARK    8  A    between atoms: P2_18  and  O9_21 
REMARK    9  A    between atoms: O9_21  and  C9_22 
REMARK   10  A    between atoms: C9_22  and  C10_23 
REMARK   11  A    between atoms: C11_25  and  N3_26 
REMARK   12  A    between atoms: C17_39  and  O11_40 
REMARK   13  A    between atoms: C18_42  and  O12_43 
REMARK   14  A    between atoms: C19_45  and  O13_46 
REMARK   15  A    between atoms: C20_48  and  O14_49 
ROOT
HETATM    1  P2  UNL     1      20.415 -12.312 -19.065  1.00  0.00     0.417 P 
HETATM    2  O7  UNL     1      21.393 -12.972 -18.139  1.00  0.00    -0.624 OA
HETATM    3  O8  UNL     1      19.188 -13.519 -19.377  1.00  0.00    -0.624 OA
ENDROOT
BRANCH   1   4
HETATM    4  O6  UNL     1      19.730 -10.980 -18.468  1.00  0.00    -0.180 OA
BRANCH   4   5
HETATM    5  P1  UNL     1      20.095 -10.543 -16.916  1.00  0.00     0.417 P 
HETATM    6  O4  UNL     1      19.884 -11.595 -15.912  1.00  0.00    -0.624 OA
HETATM    7  O5  UNL     1      18.906  -9.282 -16.452  1.00  0.00    -0.624 OA
BRANCH   5   8
HETATM    8  O3  UNL     1      21.536  -9.766 -16.844  1.00  0.00    -0.287 OA
BRANCH   8   9
HETATM    9  C8  UNL     1      21.897  -9.353 -15.543  1.00  0.00     0.216 C 
BRANCH   9  10
HETATM   10  C7  UNL     1      23.176  -8.520 -15.863  1.00  0.00     0.180 C 
HETATM   11  O2  UNL     1      23.969  -8.477 -14.743  1.00  0.00    -0.353 OA
HETATM   12  C6  UNL     1      25.279  -8.760 -15.051  1.00  0.00     0.259 C 
HETATM   13  C20 UNL     1      25.366  -8.494 -16.557  1.00  0.00     0.198 C 
HETATM   14  C19 UNL     1      23.971  -9.041 -16.983  1.00  0.00     0.182 C 
BRANCH  12  15
HETATM   15  N2  UNL     1      25.399 -10.224 -14.886  1.00  0.00    -0.336 N 
HETATM   16  C5  UNL     1      26.121 -10.968 -15.727  1.00  0.00     0.093 A 
HETATM   17  C4  UNL     1      26.112 -12.357 -15.607  1.00  0.00     0.018 A 
HETATM   18  C3  UNL     1      25.362 -12.949 -14.632  1.00  0.00     0.019 A 
HETATM   19  C2  UNL     1      24.632 -12.154 -13.789  1.00  0.00     0.044 A 
HETATM   20  C21 UNL     1      24.656 -10.784 -13.924  1.00  0.00     0.110 A 
BRANCH  19  21
HETATM   21  C1  UNL     1      23.782 -12.738 -12.767  1.00  0.00     0.266 C 
HETATM   22  N1  UNL     1      24.317 -13.059 -11.499  1.00  0.00    -0.057 NA
HETATM   23  O1  UNL     1      22.543 -12.989 -12.955  1.00  0.00    -0.271 OA
ENDBRANCH  19  21
ENDBRANCH  12  15
BRANCH  13  24
HETATM   24  O14 UNL     1      25.311  -7.122 -16.797  1.00  0.00    -0.388 OA
ATOM     25  H14 UNL     1      25.974  -6.880 -17.434  1.00  0.00     0.210 HD
ENDBRANCH  13  24
BRANCH  14  26
HETATM   26  O13 UNL     1      23.621  -8.542 -18.243  1.00  0.00    -0.390 OA
ATOM     27  H13 UNL     1      23.758  -9.141 -18.967  1.00  0.00     0.210 HD
ENDBRANCH  14  26
ENDBRANCH   9  10
ENDBRANCH   8   9
ENDBRANCH   5   8
ENDBRANCH   4   5
ENDBRANCH   1   4
BRANCH   1  28
HETATM   28  O9  UNL     1      21.214 -12.211 -20.595  1.00  0.00    -0.287 OA
BRANCH  28  29
HETATM   29  C9  UNL     1      22.091 -11.092 -20.409  1.00  0.00     0.216 C 
BRANCH  29  30
HETATM   30  C10 UNL     1      21.703 -10.023 -21.338  1.00  0.00     0.180 C 
HETATM   31  O10 UNL     1      22.789  -9.758 -22.218  1.00  0.00    -0.353 OA
HETATM   32  C11 UNL     1      22.183  -8.784 -23.039  1.00  0.00     0.262 C 
HETATM   33  C17 UNL     1      21.040  -9.696 -23.562  1.00  0.00     0.198 C 
HETATM   34  C18 UNL     1      20.542 -10.269 -22.204  1.00  0.00     0.182 C 
BRANCH  32  35
HETATM   35  N3  UNL     1      23.088  -8.389 -24.047  1.00  0.00    -0.297 N 
HETATM   36  C12 UNL     1      24.166  -9.079 -24.552  1.00  0.00     0.188 A 
HETATM   37  N4  UNL     1      24.772  -8.370 -25.506  1.00  0.00    -0.346 N 
HETATM   38  C13 UNL     1      24.069  -7.205 -25.629  1.00  0.00     0.119 A 
ATOM     39  H4  UNL     1      25.597  -8.644 -26.038  1.00  0.00     0.167 HD
HETATM   40  C14 UNL     1      24.256  -6.125 -26.442  1.00  0.00     0.148 A 
HETATM   41  C16 UNL     1      23.031  -7.238 -24.711  1.00  0.00     0.142 A 
HETATM   42  N5  UNL     1      25.300  -6.107 -27.411  1.00  0.00    -0.080 NA
HETATM   43  N6  UNL     1      23.434  -5.068 -26.348  1.00  0.00    -0.339 N 
HETATM   44  C15 UNL     1      22.433  -5.068 -25.463  1.00  0.00     0.183 A 
ATOM     45  H6  UNL     1      23.575  -4.260 -26.954  1.00  0.00     0.167 HD
HETATM   46  N7  UNL     1      22.243  -6.157 -24.656  1.00  0.00    -0.336 N 
ATOM     47  H7  UNL     1      21.473  -6.144 -23.988  1.00  0.00     0.168 HD
ENDBRANCH  32  35
BRANCH  33  48
HETATM   48  O11 UNL     1      20.096  -9.047 -24.280  1.00  0.00    -0.388 OA
ATOM     49  H11 UNL     1      19.217  -9.391 -24.171  1.00  0.00     0.210 HD
ENDBRANCH  33  48
BRANCH  34  50
HETATM   50  O12 UNL     1      19.469  -9.410 -21.816  1.00  0.00    -0.390 OA
ATOM     51  H12 UNL     1      18.818  -9.912 -21.340  1.00  0.00     0.210 HD
ENDBRANCH  34  50
ENDBRANCH  29  30
ENDBRANCH  28  29
ENDBRANCH   1  28
TORSDOF 15
ENDMDL
