MODEL 7
REMARK VINA RESULT: -10.941293340      3.924      8.842
REMARK  15 active torsions:
REMARK  status: ('A' for Active; 'I' for Inactive)
REMARK    1  A    between atoms: C1_2  and  C2_4 
REMARK    2  A    between atoms: N2_8  and  C6_9 
REMARK    3  A    between atoms: C7_11  and  C8_12 
REMARK    4  A    between atoms: C8_12  and  O3_13 
REMARK    5  A    between atoms: O3_13  and  P1_14 
REMARK    6  A    between atoms: P1_14  and  O6_17 
REMARK    7  A    between atoms: O6_17  and  P2_18 
REMARK    8  A    between atoms: P2_18  and  O9_21 
REMARK    9  A    between atoms: O9_21  and  C9_22 
REMARK   10  A    between atoms: C9_22  and  C10_23 
REMARK   11  A    between atoms: C11_25  and  N3_26 
REMARK   12  A    between atoms: C17_39  and  O11_40 
REMARK   13  A    between atoms: C18_42  and  O12_43 
REMARK   14  A    between atoms: C19_45  and  O13_46 
REMARK   15  A    between atoms: C20_48  and  O14_49 
ROOT
HETATM    1  P2  UNL     1      20.340 -12.654 -18.834  1.00  0.00     0.417 P 
HETATM    2  O7  UNL     1      21.478 -13.198 -18.022  1.00  0.00    -0.624 OA
HETATM    3  O8  UNL     1      19.175 -13.955 -18.927  1.00  0.00    -0.624 OA
ENDROOT
BRANCH   1   4
HETATM    4  O6  UNL     1      19.643 -11.342 -18.205  1.00  0.00    -0.180 OA
BRANCH   4   5
HETATM    5  P1  UNL     1      20.207 -10.777 -16.757  1.00  0.00     0.417 P 
HETATM    6  O4  UNL     1      20.003 -11.683 -15.619  1.00  0.00    -0.624 OA
HETATM    7  O5  UNL     1      19.196  -9.354 -16.341  1.00  0.00    -0.624 OA
BRANCH   5   8
HETATM    8  O3  UNL     1      21.714 -10.153 -16.912  1.00  0.00    -0.287 OA
BRANCH   8   9
HETATM    9  C8  UNL     1      22.532 -10.349 -15.779  1.00  0.00     0.216 C 
BRANCH   9  10
HETATM   10  C7  UNL     1      23.469  -9.108 -15.896  1.00  0.00     0.180 C 
HETATM   11  O2  UNL     1      24.437  -9.190 -14.924  1.00  0.00    -0.353 OA
HETATM   12  C6  UNL     1      25.685  -8.941 -15.445  1.00  0.00     0.259 C 
HETATM   13  C20 UNL     1      25.395  -8.190 -16.748  1.00  0.00     0.198 C 
HETATM   14  C19 UNL     1      24.125  -8.969 -17.203  1.00  0.00     0.182 C 
BRANCH  12  15
HETATM   15  N2  UNL     1      26.199 -10.269 -15.845  1.00  0.00    -0.336 N 
HETATM   16  C5  UNL     1      25.903 -11.372 -15.155  1.00  0.00     0.093 A 
HETATM   17  C4  UNL     1      26.503 -12.584 -15.495  1.00  0.00     0.018 A 
HETATM   18  C3  UNL     1      27.393 -12.634 -16.529  1.00  0.00     0.019 A 
HETATM   19  C2  UNL     1      27.674 -11.481 -17.213  1.00  0.00     0.044 A 
HETATM   20  C21 UNL     1      27.069 -10.295 -16.861  1.00  0.00     0.110 A 
BRANCH  19  21
HETATM   21  C1  UNL     1      28.648 -11.474 -18.289  1.00  0.00     0.266 C 
HETATM   22  N1  UNL     1      28.546 -10.525 -19.330  1.00  0.00    -0.057 NA
HETATM   23  O1  UNL     1      29.618 -12.303 -18.352  1.00  0.00    -0.271 OA
ENDBRANCH  19  21
ENDBRANCH  12  15
BRANCH  13  24
HETATM   24  O14 UNL     1      24.950  -6.901 -16.460  1.00  0.00    -0.388 OA
ATOM     25  H14 UNL     1      25.244  -6.300 -17.135  1.00  0.00     0.210 HD
ENDBRANCH  13  24
BRANCH  14  26
HETATM   26  O13 UNL     1      23.413  -8.222 -18.149  1.00  0.00    -0.390 OA
ATOM     27  H13 UNL     1      23.692  -8.339 -19.049  1.00  0.00     0.210 HD
ENDBRANCH  14  26
ENDBRANCH   9  10
ENDBRANCH   8   9
ENDBRANCH   5   8
ENDBRANCH   4   5
ENDBRANCH   1   4
BRANCH   1  28
HETATM   28  O9  UNL     1      20.920 -12.576 -20.461  1.00  0.00    -0.287 OA
BRANCH  28  29
HETATM   29  C9  UNL     1      21.015 -11.163 -20.685  1.00  0.00     0.216 C 
BRANCH  29  30
HETATM   30  C10 UNL     1      22.356 -10.851 -21.196  1.00  0.00     0.180 C 
HETATM   31  O10 UNL     1      22.925 -12.032 -21.750  1.00  0.00    -0.353 OA
HETATM   32  C11 UNL     1      24.139 -11.496 -22.229  1.00  0.00     0.262 C 
HETATM   33  C17 UNL     1      23.495 -10.478 -23.210  1.00  0.00     0.198 C 
HETATM   34  C18 UNL     1      22.458  -9.831 -22.248  1.00  0.00     0.182 C 
BRANCH  32  35
HETATM   35  N3  UNL     1      24.877 -12.508 -22.878  1.00  0.00    -0.297 N 
HETATM   36  C12 UNL     1      24.452 -13.404 -23.831  1.00  0.00     0.188 A 
HETATM   37  N4  UNL     1      25.454 -14.200 -24.207  1.00  0.00    -0.346 N 
HETATM   38  C13 UNL     1      26.551 -13.807 -23.493  1.00  0.00     0.119 A 
ATOM     39  H4  UNL     1      25.411 -14.953 -24.892  1.00  0.00     0.167 HD
HETATM   40  C14 UNL     1      27.830 -14.282 -23.477  1.00  0.00     0.148 A 
HETATM   41  C16 UNL     1      26.167 -12.758 -22.672  1.00  0.00     0.142 A 
HETATM   42  N5  UNL     1      28.233 -15.335 -24.346  1.00  0.00    -0.080 NA
HETATM   43  N6  UNL     1      28.734 -13.739 -22.647  1.00  0.00    -0.339 N 
HETATM   44  C15 UNL     1      28.388 -12.734 -21.836  1.00  0.00     0.183 A 
ATOM     45  H6  UNL     1      29.689 -14.095 -22.634  1.00  0.00     0.167 HD
HETATM   46  N7  UNL     1      27.107 -12.255 -21.862  1.00  0.00    -0.336 N 
ATOM     47  H7  UNL     1      26.859 -11.486 -21.240  1.00  0.00     0.168 HD
ENDBRANCH  32  35
BRANCH  33  48
HETATM   48  O11 UNL     1      24.371  -9.610 -23.763  1.00  0.00    -0.388 OA
ATOM     49  H11 UNL     1      24.555  -9.771 -24.681  1.00  0.00     0.210 HD
ENDBRANCH  33  48
BRANCH  34  50
HETATM   50  O12 UNL     1      23.116  -8.675 -21.726  1.00  0.00    -0.390 OA
ATOM     51  H12 UNL     1      22.517  -7.938 -21.739  1.00  0.00     0.210 HD
ENDBRANCH  34  50
ENDBRANCH  29  30
ENDBRANCH  28  29
ENDBRANCH   1  28
TORSDOF 15
ENDMDL
