MODEL 3
REMARK VINA RESULT: -11.118672097      0.961      1.330
REMARK  15 active torsions:
REMARK  status: ('A' for Active; 'I' for Inactive)
REMARK    1  A    between atoms: C1_2  and  C2_4 
REMARK    2  A    between atoms: N2_8  and  C6_9 
REMARK    3  A    between atoms: C7_11  and  C8_12 
REMARK    4  A    between atoms: C8_12  and  O3_13 
REMARK    5  A    between atoms: O3_13  and  P1_14 
REMARK    6  A    between atoms: P1_14  and  O6_17 
REMARK    7  A    between atoms: O6_17  and  P2_18 
REMARK    8  A    between atoms: P2_18  and  O9_21 
REMARK    9  A    between atoms: O9_21  and  C9_22 
REMARK   10  A    between atoms: C9_22  and  C10_23 
REMARK   11  A    between atoms: C11_25  and  N3_26 
REMARK   12  A    between atoms: C17_39  and  O11_40 
REMARK   13  A    between atoms: C18_42  and  O12_43 
REMARK   14  A    between atoms: C19_45  and  O13_46 
REMARK   15  A    between atoms: C20_48  and  O14_49 
ROOT
HETATM    1  P2  UNL     1      19.921 -10.104 -16.990  1.00  0.00     0.417 P 
HETATM    2  O7  UNL     1      18.808  -9.313 -16.371  1.00  0.00    -0.624 OA
HETATM    3  O8  UNL     1      20.297 -11.358 -15.829  1.00  0.00    -0.624 OA
ENDROOT
BRANCH   1   4
HETATM    4  O6  UNL     1      19.552 -10.770 -18.412  1.00  0.00    -0.180 OA
BRANCH   4   5
HETATM    5  P1  UNL     1      20.776 -11.432 -19.305  1.00  0.00     0.417 P 
HETATM    6  O4  UNL     1      20.932 -12.885 -19.158  1.00  0.00    -0.624 OA
HETATM    7  O5  UNL     1      22.305 -10.780 -18.628  1.00  0.00    -0.624 OA
BRANCH   5   8
HETATM    8  O3  UNL     1      20.757 -10.867 -20.842  1.00  0.00    -0.287 OA
BRANCH   8   9
HETATM    9  C8  UNL     1      21.778 -11.400 -21.659  1.00  0.00     0.216 C 
BRANCH   9  10
HETATM   10  C7  UNL     1      22.505 -10.089 -22.086  1.00  0.00     0.180 C 
HETATM   11  O2  UNL     1      22.695 -10.109 -23.446  1.00  0.00    -0.353 OA
HETATM   12  C6  UNL     1      22.321  -8.915 -24.017  1.00  0.00     0.259 C 
HETATM   13  C20 UNL     1      22.345  -7.926 -22.846  1.00  0.00     0.198 C 
HETATM   14  C19 UNL     1      21.788  -8.857 -21.729  1.00  0.00     0.182 C 
BRANCH  12  15
HETATM   15  N2  UNL     1      20.897  -9.094 -24.372  1.00  0.00    -0.336 N 
HETATM   16  C5  UNL     1      20.491 -10.091 -25.161  1.00  0.00     0.093 A 
HETATM   17  C4  UNL     1      19.158 -10.155 -25.567  1.00  0.00     0.018 A 
HETATM   18  C3  UNL     1      18.278  -9.195 -25.158  1.00  0.00     0.019 A 
HETATM   19  C2  UNL     1      18.731  -8.185 -24.351  1.00  0.00     0.044 A 
HETATM   20  C21 UNL     1      20.051  -8.142 -23.960  1.00  0.00     0.110 A 
BRANCH  19  21
HETATM   21  C1  UNL     1      17.845  -7.117 -23.929  1.00  0.00     0.266 C 
HETATM   22  N1  UNL     1      16.545  -7.416 -23.463  1.00  0.00    -0.057 NA
HETATM   23  O1  UNL     1      18.181  -5.884 -23.959  1.00  0.00    -0.271 OA
ENDBRANCH  19  21
ENDBRANCH  12  15
BRANCH  13  24
HETATM   24  O14 UNL     1      23.664  -7.662 -22.480  1.00  0.00    -0.388 OA
ATOM     25  H14 UNL     1      23.878  -6.758 -22.682  1.00  0.00     0.210 HD
ENDBRANCH  13  24
BRANCH  14  26
HETATM   26  O13 UNL     1      22.096  -8.335 -20.467  1.00  0.00    -0.390 OA
ATOM     27  H13 UNL     1      22.451  -8.960 -19.847  1.00  0.00     0.210 HD
ENDBRANCH  14  26
ENDBRANCH   9  10
ENDBRANCH   8   9
ENDBRANCH   5   8
ENDBRANCH   4   5
ENDBRANCH   1   4
BRANCH   1  28
HETATM   28  O9  UNL     1      21.322  -9.096 -16.893  1.00  0.00    -0.287 OA
BRANCH  28  29
HETATM   29  C9  UNL     1      21.660  -9.173 -15.502  1.00  0.00     0.216 C 
BRANCH  29  30
HETATM   30  C10 UNL     1      23.032  -8.682 -15.317  1.00  0.00     0.180 C 
HETATM   31  O10 UNL     1      23.841  -9.744 -14.826  1.00  0.00    -0.353 OA
HETATM   32  C11 UNL     1      25.088  -9.085 -14.796  1.00  0.00     0.262 C 
HETATM   33  C17 UNL     1      25.149  -8.777 -16.318  1.00  0.00     0.198 C 
HETATM   34  C18 UNL     1      23.730  -8.167 -16.503  1.00  0.00     0.182 C 
BRANCH  32  35
HETATM   35  N3  UNL     1      26.086  -9.984 -14.367  1.00  0.00    -0.297 N 
HETATM   36  C12 UNL     1      27.279 -10.299 -14.977  1.00  0.00     0.188 A 
HETATM   37  N4  UNL     1      27.956 -11.190 -14.251  1.00  0.00    -0.346 N 
HETATM   38  C13 UNL     1      27.195 -11.450 -13.147  1.00  0.00     0.119 A 
ATOM     39  H4  UNL     1      28.863 -11.597 -14.476  1.00  0.00     0.167 HD
HETATM   40  C14 UNL     1      27.404 -12.287 -12.089  1.00  0.00     0.148 A 
HETATM   41  C16 UNL     1      26.037 -10.693 -13.243  1.00  0.00     0.142 A 
HETATM   42  N5  UNL     1      28.609 -13.037 -11.972  1.00  0.00    -0.080 NA
HETATM   43  N6  UNL     1      26.472 -12.394 -11.128  1.00  0.00    -0.339 N 
HETATM   44  C15 UNL     1      25.342 -11.684 -11.202  1.00  0.00     0.183 A 
ATOM     45  H6  UNL     1      26.628 -13.020 -10.338  1.00  0.00     0.167 HD
HETATM   46  N7  UNL     1      25.141 -10.840 -12.259  1.00  0.00    -0.336 N 
ATOM     47  H7  UNL     1      24.275 -10.303 -12.300  1.00  0.00     0.168 HD
ENDBRANCH  32  35
BRANCH  33  48
HETATM   48  O11 UNL     1      26.165  -7.962 -16.679  1.00  0.00    -0.388 OA
ATOM     49  H11 UNL     1      27.030  -8.315 -16.504  1.00  0.00     0.210 HD
ENDBRANCH  33  48
BRANCH  34  50
HETATM   50  O12 UNL     1      23.918  -6.757 -16.368  1.00  0.00    -0.390 OA
ATOM     51  H12 UNL     1      24.733  -6.506 -16.788  1.00  0.00     0.210 HD
ENDBRANCH  34  50
ENDBRANCH  29  30
ENDBRANCH  28  29
ENDBRANCH   1  28
TORSDOF 15
ENDMDL
