MODEL 9
REMARK VINA RESULT: -8.221398942      1.532      2.377
REMARK  4 active torsions:
REMARK  status: ('A' for Active; 'I' for Inactive)
REMARK    1  A    between atoms: N1_2  and  C3_4 
REMARK    2  A    between atoms: C3_4  and  O1_5 
REMARK    3  A    between atoms: C3_4  and  C4_7 
REMARK    4  A    between atoms: C8_11  and  C9_12 
ROOT
HETATM    1  C4  UNL     1     -13.648   5.368   8.901  1.00  0.00     0.015 A 
HETATM    2  C5  UNL     1     -12.814   4.471   9.498  1.00  0.00     0.016 A 
HETATM    3  C6  UNL     1     -13.270   3.587  10.476  1.00  0.00     0.002 A 
HETATM    4  C7  UNL     1     -14.576   3.609  10.854  1.00  0.00     0.012 A 
HETATM    5  C8  UNL     1     -15.449   4.495  10.281  1.00  0.00    -0.023 A 
HETATM    6  C17 UNL     1     -15.000   5.346   9.334  1.00  0.00     0.028 A 
ENDROOT
BRANCH   5   7
HETATM    7  C9  UNL     1     -16.857   4.473  10.737  1.00  0.00     0.003 A 
HETATM    8  C10 UNL     1     -17.801   3.681  10.125  1.00  0.00     0.107 A 
HETATM    9  N2  UNL     1     -19.084   3.617  10.499  1.00  0.00    -0.326 N 
HETATM   10  C11 UNL     1     -20.050   2.766   9.821  1.00  0.00     0.159 C 
HETATM   11  C12 UNL     1     -19.497   4.371  11.542  1.00  0.00     0.274 A 
HETATM   12  O2  UNL     1     -20.700   4.326  11.910  1.00  0.00    -0.265 OA
HETATM   13  C13 UNL     1     -18.599   5.198  12.214  1.00  0.00     0.112 A 
HETATM   14  N3  UNL     1     -18.762   6.024  13.253  1.00  0.00    -0.361 N 
HETATM   15  C16 UNL     1     -17.274   5.242  11.802  1.00  0.00     0.010 A 
HETATM   16  C14 UNL     1     -17.574   6.621  13.546  1.00  0.00     0.089 A 
ATOM     17  H3  UNL     1     -19.639   6.182  13.748  1.00  0.00     0.165 HD
HETATM   18  C15 UNL     1     -16.643   6.130  12.635  1.00  0.00     0.032 A 
ENDBRANCH   5   7
BRANCH   1  19
HETATM   19  C3  UNL     1     -13.239   6.291   7.899  1.00  0.00     0.147 C 
BRANCH  19  20
HETATM   20  N1  UNL     1     -12.863   7.620   7.986  1.00  0.00    -0.370 N 
HETATM   21  C1  UNL     1     -12.164   8.228   6.782  1.00  0.00     0.151 C 
HETATM   22  C2  UNL     1     -13.025   8.552   9.054  1.00  0.00     0.151 C 
ENDBRANCH  19  20
BRANCH  19  23
HETATM   23  O1  UNL     1     -13.219   5.792   6.685  1.00  0.00    -0.346 OA
ATOM     24  H1  UNL     1     -13.319   4.848   6.641  1.00  0.00     0.219 HD
ENDBRANCH  19  23
ENDBRANCH   1  19
TORSDOF 4
ENDMDL
