MODEL 6
REMARK VINA RESULT: -8.459861189      1.749      6.421
REMARK  4 active torsions:
REMARK  status: ('A' for Active; 'I' for Inactive)
REMARK    1  A    between atoms: N1_2  and  C3_4 
REMARK    2  A    between atoms: C3_4  and  O1_5 
REMARK    3  A    between atoms: C3_4  and  C4_7 
REMARK    4  A    between atoms: C8_11  and  C9_12 
ROOT
HETATM    1  C4  UNL     1     -18.998   4.504  11.281  1.00  0.00     0.015 A 
HETATM    2  C5  UNL     1     -19.011   5.327  12.366  1.00  0.00     0.016 A 
HETATM    3  C6  UNL     1     -17.855   5.972  12.807  1.00  0.00     0.002 A 
HETATM    4  C7  UNL     1     -16.680   5.785  12.149  1.00  0.00     0.012 A 
HETATM    5  C8  UNL     1     -16.622   4.965  11.053  1.00  0.00    -0.023 A 
HETATM    6  C17 UNL     1     -17.746   4.345  10.632  1.00  0.00     0.028 A 
ENDROOT
BRANCH   5   7
HETATM    7  C9  UNL     1     -15.314   4.798  10.382  1.00  0.00     0.003 A 
HETATM    8  C10 UNL     1     -14.785   3.552  10.134  1.00  0.00     0.107 A 
HETATM    9  N2  UNL     1     -13.612   3.342   9.526  1.00  0.00    -0.326 N 
HETATM   10  C11 UNL     1     -13.090   2.006   9.285  1.00  0.00     0.159 C 
HETATM   11  C12 UNL     1     -12.886   4.409   9.123  1.00  0.00     0.274 A 
HETATM   12  O2  UNL     1     -11.780   4.233   8.549  1.00  0.00    -0.265 OA
HETATM   13  C13 UNL     1     -13.356   5.703   9.340  1.00  0.00     0.112 A 
HETATM   14  N3  UNL     1     -12.832   6.897   9.041  1.00  0.00    -0.361 N 
HETATM   15  C16 UNL     1     -14.578   5.888   9.972  1.00  0.00     0.010 A 
HETATM   16  C14 UNL     1     -13.677   7.878   9.461  1.00  0.00     0.089 A 
ATOM     17  H3  UNL     1     -11.940   7.048   8.572  1.00  0.00     0.165 HD
HETATM   18  C15 UNL     1     -14.770   7.244  10.045  1.00  0.00     0.032 A 
ENDBRANCH   5   7
BRANCH   1  19
HETATM   19  C3  UNL     1     -20.144   3.822  10.786  1.00  0.00     0.147 C 
BRANCH  19  20
HETATM   20  N1  UNL     1     -20.698   2.603  11.134  1.00  0.00    -0.370 N 
HETATM   21  C1  UNL     1     -21.291   2.478  12.528  1.00  0.00     0.151 C 
HETATM   22  C2  UNL     1     -20.811   1.397  10.381  1.00  0.00     0.151 C 
ENDBRANCH  19  20
BRANCH  19  23
HETATM   23  O1  UNL     1     -20.781   4.462   9.833  1.00  0.00    -0.346 OA
ATOM     24  H1  UNL     1     -20.461   4.289   8.955  1.00  0.00     0.219 HD
ENDBRANCH  19  23
ENDBRANCH   1  19
TORSDOF 4
ENDMDL
