MODEL 2
REMARK VINA RESULT: -8.763053852      1.775      6.596
REMARK  4 active torsions:
REMARK  status: ('A' for Active; 'I' for Inactive)
REMARK    1  A    between atoms: N1_2  and  C3_4 
REMARK    2  A    between atoms: C3_4  and  O1_5 
REMARK    3  A    between atoms: C3_4  and  C4_7 
REMARK    4  A    between atoms: C8_11  and  C9_12 
ROOT
HETATM    1  C4  UNL     1     -18.920   4.670  11.285  1.00  0.00     0.015 A 
HETATM    2  C5  UNL     1     -19.016   5.305  12.486  1.00  0.00     0.016 A 
HETATM    3  C6  UNL     1     -17.950   6.031  13.017  1.00  0.00     0.002 A 
HETATM    4  C7  UNL     1     -16.779   6.117  12.331  1.00  0.00     0.012 A 
HETATM    5  C8  UNL     1     -16.638   5.494  11.119  1.00  0.00    -0.023 A 
HETATM    6  C17 UNL     1     -17.676   4.793  10.612  1.00  0.00     0.028 A 
ENDROOT
BRANCH   5   7
HETATM    7  C9  UNL     1     -15.339   5.620  10.422  1.00  0.00     0.003 A 
HETATM    8  C10 UNL     1     -14.848   6.844  10.028  1.00  0.00     0.107 A 
HETATM    9  N2  UNL     1     -13.679   7.017   9.402  1.00  0.00    -0.326 N 
HETATM   10  C11 UNL     1     -13.199   8.331   9.002  1.00  0.00     0.159 C 
HETATM   11  C12 UNL     1     -12.918   5.934   9.130  1.00  0.00     0.274 A 
HETATM   12  O2  UNL     1     -11.815   6.075   8.541  1.00  0.00    -0.265 OA
HETATM   13  C13 UNL     1     -13.348   4.660   9.498  1.00  0.00     0.112 A 
HETATM   14  N3  UNL     1     -12.787   3.456   9.342  1.00  0.00    -0.361 N 
HETATM   15  C16 UNL     1     -14.566   4.512  10.148  1.00  0.00     0.010 A 
HETATM   16  C14 UNL     1     -13.603   2.505   9.873  1.00  0.00     0.089 A 
ATOM     17  H3  UNL     1     -11.888   3.279   8.895  1.00  0.00     0.165 HD
HETATM   18  C15 UNL     1     -14.718   3.170  10.377  1.00  0.00     0.032 A 
ENDBRANCH   5   7
BRANCH   1  19
HETATM   19  C3  UNL     1     -19.973   3.917  10.696  1.00  0.00     0.147 C 
BRANCH  19  20
HETATM   20  N1  UNL     1     -20.527   2.699  11.046  1.00  0.00    -0.370 N 
HETATM   21  C1  UNL     1     -21.121   2.576  12.439  1.00  0.00     0.151 C 
HETATM   22  C2  UNL     1     -20.638   1.491  10.295  1.00  0.00     0.151 C 
ENDBRANCH  19  20
BRANCH  19  23
HETATM   23  O1  UNL     1     -20.507   4.478   9.636  1.00  0.00    -0.346 OA
ATOM     24  H1  UNL     1     -19.915   4.582   8.900  1.00  0.00     0.219 HD
ENDBRANCH  19  23
ENDBRANCH   1  19
TORSDOF 4
ENDMDL
