MODEL 7
REMARK VINA RESULT: -8.276122536      1.934      3.088
REMARK  4 active torsions:
REMARK  status: ('A' for Active; 'I' for Inactive)
REMARK    1  A    between atoms: N1_2  and  C3_4 
REMARK    2  A    between atoms: C3_4  and  O1_5 
REMARK    3  A    between atoms: C3_4  and  C4_7 
REMARK    4  A    between atoms: C8_11  and  C9_12 
ROOT
HETATM    1  C4  UNL     1     -13.614   6.793   9.663  1.00  0.00     0.015 A 
HETATM    2  C5  UNL     1     -12.741   5.751   9.747  1.00  0.00     0.016 A 
HETATM    3  C6  UNL     1     -13.148   4.488  10.179  1.00  0.00     0.002 A 
HETATM    4  C7  UNL     1     -14.444   4.277  10.528  1.00  0.00     0.012 A 
HETATM    5  C8  UNL     1     -15.357   5.296  10.459  1.00  0.00    -0.023 A 
HETATM    6  C17 UNL     1     -14.954   6.515  10.039  1.00  0.00     0.028 A 
ENDROOT
BRANCH   5   7
HETATM    7  C9  UNL     1     -16.752   5.005  10.856  1.00  0.00     0.003 A 
HETATM    8  C10 UNL     1     -17.556   4.173  10.110  1.00  0.00     0.107 A 
HETATM    9  N2  UNL     1     -18.820   3.870  10.425  1.00  0.00    -0.326 N 
HETATM   10  C11 UNL     1     -19.634   2.985   9.606  1.00  0.00     0.159 C 
HETATM   11  C12 UNL     1     -19.360   4.405  11.542  1.00  0.00     0.274 A 
HETATM   12  O2  UNL     1     -20.548   4.133  11.856  1.00  0.00    -0.265 OA
HETATM   13  C13 UNL     1     -18.608   5.258  12.349  1.00  0.00     0.112 A 
HETATM   14  N3  UNL     1     -18.913   5.902  13.481  1.00  0.00    -0.361 N 
HETATM   15  C16 UNL     1     -17.298   5.553  11.997  1.00  0.00     0.010 A 
HETATM   16  C14 UNL     1     -17.834   6.622  13.894  1.00  0.00     0.089 A 
ATOM     17  H3  UNL     1     -19.812   5.859  13.960  1.00  0.00     0.165 HD
HETATM   18  C15 UNL     1     -16.824   6.402  12.962  1.00  0.00     0.032 A 
ENDBRANCH   5   7
BRANCH   1  19
HETATM   19  C3  UNL     1     -13.256   8.099   9.230  1.00  0.00     0.147 C 
BRANCH  19  20
HETATM   20  N1  UNL     1     -13.266   9.313   9.894  1.00  0.00    -0.370 N 
HETATM   21  C1  UNL     1     -12.989   9.294  11.388  1.00  0.00     0.151 C 
HETATM   22  C2  UNL     1     -13.503  10.629   9.398  1.00  0.00     0.151 C 
ENDBRANCH  19  20
BRANCH  19  23
HETATM   23  O1  UNL     1     -12.847   8.159   7.983  1.00  0.00    -0.346 OA
ATOM     24  H1  UNL     1     -13.458   8.573   7.385  1.00  0.00     0.219 HD
ENDBRANCH  19  23
ENDBRANCH   1  19
TORSDOF 4
ENDMDL
