MODEL 4
REMARK VINA RESULT: -8.648977570      1.877      6.527
REMARK  4 active torsions:
REMARK  status: ('A' for Active; 'I' for Inactive)
REMARK    1  A    between atoms: N1_2  and  C3_4 
REMARK    2  A    between atoms: C3_4  and  O1_5 
REMARK    3  A    between atoms: C3_4  and  C4_7 
REMARK    4  A    between atoms: C8_11  and  C9_12 
ROOT
HETATM    1  C4  UNL     1     -18.470   4.613  10.872  1.00  0.00     0.015 A 
HETATM    2  C5  UNL     1     -18.429   5.427  11.964  1.00  0.00     0.016 A 
HETATM    3  C6  UNL     1     -17.249   6.057  12.360  1.00  0.00     0.002 A 
HETATM    4  C7  UNL     1     -16.105   5.864  11.652  1.00  0.00     0.012 A 
HETATM    5  C8  UNL     1     -16.102   5.053  10.548  1.00  0.00    -0.023 A 
HETATM    6  C17 UNL     1     -17.249   4.448  10.170  1.00  0.00     0.028 A 
ENDROOT
BRANCH   5   7
HETATM    7  C9  UNL     1     -14.825   4.880   9.820  1.00  0.00     0.003 A 
HETATM    8  C10 UNL     1     -14.513   5.643   8.718  1.00  0.00     0.107 A 
HETATM    9  N2  UNL     1     -13.373   5.533   8.027  1.00  0.00    -0.326 N 
HETATM   10  C11 UNL     1     -13.085   6.361   6.866  1.00  0.00     0.159 C 
HETATM   11  C12 UNL     1     -12.458   4.620   8.420  1.00  0.00     0.274 A 
HETATM   12  O2  UNL     1     -11.378   4.501   7.784  1.00  0.00    -0.265 OA
HETATM   13  C13 UNL     1     -12.702   3.809   9.528  1.00  0.00     0.112 A 
HETATM   14  N3  UNL     1     -11.967   2.850  10.102  1.00  0.00    -0.361 N 
HETATM   15  C16 UNL     1     -13.894   3.948  10.225  1.00  0.00     0.010 A 
HETATM   16  C14 UNL     1     -12.643   2.342  11.169  1.00  0.00     0.089 A 
ATOM     17  H3  UNL     1     -11.046   2.547   9.789  1.00  0.00     0.165 HD
HETATM   18  C15 UNL     1     -13.851   3.032  11.244  1.00  0.00     0.032 A 
ENDBRANCH   5   7
BRANCH   1  19
HETATM   19  C3  UNL     1     -19.643   3.946  10.421  1.00  0.00     0.147 C 
BRANCH  19  20
HETATM   20  N1  UNL     1     -20.249   2.780  10.854  1.00  0.00    -0.370 N 
HETATM   21  C1  UNL     1     -20.797   2.761  12.271  1.00  0.00     0.151 C 
HETATM   22  C2  UNL     1     -20.455   1.544  10.171  1.00  0.00     0.151 C 
ENDBRANCH  19  20
BRANCH  19  23
HETATM   23  O1  UNL     1     -20.250   4.542   9.421  1.00  0.00    -0.346 OA
ATOM     24  H1  UNL     1     -20.791   3.972   8.888  1.00  0.00     0.219 HD
ENDBRANCH  19  23
ENDBRANCH   1  19
TORSDOF 4
ENDMDL
