MODEL 5
REMARK VINA RESULT: -8.510523809      1.990      2.808
REMARK  4 active torsions:
REMARK  status: ('A' for Active; 'I' for Inactive)
REMARK    1  A    between atoms: N1_2  and  C3_4 
REMARK    2  A    between atoms: C3_4  and  O1_5 
REMARK    3  A    between atoms: C3_4  and  C4_7 
REMARK    4  A    between atoms: C8_11  and  C9_12 
ROOT
HETATM    1  C4  UNL     1     -13.738   6.977   9.626  1.00  0.00     0.015 A 
HETATM    2  C5  UNL     1     -12.839   5.954   9.649  1.00  0.00     0.016 A 
HETATM    3  C6  UNL     1     -13.204   4.669  10.052  1.00  0.00     0.002 A 
HETATM    4  C7  UNL     1     -14.483   4.416  10.434  1.00  0.00     0.012 A 
HETATM    5  C8  UNL     1     -15.420   5.415  10.428  1.00  0.00    -0.023 A 
HETATM    6  C17 UNL     1     -15.058   6.656  10.035  1.00  0.00     0.028 A 
ENDROOT
BRANCH   5   7
HETATM    7  C9  UNL     1     -16.795   5.079  10.859  1.00  0.00     0.003 A 
HETATM    8  C10 UNL     1     -17.598   4.242  10.119  1.00  0.00     0.107 A 
HETATM    9  N2  UNL     1     -18.845   3.899  10.463  1.00  0.00    -0.326 N 
HETATM   10  C11 UNL     1     -19.660   3.011   9.649  1.00  0.00     0.159 C 
HETATM   11  C12 UNL     1     -19.365   4.396  11.607  1.00  0.00     0.274 A 
HETATM   12  O2  UNL     1     -20.536   4.086  11.950  1.00  0.00    -0.265 OA
HETATM   13  C13 UNL     1     -18.611   5.251  12.411  1.00  0.00     0.112 A 
HETATM   14  N3  UNL     1     -18.898   5.862  13.565  1.00  0.00    -0.361 N 
HETATM   15  C16 UNL     1     -17.321   5.588  12.027  1.00  0.00     0.010 A 
HETATM   16  C14 UNL     1     -17.827   6.602  13.962  1.00  0.00     0.089 A 
ATOM     17  H3  UNL     1     -19.781   5.786  14.069  1.00  0.00     0.165 HD
HETATM   18  C15 UNL     1     -16.839   6.429  12.996  1.00  0.00     0.032 A 
ENDBRANCH   5   7
BRANCH   1  19
HETATM   19  C3  UNL     1     -13.423   8.305   9.224  1.00  0.00     0.147 C 
BRANCH  19  20
HETATM   20  N1  UNL     1     -12.451   8.789   8.367  1.00  0.00    -0.370 N 
HETATM   21  C1  UNL     1     -11.383   9.693   8.960  1.00  0.00     0.151 C 
HETATM   22  C2  UNL     1     -12.273   8.577   6.967  1.00  0.00     0.151 C 
ENDBRANCH  19  20
BRANCH  19  23
HETATM   23  O1  UNL     1     -14.187   9.225   9.764  1.00  0.00    -0.346 OA
ATOM     24  H1  UNL     1     -14.944   8.890  10.230  1.00  0.00     0.219 HD
ENDBRANCH  19  23
ENDBRANCH   1  19
TORSDOF 4
ENDMDL
