MODEL 11
REMARK VINA RESULT: -8.486891761      1.876      6.776
REMARK  6 active torsions:
REMARK  status: ('A' for Active; 'I' for Inactive)
REMARK    1  A    between atoms: C3_3  and  C4_4 
REMARK    2  A    between atoms: C4_4  and  N1_5 
REMARK    3  A    between atoms: C6_7  and  C7_8 
REMARK    4  A    between atoms: C11_12  and  C12_13 
REMARK    5  A    between atoms: C12_13  and  O1_14 
REMARK    6  A    between atoms: C12_13  and  N2_16 
ROOT
HETATM    1  N1  UNL     1     -13.601   7.325   9.156  1.00  0.00    -0.318 N 
HETATM    2  C5  UNL     1     -14.761   7.243   9.823  1.00  0.00     0.107 A 
HETATM    3  C6  UNL     1     -15.262   6.071  10.339  1.00  0.00     0.003 A 
HETATM    4  C16 UNL     1     -14.536   4.918  10.162  1.00  0.00     0.010 A 
HETATM    5  C17 UNL     1     -14.773   3.592  10.552  1.00  0.00     0.032 A 
HETATM    6  C18 UNL     1     -13.690   2.882  10.083  1.00  0.00     0.089 A 
HETATM    7  N3  UNL     1     -12.842   3.707   9.446  1.00  0.00    -0.361 N 
ATOM      8  H3  UNL     1     -11.964   3.429   9.007  1.00  0.00     0.165 HD
HETATM    9  C19 UNL     1     -13.341   4.970   9.479  1.00  0.00     0.112 A 
HETATM   10  C20 UNL     1     -12.909   6.182   8.994  1.00  0.00     0.275 A 
HETATM   11  O2  UNL     1     -11.805   6.177   8.375  1.00  0.00    -0.265 OA
ENDROOT
BRANCH   3  12
HETATM   12  C7  UNL     1     -16.524   6.041  11.072  1.00  0.00    -0.023 A 
HETATM   13  C8  UNL     1     -16.611   6.735  12.251  1.00  0.00     0.012 A 
HETATM   14  C9  UNL     1     -17.797   6.692  12.935  1.00  0.00     0.002 A 
HETATM   15  C10 UNL     1     -18.873   5.955  12.425  1.00  0.00     0.016 A 
HETATM   16  C11 UNL     1     -18.826   5.248  11.251  1.00  0.00     0.015 A 
HETATM   17  C15 UNL     1     -17.584   5.326  10.588  1.00  0.00     0.028 A 
BRANCH  16  18
HETATM   18  C12 UNL     1     -19.896   4.473  10.675  1.00  0.00     0.147 C 
BRANCH  18  19
HETATM   19  O1  UNL     1     -20.811   4.071  11.511  1.00  0.00    -0.346 OA
ATOM     20  H1  UNL     1     -21.657   4.494  11.425  1.00  0.00     0.219 HD
ENDBRANCH  18  19
BRANCH  18  21
HETATM   21  N2  UNL     1     -20.104   4.089   9.367  1.00  0.00    -0.370 N 
HETATM   22  C13 UNL     1     -19.712   2.698   8.996  1.00  0.00     0.151 C 
HETATM   23  C14 UNL     1     -20.650   4.846   8.279  1.00  0.00     0.151 C 
ENDBRANCH  18  21
ENDBRANCH  16  18
ENDBRANCH   3  12
BRANCH   1  24
HETATM   24  C4  UNL     1     -13.054   8.525   8.608  1.00  0.00     0.158 C 
BRANCH  24  25
HETATM   25  C3  UNL     1     -13.584   9.756   9.255  1.00  0.00    -0.011 C 
HETATM   26  C2  UNL     1     -13.487  10.954   8.696  1.00  0.00    -0.033 C 
HETATM   27  C1  UNL     1     -14.019  12.198   9.343  1.00  0.00     0.036 C 
ENDBRANCH  24  25
ENDBRANCH   1  24
TORSDOF 6
ENDMDL
