MODEL 4
REMARK VINA RESULT: -9.396270582      2.131      3.264
REMARK  6 active torsions:
REMARK  status: ('A' for Active; 'I' for Inactive)
REMARK    1  A    between atoms: C3_3  and  C4_4 
REMARK    2  A    between atoms: C4_4  and  N1_5 
REMARK    3  A    between atoms: C6_7  and  C7_8 
REMARK    4  A    between atoms: C11_12  and  C12_13 
REMARK    5  A    between atoms: C12_13  and  O1_14 
REMARK    6  A    between atoms: C12_13  and  N2_16 
ROOT
HETATM    1  N1  UNL     1     -18.790   4.377  10.227  1.00  0.00    -0.318 N 
HETATM    2  C5  UNL     1     -17.557   4.808   9.927  1.00  0.00     0.107 A 
HETATM    3  C6  UNL     1     -16.792   5.576  10.774  1.00  0.00     0.003 A 
HETATM    4  C16 UNL     1     -17.319   5.925  11.994  1.00  0.00     0.010 A 
HETATM    5  C17 UNL     1     -16.806   6.688  13.052  1.00  0.00     0.032 A 
HETATM    6  C18 UNL     1     -17.801   6.691  14.006  1.00  0.00     0.089 A 
HETATM    7  N3  UNL     1     -18.856   5.981  13.570  1.00  0.00    -0.361 N 
ATOM      8  H3  UNL     1     -19.722   5.830  14.087  1.00  0.00     0.165 HD
HETATM    9  C19 UNL     1     -18.584   5.498  12.329  1.00  0.00     0.112 A 
HETATM   10  C20 UNL     1     -19.285   4.731  11.427  1.00  0.00     0.275 A 
HETATM   11  O2  UNL     1     -20.443   4.363  11.784  1.00  0.00    -0.265 OA
ENDROOT
BRANCH   3  12
HETATM   12  C7  UNL     1     -15.447   6.005  10.403  1.00  0.00    -0.023 A 
HETATM   13  C8  UNL     1     -14.527   5.049  10.062  1.00  0.00     0.012 A 
HETATM   14  C9  UNL     1     -13.265   5.462   9.726  1.00  0.00     0.002 A 
HETATM   15  C10 UNL     1     -12.949   6.826   9.737  1.00  0.00     0.016 A 
HETATM   16  C11 UNL     1     -13.839   7.813  10.071  1.00  0.00     0.015 A 
HETATM   17  C15 UNL     1     -15.122   7.334  10.409  1.00  0.00     0.028 A 
BRANCH  16  18
HETATM   18  C12 UNL     1     -13.576   9.230  10.102  1.00  0.00     0.147 C 
BRANCH  18  19
HETATM   19  O1  UNL     1     -14.356   9.961   9.357  1.00  0.00    -0.346 OA
ATOM     20  H1  UNL     1     -14.693  10.748   9.769  1.00  0.00     0.219 HD
ENDBRANCH  18  19
BRANCH  18  21
HETATM   21  N2  UNL     1     -12.620   9.937  10.801  1.00  0.00    -0.370 N 
HETATM   22  C13 UNL     1     -12.696   9.894  12.290  1.00  0.00     0.151 C 
HETATM   23  C14 UNL     1     -11.537  10.731  10.299  1.00  0.00     0.151 C 
ENDBRANCH  18  21
ENDBRANCH  16  18
ENDBRANCH   3  12
BRANCH   1  24
HETATM   24  C4  UNL     1     -19.610   3.578   9.372  1.00  0.00     0.158 C 
BRANCH  24  25
HETATM   25  C3  UNL     1     -20.118   4.324   8.189  1.00  0.00    -0.011 C 
HETATM   26  C2  UNL     1     -20.818   5.444   8.299  1.00  0.00    -0.033 C 
HETATM   27  C1  UNL     1     -21.333   6.201   7.111  1.00  0.00     0.036 C 
ENDBRANCH  24  25
ENDBRANCH   1  24
TORSDOF 6
ENDMDL
