MODEL 13
REMARK VINA RESULT: -8.295162720      2.982      6.635
REMARK  6 active torsions:
REMARK  status: ('A' for Active; 'I' for Inactive)
REMARK    1  A    between atoms: C3_3  and  C4_4 
REMARK    2  A    between atoms: C4_4  and  N1_5 
REMARK    3  A    between atoms: C6_7  and  C7_8 
REMARK    4  A    between atoms: C11_12  and  C12_13 
REMARK    5  A    between atoms: C12_13  and  O1_14 
REMARK    6  A    between atoms: C12_13  and  N2_16 
ROOT
HETATM    1  N1  UNL     1     -17.797   6.766  13.410  1.00  0.00    -0.318 N 
HETATM    2  C5  UNL     1     -18.581   6.107  12.545  1.00  0.00     0.107 A 
HETATM    3  C6  UNL     1     -18.226   5.847  11.242  1.00  0.00     0.003 A 
HETATM    4  C16 UNL     1     -17.003   6.287  10.799  1.00  0.00     0.010 A 
HETATM    5  C17 UNL     1     -16.367   6.190   9.553  1.00  0.00     0.032 A 
HETATM    6  C18 UNL     1     -15.156   6.826   9.718  1.00  0.00     0.089 A 
HETATM    7  N3  UNL     1     -15.049   7.287  10.976  1.00  0.00    -0.361 N 
ATOM      8  H3  UNL     1     -14.249   7.796  11.354  1.00  0.00     0.165 HD
HETATM    9  C19 UNL     1     -16.176   6.968  11.664  1.00  0.00     0.112 A 
HETATM   10  C20 UNL     1     -16.604   7.187  12.953  1.00  0.00     0.275 A 
HETATM   11  O2  UNL     1     -15.807   7.817  13.709  1.00  0.00    -0.265 OA
ENDROOT
BRANCH   3  12
HETATM   12  C7  UNL     1     -19.113   5.110  10.346  1.00  0.00    -0.023 A 
HETATM   13  C8  UNL     1     -19.589   5.745   9.229  1.00  0.00     0.012 A 
HETATM   14  C9  UNL     1     -20.427   5.046   8.402  1.00  0.00     0.002 A 
HETATM   15  C10 UNL     1     -20.772   3.725   8.709  1.00  0.00     0.016 A 
HETATM   16  C11 UNL     1     -20.318   3.054   9.815  1.00  0.00     0.015 A 
HETATM   17  C15 UNL     1     -19.459   3.818  10.633  1.00  0.00     0.028 A 
BRANCH  16  18
HETATM   18  C12 UNL     1     -20.636   1.698  10.185  1.00  0.00     0.147 C 
BRANCH  18  19
HETATM   19  O1  UNL     1     -21.356   1.564  11.261  1.00  0.00    -0.346 OA
ATOM     20  H1  UNL     1     -21.941   0.815  11.272  1.00  0.00     0.219 HD
ENDBRANCH  18  19
BRANCH  18  21
HETATM   21  N2  UNL     1     -20.293   0.511   9.571  1.00  0.00    -0.370 N 
HETATM   22  C13 UNL     1     -21.056  -0.707   9.969  1.00  0.00     0.151 C 
HETATM   23  C14 UNL     1     -19.284   0.265   8.583  1.00  0.00     0.151 C 
ENDBRANCH  18  21
ENDBRANCH  16  18
ENDBRANCH   3  12
BRANCH   1  24
HETATM   24  C4  UNL     1     -18.135   7.051  14.769  1.00  0.00     0.158 C 
BRANCH  24  25
HETATM   25  C3  UNL     1     -18.490   8.479  14.994  1.00  0.00    -0.011 C 
HETATM   26  C2  UNL     1     -18.983   8.918  16.143  1.00  0.00    -0.033 C 
HETATM   27  C1  UNL     1     -19.342  10.355  16.377  1.00  0.00     0.036 C 
ENDBRANCH  24  25
ENDBRANCH   1  24
TORSDOF 6
ENDMDL
