MODEL 3
REMARK VINA RESULT: -9.492002621      2.029      2.877
REMARK  6 active torsions:
REMARK  status: ('A' for Active; 'I' for Inactive)
REMARK    1  A    between atoms: C3_3  and  C4_4 
REMARK    2  A    between atoms: C4_4  and  N1_5 
REMARK    3  A    between atoms: C6_7  and  C7_8 
REMARK    4  A    between atoms: C11_12  and  C12_13 
REMARK    5  A    between atoms: C12_13  and  O1_14 
REMARK    6  A    between atoms: C12_13  and  N2_16 
ROOT
HETATM    1  N1  UNL     1     -18.750   4.476  10.136  1.00  0.00    -0.318 N 
HETATM    2  C5  UNL     1     -17.505   4.848   9.805  1.00  0.00     0.107 A 
HETATM    3  C6  UNL     1     -16.709   5.636  10.604  1.00  0.00     0.003 A 
HETATM    4  C16 UNL     1     -17.215   6.067  11.806  1.00  0.00     0.010 A 
HETATM    5  C17 UNL     1     -16.669   6.869  12.818  1.00  0.00     0.032 A 
HETATM    6  C18 UNL     1     -17.656   6.957  13.776  1.00  0.00     0.089 A 
HETATM    7  N3  UNL     1     -18.737   6.260  13.386  1.00  0.00    -0.361 N 
ATOM      8  H3  UNL     1     -19.604   6.167  13.916  1.00  0.00     0.165 HD
HETATM    9  C19 UNL     1     -18.491   5.701  12.172  1.00  0.00     0.112 A 
HETATM   10  C20 UNL     1     -19.224   4.911  11.317  1.00  0.00     0.275 A 
HETATM   11  O2  UNL     1     -20.391   4.602  11.700  1.00  0.00    -0.265 OA
ENDROOT
BRANCH   3  12
HETATM   12  C7  UNL     1     -15.354   5.998  10.202  1.00  0.00    -0.023 A 
HETATM   13  C8  UNL     1     -14.397   5.018  10.169  1.00  0.00     0.012 A 
HETATM   14  C9  UNL     1     -13.127   5.372   9.801  1.00  0.00     0.002 A 
HETATM   15  C10 UNL     1     -12.838   6.702   9.472  1.00  0.00     0.016 A 
HETATM   16  C11 UNL     1     -13.765   7.712   9.493  1.00  0.00     0.015 A 
HETATM   17  C15 UNL     1     -15.056   7.294   9.879  1.00  0.00     0.028 A 
BRANCH  16  18
HETATM   18  C12 UNL     1     -13.531   9.096   9.166  1.00  0.00     0.147 C 
BRANCH  18  19
HETATM   19  O1  UNL     1     -14.310   9.952   9.764  1.00  0.00    -0.346 OA
ATOM     20  H1  UNL     1     -14.054  10.864   9.682  1.00  0.00     0.219 HD
ENDBRANCH  18  19
BRANCH  18  21
HETATM   21  N2  UNL     1     -12.604   9.659   8.313  1.00  0.00    -0.370 N 
HETATM   22  C13 UNL     1     -11.695  10.695   8.883  1.00  0.00     0.151 C 
HETATM   23  C14 UNL     1     -12.379   9.392   6.923  1.00  0.00     0.151 C 
ENDBRANCH  18  21
ENDBRANCH  16  18
ENDBRANCH   3  12
BRANCH   1  24
HETATM   24  C4  UNL     1     -19.602   3.659   9.330  1.00  0.00     0.158 C 
BRANCH  24  25
HETATM   25  C3  UNL     1     -20.139   4.374   8.140  1.00  0.00    -0.011 C 
HETATM   26  C2  UNL     1     -20.852   5.486   8.238  1.00  0.00    -0.033 C 
HETATM   27  C1  UNL     1     -21.396   6.212   7.044  1.00  0.00     0.036 C 
ENDBRANCH  24  25
ENDBRANCH   1  24
TORSDOF 6
ENDMDL
