MODEL 10
REMARK VINA RESULT: -8.524027642      2.351      6.343
REMARK  6 active torsions:
REMARK  status: ('A' for Active; 'I' for Inactive)
REMARK    1  A    between atoms: C3_3  and  C4_4 
REMARK    2  A    between atoms: C4_4  and  N1_5 
REMARK    3  A    between atoms: C6_7  and  C7_8 
REMARK    4  A    between atoms: C11_12  and  C12_13 
REMARK    5  A    between atoms: C12_13  and  O1_14 
REMARK    6  A    between atoms: C12_13  and  N2_16 
ROOT
HETATM    1  N1  UNL     1     -15.494   6.584   9.862  1.00  0.00    -0.318 N 
HETATM    2  C5  UNL     1     -16.606   5.959   9.447  1.00  0.00     0.107 A 
HETATM    3  C6  UNL     1     -17.712   5.766  10.241  1.00  0.00     0.003 A 
HETATM    4  C16 UNL     1     -17.680   6.238  11.531  1.00  0.00     0.010 A 
HETATM    5  C17 UNL     1     -18.622   6.194  12.568  1.00  0.00     0.032 A 
HETATM    6  C18 UNL     1     -18.015   6.828  13.630  1.00  0.00     0.089 A 
HETATM    7  N3  UNL     1     -16.783   7.235  13.278  1.00  0.00    -0.361 N 
ATOM      8  H3  UNL     1     -16.127   7.730  13.883  1.00  0.00     0.165 HD
HETATM    9  C19 UNL     1     -16.551   6.882  11.986  1.00  0.00     0.112 A 
HETATM   10  C20 UNL     1     -15.486   7.036  11.130  1.00  0.00     0.275 A 
HETATM   11  O2  UNL     1     -14.473   7.636  11.596  1.00  0.00    -0.265 OA
ENDROOT
BRANCH   3  12
HETATM   12  C7  UNL     1     -18.903   5.093   9.732  1.00  0.00    -0.023 A 
HETATM   13  C8  UNL     1     -19.725   5.777   8.875  1.00  0.00     0.012 A 
HETATM   14  C9  UNL     1     -20.845   5.139   8.413  1.00  0.00     0.002 A 
HETATM   15  C10 UNL     1     -21.121   3.828   8.817  1.00  0.00     0.016 A 
HETATM   16  C11 UNL     1     -20.325   3.109   9.672  1.00  0.00     0.015 A 
HETATM   17  C15 UNL     1     -19.187   3.812  10.119  1.00  0.00     0.028 A 
BRANCH  16  18
HETATM   18  C12 UNL     1     -20.554   1.760  10.125  1.00  0.00     0.147 C 
BRANCH  18  19
HETATM   19  O1  UNL     1     -21.128   1.649  11.289  1.00  0.00    -0.346 OA
ATOM     20  H1  UNL     1     -20.748   1.002  11.873  1.00  0.00     0.219 HD
ENDBRANCH  18  19
BRANCH  18  21
HETATM   21  N2  UNL     1     -20.257   0.560   9.513  1.00  0.00    -0.370 N 
HETATM   22  C13 UNL     1     -21.094  -0.618   9.882  1.00  0.00     0.151 C 
HETATM   23  C14 UNL     1     -19.235   0.266   8.551  1.00  0.00     0.151 C 
ENDBRANCH  18  21
ENDBRANCH  16  18
ENDBRANCH   3  12
BRANCH   1  24
HETATM   24  C4  UNL     1     -14.329   6.800   9.064  1.00  0.00     0.158 C 
BRANCH  24  25
HETATM   25  C3  UNL     1     -13.716   5.536   8.574  1.00  0.00    -0.011 C 
HETATM   26  C2  UNL     1     -12.866   4.827   9.302  1.00  0.00    -0.033 C 
HETATM   27  C1  UNL     1     -12.244   3.552   8.815  1.00  0.00     0.036 C 
ENDBRANCH  24  25
ENDBRANCH   1  24
TORSDOF 6
ENDMDL
