MODEL 5
REMARK VINA RESULT: -7.520280408      2.092      6.623
REMARK  4 active torsions:
REMARK  status: ('A' for Active; 'I' for Inactive)
REMARK    1  A    between atoms: N1_2  and  C3_4 
REMARK    2  A    between atoms: C3_4  and  O1_5 
REMARK    3  A    between atoms: C3_4  and  C4_7 
REMARK    4  A    between atoms: C8_11  and  C9_12 
ROOT
HETATM    1  C4  UNL     1     -12.246  -7.518  11.336  1.00  0.00     0.015 A 
HETATM    2  C5  UNL     1     -13.036  -8.387  10.647  1.00  0.00     0.016 A 
HETATM    3  C6  UNL     1     -14.069  -7.940   9.821  1.00  0.00     0.002 A 
HETATM    4  C7  UNL     1     -14.304  -6.608   9.691  1.00  0.00     0.012 A 
HETATM    5  C8  UNL     1     -13.535  -5.698  10.366  1.00  0.00    -0.023 A 
HETATM    6  C17 UNL     1     -12.536  -6.139  11.163  1.00  0.00     0.028 A 
ENDROOT
BRANCH   5   7
HETATM    7  C9  UNL     1     -13.842  -4.262  10.187  1.00  0.00     0.003 A 
HETATM    8  C10 UNL     1     -13.884  -3.684   8.939  1.00  0.00     0.107 A 
HETATM    9  N2  UNL     1     -14.163  -2.394   8.718  1.00  0.00    -0.326 N 
HETATM   10  C11 UNL     1     -14.195  -1.824   7.380  1.00  0.00     0.159 C 
HETATM   11  C12 UNL     1     -14.422  -1.593   9.775  1.00  0.00     0.274 A 
HETATM   12  O2  UNL     1     -14.687  -0.376   9.589  1.00  0.00    -0.265 OA
HETATM   13  C13 UNL     1     -14.399  -2.106  11.071  1.00  0.00     0.112 A 
HETATM   14  N3  UNL     1     -14.615  -1.526  12.257  1.00  0.00    -0.361 N 
HETATM   15  C16 UNL     1     -14.107  -3.449  11.268  1.00  0.00     0.010 A 
HETATM   16  C14 UNL     1     -14.474  -2.453  13.244  1.00  0.00     0.089 A 
ATOM     17  H3  UNL     1     -14.850  -0.544  12.399  1.00  0.00     0.165 HD
HETATM   18  C15 UNL     1     -14.155  -3.657  12.622  1.00  0.00     0.032 A 
ENDBRANCH   5   7
BRANCH   1  19
HETATM   19  C3  UNL     1     -11.181  -7.916  12.190  1.00  0.00     0.147 C 
BRANCH  19  20
HETATM   20  N1  UNL     1     -10.393  -7.185  13.062  1.00  0.00    -0.370 N 
HETATM   21  C1  UNL     1      -9.147  -7.861  13.611  1.00  0.00     0.151 C 
HETATM   22  C2  UNL     1     -10.557  -5.856  13.553  1.00  0.00     0.151 C 
ENDBRANCH  19  20
BRANCH  19  23
HETATM   23  O1  UNL     1     -10.899  -9.197  12.137  1.00  0.00    -0.346 OA
ATOM     24  H1  UNL     1     -11.548  -9.764  12.538  1.00  0.00     0.219 HD
ENDBRANCH  19  23
ENDBRANCH   1  19
TORSDOF 4
ENDMDL
