MODEL 6
REMARK VINA RESULT: -7.511088778      1.740      6.446
REMARK  4 active torsions:
REMARK  status: ('A' for Active; 'I' for Inactive)
REMARK    1  A    between atoms: N1_2  and  C3_4 
REMARK    2  A    between atoms: C3_4  and  O1_5 
REMARK    3  A    between atoms: C3_4  and  C4_7 
REMARK    4  A    between atoms: C8_11  and  C9_12 
ROOT
HETATM    1  C4  UNL     1     -12.573  -7.231  10.879  1.00  0.00     0.015 A 
HETATM    2  C5  UNL     1     -13.320  -7.753   9.867  1.00  0.00     0.016 A 
HETATM    3  C6  UNL     1     -14.298  -7.000   9.216  1.00  0.00     0.002 A 
HETATM    4  C7  UNL     1     -14.523  -5.712   9.589  1.00  0.00     0.012 A 
HETATM    5  C8  UNL     1     -13.795  -5.147  10.603  1.00  0.00    -0.023 A 
HETATM    6  C17 UNL     1     -12.850  -5.883  11.227  1.00  0.00     0.028 A 
ENDROOT
BRANCH   5   7
HETATM    7  C9  UNL     1     -14.088  -3.743  10.966  1.00  0.00     0.003 A 
HETATM    8  C10 UNL     1     -14.320  -3.369  12.270  1.00  0.00     0.107 A 
HETATM    9  N2  UNL     1     -14.584  -2.116  12.656  1.00  0.00    -0.326 N 
HETATM   10  C11 UNL     1     -14.824  -1.765  14.047  1.00  0.00     0.159 C 
HETATM   11  C12 UNL     1     -14.629  -1.141  11.721  1.00  0.00     0.274 A 
HETATM   12  O2  UNL     1     -14.875   0.045  12.063  1.00  0.00    -0.265 OA
HETATM   13  C13 UNL     1     -14.405  -1.442  10.378  1.00  0.00     0.112 A 
HETATM   14  N3  UNL     1     -14.397  -0.669   9.287  1.00  0.00    -0.361 N 
HETATM   15  C16 UNL     1     -14.133  -2.753  10.009  1.00  0.00     0.010 A 
HETATM   16  C14 UNL     1     -14.127  -1.435   8.194  1.00  0.00     0.089 A 
ATOM     17  H3  UNL     1     -14.567   0.336   9.275  1.00  0.00     0.165 HD
HETATM   18  C15 UNL     1     -13.962  -2.740   8.649  1.00  0.00     0.032 A 
ENDBRANCH   5   7
BRANCH   1  19
HETATM   19  C3  UNL     1     -11.564  -7.950  11.577  1.00  0.00     0.147 C 
BRANCH  19  20
HETATM   20  N1  UNL     1     -10.727  -7.571  12.611  1.00  0.00    -0.370 N 
HETATM   21  C1  UNL     1      -9.876  -8.653  13.254  1.00  0.00     0.151 C 
HETATM   22  C2  UNL     1     -10.519  -6.289  13.201  1.00  0.00     0.151 C 
ENDBRANCH  19  20
BRANCH  19  23
HETATM   23  O1  UNL     1     -11.401  -9.186  11.163  1.00  0.00    -0.346 OA
ATOM     24  H1  UNL     1     -12.005  -9.460  10.483  1.00  0.00     0.219 HD
ENDBRANCH  19  23
ENDBRANCH   1  19
TORSDOF 4
ENDMDL
