MODEL 3
REMARK VINA RESULT: -7.775922302      2.241      3.639
REMARK  4 active torsions:
REMARK  status: ('A' for Active; 'I' for Inactive)
REMARK    1  A    between atoms: N1_2  and  C3_4 
REMARK    2  A    between atoms: C3_4  and  O1_5 
REMARK    3  A    between atoms: C3_4  and  C4_7 
REMARK    4  A    between atoms: C8_11  and  C9_12 
ROOT
HETATM    1  C4  UNL     1     -14.396  -1.324   8.776  1.00  0.00     0.015 A 
HETATM    2  C5  UNL     1     -14.691  -0.695   9.947  1.00  0.00     0.016 A 
HETATM    3  C6  UNL     1     -14.589  -1.351  11.175  1.00  0.00     0.002 A 
HETATM    4  C7  UNL     1     -14.186  -2.648  11.219  1.00  0.00     0.012 A 
HETATM    5  C8  UNL     1     -13.878  -3.319  10.066  1.00  0.00    -0.023 A 
HETATM    6  C17 UNL     1     -13.979  -2.677   8.881  1.00  0.00     0.028 A 
ENDROOT
BRANCH   5   7
HETATM    7  C9  UNL     1     -13.449  -4.730  10.178  1.00  0.00     0.003 A 
HETATM    8  C10 UNL     1     -12.431  -5.109  11.023  1.00  0.00     0.107 A 
HETATM    9  N2  UNL     1     -12.007  -6.369  11.169  1.00  0.00    -0.326 N 
HETATM   10  C11 UNL     1     -10.924  -6.725  12.074  1.00  0.00     0.159 C 
HETATM   11  C12 UNL     1     -12.604  -7.346  10.451  1.00  0.00     0.274 A 
HETATM   12  O2  UNL     1     -12.220  -8.539  10.574  1.00  0.00    -0.265 OA
HETATM   13  C13 UNL     1     -13.644  -7.040   9.574  1.00  0.00     0.112 A 
HETATM   14  N3  UNL     1     -14.379  -7.814   8.768  1.00  0.00    -0.361 N 
HETATM   15  C16 UNL     1     -14.062  -5.723   9.445  1.00  0.00     0.010 A 
HETATM   16  C14 UNL     1     -15.280  -7.043   8.100  1.00  0.00     0.089 A 
ATOM     17  H3  UNL     1     -14.279  -8.824   8.669  1.00  0.00     0.165 HD
HETATM   18  C15 UNL     1     -15.079  -5.733   8.526  1.00  0.00     0.032 A 
ENDBRANCH   5   7
BRANCH   1  19
HETATM   19  C3  UNL     1     -14.481  -0.706   7.497  1.00  0.00     0.147 C 
BRANCH  19  20
HETATM   20  N1  UNL     1     -13.648  -0.778   6.395  1.00  0.00    -0.370 N 
HETATM   21  C1  UNL     1     -14.157  -1.538   5.182  1.00  0.00     0.151 C 
HETATM   22  C2  UNL     1     -12.342  -0.240   6.195  1.00  0.00     0.151 C 
ENDBRANCH  19  20
BRANCH  19  23
HETATM   23  O1  UNL     1     -15.532   0.065   7.342  1.00  0.00    -0.346 OA
ATOM     24  H1  UNL     1     -16.247  -0.112   7.942  1.00  0.00     0.219 HD
ENDBRANCH  19  23
ENDBRANCH   1  19
TORSDOF 4
ENDMDL
