MODEL 4
REMARK VINA RESULT: -7.707939491      1.922      2.890
REMARK  4 active torsions:
REMARK  status: ('A' for Active; 'I' for Inactive)
REMARK    1  A    between atoms: N1_2  and  C3_4 
REMARK    2  A    between atoms: C3_4  and  O1_5 
REMARK    3  A    between atoms: C3_4  and  C4_7 
REMARK    4  A    between atoms: C8_11  and  C9_12 
ROOT
HETATM    1  C4  UNL     1     -14.681  -1.352   9.558  1.00  0.00     0.015 A 
HETATM    2  C5  UNL     1     -14.847  -0.826  10.804  1.00  0.00     0.016 A 
HETATM    3  C6  UNL     1     -14.542  -1.558  11.952  1.00  0.00     0.002 A 
HETATM    4  C7  UNL     1     -14.067  -2.827  11.842  1.00  0.00     0.012 A 
HETATM    5  C8  UNL     1     -13.886  -3.395  10.609  1.00  0.00    -0.023 A 
HETATM    6  C17 UNL     1     -14.182  -2.679   9.502  1.00  0.00     0.028 A 
ENDROOT
BRANCH   5   7
HETATM    7  C9  UNL     1     -13.370  -4.780  10.554  1.00  0.00     0.003 A 
HETATM    8  C10 UNL     1     -12.319  -5.191  11.342  1.00  0.00     0.107 A 
HETATM    9  N2  UNL     1     -11.817  -6.431  11.337  1.00  0.00    -0.326 N 
HETATM   10  C11 UNL     1     -10.703  -6.821  12.187  1.00  0.00     0.159 C 
HETATM   11  C12 UNL     1     -12.364  -7.353  10.514  1.00  0.00     0.274 A 
HETATM   12  O2  UNL     1     -11.906  -8.525  10.495  1.00  0.00    -0.265 OA
HETATM   13  C13 UNL     1     -13.432  -7.012   9.685  1.00  0.00     0.112 A 
HETATM   14  N3  UNL     1     -14.129  -7.732   8.799  1.00  0.00    -0.361 N 
HETATM   15  C16 UNL     1     -13.931  -5.717   9.713  1.00  0.00     0.010 A 
HETATM   16  C14 UNL     1     -15.084  -6.946   8.232  1.00  0.00     0.089 A 
ATOM     17  H3  UNL     1     -13.969  -8.715   8.582  1.00  0.00     0.165 HD
HETATM   18  C15 UNL     1     -14.958  -5.683   8.806  1.00  0.00     0.032 A 
ENDBRANCH   5   7
BRANCH   1  19
HETATM   19  C3  UNL     1     -14.974  -0.653   8.354  1.00  0.00     0.147 C 
BRANCH  19  20
HETATM   20  N1  UNL     1     -16.158  -0.117   7.879  1.00  0.00    -0.370 N 
HETATM   21  C1  UNL     1     -16.817  -0.814   6.700  1.00  0.00     0.151 C 
HETATM   22  C2  UNL     1     -16.893   1.022   8.322  1.00  0.00     0.151 C 
ENDBRANCH  19  20
BRANCH  19  23
HETATM   23  O1  UNL     1     -13.941  -0.494   7.560  1.00  0.00    -0.346 OA
ATOM     24  H1  UNL     1     -13.542   0.367   7.595  1.00  0.00     0.219 HD
ENDBRANCH  19  23
ENDBRANCH   1  19
TORSDOF 4
ENDMDL
