MODEL 7
REMARK VINA RESULT: -7.437619896      2.222      6.186
REMARK  4 active torsions:
REMARK  status: ('A' for Active; 'I' for Inactive)
REMARK    1  A    between atoms: N1_2  and  C3_4 
REMARK    2  A    between atoms: C3_4  and  O1_5 
REMARK    3  A    between atoms: C3_4  and  C4_7 
REMARK    4  A    between atoms: C8_11  and  C9_12 
ROOT
HETATM    1  C4  UNL     1     -11.712  -7.058  11.758  1.00  0.00     0.015 A 
HETATM    2  C5  UNL     1     -12.453  -8.089  11.265  1.00  0.00     0.016 A 
HETATM    3  C6  UNL     1     -13.602  -7.865  10.506  1.00  0.00     0.002 A 
HETATM    4  C7  UNL     1     -14.005  -6.594  10.244  1.00  0.00     0.012 A 
HETATM    5  C8  UNL     1     -13.290  -5.527  10.720  1.00  0.00    -0.023 A 
HETATM    6  C17 UNL     1     -12.178  -5.753  11.453  1.00  0.00     0.028 A 
ENDROOT
BRANCH   5   7
HETATM    7  C9  UNL     1     -13.782  -4.168  10.405  1.00  0.00     0.003 A 
HETATM    8  C10 UNL     1     -13.939  -3.213  11.384  1.00  0.00     0.107 A 
HETATM    9  N2  UNL     1     -14.373  -1.968  11.155  1.00  0.00    -0.326 N 
HETATM   10  C11 UNL     1     -14.525  -0.990  12.221  1.00  0.00     0.159 C 
HETATM   11  C12 UNL     1     -14.680  -1.607   9.890  1.00  0.00     0.274 A 
HETATM   12  O2  UNL     1     -15.090  -0.441   9.653  1.00  0.00    -0.265 OA
HETATM   13  C13 UNL     1     -14.547  -2.519   8.844  1.00  0.00     0.112 A 
HETATM   14  N3  UNL     1     -14.784  -2.404   7.533  1.00  0.00    -0.361 N 
HETATM   15  C16 UNL     1     -14.094  -3.804   9.113  1.00  0.00     0.010 A 
HETATM   16  C14 UNL     1     -14.500  -3.585   6.918  1.00  0.00     0.089 A 
ATOM     17  H3  UNL     1     -15.125  -1.564   7.067  1.00  0.00     0.165 HD
HETATM   18  C15 UNL     1     -14.068  -4.461   7.910  1.00  0.00     0.032 A 
ENDBRANCH   5   7
BRANCH   1  19
HETATM   19  C3  UNL     1     -10.533  -7.226  12.536  1.00  0.00     0.147 C 
BRANCH  19  20
HETATM   20  N1  UNL     1     -10.285  -6.985  13.875  1.00  0.00    -0.370 N 
HETATM   21  C1  UNL     1      -9.918  -8.177  14.744  1.00  0.00     0.151 C 
HETATM   22  C2  UNL     1     -10.317  -5.763  14.610  1.00  0.00     0.151 C 
ENDBRANCH  19  20
BRANCH  19  23
HETATM   23  O1  UNL     1      -9.505  -7.687  11.861  1.00  0.00    -0.346 OA
ATOM     24  H1  UNL     1      -9.604  -7.659  10.917  1.00  0.00     0.219 HD
ENDBRANCH  19  23
ENDBRANCH   1  19
TORSDOF 4
ENDMDL
