MODEL 4
REMARK VINA RESULT: -8.472641468      2.077      3.034
REMARK  6 active torsions:
REMARK  status: ('A' for Active; 'I' for Inactive)
REMARK    1  A    between atoms: C3_3  and  C4_4 
REMARK    2  A    between atoms: C4_4  and  N1_5 
REMARK    3  A    between atoms: C6_7  and  C7_8 
REMARK    4  A    between atoms: C11_12  and  C12_13 
REMARK    5  A    between atoms: C12_13  and  O1_14 
REMARK    6  A    between atoms: C12_13  and  N2_16 
ROOT
HETATM    1  N1  UNL     1     -12.028  -6.615  11.370  1.00  0.00    -0.318 N 
HETATM    2  C5  UNL     1     -12.455  -5.346  11.293  1.00  0.00     0.107 A 
HETATM    3  C6  UNL     1     -13.469  -4.935  10.460  1.00  0.00     0.003 A 
HETATM    4  C16 UNL     1     -14.080  -5.872   9.662  1.00  0.00     0.010 A 
HETATM    5  C17 UNL     1     -15.116  -5.770   8.722  1.00  0.00     0.032 A 
HETATM    6  C18 UNL     1     -15.288  -7.050   8.240  1.00  0.00     0.089 A 
HETATM    7  N3  UNL     1     -14.420  -7.885   8.837  1.00  0.00    -0.361 N 
ATOM      8  H3  UNL     1     -14.343  -8.886   8.656  1.00  0.00     0.165 HD
HETATM    9  C19 UNL     1     -13.662  -7.182   9.719  1.00  0.00     0.112 A 
HETATM   10  C20 UNL     1     -12.641  -7.514  10.579  1.00  0.00     0.275 A 
HETATM   11  O2  UNL     1     -12.294  -8.732  10.595  1.00  0.00    -0.265 OA
ENDROOT
BRANCH   3  12
HETATM   12  C7  UNL     1     -13.907  -3.542  10.427  1.00  0.00    -0.023 A 
HETATM   13  C8  UNL     1     -14.314  -2.957  11.597  1.00  0.00     0.012 A 
HETATM   14  C9  UNL     1     -14.731  -1.653  11.552  1.00  0.00     0.002 A 
HETATM   15  C10 UNL     1     -14.732  -0.960  10.336  1.00  0.00     0.016 A 
HETATM   16  C11 UNL     1     -14.333  -1.509   9.144  1.00  0.00     0.015 A 
HETATM   17  C15 UNL     1     -13.914  -2.852   9.246  1.00  0.00     0.028 A 
BRANCH  16  18
HETATM   18  C12 UNL     1     -14.311  -0.850   7.862  1.00  0.00     0.147 C 
BRANCH  18  19
HETATM   19  O1  UNL     1     -13.128  -0.648   7.356  1.00  0.00    -0.346 OA
ATOM     20  H1  UNL     1     -12.876  -1.240   6.656  1.00  0.00     0.219 HD
ENDBRANCH  18  19
BRANCH  18  21
HETATM   21  N2  UNL     1     -15.355  -0.397   7.083  1.00  0.00    -0.370 N 
HETATM   22  C13 UNL     1     -15.037   0.629   6.048  1.00  0.00     0.151 C 
HETATM   23  C14 UNL     1     -16.738  -0.771   7.121  1.00  0.00     0.151 C 
ENDBRANCH  18  21
ENDBRANCH  16  18
ENDBRANCH   3  12
BRANCH   1  24
HETATM   24  C4  UNL     1     -10.978  -7.075  12.223  1.00  0.00     0.158 C 
BRANCH  24  25
HETATM   25  C3  UNL     1     -10.543  -6.054  13.215  1.00  0.00    -0.011 C 
HETATM   26  C2  UNL     1     -10.304  -6.350  14.484  1.00  0.00    -0.033 C 
HETATM   27  C1  UNL     1      -9.865  -5.327  15.489  1.00  0.00     0.036 C 
ENDBRANCH  24  25
ENDBRANCH   1  24
TORSDOF 6
ENDMDL
