MODEL 5
REMARK VINA RESULT: -8.471667004      1.091      4.257
REMARK  6 active torsions:
REMARK  status: ('A' for Active; 'I' for Inactive)
REMARK    1  A    between atoms: C3_3  and  C4_4 
REMARK    2  A    between atoms: C4_4  and  N1_5 
REMARK    3  A    between atoms: C6_7  and  C7_8 
REMARK    4  A    between atoms: C11_12  and  C12_13 
REMARK    5  A    between atoms: C12_13  and  O1_14 
REMARK    6  A    between atoms: C12_13  and  N2_16 
ROOT
HETATM    1  N1  UNL     1     -14.415  -7.019   9.554  1.00  0.00    -0.318 N 
HETATM    2  C5  UNL     1     -14.652  -5.701   9.622  1.00  0.00     0.107 A 
HETATM    3  C6  UNL     1     -13.842  -4.817  10.296  1.00  0.00     0.003 A 
HETATM    4  C16 UNL     1     -12.730  -5.307  10.937  1.00  0.00     0.010 A 
HETATM    5  C17 UNL     1     -11.734  -4.680  11.698  1.00  0.00     0.032 A 
HETATM    6  C18 UNL     1     -10.885  -5.695  12.083  1.00  0.00     0.089 A 
HETATM    7  N3  UNL     1     -11.324  -6.869  11.596  1.00  0.00    -0.361 N 
ATOM      8  H3  UNL     1     -10.874  -7.773  11.739  1.00  0.00     0.165 HD
HETATM    9  C19 UNL     1     -12.462  -6.657  10.886  1.00  0.00     0.112 A 
HETATM   10  C20 UNL     1     -13.321  -7.476  10.190  1.00  0.00     0.275 A 
HETATM   11  O2  UNL     1     -13.030  -8.709  10.172  1.00  0.00    -0.265 OA
ENDROOT
BRANCH   3  12
HETATM   12  C7  UNL     1     -14.137  -3.387  10.325  1.00  0.00    -0.023 A 
HETATM   13  C8  UNL     1     -14.118  -2.692   9.144  1.00  0.00     0.012 A 
HETATM   14  C9  UNL     1     -14.386  -1.350   9.185  1.00  0.00     0.002 A 
HETATM   15  C10 UNL     1     -14.670  -0.729  10.407  1.00  0.00     0.016 A 
HETATM   16  C11 UNL     1     -14.700  -1.388  11.609  1.00  0.00     0.015 A 
HETATM   17  C15 UNL     1     -14.416  -2.766  11.511  1.00  0.00     0.028 A 
BRANCH  16  18
HETATM   18  C12 UNL     1     -14.985  -0.808  12.898  1.00  0.00     0.147 C 
BRANCH  18  19
HETATM   19  O1  UNL     1     -14.218  -1.204  13.873  1.00  0.00    -0.346 OA
ATOM     20  H1  UNL     1     -13.285  -1.103  13.726  1.00  0.00     0.219 HD
ENDBRANCH  18  19
BRANCH  18  21
HETATM   21  N2  UNL     1     -15.951   0.108  13.260  1.00  0.00    -0.370 N 
HETATM   22  C13 UNL     1     -17.345  -0.399  13.418  1.00  0.00     0.151 C 
HETATM   23  C14 UNL     1     -15.813   1.512  13.513  1.00  0.00     0.151 C 
ENDBRANCH  18  21
ENDBRANCH  16  18
ENDBRANCH   3  12
BRANCH   1  24
HETATM   24  C4  UNL     1     -15.235  -7.963   8.863  1.00  0.00     0.158 C 
BRANCH  24  25
HETATM   25  C3  UNL     1     -15.742  -7.453   7.561  1.00  0.00    -0.011 C 
HETATM   26  C2  UNL     1     -16.460  -8.198   6.734  1.00  0.00    -0.033 C 
HETATM   27  C1  UNL     1     -16.976  -7.690   5.420  1.00  0.00     0.036 C 
ENDBRANCH  24  25
ENDBRANCH   1  24
TORSDOF 6
ENDMDL
