MODEL 3
REMARK VINA RESULT: -8.546651384      2.192      3.323
REMARK  6 active torsions:
REMARK  status: ('A' for Active; 'I' for Inactive)
REMARK    1  A    between atoms: C3_3  and  C4_4 
REMARK    2  A    between atoms: C4_4  and  N1_5 
REMARK    3  A    between atoms: C6_7  and  C7_8 
REMARK    4  A    between atoms: C11_12  and  C12_13 
REMARK    5  A    between atoms: C12_13  and  O1_14 
REMARK    6  A    between atoms: C12_13  and  N2_16 
ROOT
HETATM    1  N1  UNL     1     -12.044  -6.585  11.374  1.00  0.00    -0.318 N 
HETATM    2  C5  UNL     1     -12.468  -5.318  11.267  1.00  0.00     0.107 A 
HETATM    3  C6  UNL     1     -13.476  -4.922  10.419  1.00  0.00     0.003 A 
HETATM    4  C16 UNL     1     -14.083  -5.874   9.637  1.00  0.00     0.010 A 
HETATM    5  C17 UNL     1     -15.112  -5.792   8.689  1.00  0.00     0.032 A 
HETATM    6  C18 UNL     1     -15.284  -7.081   8.233  1.00  0.00     0.089 A 
HETATM    7  N3  UNL     1     -14.421  -7.904   8.853  1.00  0.00    -0.361 N 
ATOM      8  H3  UNL     1     -14.345  -8.909   8.694  1.00  0.00     0.165 HD
HETATM    9  C19 UNL     1     -13.668  -7.185   9.725  1.00  0.00     0.112 A 
HETATM   10  C20 UNL     1     -12.653  -7.500  10.598  1.00  0.00     0.275 A 
HETATM   11  O2  UNL     1     -12.308  -8.717  10.642  1.00  0.00    -0.265 OA
ENDROOT
BRANCH   3  12
HETATM   12  C7  UNL     1     -13.911  -3.530  10.354  1.00  0.00    -0.023 A 
HETATM   13  C8  UNL     1     -14.273  -2.903  11.517  1.00  0.00     0.012 A 
HETATM   14  C9  UNL     1     -14.689  -1.600  11.441  1.00  0.00     0.002 A 
HETATM   15  C10 UNL     1     -14.732  -0.949  10.203  1.00  0.00     0.016 A 
HETATM   16  C11 UNL     1     -14.378  -1.540   9.017  1.00  0.00     0.015 A 
HETATM   17  C15 UNL     1     -13.959  -2.880   9.150  1.00  0.00     0.028 A 
BRANCH  16  18
HETATM   18  C12 UNL     1     -14.401  -0.926   7.713  1.00  0.00     0.147 C 
BRANCH  18  19
HETATM   19  O1  UNL     1     -15.408  -0.133   7.484  1.00  0.00    -0.346 OA
ATOM     20  H1  UNL     1     -15.390   0.696   7.949  1.00  0.00     0.219 HD
ENDBRANCH  18  19
BRANCH  18  21
HETATM   21  N2  UNL     1     -13.515  -1.048   6.663  1.00  0.00    -0.370 N 
HETATM   22  C13 UNL     1     -13.889  -1.983   5.562  1.00  0.00     0.151 C 
HETATM   23  C14 UNL     1     -12.253  -0.397   6.467  1.00  0.00     0.151 C 
ENDBRANCH  18  21
ENDBRANCH  16  18
ENDBRANCH   3  12
BRANCH   1  24
HETATM   24  C4  UNL     1     -11.001  -7.028  12.243  1.00  0.00     0.158 C 
BRANCH  24  25
HETATM   25  C3  UNL     1     -10.591  -5.998  13.237  1.00  0.00    -0.011 C 
HETATM   26  C2  UNL     1     -10.280  -6.299  14.489  1.00  0.00    -0.033 C 
HETATM   27  C1  UNL     1      -9.866  -5.267  15.494  1.00  0.00     0.036 C 
ENDBRANCH  24  25
ENDBRANCH   1  24
TORSDOF 6
ENDMDL
