MODEL 8
REMARK VINA RESULT: -7.864921836      1.758      6.770
REMARK  6 active torsions:
REMARK  status: ('A' for Active; 'I' for Inactive)
REMARK    1  A    between atoms: C3_3  and  C4_4 
REMARK    2  A    between atoms: C4_4  and  N1_5 
REMARK    3  A    between atoms: C6_7  and  C7_8 
REMARK    4  A    between atoms: C11_12  and  C12_13 
REMARK    5  A    between atoms: C12_13  and  O1_14 
REMARK    6  A    between atoms: C12_13  and  N2_16 
ROOT
HETATM    1  N1  UNL     1     -14.641  -2.338  12.743  1.00  0.00    -0.318 N 
HETATM    2  C5  UNL     1     -14.462  -3.613  12.370  1.00  0.00     0.107 A 
HETATM    3  C6  UNL     1     -14.272  -4.005  11.065  1.00  0.00     0.003 A 
HETATM    4  C16 UNL     1     -14.265  -3.039  10.088  1.00  0.00     0.010 A 
HETATM    5  C17 UNL     1     -14.106  -3.114   8.697  1.00  0.00     0.032 A 
HETATM    6  C18 UNL     1     -14.199  -1.812   8.256  1.00  0.00     0.089 A 
HETATM    7  N3  UNL     1     -14.402  -0.988   9.298  1.00  0.00    -0.361 N 
ATOM      8  H3  UNL     1     -14.505   0.026   9.240  1.00  0.00     0.165 HD
HETATM    9  C19 UNL     1     -14.447  -1.720  10.441  1.00  0.00     0.112 A 
HETATM   10  C20 UNL     1     -14.631  -1.410  11.769  1.00  0.00     0.275 A 
HETATM   11  O2  UNL     1     -14.793  -0.184  12.041  1.00  0.00    -0.265 OA
ENDROOT
BRANCH   3  12
HETATM   12  C7  UNL     1     -14.065  -5.407  10.716  1.00  0.00    -0.023 A 
HETATM   13  C8  UNL     1     -14.932  -5.995   9.833  1.00  0.00     0.012 A 
HETATM   14  C9  UNL     1     -14.734  -7.314   9.521  1.00  0.00     0.002 A 
HETATM   15  C10 UNL     1     -13.671  -8.018  10.098  1.00  0.00     0.016 A 
HETATM   16  C11 UNL     1     -12.782  -7.467  10.984  1.00  0.00     0.015 A 
HETATM   17  C15 UNL     1     -13.031  -6.109  11.272  1.00  0.00     0.028 A 
BRANCH  16  18
HETATM   18  C12 UNL     1     -11.670  -8.137  11.611  1.00  0.00     0.147 C 
BRANCH  18  19
HETATM   19  O1  UNL     1     -11.445  -9.353  11.201  1.00  0.00    -0.346 OA
ATOM     20  H1  UNL     1     -10.845  -9.860  11.736  1.00  0.00     0.219 HD
ENDBRANCH  18  19
BRANCH  18  21
HETATM   21  N2  UNL     1     -10.801  -7.687  12.583  1.00  0.00    -0.370 N 
HETATM   22  C13 UNL     1      -9.941  -8.706  13.252  1.00  0.00     0.151 C 
HETATM   23  C14 UNL     1     -10.597  -6.352  13.063  1.00  0.00     0.151 C 
ENDBRANCH  18  21
ENDBRANCH  16  18
ENDBRANCH   3  12
BRANCH   1  24
HETATM   24  C4  UNL     1     -14.841  -1.898  14.088  1.00  0.00     0.158 C 
BRANCH  24  25
HETATM   25  C3  UNL     1     -16.207  -1.360  14.329  1.00  0.00    -0.011 C 
HETATM   26  C2  UNL     1     -16.430  -0.292  15.081  1.00  0.00    -0.033 C 
HETATM   27  C1  UNL     1     -17.805   0.255  15.327  1.00  0.00     0.036 C 
ENDBRANCH  24  25
ENDBRANCH   1  24
TORSDOF 6
ENDMDL
