MODEL 18
REMARK VINA RESULT: -7.526443353      2.385      3.499
REMARK  6 active torsions:
REMARK  status: ('A' for Active; 'I' for Inactive)
REMARK    1  A    between atoms: C3_3  and  C4_4 
REMARK    2  A    between atoms: C4_4  and  N1_5 
REMARK    3  A    between atoms: C6_7  and  C7_8 
REMARK    4  A    between atoms: C11_12  and  C12_13 
REMARK    5  A    between atoms: C12_13  and  O1_14 
REMARK    6  A    between atoms: C12_13  and  N2_16 
ROOT
HETATM    1  N1  UNL     1     -11.287  -6.342  12.199  1.00  0.00    -0.318 N 
HETATM    2  C5  UNL     1     -11.873  -5.185  11.858  1.00  0.00     0.107 A 
HETATM    3  C6  UNL     1     -12.993  -5.105  11.063  1.00  0.00     0.003 A 
HETATM    4  C16 UNL     1     -13.542  -6.272  10.589  1.00  0.00     0.010 A 
HETATM    5  C17 UNL     1     -14.652  -6.520   9.769  1.00  0.00     0.032 A 
HETATM    6  C18 UNL     1     -14.700  -7.890   9.637  1.00  0.00     0.089 A 
HETATM    7  N3  UNL     1     -13.691  -8.453  10.324  1.00  0.00    -0.361 N 
ATOM      8  H3  UNL     1     -13.504  -9.454  10.387  1.00  0.00     0.165 HD
HETATM    9  C19 UNL     1     -12.960  -7.475  10.921  1.00  0.00     0.112 A 
HETATM   10  C20 UNL     1     -11.842  -7.471  11.722  1.00  0.00     0.275 A 
HETATM   11  O2  UNL     1     -11.346  -8.603  11.999  1.00  0.00    -0.265 OA
ENDROOT
BRANCH   3  12
HETATM   12  C7  UNL     1     -13.601  -3.819  10.736  1.00  0.00    -0.023 A 
HETATM   13  C8  UNL     1     -14.198  -3.104  11.741  1.00  0.00     0.012 A 
HETATM   14  C9  UNL     1     -14.774  -1.904  11.421  1.00  0.00     0.002 A 
HETATM   15  C10 UNL     1     -14.741  -1.442  10.100  1.00  0.00     0.016 A 
HETATM   16  C11 UNL     1     -14.155  -2.126   9.066  1.00  0.00     0.015 A 
HETATM   17  C15 UNL     1     -13.578  -3.354   9.450  1.00  0.00     0.028 A 
BRANCH  16  18
HETATM   18  C12 UNL     1     -14.088  -1.705   7.689  1.00  0.00     0.147 C 
BRANCH  18  19
HETATM   19  O1  UNL     1     -13.366  -0.646   7.461  1.00  0.00    -0.346 OA
ATOM     20  H1  UNL     1     -13.743  -0.015   6.858  1.00  0.00     0.219 HD
ENDBRANCH  18  19
BRANCH  18  21
HETATM   21  N2  UNL     1     -14.674  -2.254   6.567  1.00  0.00    -0.370 N 
HETATM   22  C13 UNL     1     -15.999  -1.709   6.156  1.00  0.00     0.151 C 
HETATM   23  C14 UNL     1     -14.188  -3.301   5.717  1.00  0.00     0.151 C 
ENDBRANCH  18  21
ENDBRANCH  16  18
ENDBRANCH   3  12
BRANCH   1  24
HETATM   24  C4  UNL     1     -10.125  -6.460  13.022  1.00  0.00     0.158 C 
BRANCH  24  25
HETATM   25  C3  UNL     1     -10.347  -5.989  14.416  1.00  0.00    -0.011 C 
HETATM   26  C2  UNL     1     -11.163  -6.609  15.256  1.00  0.00    -0.033 C 
HETATM   27  C1  UNL     1     -11.391  -6.141  16.662  1.00  0.00     0.036 C 
ENDBRANCH  24  25
ENDBRANCH   1  24
TORSDOF 6
ENDMDL
