MODEL 7
REMARK VINA RESULT: -7.884633865      2.041      6.539
REMARK  6 active torsions:
REMARK  status: ('A' for Active; 'I' for Inactive)
REMARK    1  A    between atoms: C3_3  and  C4_4 
REMARK    2  A    between atoms: C4_4  and  N1_5 
REMARK    3  A    between atoms: C6_7  and  C7_8 
REMARK    4  A    between atoms: C11_12  and  C12_13 
REMARK    5  A    between atoms: C12_13  and  O1_14 
REMARK    6  A    between atoms: C12_13  and  N2_16 
ROOT
HETATM    1  N1  UNL     1     -14.523  -1.895  11.384  1.00  0.00    -0.318 N 
HETATM    2  C5  UNL     1     -14.087  -3.151  11.561  1.00  0.00     0.107 A 
HETATM    3  C6  UNL     1     -13.918  -4.050  10.534  1.00  0.00     0.003 A 
HETATM    4  C16 UNL     1     -14.212  -3.643   9.255  1.00  0.00     0.010 A 
HETATM    5  C17 UNL     1     -14.152  -4.309   8.023  1.00  0.00     0.032 A 
HETATM    6  C18 UNL     1     -14.576  -3.382   7.095  1.00  0.00     0.089 A 
HETATM    7  N3  UNL     1     -14.879  -2.225   7.708  1.00  0.00    -0.361 N 
ATOM      8  H3  UNL     1     -15.216  -1.381   7.245  1.00  0.00     0.165 HD
HETATM    9  C19 UNL     1     -14.663  -2.359   9.042  1.00  0.00     0.112 A 
HETATM   10  C20 UNL     1     -14.805  -1.520  10.123  1.00  0.00     0.275 A 
HETATM   11  O2  UNL     1     -15.222  -0.350   9.874  1.00  0.00    -0.265 OA
ENDROOT
BRANCH   3  12
HETATM   12  C7  UNL     1     -13.423  -5.401  10.782  1.00  0.00    -0.023 A 
HETATM   13  C8  UNL     1     -14.089  -6.455  10.213  1.00  0.00     0.012 A 
HETATM   14  C9  UNL     1     -13.622  -7.718  10.460  1.00  0.00     0.002 A 
HETATM   15  C10 UNL     1     -12.496  -7.902  11.272  1.00  0.00     0.016 A 
HETATM   16  C11 UNL     1     -11.802  -6.875  11.859  1.00  0.00     0.015 A 
HETATM   17  C15 UNL     1     -12.325  -5.597  11.573  1.00  0.00     0.028 A 
BRANCH  16  18
HETATM   18  C12 UNL     1     -10.639  -6.999  12.702  1.00  0.00     0.147 C 
BRANCH  18  19
HETATM   19  O1  UNL     1      -9.591  -7.526  12.137  1.00  0.00    -0.346 OA
ATOM     20  H1  UNL     1      -8.757  -7.306  12.536  1.00  0.00     0.219 HD
ENDBRANCH  18  19
BRANCH  18  21
HETATM   21  N2  UNL     1     -10.464  -6.642  14.023  1.00  0.00    -0.370 N 
HETATM   22  C13 UNL     1     -10.264  -7.747  15.005  1.00  0.00     0.151 C 
HETATM   23  C14 UNL     1     -10.446  -5.334  14.610  1.00  0.00     0.151 C 
ENDBRANCH  18  21
ENDBRANCH  16  18
ENDBRANCH   3  12
BRANCH   1  24
HETATM   24  C4  UNL     1     -14.710  -0.938  12.428  1.00  0.00     0.158 C 
BRANCH  24  25
HETATM   25  C3  UNL     1     -16.025  -1.069  13.112  1.00  0.00    -0.011 C 
HETATM   26  C2  UNL     1     -17.018  -0.213  12.918  1.00  0.00    -0.033 C 
HETATM   27  C1  UNL     1     -18.346  -0.340  13.603  1.00  0.00     0.036 C 
ENDBRANCH  24  25
ENDBRANCH   1  24
TORSDOF 6
ENDMDL
