MODEL 6
REMARK VINA RESULT: -8.070664220      2.141      2.970
REMARK  6 active torsions:
REMARK  status: ('A' for Active; 'I' for Inactive)
REMARK    1  A    between atoms: C3_3  and  C4_4 
REMARK    2  A    between atoms: C4_4  and  N1_5 
REMARK    3  A    between atoms: C6_7  and  C7_8 
REMARK    4  A    between atoms: C11_12  and  C12_13 
REMARK    5  A    between atoms: C12_13  and  O1_14 
REMARK    6  A    between atoms: C12_13  and  N2_16 
ROOT
HETATM    1  N1  UNL     1     -11.494  -6.420  11.320  1.00  0.00    -0.318 N 
HETATM    2  C5  UNL     1     -12.047  -5.199  11.299  1.00  0.00     0.107 A 
HETATM    3  C6  UNL     1     -13.224  -4.907  10.651  1.00  0.00     0.003 A 
HETATM    4  C16 UNL     1     -13.872  -5.920   9.986  1.00  0.00     0.010 A 
HETATM    5  C17 UNL     1     -15.059  -5.942   9.241  1.00  0.00     0.032 A 
HETATM    6  C18 UNL     1     -15.189  -7.246   8.816  1.00  0.00     0.089 A 
HETATM    7  N3  UNL     1     -14.156  -7.980   9.263  1.00  0.00    -0.361 N 
ATOM      8  H3  UNL     1     -14.017  -8.975   9.087  1.00  0.00     0.165 HD
HETATM    9  C19 UNL     1     -13.328  -7.185   9.989  1.00  0.00     0.112 A 
HETATM   10  C20 UNL     1     -12.146  -7.396  10.661  1.00  0.00     0.275 A 
HETATM   11  O2  UNL     1     -11.688  -8.576  10.634  1.00  0.00    -0.265 OA
ENDROOT
BRANCH   3  12
HETATM   12  C7  UNL     1     -13.790  -3.562  10.675  1.00  0.00    -0.023 A 
HETATM   13  C8  UNL     1     -14.199  -3.045  11.876  1.00  0.00     0.012 A 
HETATM   14  C9  UNL     1     -14.738  -1.786  11.884  1.00  0.00     0.002 A 
HETATM   15  C10 UNL     1     -14.857  -1.068  10.689  1.00  0.00     0.016 A 
HETATM   16  C11 UNL     1     -14.460  -1.547   9.467  1.00  0.00     0.015 A 
HETATM   17  C15 UNL     1     -13.913  -2.847   9.515  1.00  0.00     0.028 A 
BRANCH  16  18
HETATM   18  C12 UNL     1     -14.555  -0.859   8.204  1.00  0.00     0.147 C 
BRANCH  18  19
HETATM   19  O1  UNL     1     -13.427  -0.676   7.579  1.00  0.00    -0.346 OA
ATOM     20  H1  UNL     1     -13.501  -0.416   6.668  1.00  0.00     0.219 HD
ENDBRANCH  18  19
BRANCH  18  21
HETATM   21  N2  UNL     1     -15.662  -0.360   7.550  1.00  0.00    -0.370 N 
HETATM   22  C13 UNL     1     -15.754  -0.608   6.082  1.00  0.00     0.151 C 
HETATM   23  C14 UNL     1     -16.766   0.383   8.083  1.00  0.00     0.151 C 
ENDBRANCH  18  21
ENDBRANCH  16  18
ENDBRANCH   3  12
BRANCH   1  24
HETATM   24  C4  UNL     1     -10.274  -6.756  11.983  1.00  0.00     0.158 C 
BRANCH  24  25
HETATM   25  C3  UNL     1     -10.488  -7.397  13.309  1.00  0.00    -0.011 C 
HETATM   26  C2  UNL     1      -9.584  -8.185  13.873  1.00  0.00    -0.033 C 
HETATM   27  C1  UNL     1      -9.792  -8.833  15.210  1.00  0.00     0.036 C 
ENDBRANCH  24  25
ENDBRANCH   1  24
TORSDOF 6
ENDMDL
