MODEL 3
REMARK VINA RESULT: -9.213940482      2.260      4.972
REMARK  2 active torsions:
REMARK  status: ('A' for Active; 'I' for Inactive)
REMARK    1  A    between atoms: C9_12  and  C10_13 
REMARK    2  A    between atoms: C16_19  and  C17_20 
ROOT
HETATM    1  C10 UNL     1      31.328  13.041  14.632  1.00  0.00    -0.023 A 
HETATM    2  C11 UNL     1      31.201  12.824  15.991  1.00  0.00     0.014 A 
HETATM    3  C12 UNL     1      32.138  12.151  16.744  1.00  0.00     0.033 A 
HETATM    4  C13 UNL     1      33.258  11.672  16.100  1.00  0.00     0.063 A 
HETATM    5  C14 UNL     1      33.407  11.876  14.744  1.00  0.00     0.022 A 
HETATM    6  C15 UNL     1      32.467  12.544  14.025  1.00  0.00     0.028 A 
HETATM    7  C16 UNL     1      34.613  11.302  14.328  1.00  0.00     0.073 A 
HETATM    8  N4  UNL     1      35.139  10.779  15.449  1.00  0.00    -0.297 N 
ATOM      9  H4  UNL     1      36.030  10.282  15.490  1.00  0.00     0.187 HD
HETATM   10  N5  UNL     1      34.346  10.992  16.498  1.00  0.00    -0.295 N 
HETATM   11  C21 UNL     1      34.554  10.587  17.880  1.00  0.00     0.178 C 
ENDROOT
BRANCH   1  12
HETATM   12  C9  UNL     1      30.312  13.760  13.862  1.00  0.00     0.003 A 
HETATM   13  C8  UNL     1      30.584  15.047  13.374  1.00  0.00     0.014 A 
HETATM   14  C7  UNL     1      29.611  15.727  12.679  1.00  0.00     0.003 A 
HETATM   15  C6  UNL     1      28.357  15.212  12.426  1.00  0.00     0.032 A 
HETATM   16  C5  UNL     1      28.092  13.946  12.905  1.00  0.00     0.062 A 
HETATM   17  N1  UNL     1      26.758  13.484  12.613  1.00  0.00    -0.325 N 
HETATM   18  C22 UNL     1      29.063  13.254  13.604  1.00  0.00     0.066 A 
HETATM   19  C4  UNL     1      26.108  12.401  13.266  1.00  0.00     0.224 C 
ATOM     20  H1  UNL     1      26.240  13.971  11.881  1.00  0.00     0.169 HD
HETATM   21  C3  UNL     1      26.487  11.769  14.537  1.00  0.00     0.127 C 
HETATM   22  O1  UNL     1      25.101  11.939  12.684  1.00  0.00    -0.273 OA
HETATM   23  C2  UNL     1      27.832  11.140  14.562  1.00  0.00     0.086 C 
HETATM   24  C1  UNL     1      27.861   9.791  13.872  1.00  0.00     0.032 C 
HETATM   25  N6  UNL     1      28.924  11.940  14.112  1.00  0.00    -0.383 N 
ATOM     26  H6  UNL     1      29.816  11.449  14.170  1.00  0.00     0.160 HD
ENDBRANCH   1  12
BRANCH   7  27
HETATM   27  C17 UNL     1      35.162  11.287  12.976  1.00  0.00     0.027 A 
HETATM   28  C18 UNL     1      34.407  11.303  11.821  1.00  0.00     0.122 A 
HETATM   29  N2  UNL     1      35.264  11.282  10.782  1.00  0.00    -0.310 N 
HETATM   30  N3  UNL     1      36.521  11.254  11.195  1.00  0.00    -0.307 N 
ATOM     31  H2  UNL     1      34.980  11.287   9.803  1.00  0.00     0.186 HD
HETATM   32  C19 UNL     1      37.727  11.225  10.354  1.00  0.00     0.177 C 
HETATM   33  C20 UNL     1      36.468  11.257  12.539  1.00  0.00     0.124 A 
ENDBRANCH   7  27
TORSDOF 2
ENDMDL
