MODEL 4
REMARK VINA RESULT: -8.734857596      3.657      7.312
REMARK  2 active torsions:
REMARK  status: ('A' for Active; 'I' for Inactive)
REMARK    1  A    between atoms: C9_12  and  C10_13 
REMARK    2  A    between atoms: C16_19  and  C17_20 
ROOT
HETATM    1  C10 UNL     1      31.700  13.359  14.157  1.00  0.00    -0.023 A 
HETATM    2  C11 UNL     1      32.142  14.526  13.565  1.00  0.00     0.014 A 
HETATM    3  C12 UNL     1      31.334  15.348  12.810  1.00  0.00     0.033 A 
HETATM    4  C13 UNL     1      30.017  14.978  12.641  1.00  0.00     0.063 A 
HETATM    5  C14 UNL     1      29.554  13.816  13.222  1.00  0.00     0.022 A 
HETATM    6  C15 UNL     1      30.371  13.024  13.962  1.00  0.00     0.028 A 
HETATM    7  C16 UNL     1      28.199  13.660  12.908  1.00  0.00     0.073 A 
HETATM    8  N4  UNL     1      27.904  14.733  12.153  1.00  0.00    -0.297 N 
ATOM      9  H4  UNL     1      26.984  14.924  11.757  1.00  0.00     0.187 HD
HETATM   10  N5  UNL     1      28.971  15.515  11.991  1.00  0.00    -0.295 N 
HETATM   11  C21 UNL     1      29.068  16.761  11.246  1.00  0.00     0.178 C 
ENDROOT
BRANCH   1  12
HETATM   12  C9  UNL     1      32.586  12.508  14.954  1.00  0.00     0.003 A 
HETATM   13  C8  UNL     1      32.399  12.406  16.340  1.00  0.00     0.014 A 
HETATM   14  C7  UNL     1      33.257  11.630  17.084  1.00  0.00     0.003 A 
HETATM   15  C6  UNL     1      34.313  10.929  16.540  1.00  0.00     0.032 A 
HETATM   16  C5  UNL     1      34.495  11.029  15.177  1.00  0.00     0.062 A 
HETATM   17  N1  UNL     1      35.626  10.281  14.687  1.00  0.00    -0.325 N 
HETATM   18  C22 UNL     1      33.638  11.807  14.420  1.00  0.00     0.066 A 
HETATM   19  C4  UNL     1      36.246  10.475  13.423  1.00  0.00     0.224 C 
ATOM     20  H1  UNL     1      36.010   9.557  15.294  1.00  0.00     0.169 HD
HETATM   21  C3  UNL     1      36.108  11.634  12.530  1.00  0.00     0.127 C 
HETATM   22  O1  UNL     1      36.991   9.549  13.034  1.00  0.00    -0.273 OA
HETATM   23  C2  UNL     1      34.734  11.900  12.035  1.00  0.00     0.086 C 
HETATM   24  C1  UNL     1      34.327  10.970  10.909  1.00  0.00     0.032 C 
HETATM   25  N6  UNL     1      33.699  11.959  13.014  1.00  0.00    -0.383 N 
ATOM     26  H6  UNL     1      32.786  12.157  12.604  1.00  0.00     0.160 HD
ENDBRANCH   1  12
BRANCH   7  27
HETATM   27  C17 UNL     1      27.319  12.571  13.319  1.00  0.00     0.027 A 
HETATM   28  C18 UNL     1      25.950  12.560  13.150  1.00  0.00     0.122 A 
HETATM   29  N2  UNL     1      25.494  11.396  13.650  1.00  0.00    -0.310 N 
HETATM   30  N3  UNL     1      26.482  10.658  14.129  1.00  0.00    -0.307 N 
ATOM     31  H2  UNL     1      24.512  11.119  13.658  1.00  0.00     0.186 HD
HETATM   32  C19 UNL     1      26.370   9.330  14.752  1.00  0.00     0.177 C 
HETATM   33  C20 UNL     1      27.605  11.370  13.931  1.00  0.00     0.124 A 
ENDBRANCH   7  27
TORSDOF 2
ENDMDL
