MODEL 1
REMARK VINA RESULT: -9.774219597      0.000      0.000
REMARK  2 active torsions:
REMARK  status: ('A' for Active; 'I' for Inactive)
REMARK    1  A    between atoms: C9_12  and  C10_13 
REMARK    2  A    between atoms: C16_19  and  C17_20 
ROOT
HETATM    1  C10 UNL     1      31.230  13.104  14.480  1.00  0.00    -0.023 A 
HETATM    2  C11 UNL     1      32.355  12.628  13.835  1.00  0.00     0.014 A 
HETATM    3  C12 UNL     1      33.381  11.973  14.480  1.00  0.00     0.033 A 
HETATM    4  C13 UNL     1      33.271  11.787  15.842  1.00  0.00     0.063 A 
HETATM    5  C14 UNL     1      32.157  12.254  16.507  1.00  0.00     0.022 A 
HETATM    6  C15 UNL     1      31.159  12.896  15.847  1.00  0.00     0.028 A 
HETATM    7  C16 UNL     1      32.278  11.947  17.867  1.00  0.00     0.073 A 
HETATM    8  N4  UNL     1      33.458  11.308  17.962  1.00  0.00    -0.297 N 
ATOM      9  H4  UNL     1      33.849  10.946  18.832  1.00  0.00     0.187 HD
HETATM   10  N5  UNL     1      34.050  11.210  16.772  1.00  0.00    -0.295 N 
HETATM   11  C21 UNL     1      35.329  10.595  16.451  1.00  0.00     0.178 C 
ENDROOT
BRANCH   1  12
HETATM   12  C9  UNL     1      30.157  13.796  13.763  1.00  0.00     0.003 A 
HETATM   13  C8  UNL     1      30.357  15.103  13.295  1.00  0.00     0.014 A 
HETATM   14  C7  UNL     1      29.333  15.755  12.651  1.00  0.00     0.003 A 
HETATM   15  C6  UNL     1      28.093  15.193  12.431  1.00  0.00     0.032 A 
HETATM   16  C5  UNL     1      27.898  13.908  12.892  1.00  0.00     0.062 A 
HETATM   17  N1  UNL     1      26.574  13.396  12.637  1.00  0.00    -0.325 N 
HETATM   18  C22 UNL     1      28.921  13.243  13.540  1.00  0.00     0.066 A 
HETATM   19  C4  UNL     1      25.994  12.274  13.289  1.00  0.00     0.224 C 
ATOM     20  H1  UNL     1      26.009  13.877  11.936  1.00  0.00     0.169 HD
HETATM   21  C3  UNL     1      26.446  11.632  14.531  1.00  0.00     0.127 C 
HETATM   22  O1  UNL     1      24.986  11.783  12.734  1.00  0.00    -0.273 OA
HETATM   23  C2  UNL     1      27.815  11.060  14.494  1.00  0.00     0.086 C 
HETATM   24  C1  UNL     1      27.874   9.728  13.773  1.00  0.00     0.032 C 
HETATM   25  N6  UNL     1      28.855  11.914  14.023  1.00  0.00    -0.383 N 
ATOM     26  H6  UNL     1      29.769  11.459  14.038  1.00  0.00     0.160 HD
ENDBRANCH   1  12
BRANCH   7  27
HETATM   27  C17 UNL     1      31.327  12.256  18.929  1.00  0.00     0.027 A 
HETATM   28  C18 UNL     1      29.967  12.037  18.854  1.00  0.00     0.122 A 
HETATM   29  N2  UNL     1      29.431  12.447  20.020  1.00  0.00    -0.310 N 
HETATM   30  N3  UNL     1      30.359  12.914  20.839  1.00  0.00    -0.307 N 
ATOM     31  H2  UNL     1      28.436  12.402  20.243  1.00  0.00     0.186 HD
HETATM   32  C19 UNL     1      30.153  13.449  22.194  1.00  0.00     0.177 C 
HETATM   33  C20 UNL     1      31.525  12.802  20.178  1.00  0.00     0.124 A 
ENDBRANCH   7  27
TORSDOF 2
ENDMDL
