MODEL 2
REMARK VINA RESULT: -9.290201451      3.576      7.342
REMARK  2 active torsions:
REMARK  status: ('A' for Active; 'I' for Inactive)
REMARK    1  A    between atoms: C9_12  and  C10_13 
REMARK    2  A    between atoms: C16_19  and  C17_20 
ROOT
HETATM    1  C10 UNL     1      31.352  12.911  14.543  1.00  0.00    -0.023 A 
HETATM    2  C11 UNL     1      31.557  14.142  13.951  1.00  0.00     0.014 A 
HETATM    3  C12 UNL     1      30.590  14.809  13.231  1.00  0.00     0.033 A 
HETATM    4  C13 UNL     1      29.356  14.208  13.098  1.00  0.00     0.063 A 
HETATM    5  C14 UNL     1      29.129  12.979  13.681  1.00  0.00     0.022 A 
HETATM    6  C15 UNL     1      30.100  12.343  14.386  1.00  0.00     0.028 A 
HETATM    7  C16 UNL     1      27.815  12.583  13.407  1.00  0.00     0.073 A 
HETATM    8  N4  UNL     1      27.307  13.589  12.674  1.00  0.00    -0.297 N 
ATOM      9  H4  UNL     1      26.355  13.613  12.309  1.00  0.00     0.187 HD
HETATM   10  N5  UNL     1      28.211  14.552  12.487  1.00  0.00    -0.295 N 
HETATM   11  C21 UNL     1      28.057  15.799  11.754  1.00  0.00     0.178 C 
ENDROOT
BRANCH   1  12
HETATM   12  C9  UNL     1      32.402  12.229  15.303  1.00  0.00     0.003 A 
HETATM   13  C8  UNL     1      32.273  12.071  16.690  1.00  0.00     0.014 A 
HETATM   14  C7  UNL     1      33.280  11.459  17.398  1.00  0.00     0.003 A 
HETATM   15  C6  UNL     1      34.435  10.979  16.817  1.00  0.00     0.032 A 
HETATM   16  C5  UNL     1      34.560  11.134  15.452  1.00  0.00     0.062 A 
HETATM   17  N1  UNL     1      35.799  10.620  14.922  1.00  0.00    -0.325 N 
HETATM   18  C22 UNL     1      33.553  11.748  14.731  1.00  0.00     0.066 A 
HETATM   19  C4  UNL     1      36.339  10.949  13.649  1.00  0.00     0.224 C 
ATOM     20  H1  UNL     1      36.328   9.972  15.505  1.00  0.00     0.169 HD
HETATM   21  C3  UNL     1      35.963  12.075  12.784  1.00  0.00     0.127 C 
HETATM   22  O1  UNL     1      37.236  10.186  13.225  1.00  0.00    -0.273 OA
HETATM   23  C2  UNL     1      34.552  12.086  12.325  1.00  0.00     0.086 C 
HETATM   24  C1  UNL     1      34.298  11.115  11.188  1.00  0.00     0.032 C 
HETATM   25  N6  UNL     1      33.549  11.932  13.328  1.00  0.00    -0.383 N 
ATOM     26  H6  UNL     1      32.605  11.962  12.942  1.00  0.00     0.160 HD
ENDBRANCH   1  12
BRANCH   7  27
HETATM   27  C17 UNL     1      27.159  11.351  13.833  1.00  0.00     0.027 A 
HETATM   28  C18 UNL     1      27.735  10.392  14.640  1.00  0.00     0.122 A 
HETATM   29  N2  UNL     1      26.826   9.412  14.809  1.00  0.00    -0.310 N 
HETATM   30  N3  UNL     1      25.704   9.681  14.163  1.00  0.00    -0.307 N 
ATOM     31  H2  UNL     1      26.984   8.572  15.365  1.00  0.00     0.186 HD
HETATM   32  C19 UNL     1      24.492   8.848  14.114  1.00  0.00     0.177 C 
HETATM   33  C20 UNL     1      25.898  10.867  13.561  1.00  0.00     0.124 A 
ENDBRANCH   7  27
TORSDOF 2
ENDMDL
