MODEL 4
REMARK VINA RESULT: -8.071207769      4.595      7.253
REMARK  9 active torsions:
REMARK  status: ('A' for Active; 'I' for Inactive)
REMARK    1  A    between atoms: O1_2  and  C2_3 
REMARK    2  A    between atoms: C4_5  and  N1_6 
REMARK    3  A    between atoms: N1_6  and  C5_8 
REMARK    4  A    between atoms: C11_17  and  O2_18 
REMARK    5  A    between atoms: O2_18  and  C12_19 
REMARK    6  A    between atoms: C12_19  and  C13_20 
REMARK    7  A    between atoms: C13_20  and  C14_21 
REMARK    8  A    between atoms: C14_21  and  N4_22 
REMARK    9  A    between atoms: C20_29  and  O3_30 
ROOT
HETATM    1  C5  UNL     1     -88.838 -14.915   9.344  1.00  0.00     0.067 A 
HETATM    2  C6  UNL     1     -88.800 -14.863   7.975  1.00  0.00     0.087 A 
HETATM    3  C7  UNL     1     -89.981 -14.533   7.189  1.00  0.00     0.103 C 
HETATM    4  N2  UNL     1     -90.917 -14.278   6.569  1.00  0.00    -0.191 NA
HETATM    5  C8  UNL     1     -87.597 -15.135   7.347  1.00  0.00     0.113 A 
HETATM    6  N3  UNL     1     -86.512 -15.439   8.080  1.00  0.00    -0.364 N 
ATOM      7  H3  UNL     1     -85.639 -15.636   7.591  1.00  0.00     0.165 HD
HETATM    8  C9  UNL     1     -86.517 -15.496   9.422  1.00  0.00     0.047 A 
HETATM    9  C10 UNL     1     -85.346 -15.820  10.127  1.00  0.00     0.070 A 
HETATM   10  C11 UNL     1     -85.360 -15.876  11.499  1.00  0.00     0.104 A 
HETATM   11  C20 UNL     1     -86.574 -15.604  12.172  1.00  0.00     0.102 A 
HETATM   12  C22 UNL     1     -87.685 -15.295  11.436  1.00  0.00     0.055 A 
HETATM   13  C23 UNL     1     -87.708 -15.228  10.056  1.00  0.00     0.022 A 
ENDROOT
BRANCH   1  14
HETATM   14  N1  UNL     1     -90.053 -14.642  10.012  1.00  0.00    -0.353 N 
ATOM     15  H1  UNL     1     -90.319 -13.667  10.153  1.00  0.00     0.166 HD
BRANCH  14  16
HETATM   16  C4  UNL     1     -90.922 -15.647  10.497  1.00  0.00     0.057 A 
HETATM   17  C3  UNL     1     -91.349 -16.634   9.660  1.00  0.00     0.069 A 
HETATM   18  C2  UNL     1     -92.205 -17.631  10.123  1.00  0.00     0.092 A 
HETATM   19  C26 UNL     1     -92.649 -17.660  11.429  1.00  0.00     0.069 A 
HETATM   20  C25 UNL     1     -92.213 -16.656  12.270  1.00  0.00     0.052 A 
HETATM   21 CL2  UNL     1     -93.729 -18.916  12.017  1.00  0.00    -0.081 Cl
HETATM   22  C24 UNL     1     -91.353 -15.655  11.805  1.00  0.00     0.062 A 
HETATM   23 CL1  UNL     1     -90.794 -14.380  12.860  1.00  0.00    -0.082 Cl
BRANCH  18  24
HETATM   24  O1  UNL     1     -92.645 -18.638   9.284  1.00  0.00    -0.354 OA
HETATM   25  C1  UNL     1     -91.818 -19.085   8.210  1.00  0.00     0.210 C 
ENDBRANCH  18  24
ENDBRANCH  14  16
ENDBRANCH   1  14
BRANCH  11  26
HETATM   26  O3  UNL     1     -86.532 -15.676  13.554  1.00  0.00    -0.353 OA
HETATM   27  C21 UNL     1     -87.582 -15.132  14.322  1.00  0.00     0.210 C 
ENDBRANCH  11  26
BRANCH  10  28
HETATM   28  O2  UNL     1     -84.254 -16.177  12.228  1.00  0.00    -0.348 OA
BRANCH  28  29
HETATM   29  C12 UNL     1     -83.133 -15.382  12.389  1.00  0.00     0.177 C 
BRANCH  29  30
HETATM   30  C13 UNL     1     -83.110 -14.759  13.746  1.00  0.00     0.057 C 
BRANCH  30  31
HETATM   31  C14 UNL     1     -83.831 -13.474  13.904  1.00  0.00     0.274 C 
BRANCH  31  32
HETATM   32  N4  UNL     1     -84.305 -13.081  15.168  1.00  0.00     0.091 N 
HETATM   33  C15 UNL     1     -84.488 -14.081  16.168  1.00  0.00     0.302 C 
HETATM   34  C16 UNL     1     -84.420 -13.370  17.532  1.00  0.00     0.302 C 
HETATM   35  N5  UNL     1     -85.451 -12.352  17.612  1.00  0.00     0.087 N 
HETATM   36  C17 UNL     1     -86.767 -12.900  17.837  1.00  0.00     0.310 C 
HETATM   37  C18 UNL     1     -85.445 -11.464  16.489  1.00  0.00     0.302 C 
HETATM   38  C19 UNL     1     -85.458 -12.182  15.151  1.00  0.00     0.302 C 
ENDBRANCH  31  32
ENDBRANCH  30  31
ENDBRANCH  29  30
ENDBRANCH  28  29
ENDBRANCH  10  28
TORSDOF 9
ENDMDL
