MODEL 5
REMARK VINA RESULT: -8.059269679      4.746      8.401
REMARK  9 active torsions:
REMARK  status: ('A' for Active; 'I' for Inactive)
REMARK    1  A    between atoms: O1_2  and  C2_3 
REMARK    2  A    between atoms: C4_5  and  N1_6 
REMARK    3  A    between atoms: N1_6  and  C5_8 
REMARK    4  A    between atoms: C11_17  and  O2_18 
REMARK    5  A    between atoms: O2_18  and  C12_19 
REMARK    6  A    between atoms: C12_19  and  C13_20 
REMARK    7  A    between atoms: C13_20  and  C14_21 
REMARK    8  A    between atoms: C14_21  and  N4_22 
REMARK    9  A    between atoms: C20_29  and  O3_30 
ROOT
HETATM    1  C5  UNL     1     -87.389 -14.965  10.363  1.00  0.00     0.067 A 
HETATM    2  C6  UNL     1     -86.696 -14.926   9.181  1.00  0.00     0.087 A 
HETATM    3  C7  UNL     1     -87.214 -14.226   8.014  1.00  0.00     0.103 C 
HETATM    4  N2  UNL     1     -87.628 -13.677   7.089  1.00  0.00    -0.191 NA
HETATM    5  C8  UNL     1     -85.475 -15.575   9.121  1.00  0.00     0.113 A 
HETATM    6  N3  UNL     1     -85.004 -16.219  10.203  1.00  0.00    -0.364 N 
ATOM      7  H3  UNL     1     -84.103 -16.690  10.130  1.00  0.00     0.165 HD
HETATM    8  C9  UNL     1     -85.659 -16.275  11.375  1.00  0.00     0.047 A 
HETATM    9  C10 UNL     1     -85.109 -16.965  12.467  1.00  0.00     0.070 A 
HETATM   10  C11 UNL     1     -85.785 -17.017  13.662  1.00  0.00     0.104 A 
HETATM   11  C20 UNL     1     -87.036 -16.363  13.757  1.00  0.00     0.102 A 
HETATM   12  C22 UNL     1     -87.525 -15.706  12.661  1.00  0.00     0.055 A 
HETATM   13  C23 UNL     1     -86.874 -15.632  11.445  1.00  0.00     0.022 A 
ENDROOT
BRANCH   1  14
HETATM   14  N1  UNL     1     -88.639 -14.311  10.453  1.00  0.00    -0.353 N 
ATOM     15  H1  UNL     1     -88.649 -13.291  10.475  1.00  0.00     0.166 HD
BRANCH  14  16
HETATM   16  C4  UNL     1     -89.876 -14.993  10.514  1.00  0.00     0.057 A 
HETATM   17  C3  UNL     1     -90.236 -15.834   9.504  1.00  0.00     0.069 A 
HETATM   18  C2  UNL     1     -91.452 -16.513   9.550  1.00  0.00     0.092 A 
HETATM   19  C26 UNL     1     -92.329 -16.364  10.605  1.00  0.00     0.069 A 
HETATM   20  C25 UNL     1     -91.957 -15.510  11.623  1.00  0.00     0.052 A 
HETATM   21 CL2  UNL     1     -93.863 -17.219  10.666  1.00  0.00    -0.081 Cl
HETATM   22  C24 UNL     1     -90.736 -14.828  11.576  1.00  0.00     0.062 A 
HETATM   23 CL1  UNL     1     -90.255 -13.745  12.860  1.00  0.00    -0.082 Cl
BRANCH  18  24
HETATM   24  O1  UNL     1     -91.828 -17.369   8.532  1.00  0.00    -0.354 OA
HETATM   25  C1  UNL     1     -91.416 -18.736   8.558  1.00  0.00     0.210 C 
ENDBRANCH  18  24
ENDBRANCH  14  16
ENDBRANCH   1  14
BRANCH  11  26
HETATM   26  O3  UNL     1     -87.674 -16.448  14.983  1.00  0.00    -0.353 OA
HETATM   27  C21 UNL     1     -89.007 -16.901  15.054  1.00  0.00     0.210 C 
ENDBRANCH  11  26
BRANCH  10  28
HETATM   28  O2  UNL     1     -85.294 -17.664  14.750  1.00  0.00    -0.348 OA
BRANCH  28  29
HETATM   29  C12 UNL     1     -84.320 -17.198  15.615  1.00  0.00     0.177 C 
BRANCH  29  30
HETATM   30  C13 UNL     1     -84.902 -16.886  16.955  1.00  0.00     0.057 C 
BRANCH  30  31
HETATM   31  C14 UNL     1     -84.190 -15.878  17.775  1.00  0.00     0.274 C 
BRANCH  31  32
HETATM   32  N4  UNL     1     -84.581 -14.528  17.732  1.00  0.00     0.091 N 
HETATM   33  C15 UNL     1     -85.853 -14.205  17.174  1.00  0.00     0.302 C 
HETATM   34  C16 UNL     1     -86.271 -12.847  17.766  1.00  0.00     0.302 C 
HETATM   35  N5  UNL     1     -85.281 -11.837  17.439  1.00  0.00     0.087 N 
HETATM   36  C17 UNL     1     -85.363 -11.391  16.069  1.00  0.00     0.310 C 
HETATM   37  C18 UNL     1     -83.947 -12.235  17.775  1.00  0.00     0.302 C 
HETATM   38  C19 UNL     1     -83.569 -13.600  17.228  1.00  0.00     0.302 C 
ENDBRANCH  31  32
ENDBRANCH  30  31
ENDBRANCH  29  30
ENDBRANCH  28  29
ENDBRANCH  10  28
TORSDOF 9
ENDMDL
