MODEL 2
REMARK VINA RESULT: -8.133139091      4.698      8.595
REMARK  9 active torsions:
REMARK  status: ('A' for Active; 'I' for Inactive)
REMARK    1  A    between atoms: O1_2  and  C2_3 
REMARK    2  A    between atoms: C4_5  and  N1_6 
REMARK    3  A    between atoms: N1_6  and  C5_8 
REMARK    4  A    between atoms: C11_17  and  O2_18 
REMARK    5  A    between atoms: O2_18  and  C12_19 
REMARK    6  A    between atoms: C12_19  and  C13_20 
REMARK    7  A    between atoms: C13_20  and  C14_21 
REMARK    8  A    between atoms: C14_21  and  N4_22 
REMARK    9  A    between atoms: C20_29  and  O3_30 
ROOT
HETATM    1  C5  UNL     1     -90.487 -15.897  10.112  1.00  0.00     0.067 A 
HETATM    2  C6  UNL     1     -91.097 -17.122  10.189  1.00  0.00     0.087 A 
HETATM    3  C7  UNL     1     -91.507 -17.848   8.996  1.00  0.00     0.103 C 
HETATM    4  N2  UNL     1     -91.836 -18.419   8.051  1.00  0.00    -0.191 NA
HETATM    5  C8  UNL     1     -91.317 -17.661  11.445  1.00  0.00     0.113 A 
HETATM    6  N3  UNL     1     -90.935 -16.984  12.542  1.00  0.00    -0.364 N 
ATOM      7  H3  UNL     1     -91.111 -17.404  13.454  1.00  0.00     0.165 HD
HETATM    8  C9  UNL     1     -90.335 -15.782  12.498  1.00  0.00     0.047 A 
HETATM    9  C10 UNL     1     -89.962 -15.128  13.684  1.00  0.00     0.070 A 
HETATM   10  C11 UNL     1     -89.348 -13.900  13.631  1.00  0.00     0.104 A 
HETATM   11  C20 UNL     1     -89.109 -13.321  12.363  1.00  0.00     0.102 A 
HETATM   12  C22 UNL     1     -89.495 -14.002  11.240  1.00  0.00     0.055 A 
HETATM   13  C23 UNL     1     -90.112 -15.237  11.255  1.00  0.00     0.022 A 
ENDROOT
BRANCH   1  14
HETATM   14  N1  UNL     1     -90.250 -15.322   8.843  1.00  0.00    -0.353 N 
ATOM     15  H1  UNL     1     -91.055 -15.071   8.268  1.00  0.00     0.166 HD
BRANCH  14  16
HETATM   16  C4  UNL     1     -88.957 -15.074   8.326  1.00  0.00     0.057 A 
HETATM   17  C3  UNL     1     -87.859 -15.455   9.038  1.00  0.00     0.069 A 
HETATM   18  C2  UNL     1     -86.579 -15.217   8.541  1.00  0.00     0.092 A 
HETATM   19  C26 UNL     1     -86.374 -14.595   7.326  1.00  0.00     0.069 A 
HETATM   20  C25 UNL     1     -87.491 -14.211   6.613  1.00  0.00     0.052 A 
HETATM   21 CL2  UNL     1     -84.760 -14.294   6.698  1.00  0.00    -0.081 Cl
HETATM   22  C24 UNL     1     -88.776 -14.450   7.112  1.00  0.00     0.062 A 
HETATM   23 CL1  UNL     1     -90.198 -13.969   6.217  1.00  0.00    -0.082 Cl
BRANCH  18  24
HETATM   24  O1  UNL     1     -85.458 -15.600   9.253  1.00  0.00    -0.354 OA
HETATM   25  C1  UNL     1     -85.579 -15.993  10.620  1.00  0.00     0.210 C 
ENDBRANCH  18  24
ENDBRANCH  14  16
ENDBRANCH   1  14
BRANCH  11  26
HETATM   26  O3  UNL     1     -88.489 -12.083  12.368  1.00  0.00    -0.353 OA
HETATM   27  C21 UNL     1     -87.101 -11.988  12.143  1.00  0.00     0.210 C 
ENDBRANCH  11  26
BRANCH  10  28
HETATM   28  O2  UNL     1     -88.960 -13.230  14.747  1.00  0.00    -0.348 OA
BRANCH  28  29
HETATM   29  C12 UNL     1     -88.162 -13.719  15.766  1.00  0.00     0.177 C 
BRANCH  29  30
HETATM   30  C13 UNL     1     -86.721 -13.688  15.376  1.00  0.00     0.057 C 
BRANCH  30  31
HETATM   31  C14 UNL     1     -86.080 -14.990  15.077  1.00  0.00     0.274 C 
BRANCH  31  32
HETATM   32  N4  UNL     1     -86.733 -16.191  15.404  1.00  0.00     0.091 N 
HETATM   33  C15 UNL     1     -86.366 -16.858  16.610  1.00  0.00     0.302 C 
HETATM   34  C16 UNL     1     -87.562 -17.737  17.018  1.00  0.00     0.302 C 
HETATM   35  N5  UNL     1     -87.863 -18.687  15.962  1.00  0.00     0.087 N 
HETATM   36  C17 UNL     1     -86.929 -19.786  15.910  1.00  0.00     0.310 C 
HETATM   37  C18 UNL     1     -88.005 -18.067  14.679  1.00  0.00     0.302 C 
HETATM   38  C19 UNL     1     -86.842 -17.161  14.315  1.00  0.00     0.302 C 
ENDBRANCH  31  32
ENDBRANCH  30  31
ENDBRANCH  29  30
ENDBRANCH  28  29
ENDBRANCH  10  28
TORSDOF 9
ENDMDL
