MODEL 3
REMARK VINA RESULT: -9.224407415      0.558      1.001
REMARK  8 active torsions:
REMARK  status: ('A' for Active; 'I' for Inactive)
REMARK    1  A    between atoms: C3_5  and  N2_6 
REMARK    2  A    between atoms: N2_6  and  C4_8 
REMARK    3  A    between atoms: C6_12  and  C7_13 
REMARK       I    between atoms: C7_13  and  N4_15 
REMARK    4  A    between atoms: N4_15  and  C8_17 
REMARK    5  A    between atoms: C16_27  and  N5_28 
REMARK    6  A    between atoms: N6_31  and  C19_32 
REMARK    7  A    between atoms: C19_32  and  C20_33 
REMARK    8  A    between atoms: C20_33  and  O2_34 
ROOT
HETATM    1  N2  UNL     1     -67.033 -13.036  43.717  1.00  0.00    -0.323 N 
ATOM      2  H2  UNL     1     -67.135 -12.729  42.750  1.00  0.00     0.169 HD
ENDROOT
BRANCH   1   3
HETATM    3  C3  UNL     1     -65.768 -12.992  44.319  1.00  0.00     0.111 A 
HETATM    4  N1  UNL     1     -64.679 -13.205  43.550  1.00  0.00    -0.332 N 
HETATM    5  C2  UNL     1     -63.474 -13.165  44.107  1.00  0.00     0.080 A 
ATOM      6  H1  UNL     1     -64.780 -13.394  42.553  1.00  0.00     0.168 HD
HETATM    7  C1  UNL     1     -62.285 -13.397  43.264  1.00  0.00     0.089 C 
HETATM    8  N7  UNL     1     -63.331 -12.918  45.416  1.00  0.00    -0.332 N 
HETATM    9  C16 UNL     1     -64.387 -12.700  46.228  1.00  0.00     0.108 A 
ATOM     10  H7  UNL     1     -62.392 -12.894  45.813  1.00  0.00     0.168 HD
HETATM   11  C15 UNL     1     -65.669 -12.735  45.669  1.00  0.00     0.097 A 
BRANCH   9  12
HETATM   12  N5  UNL     1     -64.222 -12.441  47.603  1.00  0.00    -0.364 N 
HETATM   13  C17 UNL     1     -65.206 -12.906  48.543  1.00  0.00     0.154 C 
HETATM   14  C18 UNL     1     -65.244 -11.850  49.656  1.00  0.00     0.292 C 
HETATM   15  N6  UNL     1     -64.014 -11.747  50.372  1.00  0.00     0.093 N 
HETATM   16  C21 UNL     1     -62.896 -12.149  49.542  1.00  0.00     0.292 C 
HETATM   17  C22 UNL     1     -63.079 -11.714  48.085  1.00  0.00     0.154 C 
BRANCH  15  18
HETATM   18  C19 UNL     1     -63.971 -12.582  51.556  1.00  0.00     0.298 C 
BRANCH  18  19
HETATM   19  C20 UNL     1     -64.857 -12.084  52.661  1.00  0.00     0.194 C 
BRANCH  19  20
HETATM   20  O2  UNL     1     -64.763 -10.694  52.794  1.00  0.00    -0.399 OA
ATOM     21  H2  UNL     1     -64.337 -10.457  53.608  1.00  0.00     0.209 HD
ENDBRANCH  19  20
ENDBRANCH  18  19
ENDBRANCH  15  18
ENDBRANCH   9  12
ENDBRANCH   1   3
BRANCH   1  22
HETATM   22  C4  UNL     1     -68.197 -13.507  44.433  1.00  0.00     0.150 A 
HETATM   23  N3  UNL     1     -69.473 -13.369  44.106  1.00  0.00    -0.345 N 
HETATM   24  C5  UNL     1     -70.386 -13.860  44.875  1.00  0.00     0.115 A 
ATOM     25  H3  UNL     1     -69.733 -12.877  43.251  1.00  0.00     0.167 HD
HETATM   26  C6  UNL     1     -69.987 -14.513  46.014  1.00  0.00     0.091 A 
HETATM   27  S1  UNL     1     -68.290 -14.376  45.904  1.00  0.00    -0.047 SA
BRANCH  26  28
HETATM   28  C7  UNL     1     -70.807 -15.154  47.047  1.00  0.00     0.264 C 
HETATM   29  O1  UNL     1     -70.301 -15.357  48.159  1.00  0.00    -0.267 OA
HETATM   30  N4  UNL     1     -72.145 -15.544  46.810  1.00  0.00    -0.320 N 
ATOM     31  H4  UNL     1     -72.537 -15.366  45.885  1.00  0.00     0.169 HD
BRANCH  30  32
HETATM   32  C8  UNL     1     -72.980 -16.167  47.775  1.00  0.00     0.062 A 
HETATM   33  C9  UNL     1     -73.777 -15.479  48.647  1.00  0.00    -0.034 A 
HETATM   34  C10 UNL     1     -73.796 -13.994  48.611  1.00  0.00     0.050 C 
HETATM   35  C11 UNL     1     -74.558 -16.162  49.554  1.00  0.00     0.009 A 
HETATM   36  C12 UNL     1     -74.553 -17.540  49.601  1.00  0.00     0.002 A 
HETATM   37  C13 UNL     1     -73.750 -18.250  48.723  1.00  0.00     0.026 A 
HETATM   38  C14 UNL     1     -72.979 -17.549  47.826  1.00  0.00     0.061 A 
HETATM   39 CL1  UNL     1     -71.962 -18.473  46.715  1.00  0.00    -0.082 Cl
ENDBRANCH  30  32
ENDBRANCH  26  28
ENDBRANCH   1  22
TORSDOF 8
ENDMDL
