MODEL 5
REMARK VINA RESULT: -9.172548865      2.743      4.820
REMARK  8 active torsions:
REMARK  status: ('A' for Active; 'I' for Inactive)
REMARK    1  A    between atoms: C3_5  and  N2_6 
REMARK    2  A    between atoms: N2_6  and  C4_8 
REMARK    3  A    between atoms: C6_12  and  C7_13 
REMARK       I    between atoms: C7_13  and  N4_15 
REMARK    4  A    between atoms: N4_15  and  C8_17 
REMARK    5  A    between atoms: C16_27  and  N5_28 
REMARK    6  A    between atoms: N6_31  and  C19_32 
REMARK    7  A    between atoms: C19_32  and  C20_33 
REMARK    8  A    between atoms: C20_33  and  O2_34 
ROOT
HETATM    1  N2  UNL     1     -66.962 -12.959  43.717  1.00  0.00    -0.323 N 
ATOM      2  H2  UNL     1     -67.068 -12.621  42.760  1.00  0.00     0.169 HD
ENDROOT
BRANCH   1   3
HETATM    3  C3  UNL     1     -65.692 -12.943  44.310  1.00  0.00     0.111 A 
HETATM    4  N1  UNL     1     -65.597 -12.659  45.626  1.00  0.00    -0.332 N 
HETATM    5  C2  UNL     1     -64.401 -12.642  46.201  1.00  0.00     0.080 A 
ATOM      6  H1  UNL     1     -66.435 -12.459  46.172  1.00  0.00     0.168 HD
HETATM    7  C1  UNL     1     -64.300 -12.331  47.641  1.00  0.00     0.089 C 
HETATM    8  N7  UNL     1     -63.294 -12.902  45.492  1.00  0.00    -0.332 N 
HETATM    9  C16 UNL     1     -63.335 -13.191  44.174  1.00  0.00     0.108 A 
ATOM     10  H7  UNL     1     -62.391 -12.881  45.964  1.00  0.00     0.168 HD
HETATM   11  C15 UNL     1     -64.582 -13.217  43.541  1.00  0.00     0.097 A 
BRANCH   9  12
HETATM   12  N5  UNL     1     -62.163 -13.463  43.441  1.00  0.00    -0.364 N 
HETATM   13  C17 UNL     1     -62.128 -13.207  42.026  1.00  0.00     0.154 C 
HETATM   14  C18 UNL     1     -61.216 -14.290  41.433  1.00  0.00     0.292 C 
HETATM   15  N6  UNL     1     -59.870 -14.203  41.896  1.00  0.00     0.093 N 
HETATM   16  C21 UNL     1     -59.811 -13.586  43.206  1.00  0.00     0.292 C 
HETATM   17  C22 UNL     1     -60.995 -13.997  44.087  1.00  0.00     0.154 C 
BRANCH  15  18
HETATM   18  C19 UNL     1     -59.018 -13.413  41.029  1.00  0.00     0.298 C 
BRANCH  18  19
HETATM   19  C20 UNL     1     -58.720 -12.048  41.580  1.00  0.00     0.194 C 
BRANCH  19  20
HETATM   20  O2  UNL     1     -59.354 -11.053  40.829  1.00  0.00    -0.399 OA
ATOM     21  H2  UNL     1     -58.972 -10.984  39.962  1.00  0.00     0.209 HD
ENDBRANCH  19  20
ENDBRANCH  18  19
ENDBRANCH  15  18
ENDBRANCH   9  12
ENDBRANCH   1   3
BRANCH   1  22
HETATM   22  C4  UNL     1     -68.125 -13.441  44.427  1.00  0.00     0.150 A 
HETATM   23  N3  UNL     1     -69.401 -13.299  44.105  1.00  0.00    -0.345 N 
HETATM   24  C5  UNL     1     -70.313 -13.802  44.867  1.00  0.00     0.115 A 
ATOM     25  H3  UNL     1     -69.663 -12.793  43.259  1.00  0.00     0.167 HD
HETATM   26  C6  UNL     1     -69.911 -14.472  45.995  1.00  0.00     0.091 A 
HETATM   27  S1  UNL     1     -68.214 -14.334  45.884  1.00  0.00    -0.047 SA
BRANCH  26  28
HETATM   28  C7  UNL     1     -70.730 -15.131  47.020  1.00  0.00     0.264 C 
HETATM   29  O1  UNL     1     -70.207 -15.394  48.111  1.00  0.00    -0.267 OA
HETATM   30  N4  UNL     1     -72.084 -15.469  46.797  1.00  0.00    -0.320 N 
ATOM     31  H4  UNL     1     -72.489 -15.241  45.889  1.00  0.00     0.169 HD
BRANCH  30  32
HETATM   32  C8  UNL     1     -72.917 -16.106  47.754  1.00  0.00     0.062 A 
HETATM   33  C9  UNL     1     -73.734 -15.430  48.618  1.00  0.00    -0.034 A 
HETATM   34  C10 UNL     1     -73.778 -13.946  48.580  1.00  0.00     0.050 C 
HETATM   35  C11 UNL     1     -74.512 -16.126  49.518  1.00  0.00     0.009 A 
HETATM   36  C12 UNL     1     -74.485 -17.504  49.566  1.00  0.00     0.002 A 
HETATM   37  C13 UNL     1     -73.662 -18.200  48.696  1.00  0.00     0.026 A 
HETATM   38  C14 UNL     1     -72.894 -17.486  47.806  1.00  0.00     0.061 A 
HETATM   39 CL1  UNL     1     -71.850 -18.395  46.706  1.00  0.00    -0.082 Cl
ENDBRANCH  30  32
ENDBRANCH  26  28
ENDBRANCH   1  22
TORSDOF 8
ENDMDL
