MODEL 1
REMARK VINA RESULT: -9.480398203      0.000      0.000
REMARK  8 active torsions:
REMARK  status: ('A' for Active; 'I' for Inactive)
REMARK    1  A    between atoms: C3_5  and  N2_6 
REMARK    2  A    between atoms: N2_6  and  C4_8 
REMARK    3  A    between atoms: C6_12  and  C7_13 
REMARK       I    between atoms: C7_13  and  N4_15 
REMARK    4  A    between atoms: N4_15  and  C8_17 
REMARK    5  A    between atoms: C16_27  and  N5_28 
REMARK    6  A    between atoms: N6_31  and  C19_32 
REMARK    7  A    between atoms: C19_32  and  C20_33 
REMARK    8  A    between atoms: C20_33  and  O2_34 
ROOT
HETATM    1  N2  UNL     1     -67.238 -12.950  43.605  1.00  0.00    -0.323 N 
ATOM      2  H2  UNL     1     -67.391 -12.535  42.687  1.00  0.00     0.169 HD
ENDROOT
BRANCH   1   3
HETATM    3  C3  UNL     1     -65.934 -13.024  44.114  1.00  0.00     0.111 A 
HETATM    4  N1  UNL     1     -64.910 -13.182  43.248  1.00  0.00    -0.332 N 
HETATM    5  C2  UNL     1     -63.670 -13.252  43.715  1.00  0.00     0.080 A 
ATOM      6  H1  UNL     1     -65.088 -13.248  42.245  1.00  0.00     0.168 HD
HETATM    7  C1  UNL     1     -62.553 -13.425  42.766  1.00  0.00     0.089 C 
HETATM    8  N7  UNL     1     -63.426 -13.168  45.030  1.00  0.00    -0.332 N 
HETATM    9  C16 UNL     1     -64.413 -13.011  45.937  1.00  0.00     0.108 A 
ATOM     10  H7  UNL     1     -62.462 -13.225  45.357  1.00  0.00     0.168 HD
HETATM   11  C15 UNL     1     -65.732 -12.933  45.473  1.00  0.00     0.097 A 
BRANCH   9  12
HETATM   12  N5  UNL     1     -64.143 -12.922  47.317  1.00  0.00    -0.364 N 
HETATM   13  C17 UNL     1     -63.099 -12.052  47.788  1.00  0.00     0.154 C 
HETATM   14  C18 UNL     1     -62.504 -12.750  49.019  1.00  0.00     0.292 C 
HETATM   15  N6  UNL     1     -63.436 -12.884  50.090  1.00  0.00     0.093 N 
HETATM   16  C21 UNL     1     -64.796 -12.929  49.592  1.00  0.00     0.292 C 
HETATM   17  C22 UNL     1     -64.896 -13.694  48.268  1.00  0.00     0.154 C 
BRANCH  15  18
HETATM   18  C19 UNL     1     -63.380 -11.788  51.038  1.00  0.00     0.298 C 
BRANCH  18  19
HETATM   19  C20 UNL     1     -64.735 -11.351  51.514  1.00  0.00     0.194 C 
BRANCH  19  20
HETATM   20  O2  UNL     1     -64.642 -10.213  52.322  1.00  0.00    -0.399 OA
ATOM     21  H2  UNL     1     -65.384  -9.636  52.184  1.00  0.00     0.209 HD
ENDBRANCH  19  20
ENDBRANCH  18  19
ENDBRANCH  15  18
ENDBRANCH   9  12
ENDBRANCH   1   3
BRANCH   1  22
HETATM   22  C4  UNL     1     -68.372 -13.449  44.351  1.00  0.00     0.150 A 
HETATM   23  N3  UNL     1     -69.660 -13.310  44.077  1.00  0.00    -0.345 N 
HETATM   24  C5  UNL     1     -70.540 -13.830  44.865  1.00  0.00     0.115 A 
ATOM     25  H3  UNL     1     -69.955 -12.795  43.248  1.00  0.00     0.167 HD
HETATM   26  C6  UNL     1     -70.094 -14.513  45.968  1.00  0.00     0.091 A 
HETATM   27  S1  UNL     1     -68.403 -14.363  45.798  1.00  0.00    -0.047 SA
BRANCH  26  28
HETATM   28  C7  UNL     1     -70.871 -15.190  47.013  1.00  0.00     0.264 C 
HETATM   29  O1  UNL     1     -70.307 -15.466  48.081  1.00  0.00    -0.267 OA
HETATM   30  N4  UNL     1     -72.230 -15.534  46.834  1.00  0.00    -0.320 N 
ATOM     31  H4  UNL     1     -72.670 -15.296  45.945  1.00  0.00     0.169 HD
BRANCH  30  32
HETATM   32  C8  UNL     1     -73.025 -16.188  47.812  1.00  0.00     0.062 A 
HETATM   33  C9  UNL     1     -73.808 -15.529  48.719  1.00  0.00    -0.034 A 
HETATM   34  C10 UNL     1     -73.856 -14.045  48.709  1.00  0.00     0.050 C 
HETATM   35  C11 UNL     1     -74.550 -16.242  49.636  1.00  0.00     0.009 A 
HETATM   36  C12 UNL     1     -74.518 -17.621  49.660  1.00  0.00     0.002 A 
HETATM   37  C13 UNL     1     -73.729 -18.300  48.747  1.00  0.00     0.026 A 
HETATM   38  C14 UNL     1     -72.997 -17.570  47.840  1.00  0.00     0.061 A 
HETATM   39 CL1  UNL     1     -71.996 -18.457  46.684  1.00  0.00    -0.082 Cl
ENDBRANCH  30  32
ENDBRANCH  26  28
ENDBRANCH   1  22
TORSDOF 8
ENDMDL
