MODEL 12
REMARK VINA RESULT: -9.003189372      2.889      4.822
REMARK  8 active torsions:
REMARK  status: ('A' for Active; 'I' for Inactive)
REMARK    1  A    between atoms: C3_5  and  N2_6 
REMARK    2  A    between atoms: N2_6  and  C4_8 
REMARK    3  A    between atoms: C6_12  and  C7_13 
REMARK       I    between atoms: C7_13  and  N4_15 
REMARK    4  A    between atoms: N4_15  and  C8_17 
REMARK    5  A    between atoms: C16_27  and  N5_28 
REMARK    6  A    between atoms: N6_31  and  C19_32 
REMARK    7  A    between atoms: C19_32  and  C20_33 
REMARK    8  A    between atoms: C20_33  and  O2_34 
ROOT
HETATM    1  N2  UNL     1     -66.985 -12.956  43.732  1.00  0.00    -0.323 N 
ATOM      2  H2  UNL     1     -67.096 -12.598  42.784  1.00  0.00     0.169 HD
ENDROOT
BRANCH   1   3
HETATM    3  C3  UNL     1     -65.710 -12.962  44.316  1.00  0.00     0.111 A 
HETATM    4  N1  UNL     1     -65.617 -12.969  45.663  1.00  0.00    -0.332 N 
HETATM    5  C2  UNL     1     -64.417 -12.976  46.230  1.00  0.00     0.080 A 
ATOM      6  H1  UNL     1     -66.459 -12.967  46.239  1.00  0.00     0.168 HD
HETATM    7  C1  UNL     1     -64.317 -12.984  47.702  1.00  0.00     0.089 C 
HETATM    8  N7  UNL     1     -63.304 -12.976  45.482  1.00  0.00    -0.332 N 
HETATM    9  C16 UNL     1     -63.344 -12.968  44.133  1.00  0.00     0.108 A 
ATOM     10  H7  UNL     1     -62.398 -12.982  45.948  1.00  0.00     0.168 HD
HETATM   11  C15 UNL     1     -64.596 -12.961  43.507  1.00  0.00     0.097 A 
BRANCH   9  12
HETATM   12  N5  UNL     1     -62.166 -12.970  43.359  1.00  0.00    -0.364 N 
HETATM   13  C17 UNL     1     -61.006 -12.254  43.818  1.00  0.00     0.154 C 
HETATM   14  C18 UNL     1     -60.312 -11.738  42.551  1.00  0.00     0.292 C 
HETATM   15  N6  UNL     1     -59.836 -12.785  41.708  1.00  0.00     0.093 N 
HETATM   16  C21 UNL     1     -60.622 -13.990  41.884  1.00  0.00     0.292 C 
HETATM   17  C22 UNL     1     -62.105 -13.678  42.110  1.00  0.00     0.154 C 
BRANCH  15  18
HETATM   18  C19 UNL     1     -58.457 -13.150  41.972  1.00  0.00     0.298 C 
BRANCH  18  19
HETATM   19  C20 UNL     1     -58.320 -14.486  42.643  1.00  0.00     0.194 C 
BRANCH  19  20
HETATM   20  O2  UNL     1     -57.230 -15.197  42.129  1.00  0.00    -0.399 OA
ATOM     21  H2  UNL     1     -57.074 -15.990  42.629  1.00  0.00     0.209 HD
ENDBRANCH  19  20
ENDBRANCH  18  19
ENDBRANCH  15  18
ENDBRANCH   9  12
ENDBRANCH   1   3
BRANCH   1  22
HETATM   22  C4  UNL     1     -68.146 -13.444  44.442  1.00  0.00     0.150 A 
HETATM   23  N3  UNL     1     -69.423 -13.318  44.112  1.00  0.00    -0.345 N 
HETATM   24  C5  UNL     1     -70.332 -13.824  44.874  1.00  0.00     0.115 A 
ATOM     25  H3  UNL     1     -69.685 -12.823  43.260  1.00  0.00     0.167 HD
HETATM   26  C6  UNL     1     -69.929 -14.480  46.010  1.00  0.00     0.091 A 
HETATM   27  S1  UNL     1     -68.234 -14.325  45.906  1.00  0.00    -0.047 SA
BRANCH  26  28
HETATM   28  C7  UNL     1     -70.746 -15.138  47.036  1.00  0.00     0.264 C 
HETATM   29  O1  UNL     1     -70.224 -15.391  48.131  1.00  0.00    -0.267 OA
HETATM   30  N4  UNL     1     -72.097 -15.488  46.812  1.00  0.00    -0.320 N 
ATOM     31  H4  UNL     1     -72.501 -15.269  45.901  1.00  0.00     0.169 HD
BRANCH  30  32
HETATM   32  C8  UNL     1     -72.928 -16.125  47.771  1.00  0.00     0.062 A 
HETATM   33  C9  UNL     1     -73.727 -15.449  48.651  1.00  0.00    -0.034 A 
HETATM   34  C10 UNL     1     -73.752 -13.964  48.630  1.00  0.00     0.050 C 
HETATM   35  C11 UNL     1     -74.505 -16.145  49.551  1.00  0.00     0.009 A 
HETATM   36  C12 UNL     1     -74.494 -17.524  49.583  1.00  0.00     0.002 A 
HETATM   37  C13 UNL     1     -73.689 -18.220  48.697  1.00  0.00     0.026 A 
HETATM   38  C14 UNL     1     -72.922 -17.507  47.807  1.00  0.00     0.061 A 
HETATM   39 CL1  UNL     1     -71.902 -18.416  46.685  1.00  0.00    -0.082 Cl
ENDBRANCH  30  32
ENDBRANCH  26  28
ENDBRANCH   1  22
TORSDOF 8
ENDMDL
