MODEL 2
REMARK VINA RESULT: -9.394006566      1.021      1.559
REMARK  8 active torsions:
REMARK  status: ('A' for Active; 'I' for Inactive)
REMARK    1  A    between atoms: C3_5  and  N2_6 
REMARK    2  A    between atoms: N2_6  and  C4_8 
REMARK    3  A    between atoms: C6_12  and  C7_13 
REMARK       I    between atoms: C7_13  and  N4_15 
REMARK    4  A    between atoms: N4_15  and  C8_17 
REMARK    5  A    between atoms: C16_27  and  N5_28 
REMARK    6  A    between atoms: N6_31  and  C19_32 
REMARK    7  A    between atoms: C19_32  and  C20_33 
REMARK    8  A    between atoms: C20_33  and  O2_34 
ROOT
HETATM    1  N2  UNL     1     -66.865 -12.887  43.730  1.00  0.00    -0.323 N 
ATOM      2  H2  UNL     1     -66.986 -12.451  42.817  1.00  0.00     0.169 HD
ENDROOT
BRANCH   1   3
HETATM    3  C3  UNL     1     -65.580 -12.976  44.282  1.00  0.00     0.111 A 
HETATM    4  N1  UNL     1     -64.531 -13.150  43.450  1.00  0.00    -0.332 N 
HETATM    5  C2  UNL     1     -63.307 -13.234  43.958  1.00  0.00     0.080 A 
ATOM      6  H1  UNL     1     -64.676 -13.216  42.442  1.00  0.00     0.168 HD
HETATM    7  C1  UNL     1     -62.162 -13.424  43.047  1.00  0.00     0.089 C 
HETATM    8  N7  UNL     1     -63.106 -13.151  45.281  1.00  0.00    -0.332 N 
HETATM    9  C16 UNL     1     -64.121 -12.978  46.154  1.00  0.00     0.108 A 
ATOM     10  H7  UNL     1     -62.154 -13.219  45.639  1.00  0.00     0.168 HD
HETATM   11  C15 UNL     1     -65.422 -12.885  45.647  1.00  0.00     0.097 A 
BRANCH   9  12
HETATM   12  N5  UNL     1     -63.894 -12.890  47.542  1.00  0.00    -0.364 N 
HETATM   13  C17 UNL     1     -62.761 -12.157  48.038  1.00  0.00     0.154 C 
HETATM   14  C18 UNL     1     -62.315 -12.896  49.308  1.00  0.00     0.292 C 
HETATM   15  N6  UNL     1     -63.298 -12.873  50.341  1.00  0.00     0.093 N 
HETATM   16  C21 UNL     1     -64.631 -12.747  49.787  1.00  0.00     0.292 C 
HETATM   17  C22 UNL     1     -64.783 -13.526  48.476  1.00  0.00     0.154 C 
BRANCH  15  18
HETATM   18  C19 UNL     1     -63.130 -11.770  51.267  1.00  0.00     0.298 C 
BRANCH  18  19
HETATM   19  C20 UNL     1     -64.432 -11.158  51.697  1.00  0.00     0.194 C 
BRANCH  19  20
HETATM   20  O2  UNL     1     -64.228  -9.910  52.294  1.00  0.00    -0.399 OA
ATOM     21  H2  UNL     1     -64.610  -9.881  53.163  1.00  0.00     0.209 HD
ENDBRANCH  19  20
ENDBRANCH  18  19
ENDBRANCH  15  18
ENDBRANCH   9  12
ENDBRANCH   1   3
BRANCH   1  22
HETATM   22  C4  UNL     1     -68.026 -13.399  44.425  1.00  0.00     0.150 A 
HETATM   23  N3  UNL     1     -69.304 -13.235  44.120  1.00  0.00    -0.345 N 
HETATM   24  C5  UNL     1     -70.212 -13.771  44.863  1.00  0.00     0.115 A 
ATOM     25  H3  UNL     1     -69.569 -12.687  43.302  1.00  0.00     0.167 HD
HETATM   26  C6  UNL     1     -69.805 -14.498  45.953  1.00  0.00     0.091 A 
HETATM   27  S1  UNL     1     -68.109 -14.362  45.837  1.00  0.00    -0.047 SA
BRANCH  26  28
HETATM   28  C7  UNL     1     -70.619 -15.203  46.950  1.00  0.00     0.264 C 
HETATM   29  O1  UNL     1     -70.094 -15.509  48.029  1.00  0.00    -0.267 OA
HETATM   30  N4  UNL     1     -71.972 -15.538  46.715  1.00  0.00    -0.320 N 
ATOM     31  H4  UNL     1     -72.379 -15.275  45.817  1.00  0.00     0.169 HD
BRANCH  30  32
HETATM   32  C8  UNL     1     -72.802 -16.218  47.645  1.00  0.00     0.062 A 
HETATM   33  C9  UNL     1     -72.891 -17.581  47.728  1.00  0.00    -0.034 A 
HETATM   34  C10 UNL     1     -72.090 -18.427  46.809  1.00  0.00     0.050 C 
HETATM   35  C11 UNL     1     -73.723 -18.161  48.661  1.00  0.00     0.009 A 
HETATM   36  C12 UNL     1     -74.474 -17.389  49.523  1.00  0.00     0.002 A 
HETATM   37  C13 UNL     1     -74.392 -16.009  49.449  1.00  0.00     0.026 A 
HETATM   38  C14 UNL     1     -73.556 -15.450  48.511  1.00  0.00     0.061 A 
HETATM   39 CL1  UNL     1     -73.467 -13.686  48.434  1.00  0.00    -0.082 Cl
ENDBRANCH  30  32
ENDBRANCH  26  28
ENDBRANCH   1  22
TORSDOF 8
ENDMDL
