MODEL 4
REMARK VINA RESULT: -9.189338162      2.560      4.577
REMARK  8 active torsions:
REMARK  status: ('A' for Active; 'I' for Inactive)
REMARK    1  A    between atoms: C3_5  and  N2_6 
REMARK    2  A    between atoms: N2_6  and  C4_8 
REMARK    3  A    between atoms: C6_12  and  C7_13 
REMARK       I    between atoms: C7_13  and  N4_15 
REMARK    4  A    between atoms: N4_15  and  C8_17 
REMARK    5  A    between atoms: C16_27  and  N5_28 
REMARK    6  A    between atoms: N6_31  and  C19_32 
REMARK    7  A    between atoms: C19_32  and  C20_33 
REMARK    8  A    between atoms: C20_33  and  O2_34 
ROOT
HETATM    1  N2  UNL     1     -67.084 -13.067  43.593  1.00  0.00    -0.323 N 
ATOM      2  H2  UNL     1     -67.204 -12.775  42.624  1.00  0.00     0.169 HD
ENDROOT
BRANCH   1   3
HETATM    3  C3  UNL     1     -65.808 -13.017  44.171  1.00  0.00     0.111 A 
HETATM    4  N1  UNL     1     -65.693 -13.211  45.502  1.00  0.00    -0.332 N 
HETATM    5  C2  UNL     1     -64.490 -13.167  46.062  1.00  0.00     0.080 A 
ATOM      6  H1  UNL     1     -66.521 -13.389  46.071  1.00  0.00     0.168 HD
HETATM    7  C1  UNL     1     -64.367 -13.381  47.517  1.00  0.00     0.089 C 
HETATM    8  N7  UNL     1     -63.397 -12.933  45.323  1.00  0.00    -0.332 N 
HETATM    9  C16 UNL     1     -63.458 -12.731  43.990  1.00  0.00     0.108 A 
ATOM     10  H7  UNL     1     -62.488 -12.905  45.784  1.00  0.00     0.168 HD
HETATM   11  C15 UNL     1     -64.713 -12.772  43.372  1.00  0.00     0.097 A 
BRANCH   9  12
HETATM   12  N5  UNL     1     -62.301 -12.487  43.226  1.00  0.00    -0.364 N 
HETATM   13  C17 UNL     1     -62.062 -11.175  42.686  1.00  0.00     0.154 C 
HETATM   14  C18 UNL     1     -61.344 -11.403  41.349  1.00  0.00     0.292 C 
HETATM   15  N6  UNL     1     -60.067 -12.019  41.498  1.00  0.00     0.093 N 
HETATM   16  C21 UNL     1     -60.017 -12.824  42.703  1.00  0.00     0.292 C 
HETATM   17  C22 UNL     1     -61.348 -13.533  42.974  1.00  0.00     0.154 C 
BRANCH  15  18
HETATM   18  C19 UNL     1     -58.979 -11.065  41.594  1.00  0.00     0.298 C 
BRANCH  18  19
HETATM   19  C20 UNL     1     -58.385 -10.986  42.971  1.00  0.00     0.194 C 
BRANCH  19  20
HETATM   20  O2  UNL     1     -58.619  -9.733  43.548  1.00  0.00    -0.399 OA
ATOM     21  H2  UNL     1     -58.527  -9.039  42.906  1.00  0.00     0.209 HD
ENDBRANCH  19  20
ENDBRANCH  18  19
ENDBRANCH  15  18
ENDBRANCH   9  12
ENDBRANCH   1   3
BRANCH   1  22
HETATM   22  C4  UNL     1     -68.236 -13.522  44.339  1.00  0.00     0.150 A 
HETATM   23  N3  UNL     1     -69.518 -13.326  44.071  1.00  0.00    -0.345 N 
HETATM   24  C5  UNL     1     -70.418 -13.813  44.857  1.00  0.00     0.115 A 
ATOM     25  H3  UNL     1     -69.793 -12.792  43.246  1.00  0.00     0.167 HD
HETATM   26  C6  UNL     1     -69.998 -14.523  45.953  1.00  0.00     0.091 A 
HETATM   27  S1  UNL     1     -68.303 -14.445  45.779  1.00  0.00    -0.047 SA
BRANCH  26  28
HETATM   28  C7  UNL     1     -70.800 -15.175  46.996  1.00  0.00     0.264 C 
HETATM   29  O1  UNL     1     -70.258 -15.438  48.077  1.00  0.00    -0.267 OA
HETATM   30  N4  UNL     1     -72.160 -15.506  46.799  1.00  0.00    -0.320 N 
ATOM     31  H4  UNL     1     -72.582 -15.278  45.898  1.00  0.00     0.169 HD
BRANCH  30  32
HETATM   32  C8  UNL     1     -72.979 -16.136  47.774  1.00  0.00     0.062 A 
HETATM   33  C9  UNL     1     -73.765 -15.453  48.660  1.00  0.00    -0.034 A 
HETATM   34  C10 UNL     1     -73.789 -13.969  48.630  1.00  0.00     0.050 C 
HETATM   35  C11 UNL     1     -74.531 -16.142  49.576  1.00  0.00     0.009 A 
HETATM   36  C12 UNL     1     -74.521 -17.521  49.618  1.00  0.00     0.002 A 
HETATM   37  C13 UNL     1     -73.729 -18.224  48.725  1.00  0.00     0.026 A 
HETATM   38  C14 UNL     1     -72.973 -17.517  47.820  1.00  0.00     0.061 A 
HETATM   39 CL1  UNL     1     -71.969 -18.434  46.690  1.00  0.00    -0.082 Cl
ENDBRANCH  30  32
ENDBRANCH  26  28
ENDBRANCH   1  22
TORSDOF 8
ENDMDL
