MODEL 3
REMARK VINA RESULT: -8.168932967      3.739     13.125
REMARK  6 active torsions:
REMARK  status: ('A' for Active; 'I' for Inactive)
REMARK    1  A    between atoms: O1_2  and  C2_3 
REMARK    2  A    between atoms: C2_3  and  C3_4 
REMARK    3  A    between atoms: C2_3  and  C21_33 
REMARK       I    between atoms: C3_4  and  N1_6 
REMARK    4  A    between atoms: C6_13  and  N4_14 
REMARK       I    between atoms: N4_14  and  C7_16 
REMARK    5  A    between atoms: C7_16  and  C8_18 
REMARK    6  A    between atoms: C11_21  and  N5_22 
ROOT
HETATM    1  C3  UNL     1     -91.939 -12.478  43.335  1.00  0.00     0.261 C 
HETATM    2  O2  UNL     1     -91.622 -12.492  44.583  1.00  0.00    -0.269 OA
HETATM    3  N1  UNL     1     -93.194 -13.012  42.990  1.00  0.00    -0.298 N 
HETATM    4  C4  UNL     1     -93.764 -13.121  41.780  1.00  0.00     0.131 A 
HETATM    5  C5  UNL     1     -95.022 -13.710  41.954  1.00  0.00     0.079 A 
HETATM    6  N2  UNL     1     -96.137 -14.135  41.331  1.00  0.00    -0.297 N 
ATOM      7  H2  UNL     1     -96.309 -14.089  40.326  1.00  0.00     0.187 HD
HETATM    8  N3  UNL     1     -96.980 -14.627  42.240  1.00  0.00    -0.284 N 
ATOM      9  H3  UNL     1     -97.901 -15.017  42.038  1.00  0.00     0.188 HD
HETATM   10  C6  UNL     1     -96.434 -14.531  43.460  1.00  0.00     0.137 A 
HETATM   11  C19 UNL     1     -95.207 -13.957  43.284  1.00  0.00     0.055 A 
HETATM   12  C20 UNL     1     -94.069 -13.521  43.907  1.00  0.00     0.117 A 
ENDROOT
BRANCH  10  13
HETATM   13  N4  UNL     1     -97.042 -14.961  44.692  1.00  0.00    -0.307 N 
HETATM   14  C7  UNL     1     -98.422 -14.795  44.941  1.00  0.00     0.257 C 
HETATM   15  O3  UNL     1     -99.098 -14.247  44.037  1.00  0.00    -0.267 OA
ATOM     16  H4  UNL     1     -96.459 -15.398  45.406  1.00  0.00     0.170 HD
BRANCH  14  17
HETATM   17  C8  UNL     1     -99.092 -15.214  46.156  1.00  0.00     0.032 A 
HETATM   18  C9  UNL     1    -100.372 -15.695  46.151  1.00  0.00     0.019 A 
HETATM   19  C10 UNL     1    -100.968 -16.081  47.333  1.00  0.00     0.030 A 
HETATM   20  C11 UNL     1    -100.335 -16.012  48.571  1.00  0.00     0.030 A 
HETATM   21  C17 UNL     1     -99.047 -15.522  48.543  1.00  0.00     0.030 A 
HETATM   22  C18 UNL     1     -98.424 -15.126  47.354  1.00  0.00     0.019 A 
BRANCH  20  23
HETATM   23  N5  UNL     1    -101.007 -16.409  49.750  1.00  0.00    -0.378 N 
HETATM   24  C12 UNL     1    -100.537 -17.435  50.628  1.00  0.00     0.153 C 
HETATM   25  C13 UNL     1    -100.250 -16.903  52.019  1.00  0.00     0.291 C 
HETATM   26  N6  UNL     1    -101.069 -15.740  52.307  1.00  0.00     0.087 N 
HETATM   27  C14 UNL     1    -101.224 -15.491  53.726  1.00  0.00     0.310 C 
HETATM   28  C15 UNL     1    -102.348 -15.804  51.631  1.00  0.00     0.291 C 
HETATM   29  C16 UNL     1    -102.241 -15.748  50.128  1.00  0.00     0.153 C 
ENDBRANCH  20  23
ENDBRANCH  14  17
ENDBRANCH  10  13
BRANCH   1  30
HETATM   30  C2  UNL     1     -90.934 -11.899  42.451  1.00  0.00     0.246 C 
BRANCH  30  31
HETATM   31  O1  UNL     1     -89.725 -11.753  43.074  1.00  0.00    -0.377 OA
HETATM   32  C1  UNL     1     -88.708 -12.556  42.629  1.00  0.00     0.203 C 
ENDBRANCH  30  31
BRANCH  30  33
HETATM   33  C21 UNL     1     -91.354 -10.697  41.701  1.00  0.00    -0.020 A 
HETATM   34  C22 UNL     1     -92.155  -9.720  42.242  1.00  0.00     0.010 A 
HETATM   35  C23 UNL     1     -92.515  -8.639  41.472  1.00  0.00     0.001 A 
HETATM   36  C24 UNL     1     -92.096  -8.500  40.172  1.00  0.00     0.000 A 
HETATM   37  C25 UNL     1     -91.294  -9.484  39.643  1.00  0.00     0.001 A 
HETATM   38  C26 UNL     1     -90.934 -10.569  40.414  1.00  0.00     0.010 A 
ENDBRANCH  30  33
ENDBRANCH   1  30
TORSDOF 6
ENDMDL
