MODEL 1
REMARK VINA RESULT: -8.394112380      0.000      0.000
REMARK  6 active torsions:
REMARK  status: ('A' for Active; 'I' for Inactive)
REMARK    1  A    between atoms: O1_2  and  C2_3 
REMARK    2  A    between atoms: C2_3  and  C3_4 
REMARK    3  A    between atoms: C2_3  and  C21_33 
REMARK       I    between atoms: C3_4  and  N1_6 
REMARK    4  A    between atoms: C6_13  and  N4_14 
REMARK       I    between atoms: N4_14  and  C7_16 
REMARK    5  A    between atoms: C7_16  and  C8_18 
REMARK    6  A    between atoms: C11_21  and  N5_22 
ROOT
HETATM    1  C3  UNL     1    -100.399 -15.960  54.677  1.00  0.00     0.261 C 
HETATM    2  O2  UNL     1     -99.111 -15.957  54.711  1.00  0.00    -0.269 OA
HETATM    3  N1  UNL     1    -101.004 -15.776  53.420  1.00  0.00    -0.298 N 
HETATM    4  C4  UNL     1    -102.308 -15.735  53.106  1.00  0.00     0.131 A 
HETATM    5  C5  UNL     1    -102.407 -15.541  51.723  1.00  0.00     0.079 A 
HETATM    6  N2  UNL     1    -103.253 -15.399  50.687  1.00  0.00    -0.297 N 
ATOM      7  H2  UNL     1    -104.272 -15.411  50.748  1.00  0.00     0.187 HD
HETATM    8  N3  UNL     1    -102.545 -15.240  49.568  1.00  0.00    -0.284 N 
ATOM      9  H3  UNL     1    -102.939 -15.111  48.636  1.00  0.00     0.188 HD
HETATM   10  C6  UNL     1    -101.237 -15.276  49.854  1.00  0.00     0.137 A 
HETATM   11  C19 UNL     1    -101.146 -15.464  51.203  1.00  0.00     0.055 A 
HETATM   12  C20 UNL     1    -100.294 -15.610  52.265  1.00  0.00     0.117 A 
ENDROOT
BRANCH  10  13
HETATM   13  N4  UNL     1    -100.162 -15.135  48.905  1.00  0.00    -0.307 N 
HETATM   14  C7  UNL     1    -100.220 -15.719  47.620  1.00  0.00     0.257 C 
HETATM   15  O3  UNL     1    -101.253 -16.374  47.342  1.00  0.00    -0.267 OA
ATOM     16  H4  UNL     1     -99.336 -14.599  49.169  1.00  0.00     0.170 HD
BRANCH  14  17
HETATM   17  C8  UNL     1     -99.176 -15.606  46.621  1.00  0.00     0.032 A 
HETATM   18  C9  UNL     1     -99.449 -15.301  45.317  1.00  0.00     0.019 A 
HETATM   19  C10 UNL     1     -98.422 -15.205  44.402  1.00  0.00     0.030 A 
HETATM   20  C11 UNL     1     -97.082 -15.404  44.726  1.00  0.00     0.030 A 
HETATM   21  C17 UNL     1     -96.840 -15.710  46.048  1.00  0.00     0.030 A 
HETATM   22  C18 UNL     1     -97.869 -15.811  46.992  1.00  0.00     0.019 A 
BRANCH  20  23
HETATM   23  N5  UNL     1     -96.076 -15.306  43.737  1.00  0.00    -0.378 N 
HETATM   24  C12 UNL     1     -96.335 -14.992  42.367  1.00  0.00     0.153 C 
HETATM   25  C13 UNL     1     -95.651 -13.707  41.941  1.00  0.00     0.291 C 
HETATM   26  N6  UNL     1     -94.463 -13.464  42.740  1.00  0.00     0.087 N 
HETATM   27  C14 UNL     1     -93.516 -12.578  42.096  1.00  0.00     0.310 C 
HETATM   28  C15 UNL     1     -93.839 -14.700  43.163  1.00  0.00     0.291 C 
HETATM   29  C16 UNL     1     -94.690 -15.516  44.104  1.00  0.00     0.153 C 
ENDBRANCH  20  23
ENDBRANCH  14  17
ENDBRANCH  10  13
BRANCH   1  30
HETATM   30  C2  UNL     1    -101.048 -16.159  55.967  1.00  0.00     0.246 C 
BRANCH  30  31
HETATM   31  O1  UNL     1    -100.155 -16.123  57.003  1.00  0.00    -0.377 OA
HETATM   32  C1  UNL     1    -100.116 -14.965  57.735  1.00  0.00     0.203 C 
ENDBRANCH  30  31
BRANCH  30  33
HETATM   33  C21 UNL     1    -101.988 -17.297  56.045  1.00  0.00    -0.020 A 
HETATM   34  C22 UNL     1    -101.761 -18.497  55.416  1.00  0.00     0.010 A 
HETATM   35  C23 UNL     1    -102.692 -19.503  55.525  1.00  0.00     0.001 A 
HETATM   36  C24 UNL     1    -103.849 -19.348  56.249  1.00  0.00     0.000 A 
HETATM   37  C25 UNL     1    -104.063 -18.142  56.875  1.00  0.00     0.001 A 
HETATM   38  C26 UNL     1    -103.130 -17.133  56.764  1.00  0.00     0.010 A 
ENDBRANCH  30  33
ENDBRANCH   1  30
TORSDOF 6
ENDMDL
