MODEL 2
REMARK VINA RESULT: -8.362884243      6.726     11.257
REMARK  6 active torsions:
REMARK  status: ('A' for Active; 'I' for Inactive)
REMARK    1  A    between atoms: O1_2  and  C2_3 
REMARK    2  A    between atoms: C2_3  and  C3_4 
REMARK    3  A    between atoms: C2_3  and  C21_33 
REMARK       I    between atoms: C3_4  and  N1_6 
REMARK    4  A    between atoms: C6_13  and  N4_14 
REMARK       I    between atoms: N4_14  and  C7_16 
REMARK    5  A    between atoms: C7_16  and  C8_18 
REMARK    6  A    between atoms: C11_21  and  N5_22 
ROOT
HETATM    1  C3  UNL     1     -96.951 -14.432  46.805  1.00  0.00     0.261 C 
HETATM    2  O2  UNL     1     -96.817 -13.157  46.671  1.00  0.00    -0.269 OA
HETATM    3  N1  UNL     1     -96.756 -14.961  48.094  1.00  0.00    -0.298 N 
HETATM    4  C4  UNL     1     -96.832 -16.236  48.505  1.00  0.00     0.131 A 
HETATM    5  C5  UNL     1     -96.568 -16.256  49.880  1.00  0.00     0.079 A 
HETATM    6  N2  UNL     1     -96.453 -17.036  50.970  1.00  0.00    -0.297 N 
ATOM      7  H2  UNL     1     -96.574 -18.049  50.989  1.00  0.00     0.187 HD
HETATM    8  N3  UNL     1     -96.157 -16.271  52.021  1.00  0.00    -0.284 N 
ATOM      9  H3  UNL     1     -96.014 -16.608  52.973  1.00  0.00     0.188 HD
HETATM   10  C6  UNL     1     -96.074 -14.990  51.637  1.00  0.00     0.137 A 
HETATM   11  C19 UNL     1     -96.331 -14.977  50.296  1.00  0.00     0.055 A 
HETATM   12  C20 UNL     1     -96.451 -14.193  49.181  1.00  0.00     0.117 A 
ENDROOT
BRANCH  10  13
HETATM   13  N4  UNL     1     -95.767 -13.871  52.491  1.00  0.00    -0.307 N 
HETATM   14  C7  UNL     1     -94.449 -13.599  52.918  1.00  0.00     0.257 C 
HETATM   15  O3  UNL     1     -93.552 -14.384  52.524  1.00  0.00    -0.267 OA
ATOM     16  H4  UNL     1     -96.523 -13.258  52.795  1.00  0.00     0.170 HD
BRANCH  14  17
HETATM   17  C8  UNL     1     -94.077 -12.486  53.769  1.00  0.00     0.032 A 
HETATM   18  C9  UNL     1     -93.623 -11.302  53.259  1.00  0.00     0.019 A 
HETATM   19  C10 UNL     1     -93.280 -10.271  54.108  1.00  0.00     0.030 A 
HETATM   20  C11 UNL     1     -93.368 -10.357  55.496  1.00  0.00     0.030 A 
HETATM   21  C17 UNL     1     -93.828 -11.563  55.979  1.00  0.00     0.030 A 
HETATM   22  C18 UNL     1     -94.182 -12.621  55.133  1.00  0.00     0.019 A 
BRANCH  20  23
HETATM   23  N5  UNL     1     -92.986  -9.268  56.313  1.00  0.00    -0.378 N 
HETATM   24  C12 UNL     1     -92.028  -9.363  57.370  1.00  0.00     0.153 C 
HETATM   25  C13 UNL     1     -90.827  -8.469  57.128  1.00  0.00     0.291 C 
HETATM   26  N6  UNL     1     -91.189  -7.329  56.303  1.00  0.00     0.087 N 
HETATM   27  C14 UNL     1     -90.275  -6.214  56.443  1.00  0.00     0.310 C 
HETATM   28  C15 UNL     1     -92.563  -6.927  56.517  1.00  0.00     0.291 C 
HETATM   29  C16 UNL     1     -93.571  -7.963  56.083  1.00  0.00     0.153 C 
ENDBRANCH  20  23
ENDBRANCH  14  17
ENDBRANCH  10  13
BRANCH   1  30
HETATM   30  C2  UNL     1     -97.292 -15.147  45.581  1.00  0.00     0.246 C 
BRANCH  30  31
HETATM   31  O1  UNL     1     -96.550 -14.720  44.513  1.00  0.00    -0.377 OA
HETATM   32  C1  UNL     1     -95.406 -15.425  44.244  1.00  0.00     0.203 C 
ENDBRANCH  30  31
BRANCH  30  33
HETATM   33  C21 UNL     1     -98.735 -15.259  45.282  1.00  0.00    -0.020 A 
HETATM   34  C22 UNL     1     -99.602 -15.994  46.053  1.00  0.00     0.010 A 
HETATM   35  C23 UNL     1    -100.929 -16.061  45.700  1.00  0.00     0.001 A 
HETATM   36  C24 UNL     1    -101.421 -15.410  44.595  1.00  0.00     0.000 A 
HETATM   37  C25 UNL     1    -100.543 -14.676  43.833  1.00  0.00     0.001 A 
HETATM   38  C26 UNL     1     -99.212 -14.611  44.186  1.00  0.00     0.010 A 
ENDBRANCH  30  33
ENDBRANCH   1  30
TORSDOF 6
ENDMDL
