MODEL 7
REMARK VINA RESULT: -8.668785333      3.945      9.590
REMARK  5 active torsions:
REMARK  status: ('A' for Active; 'I' for Inactive)
REMARK    1  A    between atoms: O1_2  and  C2_3 
REMARK    2  A    between atoms: C4_5  and  N1_6 
REMARK    3  A    between atoms: N1_6  and  C5_8 
REMARK    4  A    between atoms: C21_30  and  O2_31 
REMARK    5  A    between atoms: C26_38  and  C27_39 
ROOT
HETATM    1  C5  UNL     1     -26.686  -3.578 -27.752  1.00  0.00     0.683 A 
HETATM    2  N2  UNL     1     -26.559  -2.930 -26.598  1.00  0.00    -0.201 N 
ATOM      3  H2  UNL     1     -26.662  -1.915 -26.610  1.00  0.00     0.183 HD
HETATM    4  C6  UNL     1     -26.302  -3.522 -25.405  1.00  0.00     0.117 A 
HETATM    5  C7  UNL     1     -26.154  -4.873 -25.332  1.00  0.00     0.004 A 
HETATM    6  C8  UNL     1     -26.287  -5.560 -26.553  1.00  0.00     0.069 A 
HETATM    7  N3  UNL     1     -26.538  -4.954 -27.696  1.00  0.00    -0.190 N 
ATOM      8  H3  UNL     1     -26.626  -5.505 -28.550  1.00  0.00     0.184 HD
HETATM    9  C9  UNL     1     -26.201  -7.009 -26.686  1.00  0.00     0.004 A 
HETATM   10  C10 UNL     1     -26.992  -7.501 -27.689  1.00  0.00     0.016 A 
HETATM   11  C11 UNL     1     -27.141  -8.879 -27.845  1.00  0.00     0.025 A 
HETATM   12  C12 UNL     1     -26.459  -9.710 -26.943  1.00  0.00     0.035 A 
HETATM   13 CL1  UNL     1     -26.629 -11.450 -27.124  1.00  0.00    -0.084 Cl
HETATM   14  C13 UNL     1     -25.660  -9.228 -25.931  1.00  0.00     0.038 A 
HETATM   15  C14 UNL     1     -25.541  -7.843 -25.826  1.00  0.00     0.005 A 
HETATM   16  C15 UNL     1     -24.637  -7.489 -24.764  1.00  0.00     0.055 C 
HETATM   17  C16 UNL     1     -23.497  -8.290 -24.447  1.00  0.00     0.063 A 
HETATM   18  C17 UNL     1     -22.886  -8.047 -23.201  1.00  0.00     0.131 A 
HETATM   19  F1  UNL     1     -23.507  -7.197 -22.319  1.00  0.00    -0.205 F 
HETATM   20  C18 UNL     1     -21.703  -8.614 -22.810  1.00  0.00     0.043 A 
HETATM   21  C19 UNL     1     -21.048  -9.475 -23.664  1.00  0.00     0.006 A 
HETATM   22  C20 UNL     1     -21.607  -9.735 -24.887  1.00  0.00     0.038 A 
HETATM   23  C21 UNL     1     -22.817  -9.137 -25.259  1.00  0.00     0.083 A 
HETATM   24  N4  UNL     1     -24.843  -6.436 -23.983  1.00  0.00    -0.384 N 
ATOM     25  H4  UNL     1     -24.133  -6.298 -23.263  1.00  0.00     0.160 HD
HETATM   26  C23 UNL     1     -25.899  -5.451 -23.976  1.00  0.00     0.162 C 
ENDROOT
BRANCH   1  27
HETATM   27  N1  UNL     1     -26.954  -2.989 -29.012  1.00  0.00    -0.192 N 
ATOM     28  H1  UNL     1     -27.096  -3.612 -29.807  1.00  0.00     0.184 HD
BRANCH  27  29
HETATM   29  C4  UNL     1     -27.038  -1.618 -29.238  1.00  0.00     0.051 A 
HETATM   30  C3  UNL     1     -28.265  -0.942 -29.013  1.00  0.00     0.067 A 
HETATM   31  C2  UNL     1     -28.395   0.397 -29.241  1.00  0.00     0.087 A 
HETATM   32  C26 UNL     1     -27.330   1.137 -29.700  1.00  0.00     0.074 A 
HETATM   33  C25 UNL     1     -26.131   0.510 -29.927  1.00  0.00     0.023 A 
HETATM   34  C24 UNL     1     -25.993  -0.870 -29.694  1.00  0.00     0.031 A 
BRANCH  31  35
HETATM   35  O1  UNL     1     -29.618   1.043 -29.011  1.00  0.00    -0.355 OA
HETATM   36  C1  UNL     1     -30.322   0.843 -27.799  1.00  0.00     0.210 C 
ENDBRANCH  31  35
BRANCH  32  37
HETATM   37  C27 UNL     1     -27.454   2.587 -29.953  1.00  0.00     0.212 C 
HETATM   38  O3  UNL     1     -27.046   3.415 -29.130  1.00  0.00    -0.644 OA
HETATM   39  O4  UNL     1     -28.040   2.981 -31.136  1.00  0.00    -0.644 OA
ENDBRANCH  32  37
ENDBRANCH  27  29
ENDBRANCH   1  27
BRANCH  23  40
HETATM   40  O2  UNL     1     -23.275  -9.446 -26.515  1.00  0.00    -0.355 OA
HETATM   41  C22 UNL     1     -22.790 -10.514 -27.268  1.00  0.00     0.210 C 
ENDBRANCH  23  40
TORSDOF 5
ENDMDL
