MODEL 5
REMARK VINA RESULT: -8.883454625      1.145      1.402
REMARK  5 active torsions:
REMARK  status: ('A' for Active; 'I' for Inactive)
REMARK    1  A    between atoms: O1_2  and  C2_3 
REMARK    2  A    between atoms: C4_5  and  N1_6 
REMARK    3  A    between atoms: N1_6  and  C5_8 
REMARK    4  A    between atoms: C21_30  and  O2_31 
REMARK    5  A    between atoms: C26_38  and  C27_39 
ROOT
HETATM    1  C5  UNL     1     -25.393  -2.797 -29.106  1.00  0.00     0.683 A 
HETATM    2  N2  UNL     1     -24.959  -1.856 -29.939  1.00  0.00    -0.201 N 
ATOM      3  H2  UNL     1     -24.086  -2.029 -30.438  1.00  0.00     0.183 HD
HETATM    4  C6  UNL     1     -25.595  -0.681 -30.173  1.00  0.00     0.117 A 
HETATM    5  C7  UNL     1     -26.763  -0.397 -29.534  1.00  0.00     0.004 A 
HETATM    6  C8  UNL     1     -27.222  -1.392 -28.650  1.00  0.00     0.069 A 
HETATM    7  N3  UNL     1     -26.580  -2.525 -28.447  1.00  0.00    -0.190 N 
ATOM      8  H3  UNL     1     -26.963  -3.210 -27.795  1.00  0.00     0.184 HD
HETATM    9  C9  UNL     1     -28.467  -1.301 -27.898  1.00  0.00     0.004 A 
HETATM   10  C10 UNL     1     -29.053  -2.520 -27.688  1.00  0.00     0.016 A 
HETATM   11  C11 UNL     1     -30.325  -2.591 -27.119  1.00  0.00     0.025 A 
HETATM   12  C12 UNL     1     -30.954  -1.381 -26.787  1.00  0.00     0.035 A 
HETATM   13 CL1  UNL     1     -32.555  -1.448 -26.064  1.00  0.00    -0.084 Cl
HETATM   14  C13 UNL     1     -30.375  -0.150 -26.992  1.00  0.00     0.038 A 
HETATM   15  C14 UNL     1     -29.100  -0.138 -27.556  1.00  0.00     0.005 A 
HETATM   16  C15 UNL     1     -28.601   1.208 -27.660  1.00  0.00     0.055 C 
HETATM   17  C16 UNL     1     -28.917   2.205 -26.688  1.00  0.00     0.063 A 
HETATM   18  C17 UNL     1     -28.670   3.542 -27.056  1.00  0.00     0.131 A 
HETATM   19  F1  UNL     1     -28.308   3.810 -28.353  1.00  0.00    -0.205 F 
HETATM   20  C18 UNL     1     -28.770   4.601 -26.194  1.00  0.00     0.043 A 
HETATM   21  C19 UNL     1     -29.133   4.376 -24.883  1.00  0.00     0.006 A 
HETATM   22  C20 UNL     1     -29.379   3.090 -24.483  1.00  0.00     0.038 A 
HETATM   23  C21 UNL     1     -29.265   2.028 -25.389  1.00  0.00     0.083 A 
HETATM   24  N4  UNL     1     -27.873   1.613 -28.693  1.00  0.00    -0.384 N 
ATOM     25  H4  UNL     1     -27.588   2.592 -28.651  1.00  0.00     0.160 HD
HETATM   26  C23 UNL     1     -27.414   0.908 -29.866  1.00  0.00     0.162 C 
ENDROOT
BRANCH   1  27
HETATM   27  N1  UNL     1     -24.754  -4.033 -28.841  1.00  0.00    -0.192 N 
ATOM     28  H1  UNL     1     -23.869  -4.221 -29.312  1.00  0.00     0.184 HD
BRANCH  27  29
HETATM   29  C4  UNL     1     -25.252  -5.008 -27.980  1.00  0.00     0.051 A 
HETATM   30  C3  UNL     1     -25.958  -4.620 -26.813  1.00  0.00     0.067 A 
HETATM   31  C2  UNL     1     -26.446  -5.543 -25.933  1.00  0.00     0.087 A 
HETATM   32  C26 UNL     1     -26.264  -6.888 -26.156  1.00  0.00     0.074 A 
HETATM   33  C25 UNL     1     -25.584  -7.293 -27.277  1.00  0.00     0.023 A 
HETATM   34  C24 UNL     1     -25.080  -6.345 -28.186  1.00  0.00     0.031 A 
BRANCH  31  35
HETATM   35  O1  UNL     1     -27.141  -5.136 -24.786  1.00  0.00    -0.355 OA
HETATM   36  C1  UNL     1     -27.345  -3.761 -24.518  1.00  0.00     0.210 C 
ENDBRANCH  31  35
BRANCH  32  37
HETATM   37  C27 UNL     1     -26.784  -7.901 -25.214  1.00  0.00     0.212 C 
HETATM   38  O3  UNL     1     -27.897  -8.412 -25.379  1.00  0.00    -0.644 OA
HETATM   39  O4  UNL     1     -25.984  -8.250 -24.148  1.00  0.00    -0.644 OA
ENDBRANCH  32  37
ENDBRANCH  27  29
ENDBRANCH   1  27
BRANCH  23  40
HETATM   40  O2  UNL     1     -29.509   0.778 -24.878  1.00  0.00    -0.355 OA
HETATM   41  C22 UNL     1     -28.825   0.247 -23.785  1.00  0.00     0.210 C 
ENDBRANCH  23  40
TORSDOF 5
ENDMDL
