MODEL 9
REMARK VINA RESULT: -8.337677372      3.945      9.632
REMARK  5 active torsions:
REMARK  status: ('A' for Active; 'I' for Inactive)
REMARK    1  A    between atoms: O1_2  and  C2_3 
REMARK    2  A    between atoms: C4_5  and  N1_6 
REMARK    3  A    between atoms: N1_6  and  C5_8 
REMARK    4  A    between atoms: C21_30  and  O2_31 
REMARK    5  A    between atoms: C26_38  and  C27_39 
ROOT
HETATM    1  C5  UNL     1     -27.745  -3.817 -26.680  1.00  0.00     0.683 A 
HETATM    2  N2  UNL     1     -27.242  -3.223 -25.602  1.00  0.00    -0.201 N 
ATOM      3  H2  UNL     1     -27.333  -2.209 -25.534  1.00  0.00     0.183 HD
HETATM    4  C6  UNL     1     -26.618  -3.869 -24.585  1.00  0.00     0.117 A 
HETATM    5  C7  UNL     1     -26.469  -5.222 -24.626  1.00  0.00     0.004 A 
HETATM    6  C8  UNL     1     -26.999  -5.852 -25.767  1.00  0.00     0.069 A 
HETATM    7  N3  UNL     1     -27.603  -5.194 -26.737  1.00  0.00    -0.190 N 
ATOM      8  H3  UNL     1     -27.969  -5.705 -27.540  1.00  0.00     0.184 HD
HETATM    9  C9  UNL     1     -26.977  -7.293 -25.986  1.00  0.00     0.004 A 
HETATM   10  C10 UNL     1     -28.057  -7.740 -26.698  1.00  0.00     0.016 A 
HETATM   11  C11 UNL     1     -28.264  -9.111 -26.860  1.00  0.00     0.025 A 
HETATM   12  C12 UNL     1     -27.334  -9.979 -26.267  1.00  0.00     0.035 A 
HETATM   13 CL1  UNL     1     -27.574 -11.710 -26.462  1.00  0.00    -0.084 Cl
HETATM   14  C13 UNL     1     -26.245  -9.542 -25.550  1.00  0.00     0.038 A 
HETATM   15  C14 UNL     1     -26.083  -8.162 -25.426  1.00  0.00     0.005 A 
HETATM   16  C15 UNL     1     -24.878  -7.854 -24.702  1.00  0.00     0.055 C 
HETATM   17  C16 UNL     1     -23.707  -8.664 -24.810  1.00  0.00     0.063 A 
HETATM   18  C17 UNL     1     -22.721  -8.477 -23.821  1.00  0.00     0.131 A 
HETATM   19  F1  UNL     1     -23.011  -7.671 -22.748  1.00  0.00    -0.205 F 
HETATM   20  C18 UNL     1     -21.481  -9.056 -23.863  1.00  0.00     0.043 A 
HETATM   21  C19 UNL     1     -21.149  -9.874 -24.922  1.00  0.00     0.006 A 
HETATM   22  C20 UNL     1     -22.078 -10.078 -25.906  1.00  0.00     0.038 A 
HETATM   23  C21 UNL     1     -23.337  -9.470 -25.837  1.00  0.00     0.083 A 
HETATM   24  N4  UNL     1     -24.808  -6.840 -23.849  1.00  0.00    -0.384 N 
ATOM     25  H4  UNL     1     -23.901  -6.732 -23.395  1.00  0.00     0.160 HD
HETATM   26  C23 UNL     1     -25.793  -5.861 -23.454  1.00  0.00     0.162 C 
ENDROOT
BRANCH   1  27
HETATM   27  N1  UNL     1     -28.403  -3.172 -27.755  1.00  0.00    -0.192 N 
ATOM     28  H1  UNL     1     -29.155  -3.677 -28.224  1.00  0.00     0.184 HD
BRANCH  27  29
HETATM   29  C4  UNL     1     -28.091  -1.896 -28.216  1.00  0.00     0.051 A 
HETATM   30  C3  UNL     1     -29.009  -0.833 -28.016  1.00  0.00     0.067 A 
HETATM   31  C2  UNL     1     -28.751   0.429 -28.469  1.00  0.00     0.087 A 
HETATM   32  C26 UNL     1     -27.582   0.707 -29.138  1.00  0.00     0.074 A 
HETATM   33  C25 UNL     1     -26.675  -0.301 -29.347  1.00  0.00     0.023 A 
HETATM   34  C24 UNL     1     -26.937  -1.602 -28.882  1.00  0.00     0.031 A 
BRANCH  31  35
HETATM   35  O1  UNL     1     -29.673   1.463 -28.260  1.00  0.00    -0.355 OA
HETATM   36  C1  UNL     1     -30.736   1.305 -27.338  1.00  0.00     0.210 C 
ENDBRANCH  31  35
BRANCH  32  37
HETATM   37  C27 UNL     1     -27.287   2.067 -29.636  1.00  0.00     0.212 C 
HETATM   38  O3  UNL     1     -27.516   2.379 -30.810  1.00  0.00    -0.644 OA
HETATM   39  O4  UNL     1     -26.748   2.969 -28.745  1.00  0.00    -0.644 OA
ENDBRANCH  32  37
ENDBRANCH  27  29
ENDBRANCH   1  27
BRANCH  23  40
HETATM   40  O2  UNL     1     -24.182  -9.721 -26.888  1.00  0.00    -0.355 OA
HETATM   41  C22 UNL     1     -23.742 -10.132 -28.146  1.00  0.00     0.210 C 
ENDBRANCH  23  40
TORSDOF 5
ENDMDL
