MODEL 8
REMARK VINA RESULT: -8.390794791      3.941      9.405
REMARK  5 active torsions:
REMARK  status: ('A' for Active; 'I' for Inactive)
REMARK    1  A    between atoms: O1_2  and  C2_3 
REMARK    2  A    between atoms: C4_5  and  N1_6 
REMARK    3  A    between atoms: N1_6  and  C5_8 
REMARK    4  A    between atoms: C21_30  and  O2_31 
REMARK    5  A    between atoms: C26_38  and  C27_39 
ROOT
HETATM    1  C5  UNL     1     -27.900  -3.560 -26.606  1.00  0.00     0.683 A 
HETATM    2  N2  UNL     1     -27.376  -2.921 -25.563  1.00  0.00    -0.201 N 
ATOM      3  H2  UNL     1     -27.451  -1.904 -25.544  1.00  0.00     0.183 HD
HETATM    4  C6  UNL     1     -26.748  -3.526 -24.524  1.00  0.00     0.117 A 
HETATM    5  C7  UNL     1     -26.619  -4.882 -24.501  1.00  0.00     0.004 A 
HETATM    6  C8  UNL     1     -27.171  -5.558 -25.604  1.00  0.00     0.069 A 
HETATM    7  N3  UNL     1     -27.777  -4.939 -26.598  1.00  0.00    -0.190 N 
ATOM      8  H3  UNL     1     -28.160  -5.483 -27.371  1.00  0.00     0.184 HD
HETATM    9  C9  UNL     1     -27.172  -7.008 -25.753  1.00  0.00     0.004 A 
HETATM   10  C10 UNL     1     -28.266  -7.474 -26.430  1.00  0.00     0.016 A 
HETATM   11  C11 UNL     1     -28.495  -8.847 -26.523  1.00  0.00     0.025 A 
HETATM   12  C12 UNL     1     -27.570  -9.700 -25.900  1.00  0.00     0.035 A 
HETATM   13 CL1  UNL     1     -27.836 -11.434 -26.008  1.00  0.00    -0.084 Cl
HETATM   14  C13 UNL     1     -26.466  -9.244 -25.217  1.00  0.00     0.038 A 
HETATM   15  C14 UNL     1     -26.283  -7.863 -25.162  1.00  0.00     0.005 A 
HETATM   16  C15 UNL     1     -25.066  -7.537 -24.467  1.00  0.00     0.055 C 
HETATM   17  C16 UNL     1     -23.907  -8.368 -24.550  1.00  0.00     0.063 A 
HETATM   18  C17 UNL     1     -22.907  -8.148 -23.582  1.00  0.00     0.131 A 
HETATM   19  F1  UNL     1     -23.173  -7.288 -22.546  1.00  0.00    -0.205 F 
HETATM   20  C18 UNL     1     -21.675  -8.746 -23.610  1.00  0.00     0.043 A 
HETATM   21  C19 UNL     1     -21.368  -9.619 -24.632  1.00  0.00     0.006 A 
HETATM   22  C20 UNL     1     -22.312  -9.858 -25.594  1.00  0.00     0.038 A 
HETATM   23  C21 UNL     1     -23.561  -9.228 -25.540  1.00  0.00     0.083 A 
HETATM   24  N4  UNL     1     -24.971  -6.484 -23.666  1.00  0.00    -0.384 N 
ATOM     25  H4  UNL     1     -24.057  -6.368 -23.228  1.00  0.00     0.160 HD
HETATM   26  C23 UNL     1     -25.937  -5.473 -23.308  1.00  0.00     0.162 C 
ENDROOT
BRANCH   1  27
HETATM   27  N1  UNL     1     -28.561  -2.958 -27.704  1.00  0.00    -0.192 N 
ATOM     28  H1  UNL     1     -29.283  -3.499 -28.179  1.00  0.00     0.184 HD
BRANCH  27  29
HETATM   29  C4  UNL     1     -28.291  -1.677 -28.178  1.00  0.00     0.051 A 
HETATM   30  C3  UNL     1     -27.146  -1.452 -28.984  1.00  0.00     0.067 A 
HETATM   31  C2  UNL     1     -26.835  -0.208 -29.453  1.00  0.00     0.087 A 
HETATM   32  C26 UNL     1     -27.632   0.873 -29.154  1.00  0.00     0.074 A 
HETATM   33  C25 UNL     1     -28.746   0.686 -28.376  1.00  0.00     0.023 A 
HETATM   34  C24 UNL     1     -29.070  -0.594 -27.891  1.00  0.00     0.031 A 
BRANCH  31  35
HETATM   35  O1  UNL     1     -25.698  -0.010 -30.248  1.00  0.00    -0.355 OA
HETATM   36  C1  UNL     1     -24.759  -1.054 -30.435  1.00  0.00     0.210 C 
ENDBRANCH  31  35
BRANCH  32  37
HETATM   37  C27 UNL     1     -27.309   2.226 -29.652  1.00  0.00     0.212 C 
HETATM   38  O3  UNL     1     -26.640   3.013 -28.973  1.00  0.00    -0.644 OA
HETATM   39  O4  UNL     1     -27.783   2.576 -30.898  1.00  0.00    -0.644 OA
ENDBRANCH  32  37
ENDBRANCH  27  29
ENDBRANCH   1  27
BRANCH  23  40
HETATM   40  O2  UNL     1     -24.422  -9.518 -26.568  1.00  0.00    -0.355 OA
HETATM   41  C22 UNL     1     -24.067  -9.435 -27.914  1.00  0.00     0.210 C 
ENDBRANCH  23  40
TORSDOF 5
ENDMDL
