MODEL 2
REMARK VINA RESULT: -9.669111433      0.760      1.238
REMARK  3 active torsions:
REMARK  status: ('A' for Active; 'I' for Inactive)
REMARK    1  A    between atoms: C1_2  and  C2_4 
REMARK    2  A    between atoms: C5_7  and  N1_8 
REMARK    3  A    between atoms: N1_8  and  C6_10 
ROOT
HETATM    1  C6  UNL     1     -88.011 -15.839  13.710  1.00  0.00     0.683 A 
HETATM    2  N2  UNL     1     -87.360 -14.792  14.301  1.00  0.00    -0.201 N 
ATOM      3  H2  UNL     1     -87.540 -14.587  15.284  1.00  0.00     0.183 HD
HETATM    4  C7  UNL     1     -86.476 -14.016  13.612  1.00  0.00     0.117 A 
HETATM    5  C8  UNL     1     -86.208 -14.257  12.303  1.00  0.00     0.004 A 
HETATM    6  C9  UNL     1     -86.888 -15.341  11.711  1.00  0.00     0.069 A 
HETATM    7  N3  UNL     1     -87.741 -16.081  12.398  1.00  0.00    -0.190 N 
ATOM      8  H3  UNL     1     -88.211 -16.856  11.930  1.00  0.00     0.184 HD
HETATM    9  C10 UNL     1     -86.741 -15.717  10.296  1.00  0.00     0.004 A 
HETATM   10  C11 UNL     1     -87.889 -16.250   9.807  1.00  0.00     0.016 A 
HETATM   11  C12 UNL     1     -87.963 -16.515   8.466  1.00  0.00     0.025 A 
HETATM   12  C13 UNL     1     -86.868 -16.230   7.654  1.00  0.00     0.035 A 
HETATM   13 CL1  UNL     1     -86.991 -16.584   5.953  1.00  0.00    -0.084 Cl
HETATM   14  C14 UNL     1     -85.719 -15.689   8.190  1.00  0.00     0.038 A 
HETATM   15  C15 UNL     1     -85.636 -15.425   9.544  1.00  0.00     0.005 A 
HETATM   16  C16 UNL     1     -84.366 -14.903   9.949  1.00  0.00     0.056 C 
HETATM   17  C17 UNL     1     -83.181 -15.339   9.264  1.00  0.00     0.068 A 
HETATM   18  C18 UNL     1     -82.023 -14.553   9.490  1.00  0.00     0.132 A 
HETATM   19  F1  UNL     1     -82.164 -13.399  10.203  1.00  0.00    -0.205 F 
HETATM   20  C19 UNL     1     -80.787 -14.910   9.020  1.00  0.00     0.043 A 
HETATM   21  C20 UNL     1     -80.602 -16.067   8.295  1.00  0.00     0.006 A 
HETATM   22  C21 UNL     1     -81.701 -16.847   8.065  1.00  0.00     0.043 A 
HETATM   23  C22 UNL     1     -82.968 -16.464   8.558  1.00  0.00     0.132 A 
HETATM   24  F2  UNL     1     -83.977 -17.388   8.412  1.00  0.00    -0.205 F 
HETATM   25  N4  UNL     1     -84.253 -13.989  10.885  1.00  0.00    -0.384 N 
ATOM     26  H4  UNL     1     -83.291 -13.701  11.068  1.00  0.00     0.160 HD
HETATM   27  C23 UNL     1     -85.237 -13.311  11.710  1.00  0.00     0.162 C 
ENDROOT
BRANCH   1  28
HETATM   28  N1  UNL     1     -88.930 -16.611  14.449  1.00  0.00    -0.192 N 
ATOM     29  H1  UNL     1     -89.577 -16.106  15.055  1.00  0.00     0.184 HD
BRANCH  28  30
HETATM   30  C5  UNL     1     -89.036 -18.017  14.429  1.00  0.00     0.049 A 
HETATM   31  C4  UNL     1     -88.120 -18.898  13.926  1.00  0.00     0.031 A 
HETATM   32  C3  UNL     1     -88.331 -20.288  13.935  1.00  0.00     0.020 A 
HETATM   33  C2  UNL     1     -89.482 -20.831  14.458  1.00  0.00     0.041 A 
HETATM   34  C25 UNL     1     -90.405 -19.944  14.965  1.00  0.00     0.020 A 
HETATM   35  C24 UNL     1     -90.209 -18.586  14.961  1.00  0.00     0.031 A 
BRANCH  33  36
HETATM   36  C1  UNL     1     -89.721 -22.264  14.478  1.00  0.00     0.209 C 
HETATM   37  O1  UNL     1     -90.879 -22.688  14.270  1.00  0.00    -0.644 OA
HETATM   38  O2  UNL     1     -88.709 -23.171  14.720  1.00  0.00    -0.644 OA
ENDBRANCH  33  36
ENDBRANCH  28  30
ENDBRANCH   1  28
TORSDOF 3
ENDMDL
