MODEL 1
REMARK VINA RESULT: -9.723390137      0.000      0.000
REMARK  3 active torsions:
REMARK  status: ('A' for Active; 'I' for Inactive)
REMARK    1  A    between atoms: C1_2  and  C2_4 
REMARK    2  A    between atoms: C5_7  and  N1_8 
REMARK    3  A    between atoms: N1_8  and  C6_10 
ROOT
HETATM    1  C6  UNL     1     -88.842 -16.104  13.882  1.00  0.00     0.683 A 
HETATM    2  N2  UNL     1     -88.208 -15.065  14.507  1.00  0.00    -0.201 N 
ATOM      3  H2  UNL     1     -88.405 -14.883  15.491  1.00  0.00     0.183 HD
HETATM    4  C7  UNL     1     -87.321 -14.267  13.848  1.00  0.00     0.117 A 
HETATM    5  C8  UNL     1     -87.031 -14.476  12.538  1.00  0.00     0.004 A 
HETATM    6  C9  UNL     1     -87.693 -15.553  11.912  1.00  0.00     0.069 A 
HETATM    7  N3  UNL     1     -88.550 -16.314  12.569  1.00  0.00    -0.190 N 
ATOM      8  H3  UNL     1     -89.007 -17.082  12.078  1.00  0.00     0.184 HD
HETATM    9  C10 UNL     1     -87.522 -15.895  10.491  1.00  0.00     0.004 A 
HETATM   10  C11 UNL     1     -88.658 -16.426   9.974  1.00  0.00     0.016 A 
HETATM   11  C12 UNL     1     -88.710 -16.662   8.626  1.00  0.00     0.025 A 
HETATM   12  C13 UNL     1     -87.605 -16.351   7.837  1.00  0.00     0.035 A 
HETATM   13 CL1  UNL     1     -87.700 -16.668   6.127  1.00  0.00    -0.084 Cl
HETATM   14  C14 UNL     1     -86.469 -15.813   8.403  1.00  0.00     0.038 A 
HETATM   15  C15 UNL     1     -86.409 -15.579   9.763  1.00  0.00     0.005 A 
HETATM   16  C16 UNL     1     -85.149 -15.055  10.199  1.00  0.00     0.056 C 
HETATM   17  C17 UNL     1     -83.950 -15.468   9.523  1.00  0.00     0.068 A 
HETATM   18  C18 UNL     1     -82.802 -14.678   9.784  1.00  0.00     0.132 A 
HETATM   19  F1  UNL     1     -82.963 -13.541  10.519  1.00  0.00    -0.205 F 
HETATM   20  C19 UNL     1     -81.556 -15.015   9.324  1.00  0.00     0.043 A 
HETATM   21  C20 UNL     1     -81.351 -16.154   8.577  1.00  0.00     0.006 A 
HETATM   22  C21 UNL     1     -82.441 -16.937   8.312  1.00  0.00     0.043 A 
HETATM   23  C22 UNL     1     -83.717 -16.575   8.795  1.00  0.00     0.132 A 
HETATM   24  F2  UNL     1     -84.717 -17.503   8.613  1.00  0.00    -0.205 F 
HETATM   25  N4  UNL     1     -85.057 -14.162  11.156  1.00  0.00    -0.384 N 
ATOM     26  H4  UNL     1     -84.101 -13.871  11.360  1.00  0.00     0.160 HD
HETATM   27  C23 UNL     1     -86.059 -13.510  11.981  1.00  0.00     0.162 C 
ENDROOT
BRANCH   1  28
HETATM   28  N1  UNL     1     -89.766 -16.898  14.591  1.00  0.00    -0.192 N 
ATOM     29  H1  UNL     1     -90.452 -16.410  15.165  1.00  0.00     0.184 HD
BRANCH  28  30
HETATM   30  C5  UNL     1     -89.828 -18.307  14.577  1.00  0.00     0.049 A 
HETATM   31  C4  UNL     1     -90.838 -19.085  15.069  1.00  0.00     0.031 A 
HETATM   32  C3  UNL     1     -90.794 -20.489  15.025  1.00  0.00     0.020 A 
HETATM   33  C2  UNL     1     -89.722 -21.153  14.476  1.00  0.00     0.041 A 
HETATM   34  C25 UNL     1     -88.704 -20.370  13.979  1.00  0.00     0.020 A 
HETATM   35  C24 UNL     1     -88.736 -18.998  14.017  1.00  0.00     0.031 A 
BRANCH  33  36
HETATM   36  C1  UNL     1     -89.656 -22.603  14.419  1.00  0.00     0.209 C 
HETATM   37  O1  UNL     1     -88.586 -23.173  14.728  1.00  0.00    -0.644 OA
HETATM   38  O2  UNL     1     -90.737 -23.370  14.036  1.00  0.00    -0.644 OA
ENDBRANCH  33  36
ENDBRANCH  28  30
ENDBRANCH   1  28
TORSDOF 3
ENDMDL
