MODEL 3
REMARK VINA RESULT: -9.374115611      4.283      6.960
REMARK  3 active torsions:
REMARK  status: ('A' for Active; 'I' for Inactive)
REMARK    1  A    between atoms: C1_2  and  C2_4 
REMARK    2  A    between atoms: C5_7  and  N1_8 
REMARK    3  A    between atoms: N1_8  and  C6_10 
ROOT
HETATM    1  C6  UNL     1     -85.591 -15.675   6.960  1.00  0.00     0.683 A 
HETATM    2  N2  UNL     1     -85.209 -16.217   5.763  1.00  0.00    -0.201 N 
ATOM      3  H2  UNL     1     -85.909 -16.677   5.181  1.00  0.00     0.183 HD
HETATM    4  C7  UNL     1     -83.919 -16.156   5.328  1.00  0.00     0.117 A 
HETATM    5  C8  UNL     1     -82.958 -15.551   6.073  1.00  0.00     0.004 A 
HETATM    6  C9  UNL     1     -83.371 -14.998   7.302  1.00  0.00     0.069 A 
HETATM    7  N3  UNL     1     -84.628 -15.068   7.705  1.00  0.00    -0.190 N 
ATOM      8  H3  UNL     1     -84.883 -14.654   8.602  1.00  0.00     0.184 HD
HETATM    9  C10 UNL     1     -82.453 -14.340   8.245  1.00  0.00     0.004 A 
HETATM   10  C11 UNL     1     -82.858 -14.515   9.529  1.00  0.00     0.016 A 
HETATM   11  C12 UNL     1     -82.033 -14.089  10.535  1.00  0.00     0.025 A 
HETATM   12  C13 UNL     1     -80.814 -13.496  10.211  1.00  0.00     0.035 A 
HETATM   13 CL1  UNL     1     -79.789 -12.960  11.513  1.00  0.00    -0.084 Cl
HETATM   14  C14 UNL     1     -80.441 -13.336   8.895  1.00  0.00     0.038 A 
HETATM   15  C15 UNL     1     -81.273 -13.758   7.875  1.00  0.00     0.005 A 
HETATM   16  C16 UNL     1     -80.759 -13.485   6.566  1.00  0.00     0.056 C 
HETATM   17  C17 UNL     1     -79.969 -12.303   6.359  1.00  0.00     0.068 A 
HETATM   18  C18 UNL     1     -79.234 -12.266   5.147  1.00  0.00     0.132 A 
HETATM   19  F1  UNL     1     -79.227 -13.388   4.371  1.00  0.00    -0.205 F 
HETATM   20  C19 UNL     1     -78.541 -11.157   4.738  1.00  0.00     0.043 A 
HETATM   21  C20 UNL     1     -78.523 -10.005   5.494  1.00  0.00     0.006 A 
HETATM   22  C21 UNL     1     -79.225 -10.011   6.666  1.00  0.00     0.043 A 
HETATM   23  C22 UNL     1     -79.936 -11.162   7.071  1.00  0.00     0.132 A 
HETATM   24  F2  UNL     1     -80.737 -11.018   8.180  1.00  0.00    -0.205 F 
HETATM   25  N4  UNL     1     -80.932 -14.312   5.561  1.00  0.00    -0.384 N 
ATOM     26  H4  UNL     1     -80.507 -13.997   4.689  1.00  0.00     0.160 HD
HETATM   27  C23 UNL     1     -81.614 -15.589   5.456  1.00  0.00     0.162 C 
ENDROOT
BRANCH   1  28
HETATM   28  N1  UNL     1     -86.932 -15.770   7.385  1.00  0.00    -0.192 N 
ATOM     29  H1  UNL     1     -87.637 -15.328   6.795  1.00  0.00     0.184 HD
BRANCH  28  30
HETATM   30  C5  UNL     1     -87.387 -16.420   8.551  1.00  0.00     0.049 A 
HETATM   31  C4  UNL     1     -88.014 -17.633   8.618  1.00  0.00     0.031 A 
HETATM   32  C3  UNL     1     -88.449 -18.187   9.834  1.00  0.00     0.020 A 
HETATM   33  C2  UNL     1     -88.258 -17.528  11.027  1.00  0.00     0.041 A 
HETATM   34  C25 UNL     1     -87.625 -16.307  10.960  1.00  0.00     0.020 A 
HETATM   35  C24 UNL     1     -87.197 -15.756   9.778  1.00  0.00     0.031 A 
BRANCH  33  36
HETATM   36  C1  UNL     1     -88.699 -18.083  12.295  1.00  0.00     0.209 C 
HETATM   37  O1  UNL     1     -88.006 -18.969  12.842  1.00  0.00    -0.644 OA
HETATM   38  O2  UNL     1     -89.857 -17.661  12.915  1.00  0.00    -0.644 OA
ENDBRANCH  33  36
ENDBRANCH  28  30
ENDBRANCH   1  28
TORSDOF 3
ENDMDL
