MODEL 5
REMARK VINA RESULT: -9.432721497      2.167      4.940
REMARK  4 active torsions:
REMARK  status: ('A' for Active; 'I' for Inactive)
REMARK    1  A    between atoms: O1_2  and  C2_3 
REMARK    2  A    between atoms: C7_8  and  N1_9 
REMARK    3  A    between atoms: C8_10  and  C9_11 
REMARK    4  A    between atoms: C11_13  and  O2_14 
ROOT
HETATM    1  N1  UNL     1     -90.085 -13.180  11.341  1.00  0.00    -0.142 N 
HETATM    2  C8  UNL     1     -89.144 -13.312  12.253  1.00  0.00     0.085 A 
HETATM    3  C16 UNL     1     -87.889 -12.987  11.647  1.00  0.00     0.147 A 
HETATM    4  N2  UNL     1     -88.174 -12.671  10.388  1.00  0.00    -0.146 N 
HETATM    5  C17 UNL     1     -87.559 -12.271   9.239  1.00  0.00     0.169 A 
HETATM    6  C18 UNL     1     -86.253 -12.018   8.922  1.00  0.00     0.281 A 
HETATM    7  O3  UNL     1     -85.333 -12.144   9.785  1.00  0.00    -0.265 OA
HETATM    8  N3  UNL     1     -85.956 -11.625   7.654  1.00  0.00    -0.273 N 
ATOM      9  H3  UNL     1     -84.992 -11.429   7.382  1.00  0.00     0.173 HD
HETATM   10  C19 UNL     1     -86.959 -11.501   6.764  1.00  0.00     0.330 A 
HETATM   11  O4  UNL     1     -86.668 -11.139   5.600  1.00  0.00    -0.246 OA
HETATM   12  N4  UNL     1     -88.245 -11.746   7.058  1.00  0.00    -0.287 N 
HETATM   13  C20 UNL     1     -89.315 -11.607   6.082  1.00  0.00     0.163 C 
HETATM   14  C21 UNL     1     -88.559 -12.136   8.307  1.00  0.00     0.160 A 
HETATM   15  N5  UNL     1     -89.756 -12.449   8.887  1.00  0.00    -0.173 N 
ATOM     16  H5  UNL     1     -90.674 -12.438   8.441  1.00  0.00     0.186 HD
HETATM   17  C22 UNL     1     -89.486 -12.772  10.159  1.00  0.00     0.698 A 
ENDROOT
BRANCH   2  18
HETATM   18  C9  UNL     1     -89.172 -13.811  13.613  1.00  0.00     0.002 A 
HETATM   19  C10 UNL     1     -88.615 -15.093  13.869  1.00  0.00     0.051 A 
HETATM   20  C11 UNL     1     -88.504 -15.658  15.088  1.00  0.00     0.066 A 
HETATM   21  C12 UNL     1     -88.958 -14.966  16.203  1.00  0.00     0.037 A 
HETATM   22  C13 UNL     1     -89.495 -13.735  16.012  1.00  0.00     0.010 A 
HETATM   23  C14 UNL     1     -89.599 -13.158  14.714  1.00  0.00    -0.049 A 
HETATM   24  C15 UNL     1     -90.084 -11.752  14.661  1.00  0.00     0.049 C 
BRANCH  20  25
HETATM   25  O2  UNL     1     -87.959 -16.913  15.335  1.00  0.00    -0.361 OA
ATOM     26  H2  UNL     1     -87.030 -17.098  15.402  1.00  0.00     0.217 HD
ENDBRANCH  20  25
ENDBRANCH   2  18
BRANCH   1  27
HETATM   27  C7  UNL     1     -91.473 -13.468  11.392  1.00  0.00     0.090 A 
HETATM   28  C2  UNL     1     -91.956 -14.583  10.696  1.00  0.00     0.096 A 
HETATM   29  C3  UNL     1     -93.293 -14.906  10.683  1.00  0.00     0.039 A 
HETATM   30  C4  UNL     1     -94.207 -14.113  11.375  1.00  0.00     0.003 A 
HETATM   31  C5  UNL     1     -93.754 -13.010  12.067  1.00  0.00     0.002 A 
HETATM   32  C6  UNL     1     -92.412 -12.716  12.060  1.00  0.00     0.033 A 
BRANCH  28  33
HETATM   33  O1  UNL     1     -91.059 -15.364  10.014  1.00  0.00    -0.354 OA
HETATM   34  C1  UNL     1     -91.264 -15.800   8.703  1.00  0.00     0.210 C 
ENDBRANCH  28  33
ENDBRANCH   1  27
TORSDOF 4
ENDMDL
