MODEL 1
REMARK VINA RESULT: -10.283055899      0.000      0.000
REMARK  4 active torsions:
REMARK  status: ('A' for Active; 'I' for Inactive)
REMARK    1  A    between atoms: O1_2  and  C2_3 
REMARK    2  A    between atoms: C7_8  and  N1_9 
REMARK    3  A    between atoms: C8_10  and  C9_11 
REMARK    4  A    between atoms: C11_13  and  O2_14 
ROOT
HETATM    1  N1  UNL     1     -89.397 -13.084  10.177  1.00  0.00    -0.142 N 
HETATM    2  C8  UNL     1     -90.585 -13.276   9.643  1.00  0.00     0.085 A 
HETATM    3  C16 UNL     1     -90.526 -12.879   8.270  1.00  0.00     0.147 A 
HETATM    4  N2  UNL     1     -89.276 -12.473   8.071  1.00  0.00    -0.146 N 
HETATM    5  C17 UNL     1     -88.476 -11.976   7.086  1.00  0.00     0.169 A 
HETATM    6  C18 UNL     1     -88.697 -11.677   5.770  1.00  0.00     0.281 A 
HETATM    7  O3  UNL     1     -89.836 -11.852   5.240  1.00  0.00    -0.265 OA
HETATM    8  N3  UNL     1     -87.665 -11.184   5.033  1.00  0.00    -0.273 N 
ATOM      9  H3  UNL     1     -87.794 -10.949   4.049  1.00  0.00     0.173 HD
HETATM   10  C19 UNL     1     -86.469 -11.012   5.628  1.00  0.00     0.330 A 
HETATM   11  O4  UNL     1     -85.530 -10.557   4.935  1.00  0.00    -0.246 OA
HETATM   12  N4  UNL     1     -86.236 -11.301   6.918  1.00  0.00    -0.287 N 
HETATM   13  C20 UNL     1     -84.937 -11.107   7.543  1.00  0.00     0.163 C 
HETATM   14  C21 UNL     1     -87.244 -11.789   7.663  1.00  0.00     0.160 A 
HETATM   15  N5  UNL     1     -87.303 -12.167   8.976  1.00  0.00    -0.173 N 
ATOM     16  H5  UNL     1     -86.542 -12.140   9.655  1.00  0.00     0.186 HD
HETATM   17  C22 UNL     1     -88.559 -12.579   9.193  1.00  0.00     0.698 A 
ENDROOT
BRANCH   2  18
HETATM   18  C9  UNL     1     -91.855 -13.675  10.217  1.00  0.00     0.002 A 
HETATM   19  C10 UNL     1     -92.540 -12.742  11.041  1.00  0.00     0.051 A 
HETATM   20  C11 UNL     1     -93.757 -12.940  11.586  1.00  0.00     0.066 A 
HETATM   21  C12 UNL     1     -94.424 -14.134  11.346  1.00  0.00     0.037 A 
HETATM   22  C13 UNL     1     -93.813 -15.057  10.561  1.00  0.00     0.010 A 
HETATM   23  C14 UNL     1     -92.527 -14.823   9.996  1.00  0.00    -0.049 A 
HETATM   24  C15 UNL     1     -92.031 -15.860   9.049  1.00  0.00     0.049 C 
BRANCH  20  25
HETATM   25  O2  UNL     1     -94.425 -12.026  12.392  1.00  0.00    -0.361 OA
ATOM     26  H2  UNL     1     -95.342 -12.083  12.635  1.00  0.00     0.217 HD
ENDBRANCH  20  25
ENDBRANCH   2  18
BRANCH   1  27
HETATM   27  C7  UNL     1     -88.946 -13.223  11.514  1.00  0.00     0.090 A 
HETATM   28  C2  UNL     1     -88.440 -12.097  12.176  1.00  0.00     0.096 A 
HETATM   29  C3  UNL     1     -87.965 -12.167  13.465  1.00  0.00     0.039 A 
HETATM   30  C4  UNL     1     -87.978 -13.383  14.146  1.00  0.00     0.003 A 
HETATM   31  C5  UNL     1     -88.470 -14.505  13.515  1.00  0.00     0.002 A 
HETATM   32  C6  UNL     1     -88.939 -14.401  12.227  1.00  0.00     0.033 A 
BRANCH  28  33
HETATM   33  O1  UNL     1     -88.426 -10.901  11.508  1.00  0.00    -0.354 OA
HETATM   34  C1  UNL     1     -88.788  -9.688  12.099  1.00  0.00     0.210 C 
ENDBRANCH  28  33
ENDBRANCH   1  27
TORSDOF 4
ENDMDL
