MODEL 7
REMARK VINA RESULT: -9.305914480      1.121      1.634
REMARK  4 active torsions:
REMARK  status: ('A' for Active; 'I' for Inactive)
REMARK    1  A    between atoms: O1_2  and  C2_3 
REMARK    2  A    between atoms: C7_8  and  N1_9 
REMARK    3  A    between atoms: C8_10  and  C9_11 
REMARK    4  A    between atoms: C11_13  and  O2_14 
ROOT
HETATM    1  N1  UNL     1     -88.969 -12.968  10.076  1.00  0.00    -0.142 N 
HETATM    2  C8  UNL     1     -90.135 -13.208   9.514  1.00  0.00     0.085 A 
HETATM    3  C16 UNL     1     -90.046 -12.849   8.132  1.00  0.00     0.147 A 
HETATM    4  N2  UNL     1     -88.802 -12.414   7.958  1.00  0.00    -0.146 N 
HETATM    5  C17 UNL     1     -87.986 -11.924   6.982  1.00  0.00     0.169 A 
HETATM    6  C18 UNL     1     -88.176 -11.668   5.652  1.00  0.00     0.281 A 
HETATM    7  O3  UNL     1     -89.294 -11.889   5.095  1.00  0.00    -0.265 OA
HETATM    8  N3  UNL     1     -87.137 -11.168   4.931  1.00  0.00    -0.273 N 
ATOM      9  H3  UNL     1     -87.243 -10.965   3.937  1.00  0.00     0.173 HD
HETATM   10  C19 UNL     1     -85.964 -10.947   5.555  1.00  0.00     0.330 A 
HETATM   11  O4  UNL     1     -85.017 -10.486   4.877  1.00  0.00    -0.246 OA
HETATM   12  N4  UNL     1     -85.761 -11.192   6.859  1.00  0.00    -0.287 N 
HETATM   13  C20 UNL     1     -84.487 -10.945   7.516  1.00  0.00     0.163 C 
HETATM   14  C21 UNL     1     -86.777 -11.686   7.589  1.00  0.00     0.160 A 
HETATM   15  N5  UNL     1     -86.866 -12.028   8.910  1.00  0.00    -0.173 N 
ATOM     16  H5  UNL     1     -86.126 -11.961   9.610  1.00  0.00     0.186 HD
HETATM   17  C22 UNL     1     -88.116 -12.468   9.102  1.00  0.00     0.698 A 
ENDROOT
BRANCH   2  18
HETATM   18  C9  UNL     1     -91.410 -13.625  10.062  1.00  0.00     0.002 A 
HETATM   19  C10 UNL     1     -91.943 -14.875   9.647  1.00  0.00     0.051 A 
HETATM   20  C11 UNL     1     -93.077 -15.427  10.119  1.00  0.00     0.066 A 
HETATM   21  C12 UNL     1     -93.811 -14.753  11.087  1.00  0.00     0.037 A 
HETATM   22  C13 UNL     1     -93.343 -13.556  11.520  1.00  0.00     0.010 A 
HETATM   23  C14 UNL     1     -92.139 -12.994  11.006  1.00  0.00    -0.049 A 
HETATM   24  C15 UNL     1     -91.670 -11.743  11.662  1.00  0.00     0.049 C 
BRANCH  20  25
HETATM   25  O2  UNL     1     -93.596 -16.651   9.711  1.00  0.00    -0.361 OA
ATOM     26  H2  UNL     1     -94.515 -16.888   9.738  1.00  0.00     0.217 HD
ENDBRANCH  20  25
ENDBRANCH   2  18
BRANCH   1  27
HETATM   27  C7  UNL     1     -88.554 -13.057  11.429  1.00  0.00     0.090 A 
HETATM   28  C2  UNL     1     -88.128 -11.893  12.081  1.00  0.00     0.096 A 
HETATM   29  C3  UNL     1     -87.690 -11.912  13.385  1.00  0.00     0.039 A 
HETATM   30  C4  UNL     1     -87.663 -13.113  14.092  1.00  0.00     0.003 A 
HETATM   31  C5  UNL     1     -88.078 -14.271  13.471  1.00  0.00     0.002 A 
HETATM   32  C6  UNL     1     -88.510 -14.218  12.168  1.00  0.00     0.033 A 
BRANCH  28  33
HETATM   33  O1  UNL     1     -88.153 -10.711  11.388  1.00  0.00    -0.354 OA
HETATM   34  C1  UNL     1     -88.694  -9.531  11.903  1.00  0.00     0.210 C 
ENDBRANCH  28  33
ENDBRANCH   1  27
TORSDOF 4
ENDMDL
