MODEL 4
REMARK VINA RESULT: -9.467258971      2.378      6.648
REMARK  4 active torsions:
REMARK  status: ('A' for Active; 'I' for Inactive)
REMARK    1  A    between atoms: O1_2  and  C2_3 
REMARK    2  A    between atoms: C7_8  and  N1_9 
REMARK    3  A    between atoms: C8_10  and  C9_11 
REMARK    4  A    between atoms: C11_13  and  O2_14 
ROOT
HETATM    1  N1  UNL     1     -88.803 -12.052  10.062  1.00  0.00    -0.142 N 
HETATM    2  C8  UNL     1     -88.710 -12.282   8.769  1.00  0.00     0.085 A 
HETATM    3  C16 UNL     1     -89.732 -13.216   8.409  1.00  0.00     0.147 A 
HETATM    4  N2  UNL     1     -90.383 -13.483   9.536  1.00  0.00    -0.146 N 
HETATM    5  C17 UNL     1     -91.425 -14.232   9.997  1.00  0.00     0.169 A 
HETATM    6  C18 UNL     1     -92.292 -15.095   9.388  1.00  0.00     0.281 A 
HETATM    7  O3  UNL     1     -92.216 -15.332   8.144  1.00  0.00    -0.265 OA
HETATM    8  N3  UNL     1     -93.247 -15.701  10.144  1.00  0.00    -0.273 N 
ATOM      9  H3  UNL     1     -93.910 -16.351   9.722  1.00  0.00     0.173 HD
HETATM   10  C19 UNL     1     -93.299 -15.425  11.461  1.00  0.00     0.330 A 
HETATM   11  O4  UNL     1     -94.184 -15.992  12.143  1.00  0.00    -0.246 OA
HETATM   12  N4  UNL     1     -92.455 -14.581  12.075  1.00  0.00    -0.287 N 
HETATM   13  C20 UNL     1     -92.528 -14.297  13.500  1.00  0.00     0.163 C 
HETATM   14  C21 UNL     1     -91.505 -13.972  11.344  1.00  0.00     0.160 A 
HETATM   15  N5  UNL     1     -90.526 -13.081  11.686  1.00  0.00    -0.173 N 
ATOM     16  H5  UNL     1     -90.341 -12.703  12.616  1.00  0.00     0.186 HD
HETATM   17  C22 UNL     1     -89.859 -12.803  10.559  1.00  0.00     0.698 A 
ENDROOT
BRANCH   2  18
HETATM   18  C9  UNL     1     -87.742 -11.865   7.775  1.00  0.00     0.002 A 
HETATM   19  C10 UNL     1     -86.362 -12.006   8.082  1.00  0.00     0.051 A 
HETATM   20  C11 UNL     1     -85.349 -11.730   7.237  1.00  0.00     0.066 A 
HETATM   21  C12 UNL     1     -85.637 -11.269   5.959  1.00  0.00     0.037 A 
HETATM   22  C13 UNL     1     -86.940 -11.120   5.614  1.00  0.00     0.010 A 
HETATM   23  C14 UNL     1     -87.993 -11.421   6.525  1.00  0.00    -0.049 A 
HETATM   24  C15 UNL     1     -89.374 -11.342   5.977  1.00  0.00     0.049 C 
BRANCH  20  25
HETATM   25  O2  UNL     1     -84.000 -11.869   7.541  1.00  0.00    -0.361 OA
ATOM     26  H2  UNL     1     -83.354 -12.274   6.974  1.00  0.00     0.217 HD
ENDBRANCH  20  25
ENDBRANCH   2  18
BRANCH   1  27
HETATM   27  C7  UNL     1     -87.982 -11.289  10.931  1.00  0.00     0.090 A 
HETATM   28  C2  UNL     1     -86.882 -11.909  11.537  1.00  0.00     0.096 A 
HETATM   29  C3  UNL     1     -86.059 -11.235  12.408  1.00  0.00     0.039 A 
HETATM   30  C4  UNL     1     -86.310  -9.897  12.707  1.00  0.00     0.003 A 
HETATM   31  C5  UNL     1     -87.387  -9.265  12.123  1.00  0.00     0.002 A 
HETATM   32  C6  UNL     1     -88.189  -9.968  11.256  1.00  0.00     0.033 A 
BRANCH  28  33
HETATM   33  O1  UNL     1     -86.633 -13.225  11.244  1.00  0.00    -0.354 OA
HETATM   34  C1  UNL     1     -85.346 -13.752  11.120  1.00  0.00     0.210 C 
ENDBRANCH  28  33
ENDBRANCH   1  27
TORSDOF 4
ENDMDL
