MODEL 2
REMARK VINA RESULT: -9.504780508      5.576      9.755
REMARK  4 active torsions:
REMARK  status: ('A' for Active; 'I' for Inactive)
REMARK    1  A    between atoms: O1_2  and  C2_3 
REMARK    2  A    between atoms: C7_8  and  N1_9 
REMARK    3  A    between atoms: C8_10  and  C9_11 
REMARK    4  A    between atoms: C11_13  and  O2_14 
ROOT
HETATM    1  N1  UNL     1     -87.336 -14.185  15.403  1.00  0.00    -0.142 N 
HETATM    2  C8  UNL     1     -86.901 -13.516  16.451  1.00  0.00     0.085 A 
HETATM    3  C16 UNL     1     -86.618 -14.456  17.492  1.00  0.00     0.147 A 
HETATM    4  N2  UNL     1     -86.904 -15.649  16.982  1.00  0.00    -0.146 N 
HETATM    5  C17 UNL     1     -86.899 -16.969  17.325  1.00  0.00     0.169 A 
HETATM    6  C18 UNL     1     -86.552 -17.632  18.469  1.00  0.00     0.281 A 
HETATM    7  O3  UNL     1     -86.135 -17.004  19.489  1.00  0.00    -0.265 OA
HETATM    8  N3  UNL     1     -86.662 -18.987  18.495  1.00  0.00    -0.273 N 
ATOM      9  H3  UNL     1     -86.413 -19.514  19.332  1.00  0.00     0.173 HD
HETATM   10  C19 UNL     1     -87.107 -19.620  17.393  1.00  0.00     0.330 A 
HETATM   11  O4  UNL     1     -87.203 -20.869  17.433  1.00  0.00    -0.246 OA
HETATM   12  N4  UNL     1     -87.452 -18.985  16.262  1.00  0.00    -0.287 N 
HETATM   13  C20 UNL     1     -87.932 -19.688  15.082  1.00  0.00     0.163 C 
HETATM   14  C21 UNL     1     -87.350 -17.645  16.217  1.00  0.00     0.160 A 
HETATM   15  N5  UNL     1     -87.622 -16.745  15.225  1.00  0.00    -0.173 N 
ATOM     16  H5  UNL     1     -87.971 -16.954  14.289  1.00  0.00     0.186 HD
HETATM   17  C22 UNL     1     -87.339 -15.535  15.725  1.00  0.00     0.698 A 
ENDROOT
BRANCH   2  18
HETATM   18  C9  UNL     1     -86.795 -12.097  16.723  1.00  0.00     0.002 A 
HETATM   19  C10 UNL     1     -87.822 -11.483  17.490  1.00  0.00     0.051 A 
HETATM   20  C11 UNL     1     -87.827 -10.194  17.882  1.00  0.00     0.066 A 
HETATM   21  C12 UNL     1     -86.766  -9.370  17.528  1.00  0.00     0.037 A 
HETATM   22  C13 UNL     1     -85.758  -9.910  16.798  1.00  0.00     0.010 A 
HETATM   23  C14 UNL     1     -85.775 -11.277  16.397  1.00  0.00    -0.049 A 
HETATM   24  C15 UNL     1     -84.548 -11.773  15.716  1.00  0.00     0.049 C 
BRANCH  20  25
HETATM   25  O2  UNL     1     -88.833  -9.596  18.633  1.00  0.00    -0.361 OA
ATOM     26  H2  UNL     1     -89.734  -9.494  18.351  1.00  0.00     0.217 HD
ENDBRANCH  20  25
ENDBRANCH   2  18
BRANCH   1  27
HETATM   27  C7  UNL     1     -87.838 -13.733  14.156  1.00  0.00     0.090 A 
HETATM   28  C2  UNL     1     -89.202 -13.436  14.047  1.00  0.00     0.096 A 
HETATM   29  C3  UNL     1     -89.759 -13.016  12.862  1.00  0.00     0.039 A 
HETATM   30  C4  UNL     1     -88.960 -12.877  11.728  1.00  0.00     0.003 A 
HETATM   31  C5  UNL     1     -87.615 -13.164  11.812  1.00  0.00     0.002 A 
HETATM   32  C6  UNL     1     -87.089 -13.581  13.011  1.00  0.00     0.033 A 
BRANCH  28  33
HETATM   33  O1  UNL     1     -89.990 -13.573  15.160  1.00  0.00    -0.354 OA
HETATM   34  C1  UNL     1     -91.316 -14.009  15.112  1.00  0.00     0.210 C 
ENDBRANCH  28  33
ENDBRANCH   1  27
TORSDOF 4
ENDMDL
