MODEL 3
REMARK VINA RESULT: -10.127238047      1.183      1.784
REMARK  4 active torsions:
REMARK  status: ('A' for Active; 'I' for Inactive)
REMARK    1  A    between atoms: S1_2  and  C2_3 
REMARK    2  A    between atoms: C6_7  and  N1_8 
REMARK    3  A    between atoms: N1_8  and  C7_10 
REMARK    4  A    between atoms: C11_16  and  C12_17 
ROOT
HETATM    1  C7  UNL     1    -112.977 -14.992  82.920  1.00  0.00     0.684 A 
HETATM    2  N2  UNL     1    -114.195 -14.946  82.391  1.00  0.00    -0.201 N 
ATOM      3  H2  UNL     1    -114.280 -14.501  81.478  1.00  0.00     0.183 HD
HETATM    4  C8  UNL     1    -115.309 -15.417  82.925  1.00  0.00     0.121 A 
HETATM    5  C9  UNL     1    -115.194 -16.024  84.170  1.00  0.00     0.026 A 
HETATM    6  C10 UNL     1    -116.334 -16.528  84.763  1.00  0.00     0.034 A 
HETATM    7  C11 UNL     1    -116.184 -17.128  86.006  1.00  0.00     0.047 A 
HETATM    8  C18 UNL     1    -114.913 -17.162  86.532  1.00  0.00     0.260 A 
HETATM    9  O1  UNL     1    -114.763 -17.711  87.673  1.00  0.00    -0.267 OA
HETATM   10  N3  UNL     1    -113.832 -16.672  85.945  1.00  0.00    -0.303 N 
HETATM   11  C19 UNL     1    -112.537 -16.752  86.570  1.00  0.00     0.161 C 
HETATM   12  C20 UNL     1    -113.938 -16.079  84.733  1.00  0.00     0.137 A 
HETATM   13  N4  UNL     1    -112.851 -15.580  84.131  1.00  0.00    -0.175 N 
ATOM     14  H4  UNL     1    -111.937 -15.642  84.581  1.00  0.00     0.186 HD
ENDROOT
BRANCH   1  15
HETATM   15  N1  UNL     1    -111.842 -14.467  82.286  1.00  0.00    -0.192 N 
ATOM     16  H1  UNL     1    -112.019 -13.769  81.564  1.00  0.00     0.184 HD
BRANCH  15  17
HETATM   17  C6  UNL     1    -110.500 -14.778  82.516  1.00  0.00     0.050 A 
HETATM   18  C5  UNL     1    -109.896 -14.779  83.743  1.00  0.00     0.030 A 
HETATM   19  C4  UNL     1    -108.546 -15.094  83.940  1.00  0.00     0.004 A 
HETATM   20  C3  UNL     1    -107.770 -15.425  82.867  1.00  0.00     0.018 A 
HETATM   21  C2  UNL     1    -108.353 -15.432  81.626  1.00  0.00     0.002 A 
HETATM   22  C21 UNL     1    -109.680 -15.121  81.431  1.00  0.00     0.048 A 
BRANCH  21  23
HETATM   23  S1  UNL     1    -107.354 -15.860  80.214  1.00  0.00    -0.134 SA
HETATM   24  C1  UNL     1    -105.836 -16.632  80.766  1.00  0.00     0.095 C 
ENDBRANCH  21  23
ENDBRANCH  15  17
ENDBRANCH   1  15
BRANCH   7  25
HETATM   25  C12 UNL     1    -117.316 -17.696  86.727  1.00  0.00     0.023 A 
HETATM   26  C13 UNL     1    -117.682 -19.008  86.515  1.00  0.00     0.046 A 
HETATM   27 CL1  UNL     1    -116.754 -19.953  85.366  1.00  0.00    -0.083 Cl
HETATM   28  C14 UNL     1    -118.764 -19.570  87.197  1.00  0.00     0.025 A 
HETATM   29  C15 UNL     1    -119.494 -18.827  88.102  1.00  0.00     0.003 A 
HETATM   30  C16 UNL     1    -119.137 -17.512  88.324  1.00  0.00     0.025 A 
HETATM   31  C17 UNL     1    -118.059 -16.961  87.640  1.00  0.00     0.046 A 
HETATM   32 CL2  UNL     1    -117.606 -15.305  87.915  1.00  0.00    -0.083 Cl
ENDBRANCH   7  25
TORSDOF 4
ENDMDL
