MODEL 2
REMARK VINA RESULT: -10.248420043      0.050      1.662
REMARK  4 active torsions:
REMARK  status: ('A' for Active; 'I' for Inactive)
REMARK    1  A    between atoms: S1_2  and  C2_3 
REMARK    2  A    between atoms: C6_7  and  N1_8 
REMARK    3  A    between atoms: N1_8  and  C7_10 
REMARK    4  A    between atoms: C11_16  and  C12_17 
ROOT
HETATM    1  C7  UNL     1    -113.107 -14.884  82.960  1.00  0.00     0.684 A 
HETATM    2  N2  UNL     1    -114.328 -14.848  82.440  1.00  0.00    -0.201 N 
ATOM      3  H2  UNL     1    -114.427 -14.382  81.537  1.00  0.00     0.183 HD
HETATM    4  C8  UNL     1    -115.430 -15.352  82.968  1.00  0.00     0.121 A 
HETATM    5  C9  UNL     1    -115.297 -15.986  84.197  1.00  0.00     0.026 A 
HETATM    6  C10 UNL     1    -116.424 -16.526  84.784  1.00  0.00     0.034 A 
HETATM    7  C11 UNL     1    -116.255 -17.152  86.011  1.00  0.00     0.047 A 
HETATM    8  C18 UNL     1    -114.981 -17.176  86.529  1.00  0.00     0.260 A 
HETATM    9  O1  UNL     1    -114.814 -17.749  87.656  1.00  0.00    -0.267 OA
HETATM   10  N3  UNL     1    -113.913 -16.651  85.949  1.00  0.00    -0.303 N 
HETATM   11  C19 UNL     1    -112.613 -16.722  86.565  1.00  0.00     0.161 C 
HETATM   12  C20 UNL     1    -114.037 -16.032  84.751  1.00  0.00     0.137 A 
HETATM   13  N4  UNL     1    -112.963 -15.498  84.156  1.00  0.00    -0.175 N 
ATOM     14  H4  UNL     1    -112.046 -15.554  84.600  1.00  0.00     0.186 HD
ENDROOT
BRANCH   1  15
HETATM   15  N1  UNL     1    -111.986 -14.323  82.333  1.00  0.00    -0.192 N 
ATOM     16  H1  UNL     1    -112.176 -13.567  81.675  1.00  0.00     0.184 HD
BRANCH  15  17
HETATM   17  C6  UNL     1    -110.641 -14.668  82.492  1.00  0.00     0.050 A 
HETATM   18  C5  UNL     1    -109.860 -15.240  81.527  1.00  0.00     0.030 A 
HETATM   19  C4  UNL     1    -108.514 -15.575  81.719  1.00  0.00     0.004 A 
HETATM   20  C3  UNL     1    -107.926 -15.324  82.926  1.00  0.00     0.018 A 
HETATM   21  C2  UNL     1    -108.689 -14.750  83.910  1.00  0.00     0.002 A 
HETATM   22  C21 UNL     1    -110.013 -14.421  83.722  1.00  0.00     0.048 A 
BRANCH  21  23
HETATM   23  S1  UNL     1    -107.936 -14.418  85.491  1.00  0.00    -0.134 SA
HETATM   24  C1  UNL     1    -107.286 -12.751  85.507  1.00  0.00     0.095 C 
ENDBRANCH  21  23
ENDBRANCH  15  17
ENDBRANCH   1  15
BRANCH   7  25
HETATM   25  C12 UNL     1    -117.373 -17.759  86.725  1.00  0.00     0.023 A 
HETATM   26  C13 UNL     1    -118.085 -17.022  87.648  1.00  0.00     0.046 A 
HETATM   27 CL1  UNL     1    -117.606 -15.359  87.927  1.00  0.00    -0.083 Cl
HETATM   28  C14 UNL     1    -119.158 -17.585  88.341  1.00  0.00     0.025 A 
HETATM   29  C15 UNL     1    -119.535 -18.894  88.120  1.00  0.00     0.003 A 
HETATM   30  C16 UNL     1    -118.831 -19.643  87.198  1.00  0.00     0.025 A 
HETATM   31  C17 UNL     1    -117.763 -19.073  86.513  1.00  0.00     0.046 A 
HETATM   32 CL2  UNL     1    -116.873 -20.011  85.351  1.00  0.00    -0.083 Cl
ENDBRANCH   7  25
TORSDOF 4
ENDMDL
