MODEL 1
REMARK VINA RESULT: -10.263894838      0.000      0.000
REMARK  4 active torsions:
REMARK  status: ('A' for Active; 'I' for Inactive)
REMARK    1  A    between atoms: S1_2  and  C2_3 
REMARK    2  A    between atoms: C6_7  and  N1_8 
REMARK    3  A    between atoms: N1_8  and  C7_10 
REMARK    4  A    between atoms: C11_16  and  C12_17 
ROOT
HETATM    1  C7  UNL     1    -113.104 -14.905  82.948  1.00  0.00     0.684 A 
HETATM    2  N2  UNL     1    -114.323 -14.878  82.422  1.00  0.00    -0.201 N 
ATOM      3  H2  UNL     1    -114.419 -14.421  81.515  1.00  0.00     0.183 HD
HETATM    4  C8  UNL     1    -115.426 -15.381  82.950  1.00  0.00     0.121 A 
HETATM    5  C9  UNL     1    -115.296 -16.004  84.185  1.00  0.00     0.026 A 
HETATM    6  C10 UNL     1    -116.424 -16.542  84.772  1.00  0.00     0.034 A 
HETATM    7  C11 UNL     1    -116.258 -17.157  86.005  1.00  0.00     0.047 A 
HETATM    8  C18 UNL     1    -114.986 -17.172  86.529  1.00  0.00     0.260 A 
HETATM    9  O1  UNL     1    -114.823 -17.734  87.662  1.00  0.00    -0.267 OA
HETATM   10  N3  UNL     1    -113.917 -16.649  85.949  1.00  0.00    -0.303 N 
HETATM   11  C19 UNL     1    -112.620 -16.710  86.571  1.00  0.00     0.161 C 
HETATM   12  C20 UNL     1    -114.038 -16.041  84.745  1.00  0.00     0.137 A 
HETATM   13  N4  UNL     1    -112.963 -15.508  84.150  1.00  0.00    -0.175 N 
ATOM     14  H4  UNL     1    -112.048 -15.557  84.598  1.00  0.00     0.186 HD
ENDROOT
BRANCH   1  15
HETATM   15  N1  UNL     1    -111.982 -14.346  82.321  1.00  0.00    -0.192 N 
ATOM     16  H1  UNL     1    -112.171 -13.595  81.657  1.00  0.00     0.184 HD
BRANCH  15  17
HETATM   17  C6  UNL     1    -110.637 -14.686  82.488  1.00  0.00     0.050 A 
HETATM   18  C5  UNL     1    -109.848 -15.255  81.527  1.00  0.00     0.030 A 
HETATM   19  C4  UNL     1    -108.502 -15.585  81.726  1.00  0.00     0.004 A 
HETATM   20  C3  UNL     1    -107.922 -15.334  82.936  1.00  0.00     0.018 A 
HETATM   21  C2  UNL     1    -108.692 -14.763  83.917  1.00  0.00     0.002 A 
HETATM   22  C21 UNL     1    -110.016 -14.439  83.721  1.00  0.00     0.048 A 
BRANCH  21  23
HETATM   23  S1  UNL     1    -107.950 -14.430  85.502  1.00  0.00    -0.134 SA
HETATM   24  C1  UNL     1    -107.291 -12.766  85.518  1.00  0.00     0.095 C 
ENDBRANCH  21  23
ENDBRANCH  15  17
ENDBRANCH   1  15
BRANCH   7  25
HETATM   25  C12 UNL     1    -117.377 -17.761  86.719  1.00  0.00     0.023 A 
HETATM   26  C13 UNL     1    -117.703 -19.083  86.502  1.00  0.00     0.046 A 
HETATM   27 CL1  UNL     1    -116.741 -19.996  85.355  1.00  0.00    -0.083 Cl
HETATM   28  C14 UNL     1    -118.771 -19.679  87.177  1.00  0.00     0.025 A 
HETATM   29  C15 UNL     1    -119.527 -18.960  88.080  1.00  0.00     0.003 A 
HETATM   30  C16 UNL     1    -119.211 -17.636  88.307  1.00  0.00     0.025 A 
HETATM   31  C17 UNL     1    -118.146 -17.051  87.630  1.00  0.00     0.046 A 
HETATM   32 CL2  UNL     1    -117.744 -15.383  87.912  1.00  0.00    -0.083 Cl
ENDBRANCH   7  25
TORSDOF 4
ENDMDL
