MODEL 4
REMARK VINA RESULT: -10.104157431      1.187      2.453
REMARK  4 active torsions:
REMARK  status: ('A' for Active; 'I' for Inactive)
REMARK    1  A    between atoms: S1_2  and  C2_3 
REMARK    2  A    between atoms: C6_7  and  N1_8 
REMARK    3  A    between atoms: N1_8  and  C7_10 
REMARK    4  A    between atoms: C11_16  and  C12_17 
ROOT
HETATM    1  C7  UNL     1    -112.975 -14.974  82.938  1.00  0.00     0.684 A 
HETATM    2  N2  UNL     1    -114.191 -14.930  82.407  1.00  0.00    -0.201 N 
ATOM      3  H2  UNL     1    -114.276 -14.480  81.496  1.00  0.00     0.183 HD
HETATM    4  C8  UNL     1    -115.304 -15.408  82.937  1.00  0.00     0.121 A 
HETATM    5  C9  UNL     1    -115.190 -16.021  84.179  1.00  0.00     0.026 A 
HETATM    6  C10 UNL     1    -116.329 -16.534  84.767  1.00  0.00     0.034 A 
HETATM    7  C11 UNL     1    -116.178 -17.139  86.006  1.00  0.00     0.047 A 
HETATM    8  C18 UNL     1    -114.908 -17.171  86.535  1.00  0.00     0.260 A 
HETATM    9  O1  UNL     1    -114.759 -17.725  87.673  1.00  0.00    -0.267 OA
HETATM   10  N3  UNL     1    -113.829 -16.673  85.953  1.00  0.00    -0.303 N 
HETATM   11  C19 UNL     1    -112.534 -16.750  86.580  1.00  0.00     0.161 C 
HETATM   12  C20 UNL     1    -113.935 -16.074  84.743  1.00  0.00     0.137 A 
HETATM   13  N4  UNL     1    -112.848 -15.567  84.147  1.00  0.00    -0.175 N 
ATOM     14  H4  UNL     1    -111.935 -15.628  84.598  1.00  0.00     0.186 HD
ENDROOT
BRANCH   1  15
HETATM   15  N1  UNL     1    -111.841 -14.441  82.309  1.00  0.00    -0.192 N 
ATOM     16  H1  UNL     1    -112.019 -13.733  81.596  1.00  0.00     0.184 HD
BRANCH  15  17
HETATM   17  C6  UNL     1    -110.498 -14.754  82.534  1.00  0.00     0.050 A 
HETATM   18  C5  UNL     1    -109.894 -14.775  83.761  1.00  0.00     0.030 A 
HETATM   19  C4  UNL     1    -108.543 -15.092  83.953  1.00  0.00     0.004 A 
HETATM   20  C3  UNL     1    -107.768 -15.403  82.874  1.00  0.00     0.018 A 
HETATM   21  C2  UNL     1    -108.350 -15.390  81.632  1.00  0.00     0.002 A 
HETATM   22  C21 UNL     1    -109.678 -15.077  81.443  1.00  0.00     0.048 A 
BRANCH  21  23
HETATM   23  S1  UNL     1    -107.350 -15.792  80.213  1.00  0.00    -0.134 SA
HETATM   24  C1  UNL     1    -107.088 -14.321  79.228  1.00  0.00     0.095 C 
ENDBRANCH  21  23
ENDBRANCH  15  17
ENDBRANCH   1  15
BRANCH   7  25
HETATM   25  C12 UNL     1    -117.310 -17.716  86.723  1.00  0.00     0.023 A 
HETATM   26  C13 UNL     1    -118.010 -16.956  87.635  1.00  0.00     0.046 A 
HETATM   27 CL1  UNL     1    -117.499 -15.300  87.900  1.00  0.00    -0.083 Cl
HETATM   28  C14 UNL     1    -119.096 -17.491  88.331  1.00  0.00     0.025 A 
HETATM   29  C15 UNL     1    -119.498 -18.795  88.122  1.00  0.00     0.003 A 
HETATM   30  C16 UNL     1    -118.806 -19.566  87.210  1.00  0.00     0.025 A 
HETATM   31  C17 UNL     1    -117.725 -19.025  86.522  1.00  0.00     0.046 A 
HETATM   32 CL2  UNL     1    -116.850 -19.992  85.374  1.00  0.00    -0.083 Cl
ENDBRANCH   7  25
TORSDOF 4
ENDMDL
