MODEL 15
REMARK VINA RESULT: -9.391839757      1.139      1.638
REMARK  4 active torsions:
REMARK  status: ('A' for Active; 'I' for Inactive)
REMARK    1  A    between atoms: S1_2  and  C2_3 
REMARK    2  A    between atoms: C6_7  and  N1_8 
REMARK    3  A    between atoms: N1_8  and  C7_10 
REMARK    4  A    between atoms: C11_16  and  C12_17 
ROOT
HETATM    1  C7  UNL     1    -112.481 -15.205  83.676  1.00  0.00     0.684 A 
HETATM    2  N2  UNL     1    -113.626 -15.144  83.006  1.00  0.00    -0.201 N 
ATOM      3  H2  UNL     1    -113.595 -14.698  82.089  1.00  0.00     0.183 HD
HETATM    4  C8  UNL     1    -114.801 -15.601  83.402  1.00  0.00     0.121 A 
HETATM    5  C9  UNL     1    -114.844 -16.209  84.651  1.00  0.00     0.026 A 
HETATM    6  C10 UNL     1    -116.053 -16.700  85.102  1.00  0.00     0.034 A 
HETATM    7  C11 UNL     1    -116.059 -17.301  86.353  1.00  0.00     0.047 A 
HETATM    8  C18 UNL     1    -114.861 -17.351  87.027  1.00  0.00     0.260 A 
HETATM    9  O1  UNL     1    -114.856 -17.902  88.177  1.00  0.00    -0.267 OA
HETATM   10  N3  UNL     1    -113.712 -16.874  86.575  1.00  0.00    -0.303 N 
HETATM   11  C19 UNL     1    -112.502 -16.969  87.351  1.00  0.00     0.161 C 
HETATM   12  C20 UNL     1    -113.665 -16.280  85.359  1.00  0.00     0.137 A 
HETATM   13  N4  UNL     1    -112.508 -15.794  84.893  1.00  0.00    -0.175 N 
ATOM     14  H4  UNL     1    -111.655 -15.867  85.449  1.00  0.00     0.186 HD
ENDROOT
BRANCH   1  15
HETATM   15  N1  UNL     1    -111.272 -14.694  83.183  1.00  0.00    -0.192 N 
ATOM     16  H1  UNL     1    -111.290 -14.359  82.220  1.00  0.00     0.184 HD
BRANCH  15  17
HETATM   17  C6  UNL     1    -110.045 -14.584  83.842  1.00  0.00     0.050 A 
HETATM   18  C5  UNL     1    -109.822 -13.827  84.959  1.00  0.00     0.030 A 
HETATM   19  C4  UNL     1    -108.578 -13.736  85.597  1.00  0.00     0.004 A 
HETATM   20  C3  UNL     1    -107.516 -14.434  85.097  1.00  0.00     0.018 A 
HETATM   21  C2  UNL     1    -107.715 -15.201  83.978  1.00  0.00     0.002 A 
HETATM   22  C21 UNL     1    -108.937 -15.290  83.351  1.00  0.00     0.048 A 
BRANCH  21  23
HETATM   23  S1  UNL     1    -106.338 -16.117  83.314  1.00  0.00    -0.134 SA
HETATM   24  C1  UNL     1    -104.852 -15.125  83.420  1.00  0.00     0.095 C 
ENDBRANCH  21  23
ENDBRANCH  15  17
ENDBRANCH   1  15
BRANCH   7  25
HETATM   25  C12 UNL     1    -117.277 -17.856  86.933  1.00  0.00     0.023 A 
HETATM   26  C13 UNL     1    -117.689 -19.126  86.590  1.00  0.00     0.046 A 
HETATM   27 CL1  UNL     1    -116.714 -20.034  85.451  1.00  0.00    -0.083 Cl
HETATM   28  C14 UNL     1    -118.852 -19.674  87.136  1.00  0.00     0.025 A 
HETATM   29  C15 UNL     1    -119.619 -18.958  88.032  1.00  0.00     0.003 A 
HETATM   30  C16 UNL     1    -119.217 -17.685  88.385  1.00  0.00     0.025 A 
HETATM   31  C17 UNL     1    -118.057 -17.148  87.836  1.00  0.00     0.046 A 
HETATM   32 CL2  UNL     1    -117.547 -15.545  88.275  1.00  0.00    -0.083 Cl
ENDBRANCH   7  25
TORSDOF 4
ENDMDL
