MODEL 9
REMARK VINA RESULT: -11.131678746      2.451      4.130
REMARK  12 active torsions:
REMARK  status: ('A' for Active; 'I' for Inactive)
REMARK    1  A    between atoms: O1_2  and  C2_3 
REMARK    2  A    between atoms: C5_6  and  O2_7 
REMARK    3  A    between atoms: O2_7  and  C6_8 
REMARK    4  A    between atoms: C9_11  and  N1_12 
REMARK       I    between atoms: N1_12  and  C10_14 
REMARK    5  A    between atoms: C10_14  and  C11_16 
REMARK    6  A    between atoms: C11_16  and  C12_17 
REMARK       I    between atoms: C12_17  and  N2_19 
REMARK    7  A    between atoms: N2_19  and  C13_21 
REMARK    8  A    between atoms: C27_39  and  O5_40 
REMARK    9  A    between atoms: O5_40  and  C28_41 
REMARK   10  A    between atoms: C28_41  and  C29_42 
REMARK   11  A    between atoms: C29_42  and  C30_43 
REMARK   12  A    between atoms: C30_43  and  N4_44 
ROOT
HETATM    1  C6  UNL     1      18.298  -7.276 104.293  1.00  0.00     0.114 A 
HETATM    2  C7  UNL     1      18.739  -6.425 105.277  1.00  0.00     0.043 A 
HETATM    3  C8  UNL     1      19.460  -6.917 106.381  1.00  0.00     0.032 A 
HETATM    4  C9  UNL     1      19.763  -8.240 106.546  1.00  0.00     0.037 A 
HETATM    5  C21 UNL     1      19.304  -9.092 105.528  1.00  0.00     0.074 A 
HETATM    6  C22 UNL     1      18.600  -8.610 104.452  1.00  0.00     0.152 A 
HETATM    7  F2  UNL     1      18.177  -9.474 103.471  1.00  0.00    -0.203 F 
ENDROOT
BRANCH   1   8
HETATM    8  O2  UNL     1      17.590  -6.798 103.207  1.00  0.00    -0.307 OA
BRANCH   8   9
HETATM    9  C5  UNL     1      16.242  -6.504 103.274  1.00  0.00     0.090 A 
HETATM   10  C4  UNL     1      15.625  -5.840 102.200  1.00  0.00     0.027 A 
HETATM   11  C3  UNL     1      16.360  -5.486 101.096  1.00  0.00     0.056 A 
HETATM   12  C25 UNL     1      14.285  -5.529 102.223  1.00  0.00     0.048 A 
HETATM   13  C2  UNL     1      15.753  -4.838 100.052  1.00  0.00     0.102 A 
HETATM   14  C27 UNL     1      14.417  -4.513 100.042  1.00  0.00     0.104 A 
HETATM   15  C26 UNL     1      13.688  -4.871 101.152  1.00  0.00     0.070 A 
HETATM   16  N3  UNL     1      13.526  -5.865 103.300  1.00  0.00    -0.365 N 
HETATM   17  C24 UNL     1      14.093  -6.499 104.336  1.00  0.00     0.091 A 
ATOM     18  H3  UNL     1      12.533  -5.636 103.320  1.00  0.00     0.165 HD
HETATM   19  C23 UNL     1      15.443  -6.826 104.341  1.00  0.00     0.055 A 
BRANCH  13  20
HETATM   20  O1  UNL     1      16.510  -4.492  98.951  1.00  0.00    -0.353 OA
HETATM   21  C1  UNL     1      17.430  -5.414  98.418  1.00  0.00     0.210 C 
ENDBRANCH  13  20
BRANCH  14  22
HETATM   22  O5  UNL     1      13.899  -3.860  98.939  1.00  0.00    -0.348 OA
BRANCH  22  23
HETATM   23  C28 UNL     1      12.528  -3.441  98.916  1.00  0.00     0.177 C 
BRANCH  23  24
HETATM   24  C29 UNL     1      12.350  -2.188  98.140  1.00  0.00     0.057 C 
BRANCH  24  25
HETATM   25  C30 UNL     1      11.577  -2.346  96.885  1.00  0.00     0.274 C 
BRANCH  25  26
HETATM   26  N4  UNL     1      10.998  -3.635  96.626  1.00  0.00     0.092 N 
HETATM   27  C31 UNL     1       9.568  -3.547  96.652  1.00  0.00     0.298 C 
HETATM   28  C32 UNL     1       8.860  -4.293  95.565  1.00  0.00     0.198 C 
HETATM   29  O6  UNL     1       9.477  -5.562  95.485  1.00  0.00    -0.388 OA
HETATM   30  C33 UNL     1      10.682  -5.312  94.835  1.00  0.00     0.198 C 
HETATM   31  C34 UNL     1      11.586  -4.402  95.590  1.00  0.00     0.298 C 
ENDBRANCH  25  26
ENDBRANCH  24  25
ENDBRANCH  23  24
ENDBRANCH  22  23
ENDBRANCH  14  22
ENDBRANCH   8   9
ENDBRANCH   1   8
BRANCH   4  32
HETATM   32  N1  UNL     1      20.468  -8.801 107.632  1.00  0.00    -0.326 N 
HETATM   33  C10 UNL     1      21.866  -8.953 107.776  1.00  0.00     0.240 C 
HETATM   34  O3  UNL     1      22.578  -8.544 106.837  1.00  0.00    -0.272 OA
ATOM     35  H1  UNL     1      19.899  -9.138 108.409  1.00  0.00     0.169 HD
BRANCH  33  36
HETATM   36  C11 UNL     1      22.471  -9.572 108.990  1.00  0.00     0.122 A 
HETATM   37  C19 UNL     1      23.473 -10.656 108.874  1.00  0.00     0.031 A 
HETATM   38  C20 UNL     1      22.068 -11.011 109.285  1.00  0.00     0.031 A 
BRANCH  36  39
HETATM   39  C12 UNL     1      22.569  -8.744 110.210  1.00  0.00     0.240 C 
HETATM   40  O4  UNL     1      23.659  -8.911 110.871  1.00  0.00    -0.272 OA
HETATM   41  N2  UNL     1      21.610  -7.838 110.672  1.00  0.00    -0.326 N 
ATOM     42  H2  UNL     1      20.762  -7.723 110.117  1.00  0.00     0.169 HD
BRANCH  41  43
HETATM   43  C13 UNL     1      21.730  -7.077 111.845  1.00  0.00     0.034 A 
HETATM   44  C14 UNL     1      20.557  -6.545 112.387  1.00  0.00     0.032 A 
HETATM   45  C15 UNL     1      20.528  -5.801 113.534  1.00  0.00     0.044 A 
HETATM   46  C16 UNL     1      21.708  -5.555 114.197  1.00  0.00     0.116 A 
HETATM   47  F1  UNL     1      21.710  -4.816 115.341  1.00  0.00    -0.206 F 
HETATM   48  C17 UNL     1      22.870  -6.063 113.690  1.00  0.00     0.044 A 
HETATM   49  C18 UNL     1      22.882  -6.826 112.510  1.00  0.00     0.032 A 
ENDBRANCH  41  43
ENDBRANCH  36  39
ENDBRANCH  33  36
ENDBRANCH   4  32
TORSDOF 12
ENDMDL
