MODEL 4
REMARK VINA RESULT: -11.324005667      1.956      3.104
REMARK  12 active torsions:
REMARK  status: ('A' for Active; 'I' for Inactive)
REMARK    1  A    between atoms: O1_2  and  C2_3 
REMARK    2  A    between atoms: C5_6  and  O2_7 
REMARK    3  A    between atoms: O2_7  and  C6_8 
REMARK    4  A    between atoms: C9_11  and  N1_12 
REMARK       I    between atoms: N1_12  and  C10_14 
REMARK    5  A    between atoms: C10_14  and  C11_16 
REMARK    6  A    between atoms: C11_16  and  C12_17 
REMARK       I    between atoms: C12_17  and  N2_19 
REMARK    7  A    between atoms: N2_19  and  C13_21 
REMARK    8  A    between atoms: C27_39  and  O5_40 
REMARK    9  A    between atoms: O5_40  and  C28_41 
REMARK   10  A    between atoms: C28_41  and  C29_42 
REMARK   11  A    between atoms: C29_42  and  C30_43 
REMARK   12  A    between atoms: C30_43  and  N4_44 
ROOT
HETATM    1  C6  UNL     1      17.961  -7.289 103.763  1.00  0.00     0.114 A 
HETATM    2  C7  UNL     1      18.180  -8.616 104.040  1.00  0.00     0.043 A 
HETATM    3  C8  UNL     1      18.861  -9.003 105.210  1.00  0.00     0.032 A 
HETATM    4  C9  UNL     1      19.338  -8.109 106.127  1.00  0.00     0.037 A 
HETATM    5  C21 UNL     1      19.102  -6.756 105.825  1.00  0.00     0.074 A 
HETATM    6  C22 UNL     1      18.439  -6.381 104.682  1.00  0.00     0.152 A 
HETATM    7  F2  UNL     1      18.218  -5.050 104.427  1.00  0.00    -0.203 F 
ENDROOT
BRANCH   1   8
HETATM    8  O2  UNL     1      17.294  -6.904 102.616  1.00  0.00    -0.307 OA
BRANCH   8   9
HETATM    9  C5  UNL     1      16.029  -6.349 102.647  1.00  0.00     0.090 A 
HETATM   10  C4  UNL     1      15.557  -5.645 101.527  1.00  0.00     0.027 A 
HETATM   11  C3  UNL     1      16.348  -5.510 100.413  1.00  0.00     0.056 A 
HETATM   12  C25 UNL     1      14.303  -5.078 101.512  1.00  0.00     0.048 A 
HETATM   13  C2  UNL     1      15.882  -4.822  99.324  1.00  0.00     0.102 A 
HETATM   14  C27 UNL     1      14.636  -4.244  99.276  1.00  0.00     0.104 A 
HETATM   15  C26 UNL     1      13.848  -4.383 100.396  1.00  0.00     0.070 A 
HETATM   16  N3  UNL     1      13.492  -5.191 102.597  1.00  0.00    -0.365 N 
HETATM   17  C24 UNL     1      13.921  -5.859 103.677  1.00  0.00     0.091 A 
ATOM     18  H3  UNL     1      12.562  -4.771 102.590  1.00  0.00     0.165 HD
HETATM   19  C23 UNL     1      15.181  -6.443 103.720  1.00  0.00     0.055 A 
BRANCH  13  20
HETATM   20  O1  UNL     1      16.694  -4.699  98.215  1.00  0.00    -0.353 OA
HETATM   21  C1  UNL     1      18.044  -5.088  98.291  1.00  0.00     0.210 C 
ENDBRANCH  13  20
BRANCH  14  22
HETATM   22  O5  UNL     1      14.257  -3.570  98.128  1.00  0.00    -0.348 OA
BRANCH  22  23
HETATM   23  C28 UNL     1      12.950  -3.757  97.571  1.00  0.00     0.177 C 
BRANCH  23  24
HETATM   24  C29 UNL     1      12.141  -2.515  97.644  1.00  0.00     0.057 C 
BRANCH  24  25
HETATM   25  C30 UNL     1      12.932  -1.262  97.614  1.00  0.00     0.274 C 
BRANCH  25  26
HETATM   26  N4  UNL     1      12.277  -0.058  98.046  1.00  0.00     0.092 N 
HETATM   27  C31 UNL     1      13.200   1.038  98.029  1.00  0.00     0.298 C 
HETATM   28  C32 UNL     1      12.663   2.320  97.471  1.00  0.00     0.198 C 
HETATM   29  O6  UNL     1      11.383   2.496  98.043  1.00  0.00    -0.388 OA
HETATM   30  C33 UNL     1      10.576   1.597  97.352  1.00  0.00     0.198 C 
HETATM   31  C34 UNL     1      10.976   0.177  97.539  1.00  0.00     0.298 C 
ENDBRANCH  25  26
ENDBRANCH  24  25
ENDBRANCH  23  24
ENDBRANCH  22  23
ENDBRANCH  14  22
ENDBRANCH   8   9
ENDBRANCH   1   8
BRANCH   4  32
HETATM   32  N1  UNL     1      20.039  -8.426 107.309  1.00  0.00    -0.326 N 
HETATM   33  C10 UNL     1      21.431  -8.614 107.471  1.00  0.00     0.240 C 
HETATM   34  O3  UNL     1      22.140  -8.486 106.453  1.00  0.00    -0.272 OA
ATOM     35  H1  UNL     1      19.472  -8.532 108.151  1.00  0.00     0.169 HD
BRANCH  33  36
HETATM   36  C11 UNL     1      22.032  -8.950 108.793  1.00  0.00     0.122 A 
HETATM   37  C19 UNL     1      23.300  -9.709 108.883  1.00  0.00     0.031 A 
HETATM   38  C20 UNL     1      22.009 -10.421 109.190  1.00  0.00     0.031 A 
BRANCH  36  39
HETATM   39  C12 UNL     1      21.750  -8.047 109.929  1.00  0.00     0.240 C 
HETATM   40  O4  UNL     1      20.805  -7.205 109.706  1.00  0.00    -0.272 OA
HETATM   41  N2  UNL     1      22.403  -8.046 111.164  1.00  0.00    -0.326 N 
ATOM     42  H2  UNL     1      23.140  -8.736 111.311  1.00  0.00     0.169 HD
BRANCH  41  43
HETATM   43  C13 UNL     1      22.117  -7.164 112.218  1.00  0.00     0.034 A 
HETATM   44  C14 UNL     1      20.770  -6.910 112.493  1.00  0.00     0.032 A 
HETATM   45  C15 UNL     1      20.351  -6.086 113.501  1.00  0.00     0.044 A 
HETATM   46  C16 UNL     1      21.293  -5.469 114.291  1.00  0.00     0.116 A 
HETATM   47  F1  UNL     1      20.906  -4.642 115.302  1.00  0.00    -0.206 F 
HETATM   48  C17 UNL     1      22.617  -5.700 114.045  1.00  0.00     0.044 A 
HETATM   49  C18 UNL     1      23.030  -6.549 113.005  1.00  0.00     0.032 A 
ENDBRANCH  41  43
ENDBRANCH  36  39
ENDBRANCH  33  36
ENDBRANCH   4  32
TORSDOF 12
ENDMDL
