MODEL 2
REMARK VINA RESULT: -11.437208210      1.869      2.599
REMARK  12 active torsions:
REMARK  status: ('A' for Active; 'I' for Inactive)
REMARK    1  A    between atoms: O1_2  and  C2_3 
REMARK    2  A    between atoms: C5_6  and  O2_7 
REMARK    3  A    between atoms: O2_7  and  C6_8 
REMARK    4  A    between atoms: C9_11  and  N1_12 
REMARK       I    between atoms: N1_12  and  C10_14 
REMARK    5  A    between atoms: C10_14  and  C11_16 
REMARK    6  A    between atoms: C11_16  and  C12_17 
REMARK       I    between atoms: C12_17  and  N2_19 
REMARK    7  A    between atoms: N2_19  and  C13_21 
REMARK    8  A    between atoms: C27_39  and  O5_40 
REMARK    9  A    between atoms: O5_40  and  C28_41 
REMARK   10  A    between atoms: C28_41  and  C29_42 
REMARK   11  A    between atoms: C29_42  and  C30_43 
REMARK   12  A    between atoms: C30_43  and  N4_44 
ROOT
HETATM    1  C6  UNL     1      18.292  -7.041 104.412  1.00  0.00     0.114 A 
HETATM    2  C7  UNL     1      18.727  -6.222 105.425  1.00  0.00     0.043 A 
HETATM    3  C8  UNL     1      19.433  -6.751 106.523  1.00  0.00     0.032 A 
HETATM    4  C9  UNL     1      19.727  -8.080 106.651  1.00  0.00     0.037 A 
HETATM    5  C21 UNL     1      19.273  -8.899 105.603  1.00  0.00     0.074 A 
HETATM    6  C22 UNL     1      18.584  -8.381 104.534  1.00  0.00     0.152 A 
HETATM    7  F2  UNL     1      18.166  -9.212 103.524  1.00  0.00    -0.203 F 
ENDROOT
BRANCH   1   8
HETATM    8  O2  UNL     1      17.598  -6.526 103.334  1.00  0.00    -0.307 OA
BRANCH   8   9
HETATM    9  C5  UNL     1      16.225  -6.375 103.341  1.00  0.00     0.090 A 
HETATM   10  C4  UNL     1      15.583  -5.835 102.214  1.00  0.00     0.027 A 
HETATM   11  C3  UNL     1      16.318  -5.461 101.116  1.00  0.00     0.056 A 
HETATM   12  C25 UNL     1      14.218  -5.668 102.177  1.00  0.00     0.048 A 
HETATM   13  C2  UNL     1      15.686  -4.936 100.020  1.00  0.00     0.102 A 
HETATM   14  C27 UNL     1      14.325  -4.756  99.949  1.00  0.00     0.104 A 
HETATM   15  C26 UNL     1      13.596  -5.132 101.053  1.00  0.00     0.070 A 
HETATM   16  N3  UNL     1      13.458  -6.028 103.245  1.00  0.00    -0.365 N 
HETATM   17  C24 UNL     1      14.049  -6.545 104.332  1.00  0.00     0.091 A 
ATOM     18  H3  UNL     1      12.447  -5.904 103.221  1.00  0.00     0.165 HD
HETATM   19  C23 UNL     1      15.424  -6.725 104.398  1.00  0.00     0.055 A 
BRANCH  13  20
HETATM   20  O1  UNL     1      16.444  -4.567  98.926  1.00  0.00    -0.353 OA
HETATM   21  C1  UNL     1      17.365  -5.477  98.375  1.00  0.00     0.210 C 
ENDBRANCH  13  20
BRANCH  14  22
HETATM   22  O5  UNL     1      13.784  -4.217  98.796  1.00  0.00    -0.348 OA
BRANCH  22  23
HETATM   23  C28 UNL     1      12.415  -3.792  98.763  1.00  0.00     0.177 C 
BRANCH  23  24
HETATM   24  C29 UNL     1      12.138  -2.927  97.588  1.00  0.00     0.057 C 
BRANCH  24  25
HETATM   25  C30 UNL     1      13.235  -1.994  97.239  1.00  0.00     0.274 C 
BRANCH  25  26
HETATM   26  N4  UNL     1      13.541  -0.953  98.181  1.00  0.00     0.092 N 
HETATM   27  C31 UNL     1      14.954  -0.899  98.414  1.00  0.00     0.298 C 
HETATM   28  C32 UNL     1      15.544   0.476  98.459  1.00  0.00     0.198 C 
HETATM   29  O6  UNL     1      14.677   1.255  99.258  1.00  0.00    -0.388 OA
HETATM   30  C33 UNL     1      13.588   1.507  98.428  1.00  0.00     0.198 C 
HETATM   31  C34 UNL     1      12.860   0.277  98.016  1.00  0.00     0.298 C 
ENDBRANCH  25  26
ENDBRANCH  24  25
ENDBRANCH  23  24
ENDBRANCH  22  23
ENDBRANCH  14  22
ENDBRANCH   8   9
ENDBRANCH   1   8
BRANCH   4  32
HETATM   32  N1  UNL     1      20.417  -8.678 107.727  1.00  0.00    -0.326 N 
HETATM   33  C10 UNL     1      21.807  -8.911 107.847  1.00  0.00     0.240 C 
HETATM   34  O3  UNL     1      22.524  -8.547 106.894  1.00  0.00    -0.272 OA
ATOM     35  H1  UNL     1      19.844  -8.978 108.515  1.00  0.00     0.169 HD
BRANCH  33  36
HETATM   36  C11 UNL     1      22.396  -9.559 109.053  1.00  0.00     0.122 A 
HETATM   37  C19 UNL     1      23.390 -10.649 108.923  1.00  0.00     0.031 A 
HETATM   38  C20 UNL     1      21.979 -11.002 109.314  1.00  0.00     0.031 A 
BRANCH  36  39
HETATM   39  C12 UNL     1      22.489  -8.758 110.291  1.00  0.00     0.240 C 
HETATM   40  O4  UNL     1      23.480  -9.074 111.047  1.00  0.00    -0.272 OA
HETATM   41  N2  UNL     1      21.622  -7.732 110.678  1.00  0.00    -0.326 N 
ATOM     42  H2  UNL     1      20.854  -7.500 110.049  1.00  0.00     0.169 HD
BRANCH  41  43
HETATM   43  C13 UNL     1      21.733  -6.999 111.870  1.00  0.00     0.034 A 
HETATM   44  C14 UNL     1      20.549  -6.540 112.453  1.00  0.00     0.032 A 
HETATM   45  C15 UNL     1      20.511  -5.831 113.622  1.00  0.00     0.044 A 
HETATM   46  C16 UNL     1      21.693  -5.548 114.266  1.00  0.00     0.116 A 
HETATM   47  F1  UNL     1      21.687  -4.843 115.431  1.00  0.00    -0.206 F 
HETATM   48  C17 UNL     1      22.866  -5.985 113.719  1.00  0.00     0.044 A 
HETATM   49  C18 UNL     1      22.887  -6.712 112.517  1.00  0.00     0.032 A 
ENDBRANCH  41  43
ENDBRANCH  36  39
ENDBRANCH  33  36
ENDBRANCH   4  32
TORSDOF 12
ENDMDL
