MODEL 18
REMARK VINA RESULT: -10.480175427      1.937      2.624
REMARK  12 active torsions:
REMARK  status: ('A' for Active; 'I' for Inactive)
REMARK    1  A    between atoms: O1_2  and  C2_3 
REMARK    2  A    between atoms: C5_6  and  O2_7 
REMARK    3  A    between atoms: O2_7  and  C6_8 
REMARK    4  A    between atoms: C9_11  and  N1_12 
REMARK       I    between atoms: N1_12  and  C10_14 
REMARK    5  A    between atoms: C10_14  and  C11_16 
REMARK    6  A    between atoms: C11_16  and  C12_17 
REMARK       I    between atoms: C12_17  and  N2_19 
REMARK    7  A    between atoms: N2_19  and  C13_21 
REMARK    8  A    between atoms: C27_39  and  O5_40 
REMARK    9  A    between atoms: O5_40  and  C28_41 
REMARK   10  A    between atoms: C28_41  and  C29_42 
REMARK   11  A    between atoms: C29_42  and  C30_43 
REMARK   12  A    between atoms: C30_43  and  N4_44 
ROOT
HETATM    1  C6  UNL     1      17.661  -7.730 103.781  1.00  0.00     0.114 A 
HETATM    2  C7  UNL     1      17.945  -6.687 104.628  1.00  0.00     0.043 A 
HETATM    3  C8  UNL     1      18.694  -6.897 105.801  1.00  0.00     0.032 A 
HETATM    4  C9  UNL     1      19.177  -8.122 106.169  1.00  0.00     0.037 A 
HETATM    5  C21 UNL     1      18.876  -9.175 105.288  1.00  0.00     0.074 A 
HETATM    6  C22 UNL     1      18.144  -8.967 104.144  1.00  0.00     0.152 A 
HETATM    7  F2  UNL     1      17.880 -10.020 103.303  1.00  0.00    -0.203 F 
ENDROOT
BRANCH   1   8
HETATM    8  O2  UNL     1      16.926  -7.528 102.629  1.00  0.00    -0.307 OA
BRANCH   8   9
HETATM    9  C5  UNL     1      16.098  -6.434 102.461  1.00  0.00     0.090 A 
HETATM   10  C4  UNL     1      16.532  -5.353 101.676  1.00  0.00     0.027 A 
HETATM   11  C3  UNL     1      17.769  -5.386 101.082  1.00  0.00     0.056 A 
HETATM   12  C25 UNL     1      15.739  -4.245 101.480  1.00  0.00     0.048 A 
HETATM   13  C2  UNL     1      18.185  -4.328 100.316  1.00  0.00     0.102 A 
HETATM   14  C27 UNL     1      17.420  -3.207 100.100  1.00  0.00     0.104 A 
HETATM   15  C26 UNL     1      16.182  -3.182 100.700  1.00  0.00     0.070 A 
HETATM   16  N3  UNL     1      14.508  -4.179 102.053  1.00  0.00    -0.365 N 
HETATM   17  C24 UNL     1      14.074  -5.198 102.807  1.00  0.00     0.091 A 
ATOM     18  H3  UNL     1      13.919  -3.359 101.911  1.00  0.00     0.165 HD
HETATM   19  C23 UNL     1      14.850  -6.329 103.021  1.00  0.00     0.055 A 
BRANCH  13  20
HETATM   20  O1  UNL     1      19.433  -4.382  99.728  1.00  0.00    -0.353 OA
HETATM   21  C1  UNL     1      19.598  -5.047  98.499  1.00  0.00     0.210 C 
ENDBRANCH  13  20
BRANCH  14  22
HETATM   22  O5  UNL     1      17.932  -2.193  99.311  1.00  0.00    -0.348 OA
BRANCH  22  23
HETATM   23  C28 UNL     1      18.365  -0.959  99.898  1.00  0.00     0.177 C 
BRANCH  23  24
HETATM   24  C29 UNL     1      19.328  -0.244  99.023  1.00  0.00     0.057 C 
BRANCH  24  25
HETATM   25  C30 UNL     1      20.752  -0.455  99.375  1.00  0.00     0.274 C 
BRANCH  25  26
HETATM   26  N4  UNL     1      21.286  -1.777  99.199  1.00  0.00     0.092 N 
HETATM   27  C31 UNL     1      21.606  -2.000  97.820  1.00  0.00     0.298 C 
HETATM   28  C32 UNL     1      22.910  -2.690  97.568  1.00  0.00     0.198 C 
HETATM   29  O6  UNL     1      22.972  -3.768  98.479  1.00  0.00    -0.388 OA
HETATM   30  C33 UNL     1      23.272  -3.164  99.697  1.00  0.00     0.198 C 
HETATM   31  C34 UNL     1      22.221  -2.220 100.166  1.00  0.00     0.298 C 
ENDBRANCH  25  26
ENDBRANCH  24  25
ENDBRANCH  23  24
ENDBRANCH  22  23
ENDBRANCH  14  22
ENDBRANCH   8   9
ENDBRANCH   1   8
BRANCH   4  32
HETATM   32  N1  UNL     1      19.920  -8.406 107.334  1.00  0.00    -0.326 N 
HETATM   33  C10 UNL     1      21.325  -8.505 107.467  1.00  0.00     0.240 C 
HETATM   34  O3  UNL     1      22.004  -8.319 106.438  1.00  0.00    -0.272 OA
ATOM     35  H1  UNL     1      19.379  -8.559 108.184  1.00  0.00     0.169 HD
BRANCH  33  36
HETATM   36  C11 UNL     1      21.972  -8.816 108.773  1.00  0.00     0.122 A 
HETATM   37  C19 UNL     1      23.280  -9.508 108.830  1.00  0.00     0.031 A 
HETATM   38  C20 UNL     1      22.035 -10.288 109.161  1.00  0.00     0.031 A 
BRANCH  36  39
HETATM   39  C12 UNL     1      21.670  -7.935 109.920  1.00  0.00     0.240 C 
HETATM   40  O4  UNL     1      20.714  -7.102 109.704  1.00  0.00    -0.272 OA
HETATM   41  N2  UNL     1      22.314  -7.944 111.161  1.00  0.00    -0.326 N 
ATOM     42  H2  UNL     1      23.059  -8.625 111.302  1.00  0.00     0.169 HD
BRANCH  41  43
HETATM   43  C13 UNL     1      22.008  -7.082 112.225  1.00  0.00     0.034 A 
HETATM   44  C14 UNL     1      20.658  -6.921 112.552  1.00  0.00     0.032 A 
HETATM   45  C15 UNL     1      20.221  -6.127 113.576  1.00  0.00     0.044 A 
HETATM   46  C16 UNL     1      21.148  -5.446 114.331  1.00  0.00     0.116 A 
HETATM   47  F1  UNL     1      20.743  -4.647 115.357  1.00  0.00    -0.206 F 
HETATM   48  C17 UNL     1      22.474  -5.586 114.035  1.00  0.00     0.044 A 
HETATM   49  C18 UNL     1      22.905  -6.405 112.979  1.00  0.00     0.032 A 
ENDBRANCH  41  43
ENDBRANCH  36  39
ENDBRANCH  33  36
ENDBRANCH   4  32
TORSDOF 12
ENDMDL
