MODEL 6
REMARK VINA RESULT: -11.255911318      2.017      3.089
REMARK  12 active torsions:
REMARK  status: ('A' for Active; 'I' for Inactive)
REMARK    1  A    between atoms: O1_2  and  C2_3 
REMARK    2  A    between atoms: C5_6  and  O2_7 
REMARK    3  A    between atoms: O2_7  and  C6_8 
REMARK    4  A    between atoms: C9_11  and  N1_12 
REMARK       I    between atoms: N1_12  and  C10_14 
REMARK    5  A    between atoms: C10_14  and  C11_16 
REMARK    6  A    between atoms: C11_16  and  C12_17 
REMARK       I    between atoms: C12_17  and  N2_19 
REMARK    7  A    between atoms: N2_19  and  C13_21 
REMARK    8  A    between atoms: C27_39  and  O5_40 
REMARK    9  A    between atoms: O5_40  and  C28_41 
REMARK   10  A    between atoms: C28_41  and  C29_42 
REMARK   11  A    between atoms: C29_42  and  C30_43 
REMARK   12  A    between atoms: C30_43  and  N4_44 
ROOT
HETATM    1  C6  UNL     1      17.849  -7.324 103.740  1.00  0.00     0.114 A 
HETATM    2  C7  UNL     1      18.338  -6.301 104.515  1.00  0.00     0.043 A 
HETATM    3  C8  UNL     1      19.042  -6.573 105.704  1.00  0.00     0.032 A 
HETATM    4  C9  UNL     1      19.281  -7.841 106.156  1.00  0.00     0.037 A 
HETATM    5  C21 UNL     1      18.773  -8.872 105.348  1.00  0.00     0.074 A 
HETATM    6  C22 UNL     1      18.085  -8.604 104.190  1.00  0.00     0.152 A 
HETATM    7  F2  UNL     1      17.614  -9.640 103.421  1.00  0.00    -0.203 F 
ENDROOT
BRANCH   1   8
HETATM    8  O2  UNL     1      17.157  -7.062 102.574  1.00  0.00    -0.307 OA
BRANCH   8   9
HETATM    9  C5  UNL     1      15.956  -6.379 102.563  1.00  0.00     0.090 A 
HETATM   10  C4  UNL     1      15.597  -5.632 101.428  1.00  0.00     0.027 A 
HETATM   11  C3  UNL     1      16.435  -5.581 100.343  1.00  0.00     0.056 A 
HETATM   12  C25 UNL     1      14.409  -4.938 101.373  1.00  0.00     0.048 A 
HETATM   13  C2  UNL     1      16.078  -4.851  99.239  1.00  0.00     0.102 A 
HETATM   14  C27 UNL     1      14.901  -4.147  99.151  1.00  0.00     0.104 A 
HETATM   15  C26 UNL     1      14.066  -4.202 100.243  1.00  0.00     0.070 A 
HETATM   16  N3  UNL     1      13.555  -4.966 102.430  1.00  0.00    -0.365 N 
HETATM   17  C24 UNL     1      13.877  -5.672 103.522  1.00  0.00     0.091 A 
ATOM     18  H3  UNL     1      12.675  -4.452 102.392  1.00  0.00     0.165 HD
HETATM   19  C23 UNL     1      15.067  -6.382 103.607  1.00  0.00     0.055 A 
BRANCH  13  20
HETATM   20  O1  UNL     1      16.936  -4.814  98.158  1.00  0.00    -0.353 OA
HETATM   21  C1  UNL     1      18.309  -5.054  98.347  1.00  0.00     0.210 C 
ENDBRANCH  13  20
BRANCH  14  22
HETATM   22  O5  UNL     1      14.633  -3.440  97.992  1.00  0.00    -0.348 OA
BRANCH  22  23
HETATM   23  C28 UNL     1      13.375  -3.591  97.321  1.00  0.00     0.177 C 
BRANCH  23  24
HETATM   24  C29 UNL     1      12.546  -2.364  97.429  1.00  0.00     0.057 C 
BRANCH  24  25
HETATM   25  C30 UNL     1      13.313  -1.123  97.686  1.00  0.00     0.274 C 
BRANCH  25  26
HETATM   26  N4  UNL     1      12.572   0.038  98.095  1.00  0.00     0.092 N 
HETATM   27  C31 UNL     1      13.442   1.174  98.178  1.00  0.00     0.298 C 
HETATM   28  C32 UNL     1      12.891   2.446  97.614  1.00  0.00     0.198 C 
HETATM   29  O6  UNL     1      11.564   2.549  98.088  1.00  0.00    -0.388 OA
HETATM   30  C33 UNL     1      10.855   1.636  97.313  1.00  0.00     0.198 C 
HETATM   31  C34 UNL     1      11.304   0.229  97.494  1.00  0.00     0.298 C 
ENDBRANCH  25  26
ENDBRANCH  24  25
ENDBRANCH  23  24
ENDBRANCH  22  23
ENDBRANCH  14  22
ENDBRANCH   8   9
ENDBRANCH   1   8
BRANCH   4  32
HETATM   32  N1  UNL     1      19.965  -8.184 107.342  1.00  0.00    -0.326 N 
HETATM   33  C10 UNL     1      21.341  -8.468 107.500  1.00  0.00     0.240 C 
HETATM   34  O3  UNL     1      22.051  -8.410 106.476  1.00  0.00    -0.272 OA
ATOM     35  H1  UNL     1      19.398  -8.233 108.188  1.00  0.00     0.169 HD
BRANCH  33  36
HETATM   36  C11 UNL     1      21.925  -8.820 108.826  1.00  0.00     0.122 A 
HETATM   37  C19 UNL     1      23.207  -9.555 108.923  1.00  0.00     0.031 A 
HETATM   38  C20 UNL     1      21.926 -10.300 109.190  1.00  0.00     0.031 A 
BRANCH  36  39
HETATM   39  C12 UNL     1      21.603  -7.949 109.975  1.00  0.00     0.240 C 
HETATM   40  O4  UNL     1      20.732  -7.039 109.715  1.00  0.00    -0.272 OA
HETATM   41  N2  UNL     1      22.149  -8.040 111.258  1.00  0.00    -0.326 N 
ATOM     42  H2  UNL     1      22.828  -8.780 111.432  1.00  0.00     0.169 HD
BRANCH  41  43
HETATM   43  C13 UNL     1      21.829  -7.185 112.324  1.00  0.00     0.034 A 
HETATM   44  C14 UNL     1      22.891  -6.563 112.987  1.00  0.00     0.032 A 
HETATM   45  C15 UNL     1      22.721  -5.693 114.030  1.00  0.00     0.044 A 
HETATM   46  C16 UNL     1      21.444  -5.409 114.457  1.00  0.00     0.116 A 
HETATM   47  F1  UNL     1      21.244  -4.548 115.493  1.00  0.00    -0.206 F 
HETATM   48  C17 UNL     1      20.388  -6.003 113.827  1.00  0.00     0.044 A 
HETATM   49  C18 UNL     1      20.580  -6.893 112.757  1.00  0.00     0.032 A 
ENDBRANCH  41  43
ENDBRANCH  36  39
ENDBRANCH  33  36
ENDBRANCH   4  32
TORSDOF 12
ENDMDL
