MODEL 5
REMARK VINA RESULT: -11.263145644      1.658      2.384
REMARK  12 active torsions:
REMARK  status: ('A' for Active; 'I' for Inactive)
REMARK    1  A    between atoms: O1_2  and  C2_3 
REMARK    2  A    between atoms: C5_6  and  O2_7 
REMARK    3  A    between atoms: O2_7  and  C6_8 
REMARK    4  A    between atoms: C9_11  and  N1_12 
REMARK       I    between atoms: N1_12  and  C10_14 
REMARK    5  A    between atoms: C10_14  and  C11_16 
REMARK    6  A    between atoms: C11_16  and  C12_17 
REMARK       I    between atoms: C12_17  and  N2_19 
REMARK    7  A    between atoms: N2_19  and  C13_21 
REMARK    8  A    between atoms: C27_39  and  O5_40 
REMARK    9  A    between atoms: O5_40  and  C28_41 
REMARK   10  A    between atoms: C28_41  and  C29_42 
REMARK   11  A    between atoms: C29_42  and  C30_43 
REMARK   12  A    between atoms: C30_43  and  N4_44 
ROOT
HETATM    1  C6  UNL     1      18.077  -7.137 103.695  1.00  0.00     0.114 A 
HETATM    2  C7  UNL     1      18.229  -8.465 104.011  1.00  0.00     0.043 A 
HETATM    3  C8  UNL     1      18.859  -8.850 105.210  1.00  0.00     0.032 A 
HETATM    4  C9  UNL     1      19.349  -7.953 106.118  1.00  0.00     0.037 A 
HETATM    5  C21 UNL     1      19.182  -6.601 105.775  1.00  0.00     0.074 A 
HETATM    6  C22 UNL     1      18.568  -6.228 104.604  1.00  0.00     0.152 A 
HETATM    7  F2  UNL     1      18.414  -4.895 104.310  1.00  0.00    -0.203 F 
ENDROOT
BRANCH   1   8
HETATM    8  O2  UNL     1      17.460  -6.755 102.520  1.00  0.00    -0.307 OA
BRANCH   8   9
HETATM    9  C5  UNL     1      16.184  -6.224 102.492  1.00  0.00     0.090 A 
HETATM   10  C4  UNL     1      15.721  -5.600 101.322  1.00  0.00     0.027 A 
HETATM   11  C3  UNL     1      16.532  -5.518 100.218  1.00  0.00     0.056 A 
HETATM   12  C25 UNL     1      14.458  -5.059 101.249  1.00  0.00     0.048 A 
HETATM   13  C2  UNL     1      16.074  -4.908  99.079  1.00  0.00     0.102 A 
HETATM   14  C27 UNL     1      14.819  -4.358  98.972  1.00  0.00     0.104 A 
HETATM   15  C26 UNL     1      14.012  -4.444 100.084  1.00  0.00     0.070 A 
HETATM   16  N3  UNL     1      13.627  -5.122 102.324  1.00  0.00    -0.365 N 
HETATM   17  C24 UNL     1      14.048  -5.713 103.451  1.00  0.00     0.091 A 
ATOM     18  H3  UNL     1      12.691  -4.722 102.273  1.00  0.00     0.165 HD
HETATM   19  C23 UNL     1      15.317  -6.268 103.554  1.00  0.00     0.055 A 
BRANCH  13  20
HETATM   20  O1  UNL     1      16.906  -4.837  97.980  1.00  0.00    -0.353 OA
HETATM   21  C1  UNL     1      18.157  -4.204  98.090  1.00  0.00     0.210 C 
ENDBRANCH  13  20
BRANCH  14  22
HETATM   22  O5  UNL     1      14.451  -3.764  97.778  1.00  0.00    -0.348 OA
BRANCH  22  23
HETATM   23  C28 UNL     1      13.150  -3.992  97.222  1.00  0.00     0.177 C 
BRANCH  23  24
HETATM   24  C29 UNL     1      12.252  -2.829  97.433  1.00  0.00     0.057 C 
BRANCH  24  25
HETATM   25  C30 UNL     1      12.803  -1.534  96.969  1.00  0.00     0.274 C 
BRANCH  25  26
HETATM   26  N4  UNL     1      13.000  -0.510  97.957  1.00  0.00     0.092 N 
HETATM   27  C31 UNL     1      14.361  -0.513  98.406  1.00  0.00     0.298 C 
HETATM   28  C32 UNL     1      14.991   0.837  98.556  1.00  0.00     0.198 C 
HETATM   29  O6  UNL     1      14.042   1.647  99.218  1.00  0.00    -0.388 OA
HETATM   30  C33 UNL     1      13.105   1.946  98.233  1.00  0.00     0.198 C 
HETATM   31  C34 UNL     1      12.401   0.748  97.701  1.00  0.00     0.298 C 
ENDBRANCH  25  26
ENDBRANCH  24  25
ENDBRANCH  23  24
ENDBRANCH  22  23
ENDBRANCH  14  22
ENDBRANCH   8   9
ENDBRANCH   1   8
BRANCH   4  32
HETATM   32  N1  UNL     1      20.002  -8.269 107.328  1.00  0.00    -0.326 N 
HETATM   33  C10 UNL     1      21.383  -8.489 107.540  1.00  0.00     0.240 C 
HETATM   34  O3  UNL     1      22.128  -8.394 106.544  1.00  0.00    -0.272 OA
ATOM     35  H1  UNL     1      19.405  -8.348 108.151  1.00  0.00     0.169 HD
BRANCH  33  36
HETATM   36  C11 UNL     1      21.931  -8.819 108.886  1.00  0.00     0.122 A 
HETATM   37  C19 UNL     1      23.216  -9.541 109.030  1.00  0.00     0.031 A 
HETATM   38  C20 UNL     1      21.934 -10.294 109.270  1.00  0.00     0.031 A 
BRANCH  36  39
HETATM   39  C12 UNL     1      21.568  -7.936 110.014  1.00  0.00     0.240 C 
HETATM   40  O4  UNL     1      20.681  -7.052 109.723  1.00  0.00    -0.272 OA
HETATM   41  N2  UNL     1      22.093  -7.992 111.308  1.00  0.00    -0.326 N 
ATOM     42  H2  UNL     1      22.786  -8.714 111.507  1.00  0.00     0.169 HD
BRANCH  41  43
HETATM   43  C13 UNL     1      21.734  -7.127 112.353  1.00  0.00     0.034 A 
HETATM   44  C14 UNL     1      22.769  -6.587 113.121  1.00  0.00     0.032 A 
HETATM   45  C15 UNL     1      22.563  -5.717 114.157  1.00  0.00     0.044 A 
HETATM   46  C16 UNL     1      21.275  -5.348 114.468  1.00  0.00     0.116 A 
HETATM   47  F1  UNL     1      21.038  -4.485 115.495  1.00  0.00    -0.206 F 
HETATM   48  C17 UNL     1      20.243  -5.860 113.733  1.00  0.00     0.044 A 
HETATM   49  C18 UNL     1      20.473  -6.753 112.673  1.00  0.00     0.032 A 
ENDBRANCH  41  43
ENDBRANCH  36  39
ENDBRANCH  33  36
ENDBRANCH   4  32
TORSDOF 12
ENDMDL
