MODEL 8
REMARK VINA RESULT: -11.190781935      1.523      2.142
REMARK  12 active torsions:
REMARK  status: ('A' for Active; 'I' for Inactive)
REMARK    1  A    between atoms: O1_2  and  C2_3 
REMARK    2  A    between atoms: C5_6  and  O2_7 
REMARK    3  A    between atoms: O2_7  and  C6_8 
REMARK    4  A    between atoms: C9_11  and  N1_12 
REMARK       I    between atoms: N1_12  and  C10_14 
REMARK    5  A    between atoms: C10_14  and  C11_16 
REMARK    6  A    between atoms: C11_16  and  C12_17 
REMARK       I    between atoms: C12_17  and  N2_19 
REMARK    7  A    between atoms: N2_19  and  C13_21 
REMARK    8  A    between atoms: C27_39  and  O5_40 
REMARK    9  A    between atoms: O5_40  and  C28_41 
REMARK   10  A    between atoms: C28_41  and  C29_42 
REMARK   11  A    between atoms: C29_42  and  C30_43 
REMARK   12  A    between atoms: C30_43  and  N4_44 
ROOT
HETATM    1  C6  UNL     1      17.874  -7.741 103.745  1.00  0.00     0.114 A 
HETATM    2  C7  UNL     1      18.303  -6.672 104.494  1.00  0.00     0.043 A 
HETATM    3  C8  UNL     1      19.010  -6.873 105.694  1.00  0.00     0.032 A 
HETATM    4  C9  UNL     1      19.311  -8.113 106.185  1.00  0.00     0.037 A 
HETATM    5  C21 UNL     1      18.864  -9.192 105.404  1.00  0.00     0.074 A 
HETATM    6  C22 UNL     1      18.174  -8.993 104.233  1.00  0.00     0.152 A 
HETATM    7  F2  UNL     1      17.763 -10.074 103.492  1.00  0.00    -0.203 F 
ENDROOT
BRANCH   1   8
HETATM    8  O2  UNL     1      17.180  -7.548 102.567  1.00  0.00    -0.307 OA
BRANCH   8   9
HETATM    9  C5  UNL     1      16.325  -6.480 102.377  1.00  0.00     0.090 A 
HETATM   10  C4  UNL     1      16.633  -5.513 101.405  1.00  0.00     0.027 A 
HETATM   11  C3  UNL     1      17.774  -5.632 100.652  1.00  0.00     0.056 A 
HETATM   12  C25 UNL     1      15.809  -4.434 101.181  1.00  0.00     0.048 A 
HETATM   13  C2  UNL     1      18.068  -4.687  99.705  1.00  0.00     0.102 A 
HETATM   14  C27 UNL     1      17.269  -3.597  99.455  1.00  0.00     0.104 A 
HETATM   15  C26 UNL     1      16.127  -3.484 100.215  1.00  0.00     0.070 A 
HETATM   16  N3  UNL     1      14.671  -4.283 101.908  1.00  0.00    -0.365 N 
HETATM   17  C24 UNL     1      14.357  -5.193 102.841  1.00  0.00     0.091 A 
ATOM     18  H3  UNL     1      14.059  -3.484 101.745  1.00  0.00     0.165 HD
HETATM   19  C23 UNL     1      15.168  -6.293 103.089  1.00  0.00     0.055 A 
BRANCH  13  20
HETATM   20  O1  UNL     1      19.221  -4.826  98.958  1.00  0.00    -0.353 OA
HETATM   21  C1  UNL     1      20.466  -4.923  99.607  1.00  0.00     0.210 C 
ENDBRANCH  13  20
BRANCH  14  22
HETATM   22  O5  UNL     1      17.653  -2.698  98.477  1.00  0.00    -0.348 OA
BRANCH  22  23
HETATM   23  C28 UNL     1      18.032  -1.360  98.824  1.00  0.00     0.177 C 
BRANCH  23  24
HETATM   24  C29 UNL     1      19.411  -1.306  99.372  1.00  0.00     0.057 C 
BRANCH  24  25
HETATM   25  C30 UNL     1      19.657  -0.185 100.309  1.00  0.00     0.274 C 
BRANCH  25  26
HETATM   26  N4  UNL     1      20.127  -0.517 101.626  1.00  0.00     0.092 N 
HETATM   27  C31 UNL     1      19.435  -1.671 102.119  1.00  0.00     0.298 C 
HETATM   28  C32 UNL     1      20.291  -2.684 102.814  1.00  0.00     0.198 C 
HETATM   29  O6  UNL     1      21.140  -1.958 103.680  1.00  0.00    -0.388 OA
HETATM   30  C33 UNL     1      22.095  -1.404 102.833  1.00  0.00     0.198 C 
HETATM   31  C34 UNL     1      21.525  -0.454 101.839  1.00  0.00     0.298 C 
ENDBRANCH  25  26
ENDBRANCH  24  25
ENDBRANCH  23  24
ENDBRANCH  22  23
ENDBRANCH  14  22
ENDBRANCH   8   9
ENDBRANCH   1   8
BRANCH   4  32
HETATM   32  N1  UNL     1      20.002  -8.386 107.384  1.00  0.00    -0.326 N 
HETATM   33  C10 UNL     1      21.395  -8.548 107.568  1.00  0.00     0.240 C 
HETATM   34  O3  UNL     1      22.115  -8.437 106.555  1.00  0.00    -0.272 OA
ATOM     35  H1  UNL     1      19.427  -8.477 108.222  1.00  0.00     0.169 HD
BRANCH  33  36
HETATM   36  C11 UNL     1      21.985  -8.838 108.906  1.00  0.00     0.122 A 
HETATM   37  C19 UNL     1      23.300  -9.507 109.031  1.00  0.00     0.031 A 
HETATM   38  C20 UNL     1      22.054 -10.306 109.309  1.00  0.00     0.031 A 
BRANCH  36  39
HETATM   39  C12 UNL     1      21.613  -7.953 110.030  1.00  0.00     0.240 C 
HETATM   40  O4  UNL     1      20.725  -7.072 109.732  1.00  0.00    -0.272 OA
HETATM   41  N2  UNL     1      22.130  -8.005 111.327  1.00  0.00    -0.326 N 
ATOM     42  H2  UNL     1      22.824  -8.723 111.531  1.00  0.00     0.169 HD
BRANCH  41  43
HETATM   43  C13 UNL     1      21.763  -7.138 112.368  1.00  0.00     0.034 A 
HETATM   44  C14 UNL     1      22.793  -6.563 113.117  1.00  0.00     0.032 A 
HETATM   45  C15 UNL     1      22.578  -5.688 114.146  1.00  0.00     0.044 A 
HETATM   46  C16 UNL     1      21.285  -5.350 114.472  1.00  0.00     0.116 A 
HETATM   47  F1  UNL     1      21.039  -4.482 115.493  1.00  0.00    -0.206 F 
HETATM   48  C17 UNL     1      20.257  -5.897 113.756  1.00  0.00     0.044 A 
HETATM   49  C18 UNL     1      20.497  -6.794 112.702  1.00  0.00     0.032 A 
ENDBRANCH  41  43
ENDBRANCH  36  39
ENDBRANCH  33  36
ENDBRANCH   4  32
TORSDOF 12
ENDMDL
