MODEL 20
REMARK VINA RESULT: -10.436504017      1.965      3.129
REMARK  12 active torsions:
REMARK  status: ('A' for Active; 'I' for Inactive)
REMARK    1  A    between atoms: O1_2  and  C2_3 
REMARK    2  A    between atoms: C5_6  and  O2_7 
REMARK    3  A    between atoms: O2_7  and  C6_8 
REMARK    4  A    between atoms: C9_11  and  N1_12 
REMARK       I    between atoms: N1_12  and  C10_14 
REMARK    5  A    between atoms: C10_14  and  C11_16 
REMARK    6  A    between atoms: C11_16  and  C12_17 
REMARK       I    between atoms: C12_17  and  N2_19 
REMARK    7  A    between atoms: N2_19  and  C13_21 
REMARK    8  A    between atoms: C27_39  and  O5_40 
REMARK    9  A    between atoms: O5_40  and  C28_41 
REMARK   10  A    between atoms: C28_41  and  C29_42 
REMARK   11  A    between atoms: C29_42  and  C30_43 
REMARK   12  A    between atoms: C30_43  and  N4_44 
ROOT
HETATM    1  C6  UNL     1      18.399  -5.469 104.633  1.00  0.00     0.114 A 
HETATM    2  C7  UNL     1      18.092  -6.807 104.654  1.00  0.00     0.043 A 
HETATM    3  C8  UNL     1      18.683  -7.665 105.601  1.00  0.00     0.032 A 
HETATM    4  C9  UNL     1      19.579  -7.235 106.541  1.00  0.00     0.037 A 
HETATM    5  C21 UNL     1      19.878  -5.863 106.502  1.00  0.00     0.074 A 
HETATM    6  C22 UNL     1      19.301  -5.029 105.576  1.00  0.00     0.152 A 
HETATM    7  F2  UNL     1      19.610  -3.691 105.577  1.00  0.00    -0.203 F 
ENDROOT
BRANCH   1   8
HETATM    8  O2  UNL     1      17.822  -4.624 103.704  1.00  0.00    -0.307 OA
BRANCH   8   9
HETATM    9  C5  UNL     1      17.411  -5.061 102.460  1.00  0.00     0.090 A 
HETATM   10  C4  UNL     1      18.305  -4.999 101.377  1.00  0.00     0.027 A 
HETATM   11  C3  UNL     1      19.573  -4.506 101.557  1.00  0.00     0.056 A 
HETATM   12  C25 UNL     1      17.939  -5.426 100.121  1.00  0.00     0.048 A 
HETATM   13  C2  UNL     1      20.440  -4.449 100.497  1.00  0.00     0.102 A 
HETATM   14  C27 UNL     1      20.108  -4.866  99.230  1.00  0.00     0.104 A 
HETATM   15  C26 UNL     1      18.835  -5.358  99.058  1.00  0.00     0.070 A 
HETATM   16  N3  UNL     1      16.691  -5.920  99.905  1.00  0.00    -0.365 N 
HETATM   17  C24 UNL     1      15.823  -5.988 100.923  1.00  0.00     0.091 A 
ATOM     18  H3  UNL     1      16.418  -6.236  98.975  1.00  0.00     0.165 HD
HETATM   19  C23 UNL     1      16.163  -5.566 102.202  1.00  0.00     0.055 A 
BRANCH  13  20
HETATM   20  O1  UNL     1      21.710  -3.950 100.701  1.00  0.00    -0.353 OA
HETATM   21  C1  UNL     1      21.883  -2.739 101.396  1.00  0.00     0.210 C 
ENDBRANCH  13  20
BRANCH  14  22
HETATM   22  O5  UNL     1      21.055  -4.768  98.227  1.00  0.00    -0.348 OA
BRANCH  22  23
HETATM   23  C28 UNL     1      20.831  -3.918  97.094  1.00  0.00     0.177 C 
BRANCH  23  24
HETATM   24  C29 UNL     1      20.412  -2.554  97.507  1.00  0.00     0.057 C 
BRANCH  24  25
HETATM   25  C30 UNL     1      19.049  -2.171  97.069  1.00  0.00     0.274 C 
BRANCH  25  26
HETATM   26  N4  UNL     1      18.196  -1.548  98.043  1.00  0.00     0.092 N 
HETATM   27  C31 UNL     1      16.857  -2.045  97.914  1.00  0.00     0.298 C 
HETATM   28  C32 UNL     1      16.163  -2.357  99.203  1.00  0.00     0.198 C 
HETATM   29  O6  UNL     1      16.421  -1.269 100.067  1.00  0.00    -0.388 OA
HETATM   30  C33 UNL     1      17.738  -1.464 100.472  1.00  0.00     0.198 C 
HETATM   31  C34 UNL     1      18.717  -1.409  99.353  1.00  0.00     0.298 C 
ENDBRANCH  25  26
ENDBRANCH  24  25
ENDBRANCH  23  24
ENDBRANCH  22  23
ENDBRANCH  14  22
ENDBRANCH   8   9
ENDBRANCH   1   8
BRANCH   4  32
HETATM   32  N1  UNL     1      20.217  -8.040 107.508  1.00  0.00    -0.326 N 
HETATM   33  C10 UNL     1      21.513  -8.605 107.451  1.00  0.00     0.240 C 
HETATM   34  O3  UNL     1      22.186  -8.371 106.427  1.00  0.00    -0.272 OA
ATOM     35  H1  UNL     1      19.680  -8.238 108.351  1.00  0.00     0.169 HD
BRANCH  33  36
HETATM   36  C11 UNL     1      22.056  -9.442 108.558  1.00  0.00     0.122 A 
HETATM   37  C19 UNL     1      22.906 -10.622 108.275  1.00  0.00     0.031 A 
HETATM   38  C20 UNL     1      21.476 -10.845 108.690  1.00  0.00     0.031 A 
BRANCH  36  39
HETATM   39  C12 UNL     1      22.285  -8.793 109.865  1.00  0.00     0.240 C 
HETATM   40  O4  UNL     1      23.203  -9.350 110.573  1.00  0.00    -0.272 OA
HETATM   41  N2  UNL     1      21.611  -7.674 110.360  1.00  0.00    -0.326 N 
ATOM     42  H2  UNL     1      20.897  -7.251 109.768  1.00  0.00     0.169 HD
BRANCH  41  43
HETATM   43  C13 UNL     1      21.846  -7.091 111.615  1.00  0.00     0.034 A 
HETATM   44  C14 UNL     1      20.728  -6.713 112.366  1.00  0.00     0.032 A 
HETATM   45  C15 UNL     1      20.813  -6.151 113.610  1.00  0.00     0.044 A 
HETATM   46  C16 UNL     1      22.055  -5.941 114.162  1.00  0.00     0.116 A 
HETATM   47  F1  UNL     1      22.170  -5.382 115.399  1.00  0.00    -0.206 F 
HETATM   48  C17 UNL     1      23.164  -6.302 113.451  1.00  0.00     0.044 A 
HETATM   49  C18 UNL     1      23.060  -6.878 112.174  1.00  0.00     0.032 A 
ENDBRANCH  41  43
ENDBRANCH  36  39
ENDBRANCH  33  36
ENDBRANCH   4  32
TORSDOF 12
ENDMDL
