MODEL 10
REMARK VINA RESULT: -8.148710597      4.260      7.127
REMARK  7 active torsions:
REMARK  status: ('A' for Active; 'I' for Inactive)
REMARK    1  A    between atoms: C7_7  and  C8_8 
REMARK    2  A    between atoms: C13_16  and  C14_17 
REMARK    3  A    between atoms: C14_17  and  C15_18 
REMARK    4  A    between atoms: C15_18  and  C16_19 
REMARK       I    between atoms: C16_19  and  N3_21 
REMARK    5  A    between atoms: N3_21  and  C17_23 
REMARK    6  A    between atoms: C17_23  and  C18_24 
REMARK    7  A    between atoms: C18_24  and  C19_25 
ROOT
HETATM    1  C8  UNL     1      68.893  50.201  12.045  1.00  0.00    -0.025 A 
HETATM    2  C9  UNL     1      69.998  50.589  12.757  1.00  0.00     0.014 A 
HETATM    3  C10 UNL     1      71.158  49.863  12.708  1.00  0.00     0.031 A 
HETATM    4  C11 UNL     1      71.202  48.717  11.919  1.00  0.00     0.043 A 
HETATM    5  N1  UNL     1      72.318  47.979  11.841  1.00  0.00    -0.344 N 
ATOM      6  H1  UNL     1      73.133  48.280  12.377  1.00  0.00     0.167 HD
HETATM    7  C12 UNL     1      72.425  46.855  11.093  1.00  0.00     0.123 A 
HETATM    8  N2  UNL     1      73.645  46.106  11.050  1.00  0.00    -0.082 NA
HETATM    9  C13 UNL     1      71.348  46.413  10.354  1.00  0.00    -0.016 A 
HETATM   10  C23 UNL     1      70.187  47.163  10.421  1.00  0.00     0.024 A 
HETATM   11  C24 UNL     1      70.105  48.304  11.192  1.00  0.00    -0.008 A 
HETATM   12  C25 UNL     1      68.955  49.063  11.269  1.00  0.00     0.026 A 
ENDROOT
BRANCH   9  13
HETATM   13  C14 UNL     1      71.426  45.176   9.513  1.00  0.00     0.051 C 
BRANCH  13  14
HETATM   14  C15 UNL     1      70.800  45.351   8.163  1.00  0.00     0.107 C 
BRANCH  14  15
HETATM   15  C16 UNL     1      71.620  46.301   7.397  1.00  0.00     0.217 C 
HETATM   16  O1  UNL     1      72.847  46.152   7.227  1.00  0.00    -0.274 OA
HETATM   17  N3  UNL     1      71.014  47.469   6.798  1.00  0.00    -0.361 N 
ATOM     18  H3  UNL     1      70.014  47.637   6.905  1.00  0.00     0.162 HD
BRANCH  17  19
HETATM   19  C17 UNL     1      71.821  48.393   6.053  1.00  0.00     0.123 C 
BRANCH  19  20
HETATM   20  C18 UNL     1      71.627  49.803   6.443  1.00  0.00     0.028 C 
BRANCH  20  21
HETATM   21  C19 UNL     1      72.257  50.298   7.684  1.00  0.00    -0.050 C 
HETATM   22  C20 UNL     1      73.258  49.442   8.369  1.00  0.00     0.014 C 
HETATM   23  C21 UNL     1      71.108  50.554   8.683  1.00  0.00     0.014 C 
HETATM   24  C22 UNL     1      72.895  51.684   7.444  1.00  0.00     0.014 C 
ENDBRANCH  20  21
ENDBRANCH  19  20
ENDBRANCH  17  19
ENDBRANCH  14  15
ENDBRANCH  13  14
ENDBRANCH   9  13
BRANCH   1  25
HETATM   25  C7  UNL     1      67.697  51.004  12.132  1.00  0.00    -0.020 A 
HETATM   26  C2  UNL     1      67.577  52.179  11.419  1.00  0.00    -0.051 A 
HETATM   27  C1  UNL     1      68.651  52.685  10.522  1.00  0.00     0.049 C 
HETATM   28  C3  UNL     1      66.416  52.954  11.511  1.00  0.00     0.007 A 
HETATM   29  C4  UNL     1      65.366  52.555  12.319  1.00  0.00     0.001 A 
HETATM   30  C5  UNL     1      65.480  51.377  13.037  1.00  0.00     0.001 A 
HETATM   31  C6  UNL     1      66.635  50.631  12.930  1.00  0.00     0.013 A 
ENDBRANCH   1  25
TORSDOF 7
ENDMDL
