MODEL 6
REMARK VINA RESULT: -8.212650344      2.815      6.430
REMARK  7 active torsions:
REMARK  status: ('A' for Active; 'I' for Inactive)
REMARK    1  A    between atoms: C7_7  and  C8_8 
REMARK    2  A    between atoms: C13_16  and  C14_17 
REMARK    3  A    between atoms: C14_17  and  C15_18 
REMARK    4  A    between atoms: C15_18  and  C16_19 
REMARK       I    between atoms: C16_19  and  N3_21 
REMARK    5  A    between atoms: N3_21  and  C17_23 
REMARK    6  A    between atoms: C17_23  and  C18_24 
REMARK    7  A    between atoms: C18_24  and  C19_25 
ROOT
HETATM    1  C8  UNL     1      63.091  49.536  12.506  1.00  0.00    -0.025 A 
HETATM    2  C9  UNL     1      61.941  50.031  11.950  1.00  0.00     0.014 A 
HETATM    3  C10 UNL     1      61.894  51.303  11.443  1.00  0.00     0.031 A 
HETATM    4  C11 UNL     1      63.039  52.093  11.502  1.00  0.00     0.043 A 
HETATM    5  N1  UNL     1      63.037  53.342  11.017  1.00  0.00    -0.344 N 
ATOM      6  H1  UNL     1      62.173  53.697  10.604  1.00  0.00     0.167 HD
HETATM    7  C12 UNL     1      64.115  54.160  11.043  1.00  0.00     0.123 A 
HETATM    8  N2  UNL     1      64.052  55.488  10.509  1.00  0.00    -0.082 NA
HETATM    9  C13 UNL     1      65.302  53.721  11.590  1.00  0.00    -0.016 A 
HETATM   10  C23 UNL     1      65.324  52.432  12.096  1.00  0.00     0.024 A 
HETATM   11  C24 UNL     1      64.210  51.620  12.056  1.00  0.00    -0.008 A 
HETATM   12  C25 UNL     1      64.216  50.334  12.555  1.00  0.00     0.026 A 
ENDROOT
BRANCH   9  13
HETATM   13  C14 UNL     1      66.518  54.594  11.637  1.00  0.00     0.051 C 
BRANCH  13  14
HETATM   14  C15 UNL     1      67.129  54.813  10.287  1.00  0.00     0.107 C 
BRANCH  14  15
HETATM   15  C16 UNL     1      68.285  53.914  10.157  1.00  0.00     0.217 C 
HETATM   16  O1  UNL     1      69.463  54.324  10.159  1.00  0.00    -0.274 OA
HETATM   17  N3  UNL     1      68.088  52.488  10.019  1.00  0.00    -0.361 N 
ATOM     18  H3  UNL     1      67.145  52.102  10.014  1.00  0.00     0.162 HD
BRANCH  17  19
HETATM   19  C17 UNL     1      69.222  51.617   9.890  1.00  0.00     0.123 C 
BRANCH  19  20
HETATM   20  C18 UNL     1      69.923  51.359  11.163  1.00  0.00     0.028 C 
BRANCH  20  21
HETATM   21  C19 UNL     1      69.405  50.316  12.069  1.00  0.00    -0.050 C 
HETATM   22  C20 UNL     1      68.462  50.707  13.147  1.00  0.00     0.014 C 
HETATM   23  C21 UNL     1      70.636  49.675  12.746  1.00  0.00     0.014 C 
HETATM   24  C22 UNL     1      68.757  49.174  11.255  1.00  0.00     0.014 C 
ENDBRANCH  20  21
ENDBRANCH  19  20
ENDBRANCH  17  19
ENDBRANCH  14  15
ENDBRANCH  13  14
ENDBRANCH   9  13
BRANCH   1  25
HETATM   25  C7  UNL     1      63.086  48.188  13.023  1.00  0.00    -0.020 A 
HETATM   26  C2  UNL     1      63.038  47.102  12.174  1.00  0.00    -0.051 A 
HETATM   27  C1  UNL     1      62.997  47.245  10.694  1.00  0.00     0.049 C 
HETATM   28  C3  UNL     1      63.029  45.799  12.682  1.00  0.00     0.007 A 
HETATM   29  C4  UNL     1      63.069  45.576  14.047  1.00  0.00     0.001 A 
HETATM   30  C5  UNL     1      63.118  46.661  14.905  1.00  0.00     0.001 A 
HETATM   31  C6  UNL     1      63.125  47.937  14.379  1.00  0.00     0.013 A 
ENDBRANCH   1  25
TORSDOF 7
ENDMDL
