MODEL 14
REMARK VINA RESULT: -7.937658157      1.653      4.063
REMARK  7 active torsions:
REMARK  status: ('A' for Active; 'I' for Inactive)
REMARK    1  A    between atoms: C7_7  and  C8_8 
REMARK    2  A    between atoms: C13_16  and  C14_17 
REMARK    3  A    between atoms: C14_17  and  C15_18 
REMARK    4  A    between atoms: C15_18  and  C16_19 
REMARK       I    between atoms: C16_19  and  N3_21 
REMARK    5  A    between atoms: N3_21  and  C17_23 
REMARK    6  A    between atoms: C17_23  and  C18_24 
REMARK    7  A    between atoms: C18_24  and  C19_25 
ROOT
HETATM    1  C8  UNL     1      70.221  49.566  11.071  1.00  0.00    -0.025 A 
HETATM    2  C9  UNL     1      70.439  50.446  10.043  1.00  0.00     0.014 A 
HETATM    3  C10 UNL     1      69.667  50.413   8.912  1.00  0.00     0.031 A 
HETATM    4  C11 UNL     1      68.649  49.468   8.819  1.00  0.00     0.043 A 
HETATM    5  N1  UNL     1      67.869  49.403   7.732  1.00  0.00    -0.344 N 
ATOM      6  H1  UNL     1      68.043  50.065   6.974  1.00  0.00     0.167 HD
HETATM    7  C12 UNL     1      66.864  48.508   7.580  1.00  0.00     0.123 A 
HETATM    8  N2  UNL     1      66.063  48.486   6.393  1.00  0.00    -0.082 NA
HETATM    9  C13 UNL     1      66.595  47.597   8.579  1.00  0.00    -0.016 A 
HETATM   10  C23 UNL     1      67.389  47.649   9.712  1.00  0.00     0.024 A 
HETATM   11  C24 UNL     1      68.407  48.571   9.839  1.00  0.00    -0.008 A 
HETATM   12  C25 UNL     1      69.208  48.637  10.961  1.00  0.00     0.026 A 
ENDROOT
BRANCH   9  13
HETATM   13  C14 UNL     1      65.491  46.592   8.451  1.00  0.00     0.051 C 
BRANCH  13  14
HETATM   14  C15 UNL     1      64.130  47.205   8.582  1.00  0.00     0.107 C 
BRANCH  14  15
HETATM   15  C16 UNL     1      64.040  47.842   9.904  1.00  0.00     0.217 C 
HETATM   16  O1  UNL     1      63.857  47.195  10.955  1.00  0.00    -0.274 OA
HETATM   17  N3  UNL     1      64.164  49.277  10.032  1.00  0.00    -0.361 N 
ATOM     18  H3  UNL     1      64.317  49.851   9.204  1.00  0.00     0.162 HD
BRANCH  17  19
HETATM   19  C17 UNL     1      64.072  49.892  11.325  1.00  0.00     0.123 C 
BRANCH  19  20
HETATM   20  C18 UNL     1      65.341  49.886  12.080  1.00  0.00     0.028 C 
BRANCH  20  21
HETATM   21  C19 UNL     1      66.127  51.133  12.170  1.00  0.00    -0.050 C 
HETATM   22  C20 UNL     1      66.775  51.661  10.943  1.00  0.00     0.014 C 
HETATM   23  C21 UNL     1      67.244  50.869  13.202  1.00  0.00     0.014 C 
HETATM   24  C22 UNL     1      65.271  52.261  12.786  1.00  0.00     0.014 C 
ENDBRANCH  20  21
ENDBRANCH  19  20
ENDBRANCH  17  19
ENDBRANCH  14  15
ENDBRANCH  13  14
ENDBRANCH   9  13
BRANCH   1  25
HETATM   25  C7  UNL     1      71.064  49.646  12.240  1.00  0.00    -0.020 A 
HETATM   26  C2  UNL     1      72.009  48.676  12.502  1.00  0.00    -0.051 A 
HETATM   27  C1  UNL     1      72.226  47.507  11.608  1.00  0.00     0.049 C 
HETATM   28  C3  UNL     1      72.819  48.758  13.639  1.00  0.00     0.007 A 
HETATM   29  C4  UNL     1      72.686  49.815  14.523  1.00  0.00     0.001 A 
HETATM   30  C5  UNL     1      71.740  50.791  14.267  1.00  0.00     0.001 A 
HETATM   31  C6  UNL     1      70.953  50.688  13.138  1.00  0.00     0.013 A 
ENDBRANCH   1  25
TORSDOF 7
ENDMDL
