MODEL 5
REMARK VINA RESULT: -8.230347074      4.498      7.531
REMARK  7 active torsions:
REMARK  status: ('A' for Active; 'I' for Inactive)
REMARK    1  A    between atoms: C7_7  and  C8_8 
REMARK    2  A    between atoms: C13_16  and  C14_17 
REMARK    3  A    between atoms: C14_17  and  C15_18 
REMARK    4  A    between atoms: C15_18  and  C16_19 
REMARK       I    between atoms: C16_19  and  N3_21 
REMARK    5  A    between atoms: N3_21  and  C17_23 
REMARK    6  A    between atoms: C17_23  and  C18_24 
REMARK    7  A    between atoms: C18_24  and  C19_25 
ROOT
HETATM    1  C8  UNL     1      70.032  50.547  11.830  1.00  0.00    -0.025 A 
HETATM    2  C9  UNL     1      70.843  50.735  12.918  1.00  0.00     0.014 A 
HETATM    3  C10 UNL     1      71.717  49.761  13.322  1.00  0.00     0.031 A 
HETATM    4  C11 UNL     1      71.771  48.567  12.607  1.00  0.00     0.043 A 
HETATM    5  N1  UNL     1      72.613  47.588  12.967  1.00  0.00    -0.344 N 
ATOM      6  H1  UNL     1      73.211  47.743  13.779  1.00  0.00     0.167 HD
HETATM    7  C12 UNL     1      72.714  46.406  12.314  1.00  0.00     0.123 A 
HETATM    8  N2  UNL     1      73.632  45.397  12.747  1.00  0.00    -0.082 NA
HETATM    9  C13 UNL     1      71.925  46.157  11.212  1.00  0.00    -0.016 A 
HETATM   10  C23 UNL     1      71.049  47.157  10.823  1.00  0.00     0.024 A 
HETATM   11  C24 UNL     1      70.967  48.352  11.507  1.00  0.00    -0.008 A 
HETATM   12  C25 UNL     1      70.100  49.358  11.133  1.00  0.00     0.026 A 
ENDROOT
BRANCH   9  13
HETATM   13  C14 UNL     1      72.007  44.863  10.462  1.00  0.00     0.051 C 
BRANCH  13  14
HETATM   14  C15 UNL     1      73.180  44.805   9.531  1.00  0.00     0.107 C 
BRANCH  14  15
HETATM   15  C16 UNL     1      72.898  45.680   8.383  1.00  0.00     0.217 C 
HETATM   16  O1  UNL     1      71.835  45.621   7.733  1.00  0.00    -0.274 OA
HETATM   17  N3  UNL     1      73.869  46.663   7.960  1.00  0.00    -0.361 N 
ATOM     18  H3  UNL     1      74.754  46.754   8.459  1.00  0.00     0.162 HD
BRANCH  17  19
HETATM   19  C17 UNL     1      73.588  47.512   6.838  1.00  0.00     0.123 C 
BRANCH  19  20
HETATM   20  C18 UNL     1      73.902  48.935   7.072  1.00  0.00     0.028 C 
BRANCH  20  21
HETATM   21  C19 UNL     1      72.946  49.765   7.832  1.00  0.00    -0.050 C 
HETATM   22  C20 UNL     1      72.860  51.216   7.531  1.00  0.00     0.014 C 
HETATM   23  C21 UNL     1      73.335  49.626   9.319  1.00  0.00     0.014 C 
HETATM   24  C22 UNL     1      71.524  49.169   7.733  1.00  0.00     0.014 C 
ENDBRANCH  20  21
ENDBRANCH  19  20
ENDBRANCH  17  19
ENDBRANCH  14  15
ENDBRANCH  13  14
ENDBRANCH   9  13
BRANCH   1  25
HETATM   25  C7  UNL     1      69.131  51.608  11.446  1.00  0.00    -0.020 A 
HETATM   26  C2  UNL     1      67.860  51.687  11.977  1.00  0.00    -0.051 A 
HETATM   27  C1  UNL     1      67.344  50.706  12.969  1.00  0.00     0.049 C 
HETATM   28  C3  UNL     1      66.992  52.715  11.598  1.00  0.00     0.007 A 
HETATM   29  C4  UNL     1      67.392  53.674  10.683  1.00  0.00     0.001 A 
HETATM   30  C5  UNL     1      68.666  53.600  10.147  1.00  0.00     0.001 A 
HETATM   31  C6  UNL     1      69.504  52.576  10.537  1.00  0.00     0.013 A 
ENDBRANCH   1  25
TORSDOF 7
ENDMDL
