MODEL 4
REMARK VINA RESULT: -3.868738607      0.107      2.792
REMARK  1 active torsions:
REMARK  status: ('A' for Active; 'I' for Inactive)
REMARK    1  A    between atoms: C1_2  and  C2_4 
ROOT
HETATM    1  O1  UNL     1     -18.064  -3.137  92.187  1.00  0.00    -0.639 OA
HETATM    2  C1  UNL     1     -18.854  -3.185  91.213  1.00  0.00     0.279 C 
HETATM    3  O2  UNL     1     -19.741  -4.240  91.157  1.00  0.00    -0.639 OA
ENDROOT
BRANCH   2   4
HETATM    4  C2  UNL     1     -18.837  -2.165  90.176  1.00  0.00     0.279 C 
HETATM    5  O3  UNL     1     -18.340  -1.024  90.372  1.00  0.00    -0.639 OA
HETATM    6  O4  UNL     1     -19.364  -2.376  88.908  1.00  0.00    -0.639 OA
ENDBRANCH   2   4
TORSDOF 1
ENDMDL
