MODEL 2
REMARK VINA RESULT: -3.900580940      0.048      3.064
REMARK  1 active torsions:
REMARK  status: ('A' for Active; 'I' for Inactive)
REMARK    1  A    between atoms: C1_2  and  C2_4 
ROOT
HETATM    1  O1  UNL     1     -18.051  -3.064  92.138  1.00  0.00    -0.639 OA
HETATM    2  C1  UNL     1     -18.843  -3.148  91.168  1.00  0.00     0.279 C 
HETATM    3  O2  UNL     1     -19.722  -4.211  91.148  1.00  0.00    -0.639 OA
ENDROOT
BRANCH   2   4
HETATM    4  C2  UNL     1     -18.837  -2.159  90.101  1.00  0.00     0.279 C 
HETATM    5  O3  UNL     1     -19.340  -2.395  88.971  1.00  0.00    -0.639 OA
HETATM    6  O4  UNL     1     -18.279  -0.896  90.254  1.00  0.00    -0.639 OA
ENDBRANCH   2   4
TORSDOF 1
ENDMDL
