MODEL 5
REMARK VINA RESULT: -3.828058309      0.217      2.497
REMARK  1 active torsions:
REMARK  status: ('A' for Active; 'I' for Inactive)
REMARK    1  A    between atoms: C1_2  and  C2_4 
ROOT
HETATM    1  O1  UNL     1     -19.734  -4.247  91.110  1.00  0.00    -0.639 OA
HETATM    2  C1  UNL     1     -18.913  -3.304  91.216  1.00  0.00     0.279 C 
HETATM    3  O2  UNL     1     -18.054  -3.319  92.295  1.00  0.00    -0.639 OA
ENDROOT
BRANCH   2   4
HETATM    4  C2  UNL     1     -18.866  -2.231  90.235  1.00  0.00     0.279 C 
HETATM    5  O3  UNL     1     -18.376  -1.103  90.504  1.00  0.00    -0.639 OA
HETATM    6  O4  UNL     1     -19.355  -2.376  88.942  1.00  0.00    -0.639 OA
ENDBRANCH   2   4
TORSDOF 1
ENDMDL
