MODEL 1
REMARK VINA RESULT: -3.906353138      0.000      0.000
REMARK  1 active torsions:
REMARK  status: ('A' for Active; 'I' for Inactive)
REMARK    1  A    between atoms: C1_2  and  C2_4 
ROOT
HETATM    1  O1  UNL     1     -19.351  -2.402  88.952  1.00  0.00    -0.639 OA
HETATM    2  C1  UNL     1     -18.850  -2.152  90.075  1.00  0.00     0.279 C 
HETATM    3  O2  UNL     1     -18.267  -0.915  90.257  1.00  0.00    -0.639 OA
ENDROOT
BRANCH   2   4
HETATM    4  C2  UNL     1     -18.883  -3.131  91.151  1.00  0.00     0.279 C 
HETATM    5  O3  UNL     1     -18.138  -3.035  92.162  1.00  0.00    -0.639 OA
HETATM    6  O4  UNL     1     -19.731  -4.231  91.137  1.00  0.00    -0.639 OA
ENDBRANCH   2   4
TORSDOF 1
ENDMDL
