MODEL 3
REMARK VINA RESULT: -3.870881510      0.103      1.304
REMARK  1 active torsions:
REMARK  status: ('A' for Active; 'I' for Inactive)
REMARK    1  A    between atoms: C1_2  and  C2_4 
ROOT
HETATM    1  O1  UNL     1     -18.326  -1.036  90.381  1.00  0.00    -0.639 OA
HETATM    2  C1  UNL     1     -18.840  -2.162  90.166  1.00  0.00     0.279 C 
HETATM    3  O2  UNL     1     -19.368  -2.397  88.914  1.00  0.00    -0.639 OA
ENDROOT
BRANCH   2   4
HETATM    4  C2  UNL     1     -18.878  -3.183  91.201  1.00  0.00     0.279 C 
HETATM    5  O3  UNL     1     -18.127  -3.138  92.210  1.00  0.00    -0.639 OA
HETATM    6  O4  UNL     1     -19.740  -4.272  91.146  1.00  0.00    -0.639 OA
ENDBRANCH   2   4
TORSDOF 1
ENDMDL
