MODEL 20
REMARK VINA RESULT: -3.643275566      4.047      5.169
REMARK  1 active torsions:
REMARK  status: ('A' for Active; 'I' for Inactive)
REMARK    1  A    between atoms: C1_2  and  C2_4 
ROOT
HETATM    1  O1  UNL     1     -20.884  -3.591  94.510  1.00  0.00    -0.639 OA
HETATM    2  C1  UNL     1     -20.997  -4.619  93.798  1.00  0.00     0.279 C 
HETATM    3  O2  UNL     1     -20.837  -4.476  92.435  1.00  0.00    -0.639 OA
ENDROOT
BRANCH   2   4
HETATM    4  C2  UNL     1     -21.285  -5.917  94.387  1.00  0.00     0.279 C 
HETATM    5  O3  UNL     1     -20.674  -6.960  94.035  1.00  0.00    -0.639 OA
HETATM    6  O4  UNL     1     -22.249  -6.095  95.372  1.00  0.00    -0.639 OA
ENDBRANCH   2   4
TORSDOF 1
ENDMDL
