MODEL 3
REMARK VINA RESULT: -8.132422565      2.632      7.166
REMARK  6 active torsions:
REMARK  status: ('A' for Active; 'I' for Inactive)
REMARK    1  A    between atoms: C2_2  and  O1_3 
REMARK    2  A    between atoms: O1_3  and  C3_4 
REMARK       I    between atoms: C3_4  and  N1_6 
REMARK    3  A    between atoms: N1_6  and  C4_8 
REMARK    4  A    between atoms: C6_10  and  C7_11 
REMARK    5  A    between atoms: C12_16  and  N2_17 
REMARK    6  A    between atoms: N2_17  and  S1_19 
ROOT
HETATM    1  C4  UNL     1       3.909  27.604  28.659  1.00  0.00     0.086 A 
HETATM    2  C5  UNL     1       3.982  26.517  29.474  1.00  0.00     0.065 A 
HETATM    3  C6  UNL     1       3.807  25.258  28.968  1.00  0.00     0.061 A 
HETATM    4  N3  UNL     1       3.562  25.135  27.636  1.00  0.00    -0.290 N 
ATOM      5  H3  UNL     1       3.433  24.197  27.255  1.00  0.00     0.187 HD
HETATM    6  N4  UNL     1       3.483  26.149  26.818  1.00  0.00    -0.223 N 
HETATM    7  C15 UNL     1       3.255  26.262  25.493  1.00  0.00     0.116 A 
HETATM    8  C16 UNL     1       3.014  25.149  24.558  1.00  0.00     0.092 C 
HETATM    9  N5  UNL     1       3.283  27.557  25.166  1.00  0.00    -0.286 N 
ATOM     10  H5  UNL     1       3.144  27.957  24.238  1.00  0.00     0.188 HD
HETATM   11  N6  UNL     1       3.529  28.220  26.296  1.00  0.00    -0.281 N 
ATOM     12  H6  UNL     1       3.609  29.235  26.371  1.00  0.00     0.188 HD
HETATM   13  C17 UNL     1       3.654  27.369  27.318  1.00  0.00     0.170 A 
ENDROOT
BRANCH   3  14
HETATM   14  C7  UNL     1       3.865  24.028  29.753  1.00  0.00    -0.006 A 
HETATM   15  C8  UNL     1       3.602  22.806  29.206  1.00  0.00     0.014 A 
HETATM   16  C9  UNL     1       3.659  21.630  29.963  1.00  0.00     0.010 A 
HETATM   17  C10 UNL     1       3.988  21.695  31.296  1.00  0.00    -0.035 A 
HETATM   18  C11 UNL     1       4.039  20.420  32.075  1.00  0.00     0.050 C 
HETATM   19  C12 UNL     1       4.255  22.913  31.865  1.00  0.00     0.049 A 
HETATM   20  C14 UNL     1       4.196  24.063  31.112  1.00  0.00     0.044 A 
BRANCH  19  21
HETATM   21  N2  UNL     1       4.591  22.967  33.236  1.00  0.00    -0.284 N 
ATOM     22  H2  UNL     1       5.571  23.042  33.509  1.00  0.00     0.178 HD
BRANCH  21  23
HETATM   23  S1  UNL     1       3.365  22.909  34.472  1.00  0.00     0.227 S 
HETATM   24  C13 UNL     1       1.796  22.891  33.641  1.00  0.00     0.186 C 
HETATM   25  O3  UNL     1       3.503  21.656  35.290  1.00  0.00    -0.206 OA
HETATM   26  O4  UNL     1       3.483  24.136  35.306  1.00  0.00    -0.206 OA
ENDBRANCH  21  23
ENDBRANCH  19  21
ENDBRANCH   3  14
BRANCH   1  27
HETATM   27  N1  UNL     1       4.079  28.941  29.113  1.00  0.00    -0.299 N 
HETATM   28  C3  UNL     1       5.022  29.877  28.677  1.00  0.00     0.365 C 
HETATM   29  O2  UNL     1       5.849  29.587  27.793  1.00  0.00    -0.238 OA
ATOM     30  H1  UNL     1       3.437  29.253  29.841  1.00  0.00     0.171 HD
BRANCH  28  31
HETATM   31  O1  UNL     1       5.113  31.173  29.186  1.00  0.00    -0.304 OA
BRANCH  31  32
HETATM   32  C2  UNL     1       6.390  31.726  29.540  1.00  0.00     0.176 C 
HETATM   33  C1  UNL     1       6.814  31.305  30.908  1.00  0.00     0.034 C 
ENDBRANCH  31  32
ENDBRANCH  28  31
ENDBRANCH   1  27
TORSDOF 6
ENDMDL
