MODEL 13
REMARK VINA RESULT: -7.622088509      3.824      8.091
REMARK  6 active torsions:
REMARK  status: ('A' for Active; 'I' for Inactive)
REMARK    1  A    between atoms: C2_2  and  O1_3 
REMARK    2  A    between atoms: O1_3  and  C3_4 
REMARK       I    between atoms: C3_4  and  N1_6 
REMARK    3  A    between atoms: N1_6  and  C4_8 
REMARK    4  A    between atoms: C6_10  and  C7_11 
REMARK    5  A    between atoms: C12_16  and  N2_17 
REMARK    6  A    between atoms: N2_17  and  S1_19 
ROOT
HETATM    1  C4  UNL     1       3.427  26.614  26.189  1.00  0.00     0.086 A 
HETATM    2  C5  UNL     1       3.052  25.410  26.701  1.00  0.00     0.065 A 
HETATM    3  C6  UNL     1       3.058  25.199  28.052  1.00  0.00     0.061 A 
HETATM    4  N3  UNL     1       3.447  26.225  28.856  1.00  0.00    -0.290 N 
ATOM      5  H3  UNL     1       3.452  26.072  29.865  1.00  0.00     0.187 HD
HETATM    6  N4  UNL     1       3.816  27.395  28.409  1.00  0.00    -0.223 N 
HETATM    7  C15 UNL     1       4.231  28.532  29.005  1.00  0.00     0.116 A 
HETATM    8  C16 UNL     1       4.384  28.744  30.455  1.00  0.00     0.092 C 
HETATM    9  N5  UNL     1       4.483  29.441  28.059  1.00  0.00    -0.286 N 
ATOM     10  H5  UNL     1       4.811  30.396  28.198  1.00  0.00     0.188 HD
HETATM   11  N6  UNL     1       4.217  28.847  26.894  1.00  0.00    -0.281 N 
ATOM     12  H6  UNL     1       4.315  29.289  25.979  1.00  0.00     0.188 HD
HETATM   13  C17 UNL     1       3.807  27.591  27.094  1.00  0.00     0.170 A 
ENDROOT
BRANCH   3  14
HETATM   14  C7  UNL     1       2.675  23.950  28.703  1.00  0.00    -0.006 A 
HETATM   15  C8  UNL     1       2.269  22.858  27.994  1.00  0.00     0.014 A 
HETATM   16  C9  UNL     1       1.903  21.662  28.623  1.00  0.00     0.010 A 
HETATM   17  C10 UNL     1       1.950  21.573  29.994  1.00  0.00    -0.035 A 
HETATM   18  C11 UNL     1       1.552  20.281  30.633  1.00  0.00     0.050 C 
HETATM   19  C12 UNL     1       2.355  22.659  30.725  1.00  0.00     0.049 A 
HETATM   20  C14 UNL     1       2.712  23.830  30.097  1.00  0.00     0.044 A 
BRANCH  19  21
HETATM   21  N2  UNL     1       2.399  22.556  32.134  1.00  0.00    -0.284 N 
ATOM     22  H2  UNL     1       1.534  22.644  32.668  1.00  0.00     0.178 HD
BRANCH  21  23
HETATM   23  S1  UNL     1       3.898  22.281  32.976  1.00  0.00     0.227 S 
HETATM   24  C13 UNL     1       3.676  20.821  33.961  1.00  0.00     0.186 C 
HETATM   25  O3  UNL     1       5.015  22.052  31.999  1.00  0.00    -0.206 OA
HETATM   26  O4  UNL     1       4.160  23.452  33.857  1.00  0.00    -0.206 OA
ENDBRANCH  21  23
ENDBRANCH  19  21
ENDBRANCH   3  14
BRANCH   1  27
HETATM   27  N1  UNL     1       3.447  26.906  24.798  1.00  0.00    -0.299 N 
HETATM   28  C3  UNL     1       2.634  26.360  23.800  1.00  0.00     0.365 C 
HETATM   29  O2  UNL     1       1.767  25.510  24.075  1.00  0.00    -0.238 OA
ATOM     30  H1  UNL     1       4.134  27.595  24.492  1.00  0.00     0.171 HD
BRANCH  28  31
HETATM   31  O1  UNL     1       2.728  26.710  22.452  1.00  0.00    -0.304 OA
BRANCH  31  32
HETATM   32  C2  UNL     1       2.833  25.693  21.443  1.00  0.00     0.176 C 
HETATM   33  C1  UNL     1       4.023  24.819  21.663  1.00  0.00     0.034 C 
ENDBRANCH  31  32
ENDBRANCH  28  31
ENDBRANCH   1  27
TORSDOF 6
ENDMDL
