MODEL 2
REMARK VINA RESULT: -8.156860168      2.624      6.945
REMARK  6 active torsions:
REMARK  status: ('A' for Active; 'I' for Inactive)
REMARK    1  A    between atoms: C2_2  and  O1_3 
REMARK    2  A    between atoms: O1_3  and  C3_4 
REMARK       I    between atoms: C3_4  and  N1_6 
REMARK    3  A    between atoms: N1_6  and  C4_8 
REMARK    4  A    between atoms: C6_10  and  C7_11 
REMARK    5  A    between atoms: C12_16  and  N2_17 
REMARK    6  A    between atoms: N2_17  and  S1_19 
ROOT
HETATM    1  C4  UNL     1       4.025  26.879  27.788  1.00  0.00     0.086 A 
HETATM    2  C5  UNL     1       3.758  25.870  28.662  1.00  0.00     0.065 A 
HETATM    3  C6  UNL     1       3.045  24.774  28.259  1.00  0.00     0.061 A 
HETATM    4  N3  UNL     1       2.618  24.730  26.968  1.00  0.00    -0.290 N 
ATOM      5  H3  UNL     1       2.088  23.914  26.664  1.00  0.00     0.187 HD
HETATM    6  N4  UNL     1       2.851  25.675  26.097  1.00  0.00    -0.223 N 
HETATM    7  C15 UNL     1       2.533  25.841  24.796  1.00  0.00     0.116 A 
HETATM    8  C16 UNL     1       1.767  24.897  23.964  1.00  0.00     0.092 C 
HETATM    9  N5  UNL     1       3.030  27.010  24.383  1.00  0.00    -0.286 N 
ATOM     10  H5  UNL     1       2.953  27.413  23.450  1.00  0.00     0.188 HD
HETATM   11  N6  UNL     1       3.646  27.545  25.439  1.00  0.00    -0.281 N 
ATOM     12  H6  UNL     1       4.127  28.445  25.438  1.00  0.00     0.188 HD
HETATM   13  C17 UNL     1       3.544  26.736  26.497  1.00  0.00     0.170 A 
ENDROOT
BRANCH   3  14
HETATM   14  C7  UNL     1       2.705  23.640  29.113  1.00  0.00    -0.006 A 
HETATM   15  C8  UNL     1       2.399  22.413  28.601  1.00  0.00     0.014 A 
HETATM   16  C9  UNL     1       2.074  21.329  29.424  1.00  0.00     0.010 A 
HETATM   17  C10 UNL     1       2.059  21.492  30.789  1.00  0.00    -0.035 A 
HETATM   18  C11 UNL     1       1.707  20.313  31.639  1.00  0.00     0.050 C 
HETATM   19  C12 UNL     1       2.363  22.717  31.324  1.00  0.00     0.049 A 
HETATM   20  C14 UNL     1       2.681  23.776  30.505  1.00  0.00     0.044 A 
BRANCH  19  21
HETATM   21  N2  UNL     1       2.343  22.873  32.728  1.00  0.00    -0.284 N 
ATOM     22  H2  UNL     1       1.448  22.891  33.216  1.00  0.00     0.178 HD
BRANCH  21  23
HETATM   23  S1  UNL     1       3.816  23.035  33.642  1.00  0.00     0.227 S 
HETATM   24  C13 UNL     1       4.298  21.400  34.138  1.00  0.00     0.186 C 
HETATM   25  O3  UNL     1       4.900  23.632  32.790  1.00  0.00    -0.206 OA
HETATM   26  O4  UNL     1       3.531  23.866  34.844  1.00  0.00    -0.206 OA
ENDBRANCH  21  23
ENDBRANCH  19  21
ENDBRANCH   3  14
BRANCH   1  27
HETATM   27  N1  UNL     1       4.758  28.046  28.134  1.00  0.00    -0.299 N 
HETATM   28  C3  UNL     1       4.587  28.858  29.260  1.00  0.00     0.365 C 
HETATM   29  O2  UNL     1       3.712  28.602  30.107  1.00  0.00    -0.238 OA
ATOM     30  H1  UNL     1       5.495  28.323  27.486  1.00  0.00     0.171 HD
BRANCH  28  31
HETATM   31  O1  UNL     1       5.360  29.992  29.516  1.00  0.00    -0.304 OA
BRANCH  31  32
HETATM   32  C2  UNL     1       6.303  29.999  30.599  1.00  0.00     0.176 C 
HETATM   33  C1  UNL     1       6.854  31.365  30.842  1.00  0.00     0.034 C 
ENDBRANCH  31  32
ENDBRANCH  28  31
ENDBRANCH   1  27
TORSDOF 6
ENDMDL
