MODEL 1
REMARK VINA RESULT: -8.419469046      0.000      0.000
REMARK  6 active torsions:
REMARK  status: ('A' for Active; 'I' for Inactive)
REMARK    1  A    between atoms: C2_2  and  O1_3 
REMARK    2  A    between atoms: O1_3  and  C3_4 
REMARK       I    between atoms: C3_4  and  N1_6 
REMARK    3  A    between atoms: N1_6  and  C4_8 
REMARK    4  A    between atoms: C6_10  and  C7_11 
REMARK    5  A    between atoms: C12_16  and  N2_17 
REMARK    6  A    between atoms: N2_17  and  S1_19 
ROOT
HETATM    1  C4  UNL     1       3.331  24.364  30.632  1.00  0.00     0.086 A 
HETATM    2  C5  UNL     1       3.820  25.566  30.221  1.00  0.00     0.065 A 
HETATM    3  C6  UNL     1       3.701  25.952  28.914  1.00  0.00     0.061 A 
HETATM    4  N3  UNL     1       3.082  25.102  28.052  1.00  0.00    -0.290 N 
ATOM      5  H3  UNL     1       2.990  25.387  27.077  1.00  0.00     0.187 HD
HETATM    6  N4  UNL     1       2.599  23.940  28.402  1.00  0.00    -0.223 N 
HETATM    7  C15 UNL     1       1.962  22.956  27.735  1.00  0.00     0.116 A 
HETATM    8  C16 UNL     1       1.625  22.960  26.301  1.00  0.00     0.092 C 
HETATM    9  N5  UNL     1       1.684  21.971  28.593  1.00  0.00    -0.286 N 
ATOM     10  H5  UNL     1       1.208  21.094  28.386  1.00  0.00     0.188 HD
HETATM   11  N6  UNL     1       2.156  22.366  29.777  1.00  0.00    -0.281 N 
ATOM     12  H6  UNL     1       2.096  21.823  30.639  1.00  0.00     0.188 HD
HETATM   13  C17 UNL     1       2.720  23.573  29.675  1.00  0.00     0.170 A 
ENDROOT
BRANCH   3  14
HETATM   14  C7  UNL     1       4.188  27.216  28.370  1.00  0.00    -0.006 A 
HETATM   15  C8  UNL     1       4.125  27.505  27.038  1.00  0.00     0.014 A 
HETATM   16  C9  UNL     1       4.594  28.718  26.522  1.00  0.00     0.010 A 
HETATM   17  C10 UNL     1       5.136  29.654  27.371  1.00  0.00    -0.035 A 
HETATM   18  C11 UNL     1       5.627  30.939  26.786  1.00  0.00     0.050 C 
HETATM   19  C12 UNL     1       5.209  29.384  28.713  1.00  0.00     0.049 A 
HETATM   20  C14 UNL     1       4.746  28.187  29.209  1.00  0.00     0.044 A 
BRANCH  19  21
HETATM   21  N2  UNL     1       5.769  30.353  29.575  1.00  0.00    -0.284 N 
ATOM     22  H2  UNL     1       5.724  31.338  29.316  1.00  0.00     0.178 HD
BRANCH  21  23
HETATM   23  S1  UNL     1       6.537  29.899  31.071  1.00  0.00     0.227 S 
HETATM   24  C13 UNL     1       6.954  31.404  31.913  1.00  0.00     0.186 C 
HETATM   25  O3  UNL     1       5.592  29.101  31.925  1.00  0.00    -0.206 OA
HETATM   26  O4  UNL     1       7.775  29.138  30.748  1.00  0.00    -0.206 OA
ENDBRANCH  21  23
ENDBRANCH  19  21
ENDBRANCH   3  14
BRANCH   1  27
HETATM   27  N1  UNL     1       3.419  23.896  31.972  1.00  0.00    -0.299 N 
HETATM   28  C3  UNL     1       4.217  22.857  32.462  1.00  0.00     0.365 C 
HETATM   29  O2  UNL     1       4.966  22.213  31.705  1.00  0.00    -0.238 OA
ATOM     30  H1  UNL     1       2.832  24.374  32.655  1.00  0.00     0.171 HD
BRANCH  28  31
HETATM   31  O1  UNL     1       4.235  22.467  33.802  1.00  0.00    -0.304 OA
BRANCH  31  32
HETATM   32  C2  UNL     1       3.382  23.114  34.759  1.00  0.00     0.176 C 
HETATM   33  C1  UNL     1       2.135  22.331  35.004  1.00  0.00     0.034 C 
ENDBRANCH  31  32
ENDBRANCH  28  31
ENDBRANCH   1  27
TORSDOF 6
ENDMDL
