MODEL 5
REMARK VINA RESULT: -8.397497482      3.728      6.720
REMARK  6 active torsions:
REMARK  status: ('A' for Active; 'I' for Inactive)
REMARK    1  A    between atoms: C2_2  and  O1_3 
REMARK    2  A    between atoms: O1_3  and  C3_4 
REMARK       I    between atoms: C3_4  and  N1_6 
REMARK    3  A    between atoms: N1_6  and  C4_8 
REMARK    4  A    between atoms: C6_10  and  C7_11 
REMARK    5  A    between atoms: C12_16  and  N2_17 
REMARK    6  A    between atoms: N2_17  and  S1_19 
ROOT
HETATM    1  C4  UNL     1      58.307  -4.405  24.819  1.00  0.00     0.086 A 
HETATM    2  C5  UNL     1      58.119  -5.714  25.124  1.00  0.00     0.065 A 
HETATM    3  C6  UNL     1      59.224  -6.477  25.514  1.00  0.00     0.061 A 
HETATM    4  N3  UNL     1      60.444  -5.915  25.581  1.00  0.00    -0.290 N 
ATOM      5  H3  UNL     1      61.235  -6.490  25.868  1.00  0.00     0.187 HD
HETATM    6  N4  UNL     1      60.652  -4.643  25.290  1.00  0.00    -0.223 N 
HETATM    7  C15 UNL     1      61.774  -3.891  25.292  1.00  0.00     0.116 A 
HETATM    8  C16 UNL     1      63.126  -4.399  25.659  1.00  0.00     0.092 C 
HETATM    9  N5  UNL     1      61.407  -2.671  24.912  1.00  0.00    -0.286 N 
ATOM     10  H5  UNL     1      62.026  -1.867  24.812  1.00  0.00     0.188 HD
HETATM   11  N6  UNL     1      60.103  -2.675  24.685  1.00  0.00    -0.281 N 
ATOM     12  H6  UNL     1      59.556  -1.869  24.381  1.00  0.00     0.188 HD
HETATM   13  C17 UNL     1      59.605  -3.914  24.919  1.00  0.00     0.170 A 
ENDROOT
BRANCH   3  14
HETATM   14  C7  UNL     1      59.102  -7.896  25.859  1.00  0.00    -0.006 A 
HETATM   15  C8  UNL     1      57.947  -8.619  25.780  1.00  0.00     0.014 A 
HETATM   16  C9  UNL     1      57.912  -9.974  26.129  1.00  0.00     0.010 A 
HETATM   17  C10 UNL     1      59.037 -10.637  26.565  1.00  0.00    -0.035 A 
HETATM   18  C11 UNL     1      59.009 -12.072  26.936  1.00  0.00     0.050 C 
HETATM   19  C12 UNL     1      60.206  -9.913  26.647  1.00  0.00     0.049 A 
HETATM   20  C14 UNL     1      60.231  -8.577  26.301  1.00  0.00     0.044 A 
BRANCH  19  21
HETATM   21  N2  UNL     1      61.387 -10.549  27.090  1.00  0.00    -0.284 N 
ATOM     22  H2  UNL     1      61.810 -11.279  26.517  1.00  0.00     0.178 HD
BRANCH  21  23
HETATM   23  S1  UNL     1      62.125 -10.108  28.582  1.00  0.00     0.227 S 
HETATM   24  C13 UNL     1      62.977 -11.494  29.312  1.00  0.00     0.186 C 
HETATM   25  O3  UNL     1      61.071  -9.617  29.529  1.00  0.00    -0.206 OA
HETATM   26  O4  UNL     1      63.107  -9.009  28.379  1.00  0.00    -0.206 OA
ENDBRANCH  21  23
ENDBRANCH  19  21
ENDBRANCH   3  14
BRANCH   1  27
HETATM   27  N1  UNL     1      57.270  -3.544  24.414  1.00  0.00    -0.299 N 
HETATM   28  C3  UNL     1      56.780  -2.412  25.089  1.00  0.00     0.365 C 
HETATM   29  O2  UNL     1      57.266  -2.075  26.163  1.00  0.00    -0.238 OA
ATOM     30  H1  UNL     1      56.820  -3.767  23.526  1.00  0.00     0.171 HD
BRANCH  28  31
HETATM   31  O1  UNL     1      55.743  -1.625  24.595  1.00  0.00    -0.304 OA
BRANCH  31  32
HETATM   32  C2  UNL     1      55.400  -1.541  23.248  1.00  0.00     0.176 C 
HETATM   33  C1  UNL     1      55.725  -0.244  22.594  1.00  0.00     0.034 C 
ENDBRANCH  31  32
ENDBRANCH  28  31
ENDBRANCH   1  27
TORSDOF 6
ENDMDL
