MODEL 9
REMARK VINA RESULT: -8.059447471      2.443      4.448
REMARK  6 active torsions:
REMARK  status: ('A' for Active; 'I' for Inactive)
REMARK    1  A    between atoms: C2_2  and  O1_3 
REMARK    2  A    between atoms: O1_3  and  C3_4 
REMARK       I    between atoms: C3_4  and  N1_6 
REMARK    3  A    between atoms: N1_6  and  C4_8 
REMARK    4  A    between atoms: C6_10  and  C7_11 
REMARK    5  A    between atoms: C12_16  and  N2_17 
REMARK    6  A    between atoms: N2_17  and  S1_19 
ROOT
HETATM    1  C4  UNL     1      59.156  -5.818  25.423  1.00  0.00     0.086 A 
HETATM    2  C5  UNL     1      60.493  -5.585  25.448  1.00  0.00     0.065 A 
HETATM    3  C6  UNL     1      60.943  -4.261  25.415  1.00  0.00     0.061 A 
HETATM    4  N3  UNL     1      60.061  -3.248  25.359  1.00  0.00    -0.290 N 
ATOM      5  H3  UNL     1      60.412  -2.291  25.335  1.00  0.00     0.187 HD
HETATM    6  N4  UNL     1      58.756  -3.450  25.334  1.00  0.00    -0.223 N 
HETATM    7  C15 UNL     1      57.713  -2.592  25.280  1.00  0.00     0.116 A 
HETATM    8  C16 UNL     1      57.846  -1.108  25.234  1.00  0.00     0.092 C 
HETATM    9  N5  UNL     1      56.614  -3.340  25.278  1.00  0.00    -0.286 N 
ATOM     10  H5  UNL     1      55.656  -2.991  25.243  1.00  0.00     0.188 HD
HETATM   11  N6  UNL     1      56.970  -4.614  25.329  1.00  0.00    -0.281 N 
ATOM     12  H6  UNL     1      56.327  -5.405  25.340  1.00  0.00     0.188 HD
HETATM   13  C17 UNL     1      58.323  -4.706  25.366  1.00  0.00     0.170 A 
ENDROOT
BRANCH   3  14
HETATM   14  C7  UNL     1      62.370  -3.929  25.438  1.00  0.00    -0.006 A 
HETATM   15  C8  UNL     1      63.351  -4.742  25.928  1.00  0.00     0.014 A 
HETATM   16  C9  UNL     1      64.695  -4.351  25.916  1.00  0.00     0.010 A 
HETATM   17  C10 UNL     1      65.088  -3.132  25.408  1.00  0.00    -0.035 A 
HETATM   18  C11 UNL     1      66.508  -2.710  25.391  1.00  0.00     0.050 C 
HETATM   19  C12 UNL     1      64.103  -2.306  24.912  1.00  0.00     0.049 A 
HETATM   20  C14 UNL     1      62.780  -2.701  24.929  1.00  0.00     0.044 A 
BRANCH  19  21
HETATM   21  N2  UNL     1      64.456  -1.046  24.381  1.00  0.00    -0.284 N 
ATOM     22  H2  UNL     1      64.841  -0.331  24.998  1.00  0.00     0.178 HD
BRANCH  21  23
HETATM   23  S1  UNL     1      64.244  -0.699  22.708  1.00  0.00     0.227 S 
HETATM   24  C13 UNL     1      63.362  -2.014  21.886  1.00  0.00     0.186 C 
HETATM   25  O3  UNL     1      65.587  -0.523  22.064  1.00  0.00    -0.206 OA
HETATM   26  O4  UNL     1      63.477   0.563  22.526  1.00  0.00    -0.206 OA
ENDBRANCH  21  23
ENDBRANCH  19  21
ENDBRANCH   3  14
BRANCH   1  27
HETATM   27  N1  UNL     1      58.590  -7.106  25.452  1.00  0.00    -0.299 N 
HETATM   28  C3  UNL     1      59.215  -8.312  25.814  1.00  0.00     0.365 C 
HETATM   29  O2  UNL     1      60.393  -8.319  26.157  1.00  0.00    -0.238 OA
ATOM     30  H1  UNL     1      57.610  -7.172  25.178  1.00  0.00     0.171 HD
BRANCH  28  31
HETATM   31  O1  UNL     1      58.557  -9.539  25.808  1.00  0.00    -0.304 OA
BRANCH  31  32
HETATM   32  C2  UNL     1      57.610  -9.921  26.755  1.00  0.00     0.176 C 
HETATM   33  C1  UNL     1      58.158 -10.623  27.947  1.00  0.00     0.034 C 
ENDBRANCH  31  32
ENDBRANCH  28  31
ENDBRANCH   1  27
TORSDOF 6
ENDMDL
