MODEL 2
REMARK VINA RESULT: -8.514709201      3.780      6.091
REMARK  6 active torsions:
REMARK  status: ('A' for Active; 'I' for Inactive)
REMARK    1  A    between atoms: C2_2  and  O1_3 
REMARK    2  A    between atoms: O1_3  and  C3_4 
REMARK       I    between atoms: C3_4  and  N1_6 
REMARK    3  A    between atoms: N1_6  and  C4_8 
REMARK    4  A    between atoms: C6_10  and  C7_11 
REMARK    5  A    between atoms: C12_16  and  N2_17 
REMARK    6  A    between atoms: N2_17  and  S1_19 
ROOT
HETATM    1  C4  UNL     1      58.537  -9.483  25.865  1.00  0.00     0.086 A 
HETATM    2  C5  UNL     1      58.165  -8.196  25.647  1.00  0.00     0.065 A 
HETATM    3  C6  UNL     1      59.138  -7.195  25.722  1.00  0.00     0.061 A 
HETATM    4  N3  UNL     1      60.414  -7.512  26.006  1.00  0.00    -0.290 N 
ATOM      5  H3  UNL     1      61.107  -6.766  26.057  1.00  0.00     0.187 HD
HETATM    6  N4  UNL     1      60.800  -8.757  26.222  1.00  0.00    -0.223 N 
HETATM    7  C15 UNL     1      62.008  -9.287  26.516  1.00  0.00     0.116 A 
HETATM    8  C16 UNL     1      63.260  -8.493  26.669  1.00  0.00     0.092 C 
HETATM    9  N5  UNL     1      61.823 -10.598  26.629  1.00  0.00    -0.286 N 
ATOM     10  H5  UNL     1      62.545 -11.285  26.847  1.00  0.00     0.188 HD
HETATM   11  N6  UNL     1      60.545 -10.864  26.411  1.00  0.00    -0.281 N 
ATOM     12  H6  UNL     1      60.124 -11.794  26.436  1.00  0.00     0.188 HD
HETATM   13  C17 UNL     1      59.879  -9.712  26.151  1.00  0.00     0.170 A 
ENDROOT
BRANCH   3  14
HETATM   14  C7  UNL     1      58.815  -5.783  25.500  1.00  0.00    -0.006 A 
HETATM   15  C8  UNL     1      57.556  -5.258  25.537  1.00  0.00     0.014 A 
HETATM   16  C9  UNL     1      57.329  -3.895  25.312  1.00  0.00     0.010 A 
HETATM   17  C10 UNL     1      58.362  -3.025  25.047  1.00  0.00    -0.035 A 
HETATM   18  C11 UNL     1      58.130  -1.581  24.809  1.00  0.00     0.050 C 
HETATM   19  C12 UNL     1      59.636  -3.548  25.008  1.00  0.00     0.049 A 
HETATM   20  C14 UNL     1      59.850  -4.894  25.230  1.00  0.00     0.044 A 
BRANCH  19  21
HETATM   21  N2  UNL     1      60.729  -2.696  24.739  1.00  0.00    -0.284 N 
ATOM     22  H2  UNL     1      60.858  -1.852  25.297  1.00  0.00     0.178 HD
BRANCH  21  23
HETATM   23  S1  UNL     1      61.847  -3.060  23.480  1.00  0.00     0.227 S 
HETATM   24  C13 UNL     1      63.416  -3.582  24.148  1.00  0.00     0.186 C 
HETATM   25  O3  UNL     1      62.049  -1.841  22.630  1.00  0.00    -0.206 OA
HETATM   26  O4  UNL     1      61.323  -4.147  22.610  1.00  0.00    -0.206 OA
ENDBRANCH  21  23
ENDBRANCH  19  21
ENDBRANCH   3  14
BRANCH   1  27
HETATM   27  N1  UNL     1      57.645 -10.570  25.815  1.00  0.00    -0.299 N 
HETATM   28  C3  UNL     1      56.892 -11.114  26.870  1.00  0.00     0.365 C 
HETATM   29  O2  UNL     1      56.971 -10.634  27.996  1.00  0.00    -0.238 OA
ATOM     30  H1  UNL     1      57.531 -11.017  24.905  1.00  0.00     0.171 HD
BRANCH  28  31
HETATM   31  O1  UNL     1      56.033 -12.197  26.709  1.00  0.00    -0.304 OA
BRANCH  31  32
HETATM   32  C2  UNL     1      54.791 -12.123  26.083  1.00  0.00     0.176 C 
HETATM   33  C1  UNL     1      53.887 -11.061  26.601  1.00  0.00     0.034 C 
ENDBRANCH  31  32
ENDBRANCH  28  31
ENDBRANCH   1  27
TORSDOF 6
ENDMDL
