MODEL 4
REMARK VINA RESULT: -8.434548087      2.249      4.451
REMARK  6 active torsions:
REMARK  status: ('A' for Active; 'I' for Inactive)
REMARK    1  A    between atoms: C2_2  and  O1_3 
REMARK    2  A    between atoms: O1_3  and  C3_4 
REMARK       I    between atoms: C3_4  and  N1_6 
REMARK    3  A    between atoms: N1_6  and  C4_8 
REMARK    4  A    between atoms: C6_10  and  C7_11 
REMARK    5  A    between atoms: C12_16  and  N2_17 
REMARK    6  A    between atoms: N2_17  and  S1_19 
ROOT
HETATM    1  C4  UNL     1      58.619  -5.761  25.371  1.00  0.00     0.086 A 
HETATM    2  C5  UNL     1      59.957  -5.582  25.508  1.00  0.00     0.065 A 
HETATM    3  C6  UNL     1      60.474  -4.286  25.406  1.00  0.00     0.061 A 
HETATM    4  N3  UNL     1      59.652  -3.247  25.176  1.00  0.00    -0.290 N 
ATOM      5  H3  UNL     1      60.050  -2.311  25.105  1.00  0.00     0.187 HD
HETATM    6  N4  UNL     1      58.346  -3.396  25.040  1.00  0.00    -0.223 N 
HETATM    7  C15 UNL     1      57.357  -2.505  24.810  1.00  0.00     0.116 A 
HETATM    8  C16 UNL     1      57.568  -1.038  24.649  1.00  0.00     0.092 C 
HETATM    9  N5  UNL     1      56.228  -3.204  24.762  1.00  0.00    -0.286 N 
ATOM     10  H5  UNL     1      55.297  -2.820  24.603  1.00  0.00     0.188 HD
HETATM   11  N6  UNL     1      56.514  -4.481  24.958  1.00  0.00    -0.281 N 
ATOM     12  H6  UNL     1      55.834  -5.242  24.972  1.00  0.00     0.188 HD
HETATM   13  C17 UNL     1      57.851  -4.625  25.136  1.00  0.00     0.170 A 
ENDROOT
BRANCH   3  14
HETATM   14  C7  UNL     1      61.907  -4.011  25.543  1.00  0.00    -0.006 A 
HETATM   15  C8  UNL     1      62.793  -4.811  26.204  1.00  0.00     0.014 A 
HETATM   16  C9  UNL     1      64.150  -4.478  26.291  1.00  0.00     0.010 A 
HETATM   17  C10 UNL     1      64.651  -3.333  25.713  1.00  0.00    -0.035 A 
HETATM   18  C11 UNL     1      66.086  -2.974  25.799  1.00  0.00     0.050 C 
HETATM   19  C12 UNL     1      63.762  -2.521  25.044  1.00  0.00     0.049 A 
HETATM   20  C14 UNL     1      62.425  -2.858  24.964  1.00  0.00     0.044 A 
BRANCH  19  21
HETATM   21  N2  UNL     1      64.228  -1.335  24.435  1.00  0.00    -0.284 N 
ATOM     22  H2  UNL     1      64.518  -0.551  25.019  1.00  0.00     0.178 HD
BRANCH  21  23
HETATM   23  S1  UNL     1      64.311  -1.193  22.721  1.00  0.00     0.227 S 
HETATM   24  C13 UNL     1      65.930  -1.636  22.118  1.00  0.00     0.186 C 
HETATM   25  O3  UNL     1      64.003   0.220  22.325  1.00  0.00    -0.206 OA
HETATM   26  O4  UNL     1      63.311  -2.082  22.070  1.00  0.00    -0.206 OA
ENDBRANCH  21  23
ENDBRANCH  19  21
ENDBRANCH   3  14
BRANCH   1  27
HETATM   27  N1  UNL     1      57.990  -7.017  25.455  1.00  0.00    -0.299 N 
HETATM   28  C3  UNL     1      58.570  -8.247  25.808  1.00  0.00     0.365 C 
HETATM   29  O2  UNL     1      59.762  -8.310  26.089  1.00  0.00    -0.238 OA
ATOM     30  H1  UNL     1      56.994  -7.036  25.232  1.00  0.00     0.171 HD
BRANCH  28  31
HETATM   31  O1  UNL     1      57.850  -9.438  25.859  1.00  0.00    -0.304 OA
BRANCH  31  32
HETATM   32  C2  UNL     1      58.355 -10.673  25.461  1.00  0.00     0.176 C 
HETATM   33  C1  UNL     1      57.512 -11.845  25.823  1.00  0.00     0.034 C 
ENDBRANCH  31  32
ENDBRANCH  28  31
ENDBRANCH   1  27
TORSDOF 6
ENDMDL
