MODEL 3
REMARK VINA RESULT: -8.468883953      4.136      7.646
REMARK  6 active torsions:
REMARK  status: ('A' for Active; 'I' for Inactive)
REMARK    1  A    between atoms: C2_2  and  O1_3 
REMARK    2  A    between atoms: O1_3  and  C3_4 
REMARK       I    between atoms: C3_4  and  N1_6 
REMARK    3  A    between atoms: N1_6  and  C4_8 
REMARK    4  A    between atoms: C6_10  and  C7_11 
REMARK    5  A    between atoms: C12_16  and  N2_17 
REMARK    6  A    between atoms: N2_17  and  S1_19 
ROOT
HETATM    1  C4  UNL     1      58.345  -4.805  24.948  1.00  0.00     0.086 A 
HETATM    2  C5  UNL     1      58.232  -6.126  25.235  1.00  0.00     0.065 A 
HETATM    3  C6  UNL     1      59.372  -6.823  25.647  1.00  0.00     0.061 A 
HETATM    4  N3  UNL     1      60.552  -6.187  25.751  1.00  0.00    -0.290 N 
ATOM      5  H3  UNL     1      61.371  -6.715  26.052  1.00  0.00     0.187 HD
HETATM    6  N4  UNL     1      60.688  -4.902  25.477  1.00  0.00    -0.223 N 
HETATM    7  C15 UNL     1      61.761  -4.081  25.515  1.00  0.00     0.116 A 
HETATM    8  C16 UNL     1      63.132  -4.508  25.913  1.00  0.00     0.092 C 
HETATM    9  N5  UNL     1      61.328  -2.882  25.138  1.00  0.00    -0.286 N 
ATOM     10  H5  UNL     1      61.898  -2.040  25.061  1.00  0.00     0.188 HD
HETATM   11  N6  UNL     1      60.033  -2.965  24.877  1.00  0.00    -0.281 N 
ATOM     12  H6  UNL     1      59.445  -2.191  24.566  1.00  0.00     0.188 HD
HETATM   13  C17 UNL     1      59.607  -4.235  25.086  1.00  0.00     0.170 A 
ENDROOT
BRANCH   3  14
HETATM   14  C7  UNL     1      59.330  -8.251  25.975  1.00  0.00    -0.006 A 
HETATM   15  C8  UNL     1      60.398  -8.979  26.415  1.00  0.00     0.014 A 
HETATM   16  C9  UNL     1      60.276 -10.343  26.708  1.00  0.00     0.010 A 
HETATM   17  C10 UNL     1      59.079 -11.008  26.567  1.00  0.00    -0.035 A 
HETATM   18  C11 UNL     1      58.942 -12.451  26.875  1.00  0.00     0.050 C 
HETATM   19  C12 UNL     1      57.998 -10.279  26.124  1.00  0.00     0.049 A 
HETATM   20  C14 UNL     1      58.127  -8.934  25.837  1.00  0.00     0.044 A 
BRANCH  19  21
HETATM   21  N2  UNL     1      56.748 -10.916  25.963  1.00  0.00    -0.284 N 
ATOM     22  H2  UNL     1      56.498 -11.310  25.056  1.00  0.00     0.178 HD
BRANCH  21  23
HETATM   23  S1  UNL     1      55.641 -11.038  27.276  1.00  0.00     0.227 S 
HETATM   24  C13 UNL     1      56.241 -10.158  28.706  1.00  0.00     0.186 C 
HETATM   25  O3  UNL     1      55.445 -12.483  27.627  1.00  0.00    -0.206 OA
HETATM   26  O4  UNL     1      54.316 -10.473  26.901  1.00  0.00    -0.206 OA
ENDBRANCH  21  23
ENDBRANCH  19  21
ENDBRANCH   3  14
BRANCH   1  27
HETATM   27  N1  UNL     1      57.267  -4.005  24.525  1.00  0.00    -0.299 N 
HETATM   28  C3  UNL     1      56.757  -2.851  25.146  1.00  0.00     0.365 C 
HETATM   29  O2  UNL     1      57.262  -2.434  26.183  1.00  0.00    -0.238 OA
ATOM     30  H1  UNL     1      56.801  -4.297  23.666  1.00  0.00     0.171 HD
BRANCH  28  31
HETATM   31  O1  UNL     1      55.680  -2.131  24.638  1.00  0.00    -0.304 OA
BRANCH  31  32
HETATM   32  C2  UNL     1      55.422  -1.965  23.280  1.00  0.00     0.176 C 
HETATM   33  C1  UNL     1      55.304  -0.551  22.829  1.00  0.00     0.034 C 
ENDBRANCH  31  32
ENDBRANCH  28  31
ENDBRANCH   1  27
TORSDOF 6
ENDMDL
