MODEL 3
REMARK VINA RESULT: -8.306655684      1.107      1.302
REMARK  6 active torsions:
REMARK  status: ('A' for Active; 'I' for Inactive)
REMARK    1  A    between atoms: N2_5  and  C4_6 
REMARK    2  A    between atoms: C7_9  and  N3_10 
REMARK    3  A    between atoms: C9_12  and  C10_13 
REMARK    4  A    between atoms: C14_19  and  O1_20 
REMARK    5  A    between atoms: O1_20  and  C15_21 
REMARK    6  A    between atoms: C15_21  and  C16_22 
ROOT
HETATM    1  N3  UNL     1      -3.991 -12.461   5.642  1.00  0.00    -0.267 N 
HETATM    2  C8  UNL     1      -5.266 -12.903   5.843  1.00  0.00     0.130 A 
HETATM    3  C9  UNL     1      -5.417 -13.280   7.152  1.00  0.00     0.011 A 
HETATM    4  C21 UNL     1      -4.203 -13.058   7.747  1.00  0.00     0.121 A 
HETATM    5  N6  UNL     1      -3.364 -12.562   6.797  1.00  0.00    -0.304 N 
ATOM      6  H6  UNL     1      -2.391 -12.304   6.955  1.00  0.00     0.186 HD
ENDROOT
BRANCH   3   7
HETATM    7  C10 UNL     1      -6.618 -13.816   7.784  1.00  0.00     0.013 A 
HETATM    8  C11 UNL     1      -6.867 -15.169   7.778  1.00  0.00     0.032 A 
HETATM    9  C12 UNL     1      -7.980 -15.731   8.360  1.00  0.00     0.088 A 
HETATM   10  N4  UNL     1      -8.869 -14.907   8.966  1.00  0.00    -0.373 N 
HETATM   11  C13 UNL     1      -8.662 -13.598   8.991  1.00  0.00     0.125 A 
ATOM     12  H4  UNL     1      -9.703 -15.296   9.405  1.00  0.00     0.164 HD
HETATM   13  C14 UNL     1      -7.537 -12.963   8.409  1.00  0.00     0.095 A 
BRANCH  13  14
HETATM   14  O1  UNL     1      -7.349 -11.685   8.442  1.00  0.00    -0.348 OA
BRANCH  14  15
HETATM   15  C15 UNL     1      -7.155 -10.409   8.500  1.00  0.00     0.180 C 
BRANCH  15  16
HETATM   16  C16 UNL     1      -7.021  -9.651   7.182  1.00  0.00     0.013 C 
HETATM   17  C17 UNL     1      -7.689  -8.306   7.203  1.00  0.00     0.034 C 
HETATM   18  C18 UNL     1      -7.279  -7.620   5.892  1.00  0.00     0.232 C 
HETATM   19  N5  UNL     1      -7.782  -8.361   4.779  1.00  0.00    -0.075 N 
HETATM   20  C19 UNL     1      -7.338  -9.733   4.747  1.00  0.00     0.232 C 
ATOM     21  H52 UNL     1      -8.801  -8.311   4.744  1.00  0.00     0.277 HD
ATOM     22  H51 UNL     1      -7.559  -7.890   3.902  1.00  0.00     0.277 HD
HETATM   23  C20 UNL     1      -7.585 -10.454   6.040  1.00  0.00     0.034 C 
ENDBRANCH  15  16
ENDBRANCH  14  15
ENDBRANCH  13  14
ENDBRANCH   3   7
BRANCH   1  24
HETATM   24  C7  UNL     1      -3.420 -11.978   4.440  1.00  0.00     0.056 A 
HETATM   25  C6  UNL     1      -4.121 -11.193   3.550  1.00  0.00     0.034 A 
HETATM   26  C5  UNL     1      -3.581 -10.729   2.391  1.00  0.00     0.031 A 
HETATM   27  C4  UNL     1      -2.269 -11.051   2.075  1.00  0.00     0.030 A 
HETATM   28  C23 UNL     1      -1.545 -11.831   2.941  1.00  0.00     0.031 A 
HETATM   29  C22 UNL     1      -2.121 -12.298   4.129  1.00  0.00     0.034 A 
BRANCH  27  30
HETATM   30  N2  UNL     1      -1.730 -10.556   0.852  1.00  0.00    -0.378 N 
HETATM   31  C3  UNL     1      -2.628  -9.938  -0.140  1.00  0.00     0.153 C 
HETATM   32  C2  UNL     1      -1.842  -9.881  -1.444  1.00  0.00     0.291 C 
HETATM   33  N1  UNL     1      -1.306 -11.204  -1.664  1.00  0.00     0.087 N 
HETATM   34  C1  UNL     1      -0.972 -11.436  -3.057  1.00  0.00     0.310 C 
HETATM   35  C25 UNL     1      -0.162 -11.398  -0.798  1.00  0.00     0.291 C 
HETATM   36  C24 UNL     1      -0.340 -10.602   0.482  1.00  0.00     0.153 C 
ENDBRANCH  27  30
ENDBRANCH   1  24
TORSDOF 6
ENDMDL
