MODEL 5
REMARK VINA RESULT: -8.298671927      2.116      8.443
REMARK  6 active torsions:
REMARK  status: ('A' for Active; 'I' for Inactive)
REMARK    1  A    between atoms: N2_5  and  C4_6 
REMARK    2  A    between atoms: C7_9  and  N3_10 
REMARK    3  A    between atoms: C9_12  and  C10_13 
REMARK    4  A    between atoms: C14_19  and  O1_20 
REMARK    5  A    between atoms: O1_20  and  C15_21 
REMARK    6  A    between atoms: C15_21  and  C16_22 
ROOT
HETATM    1  N3  UNL     1      -3.546 -11.564   3.690  1.00  0.00    -0.267 N 
HETATM    2  C8  UNL     1      -4.053 -10.993   2.560  1.00  0.00     0.130 A 
HETATM    3  C9  UNL     1      -3.039 -10.402   1.853  1.00  0.00     0.011 A 
HETATM    4  C21 UNL     1      -1.898 -10.624   2.577  1.00  0.00     0.121 A 
HETATM    5  N6  UNL     1      -2.248 -11.333   3.686  1.00  0.00    -0.304 N 
ATOM      6  H6  UNL     1      -1.599 -11.641   4.410  1.00  0.00     0.186 HD
ENDROOT
BRANCH   3   7
HETATM    7  C10 UNL     1      -3.149  -9.675   0.592  1.00  0.00     0.013 A 
HETATM    8  C11 UNL     1      -2.548 -10.158  -0.548  1.00  0.00     0.032 A 
HETATM    9  C12 UNL     1      -2.621  -9.517  -1.764  1.00  0.00     0.088 A 
HETATM   10  N4  UNL     1      -3.317  -8.357  -1.835  1.00  0.00    -0.373 N 
HETATM   11  C13 UNL     1      -3.909  -7.862  -0.757  1.00  0.00     0.125 A 
ATOM     12  H4  UNL     1      -3.387  -7.861  -2.723  1.00  0.00     0.164 HD
HETATM   13  C14 UNL     1      -3.869  -8.475   0.519  1.00  0.00     0.095 A 
BRANCH  13  14
HETATM   14  O1  UNL     1      -4.450  -7.980   1.561  1.00  0.00    -0.348 OA
BRANCH  14  15
HETATM   15  C15 UNL     1      -5.028  -7.460   2.594  1.00  0.00     0.180 C 
BRANCH  15  16
HETATM   16  C16 UNL     1      -5.914  -8.368   3.444  1.00  0.00     0.013 C 
HETATM   17  C17 UNL     1      -7.297  -8.535   2.884  1.00  0.00     0.034 C 
HETATM   18  C18 UNL     1      -7.962  -9.622   3.742  1.00  0.00     0.232 C 
HETATM   19  N5  UNL     1      -8.069  -9.174   5.095  1.00  0.00    -0.075 N 
HETATM   20  C19 UNL     1      -6.803  -8.818   5.689  1.00  0.00     0.232 C 
ATOM     21  H52 UNL     1      -8.731  -8.401   5.167  1.00  0.00     0.277 HD
ATOM     22  H51 UNL     1      -8.552  -9.867   5.666  1.00  0.00     0.277 HD
HETATM   23  C20 UNL     1      -6.021  -7.848   4.853  1.00  0.00     0.034 C 
ENDBRANCH  15  16
ENDBRANCH  14  15
ENDBRANCH  13  14
ENDBRANCH   3   7
BRANCH   1  24
HETATM   24  C7  UNL     1      -4.247 -12.277   4.691  1.00  0.00     0.056 A 
HETATM   25  C6  UNL     1      -5.462 -11.856   5.187  1.00  0.00     0.034 A 
HETATM   26  C5  UNL     1      -6.140 -12.533   6.153  1.00  0.00     0.031 A 
HETATM   27  C4  UNL     1      -5.599 -13.700   6.673  1.00  0.00     0.030 A 
HETATM   28  C23 UNL     1      -4.390 -14.145   6.200  1.00  0.00     0.031 A 
HETATM   29  C22 UNL     1      -3.710 -13.432   5.205  1.00  0.00     0.034 A 
BRANCH  27  30
HETATM   30  N2  UNL     1      -6.328 -14.386   7.686  1.00  0.00    -0.378 N 
HETATM   31  C3  UNL     1      -7.356 -15.370   7.302  1.00  0.00     0.153 C 
HETATM   32  C2  UNL     1      -8.193 -15.617   8.552  1.00  0.00     0.291 C 
HETATM   33  N1  UNL     1      -8.573 -14.320   9.060  1.00  0.00     0.087 N 
HETATM   34  C1  UNL     1      -9.741 -14.388   9.919  1.00  0.00     0.310 C 
HETATM   35  C25 UNL     1      -7.440 -13.732   9.743  1.00  0.00     0.291 C 
HETATM   36  C24 UNL     1      -6.147 -14.204   9.103  1.00  0.00     0.153 C 
ENDBRANCH  27  30
ENDBRANCH   1  24
TORSDOF 6
ENDMDL
