MODEL 1
REMARK VINA RESULT: -8.327978791      0.000      0.000
REMARK  6 active torsions:
REMARK  status: ('A' for Active; 'I' for Inactive)
REMARK    1  A    between atoms: N2_5  and  C4_6 
REMARK    2  A    between atoms: C7_9  and  N3_10 
REMARK    3  A    between atoms: C9_12  and  C10_13 
REMARK    4  A    between atoms: C14_19  and  O1_20 
REMARK    5  A    between atoms: O1_20  and  C15_21 
REMARK    6  A    between atoms: C15_21  and  C16_22 
ROOT
HETATM    1  N3  UNL     1      -3.681 -12.076   4.655  1.00  0.00    -0.267 N 
HETATM    2  C8  UNL     1      -4.915 -12.615   4.871  1.00  0.00     0.130 A 
HETATM    3  C9  UNL     1      -5.050 -12.926   6.199  1.00  0.00     0.011 A 
HETATM    4  C21 UNL     1      -3.869 -12.564   6.791  1.00  0.00     0.121 A 
HETATM    5  N6  UNL     1      -3.063 -12.053   5.819  1.00  0.00    -0.304 N 
ATOM      6  H6  UNL     1      -2.118 -11.702   5.970  1.00  0.00     0.186 HD
ENDROOT
BRANCH   3   7
HETATM    7  C10 UNL     1      -6.209 -13.527   6.852  1.00  0.00     0.013 A 
HETATM    8  C11 UNL     1      -6.262 -14.884   7.072  1.00  0.00     0.032 A 
HETATM    9  C12 UNL     1      -7.326 -15.505   7.686  1.00  0.00     0.088 A 
HETATM   10  N4  UNL     1      -8.368 -14.738   8.088  1.00  0.00    -0.373 N 
HETATM   11  C13 UNL     1      -8.351 -13.427   7.892  1.00  0.00     0.125 A 
ATOM     12  H4  UNL     1      -9.170 -15.172   8.545  1.00  0.00     0.164 HD
HETATM   13  C14 UNL     1      -7.286 -12.733   7.268  1.00  0.00     0.095 A 
BRANCH  13  14
HETATM   14  O1  UNL     1      -7.285 -11.455   7.083  1.00  0.00    -0.348 OA
BRANCH  14  15
HETATM   15  C15 UNL     1      -7.295 -10.172   6.923  1.00  0.00     0.180 C 
BRANCH  15  16
HETATM   16  C16 UNL     1      -6.985  -9.629   5.530  1.00  0.00     0.013 C 
HETATM   17  C17 UNL     1      -6.442  -8.228   5.550  1.00  0.00     0.034 C 
HETATM   18  C18 UNL     1      -6.005  -7.934   4.108  1.00  0.00     0.232 C 
HETATM   19  N5  UNL     1      -7.139  -7.971   3.240  1.00  0.00    -0.075 N 
HETATM   20  C19 UNL     1      -7.849  -9.227   3.266  1.00  0.00     0.232 C 
ATOM     21  H52 UNL     1      -7.771  -7.196   3.440  1.00  0.00     0.277 HD
ATOM     22  H51 UNL     1      -6.870  -7.729   2.286  1.00  0.00     0.277 HD
HETATM   23  C20 UNL     1      -8.211  -9.661   4.656  1.00  0.00     0.034 C 
ENDBRANCH  15  16
ENDBRANCH  14  15
ENDBRANCH  13  14
ENDBRANCH   3   7
BRANCH   1  24
HETATM   24  C7  UNL     1      -3.138 -11.617   3.431  1.00  0.00     0.056 A 
HETATM   25  C6  UNL     1      -3.800 -10.726   2.614  1.00  0.00     0.034 A 
HETATM   26  C5  UNL     1      -3.287 -10.284   1.435  1.00  0.00     0.031 A 
HETATM   27  C4  UNL     1      -2.044 -10.739   1.020  1.00  0.00     0.030 A 
HETATM   28  C23 UNL     1      -1.360 -11.627   1.811  1.00  0.00     0.031 A 
HETATM   29  C22 UNL     1      -1.907 -12.069   3.022  1.00  0.00     0.034 A 
BRANCH  27  30
HETATM   30  N2  UNL     1      -1.533 -10.263  -0.222  1.00  0.00    -0.378 N 
HETATM   31  C3  UNL     1      -2.459  -9.703  -1.222  1.00  0.00     0.153 C 
HETATM   32  C2  UNL     1      -1.688  -9.659  -2.536  1.00  0.00     0.291 C 
HETATM   33  N1  UNL     1      -1.113 -10.971  -2.723  1.00  0.00     0.087 N 
HETATM   34  C1  UNL     1      -0.785 -11.233  -4.112  1.00  0.00     0.310 C 
HETATM   35  C25 UNL     1       0.045 -11.104  -1.864  1.00  0.00     0.291 C 
HETATM   36  C24 UNL     1      -0.146 -10.277  -0.605  1.00  0.00     0.153 C 
ENDBRANCH  27  30
ENDBRANCH   1  24
TORSDOF 6
ENDMDL
