MODEL 6
REMARK VINA RESULT: -8.289649560      2.565      5.246
REMARK  6 active torsions:
REMARK  status: ('A' for Active; 'I' for Inactive)
REMARK    1  A    between atoms: N2_5  and  C4_6 
REMARK    2  A    between atoms: C7_9  and  N3_10 
REMARK    3  A    between atoms: C9_12  and  C10_13 
REMARK    4  A    between atoms: C14_19  and  O1_20 
REMARK    5  A    between atoms: O1_20  and  C15_21 
REMARK    6  A    between atoms: C15_21  and  C16_22 
ROOT
HETATM    1  N3  UNL     1      -4.015  -8.943   0.856  1.00  0.00    -0.267 N 
HETATM    2  C8  UNL     1      -4.648  -9.767   1.738  1.00  0.00     0.130 A 
HETATM    3  C9  UNL     1      -5.354  -9.015   2.640  1.00  0.00     0.011 A 
HETATM    4  C21 UNL     1      -5.137  -7.708   2.288  1.00  0.00     0.121 A 
HETATM    5  N6  UNL     1      -4.318  -7.707   1.200  1.00  0.00    -0.304 N 
ATOM      6  H6  UNL     1      -3.987  -6.871   0.721  1.00  0.00     0.186 HD
ENDROOT
BRANCH   3   7
HETATM    7  C10 UNL     1      -6.164  -9.499   3.754  1.00  0.00     0.013 A 
HETATM    8  C11 UNL     1      -7.486  -9.136   3.866  1.00  0.00     0.032 A 
HETATM    9  C12 UNL     1      -8.297  -9.565   4.892  1.00  0.00     0.088 A 
HETATM   10  N4  UNL     1      -7.762 -10.382   5.832  1.00  0.00    -0.373 N 
HETATM   11  C13 UNL     1      -6.492 -10.751   5.755  1.00  0.00     0.125 A 
ATOM     12  H4  UNL     1      -8.341 -10.714   6.603  1.00  0.00     0.164 HD
HETATM   13  C14 UNL     1      -5.609 -10.343   4.725  1.00  0.00     0.095 A 
BRANCH  13  14
HETATM   14  O1  UNL     1      -4.373 -10.712   4.665  1.00  0.00    -0.348 OA
BRANCH  14  15
HETATM   15  C15 UNL     1      -3.144 -11.106   4.604  1.00  0.00     0.180 C 
BRANCH  15  16
HETATM   16  C16 UNL     1      -2.882 -12.548   4.173  1.00  0.00     0.013 C 
HETATM   17  C17 UNL     1      -2.974 -13.529   5.307  1.00  0.00     0.034 C 
HETATM   18  C18 UNL     1      -2.888 -14.919   4.659  1.00  0.00     0.232 C 
HETATM   19  N5  UNL     1      -1.620 -15.078   4.020  1.00  0.00    -0.075 N 
HETATM   20  C19 UNL     1      -1.345 -14.077   3.018  1.00  0.00     0.232 C 
ATOM     21  H52 UNL     1      -0.871 -15.111   4.711  1.00  0.00     0.277 HD
ATOM     22  H51 UNL     1      -1.531 -16.015   3.627  1.00  0.00     0.277 HD
HETATM   23  C20 UNL     1      -1.527 -12.678   3.529  1.00  0.00     0.034 C 
ENDBRANCH  15  16
ENDBRANCH  14  15
ENDBRANCH  13  14
ENDBRANCH   3   7
BRANCH   1  24
HETATM   24  C7  UNL     1      -3.188  -9.310  -0.233  1.00  0.00     0.056 A 
HETATM   25  C6  UNL     1      -2.286 -10.349  -0.161  1.00  0.00     0.034 A 
HETATM   26  C5  UNL     1      -1.485 -10.705  -1.201  1.00  0.00     0.031 A 
HETATM   27  C4  UNL     1      -1.566 -10.001  -2.394  1.00  0.00     0.030 A 
HETATM   28  C23 UNL     1      -2.454  -8.960  -2.497  1.00  0.00     0.031 A 
HETATM   29  C22 UNL     1      -3.270  -8.611  -1.413  1.00  0.00     0.034 A 
BRANCH  27  30
HETATM   30  N2  UNL     1      -0.711 -10.391  -3.466  1.00  0.00    -0.378 N 
HETATM   31  C3  UNL     1      -1.038  -9.980  -4.842  1.00  0.00     0.153 C 
HETATM   32  C2  UNL     1      -0.191 -10.855  -5.759  1.00  0.00     0.291 C 
HETATM   33  N1  UNL     1      -0.397 -12.220  -5.333  1.00  0.00     0.087 N 
HETATM   34  C1  UNL     1      -0.072 -13.175  -6.377  1.00  0.00     0.310 C 
HETATM   35  C25 UNL     1       0.373 -12.459  -4.130  1.00  0.00     0.291 C 
HETATM   36  C24 UNL     1       0.486 -11.177  -3.324  1.00  0.00     0.153 C 
ENDBRANCH  27  30
ENDBRANCH   1  24
TORSDOF 6
ENDMDL
