MODEL 5
REMARK VINA RESULT: -7.125641233      2.362      4.101
REMARK  5 active torsions:
REMARK  status: ('A' for Active; 'I' for Inactive)
REMARK    1  A    between atoms: O1_2  and  C2_3 
REMARK    2  A    between atoms: C4_5  and  O2_6 
REMARK    3  A    between atoms: C8_12  and  C9_13 
REMARK    4  A    between atoms: C12_16  and  O4_17 
REMARK    5  A    between atoms: C13_19  and  O5_20 
ROOT
HETATM    1  C2  UNL     1      18.049  -1.638  -2.159  1.00  0.00     0.073 A 
HETATM    2  C3  UNL     1      18.952  -0.739  -1.611  1.00  0.00     0.074 A 
HETATM    3  C4  UNL     1      20.106  -1.133  -0.969  1.00  0.00     0.085 A 
HETATM    4  C5  UNL     1      20.363  -2.484  -0.874  1.00  0.00     0.081 A 
HETATM    5  C6  UNL     1      21.516  -2.888  -0.232  1.00  0.00     0.190 A 
HETATM    6  O3  UNL     1      22.346  -2.088   0.270  1.00  0.00    -0.287 OA
HETATM    7  C7  UNL     1      21.775  -4.236  -0.136  1.00  0.00     0.094 A 
HETATM    8  C8  UNL     1      20.874  -5.116  -0.683  1.00  0.00     0.090 A 
HETATM    9  O6  UNL     1      19.788  -4.664  -1.284  1.00  0.00    -0.309 OA
HETATM   10  C15 UNL     1      19.474  -3.410  -1.415  1.00  0.00     0.095 A 
HETATM   11  C16 UNL     1      18.330  -2.980  -2.050  1.00  0.00     0.075 A 
ENDROOT
BRANCH   8  12
HETATM   12  C9  UNL     1      21.079  -6.558  -0.620  1.00  0.00     0.001 A 
HETATM   13  C10 UNL     1      20.186  -7.463  -1.154  1.00  0.00     0.017 A 
HETATM   14  C11 UNL     1      20.390  -8.817  -1.089  1.00  0.00     0.040 A 
HETATM   15  C12 UNL     1      21.505  -9.337  -0.481  1.00  0.00     0.098 A 
HETATM   16  C13 UNL     1      22.418  -8.460   0.064  1.00  0.00     0.099 A 
HETATM   17  C14 UNL     1      22.199  -7.094  -0.010  1.00  0.00     0.053 A 
BRANCH  15  18
HETATM   18  O4  UNL     1      21.717 -10.693  -0.411  1.00  0.00    -0.358 OA
ATOM     19  H4  UNL     1      21.204 -11.245   0.166  1.00  0.00     0.217 HD
ENDBRANCH  15  18
BRANCH  16  20
HETATM   20  O5  UNL     1      23.566  -8.964   0.691  1.00  0.00    -0.358 OA
ATOM     21  H5  UNL     1      24.308  -8.389   0.835  1.00  0.00     0.217 HD
ENDBRANCH  16  20
ENDBRANCH   8  12
BRANCH   3  22
HETATM   22  O2  UNL     1      21.009  -0.224  -0.421  1.00  0.00    -0.360 OA
ATOM     23  H2  UNL     1      21.654   0.235  -0.945  1.00  0.00     0.217 HD
ENDBRANCH   3  22
BRANCH   1  24
HETATM   24  O1  UNL     1      16.882  -1.197  -2.807  1.00  0.00    -0.356 OA
HETATM   25  C1  UNL     1      16.213  -0.068  -2.259  1.00  0.00     0.210 C 
ENDBRANCH   1  24
TORSDOF 5
ENDMDL
