MODEL 4
REMARK VINA RESULT: -7.967855711      0.654      1.468
REMARK  5 active torsions:
REMARK  status: ('A' for Active; 'I' for Inactive)
REMARK    1  A    between atoms: O1_2  and  C2_3 
REMARK    2  A    between atoms: C4_5  and  O2_6 
REMARK    3  A    between atoms: C8_12  and  C9_13 
REMARK    4  A    between atoms: C12_16  and  O4_17 
REMARK    5  A    between atoms: C13_19  and  O5_20 
ROOT
HETATM    1  C2  UNL     1      23.250  -2.341   1.690  1.00  0.00     0.073 A 
HETATM    2  C3  UNL     1      22.394  -1.627   0.865  1.00  0.00     0.074 A 
HETATM    3  C4  UNL     1      21.501  -2.232   0.006  1.00  0.00     0.085 A 
HETATM    4  C5  UNL     1      21.467  -3.609  -0.025  1.00  0.00     0.081 A 
HETATM    5  C6  UNL     1      20.577  -4.223  -0.882  1.00  0.00     0.190 A 
HETATM    6  O3  UNL     1      19.794  -3.592  -1.637  1.00  0.00    -0.287 OA
HETATM    7  C7  UNL     1      20.541  -5.598  -0.914  1.00  0.00     0.094 A 
HETATM    8  C8  UNL     1      21.392  -6.295  -0.093  1.00  0.00     0.090 A 
HETATM    9  O6  UNL     1      22.222  -5.646   0.705  1.00  0.00    -0.309 OA
HETATM   10  C15 UNL     1      22.315  -4.353   0.793  1.00  0.00     0.095 A 
HETATM   11  C16 UNL     1      23.195  -3.715   1.639  1.00  0.00     0.075 A 
ENDROOT
BRANCH   8  12
HETATM   12  C9  UNL     1      21.412  -7.753  -0.072  1.00  0.00     0.001 A 
HETATM   13  C10 UNL     1      21.774  -8.478   1.044  1.00  0.00     0.017 A 
HETATM   14  C11 UNL     1      21.789  -9.849   1.053  1.00  0.00     0.040 A 
HETATM   15  C12 UNL     1      21.440 -10.568  -0.064  1.00  0.00     0.098 A 
HETATM   16  C13 UNL     1      21.074  -9.873  -1.196  1.00  0.00     0.099 A 
HETATM   17  C14 UNL     1      21.064  -8.488  -1.190  1.00  0.00     0.053 A 
BRANCH  15  18
HETATM   18  O4  UNL     1      21.453 -11.942  -0.064  1.00  0.00    -0.358 OA
ATOM     19  H4  UNL     1      21.615 -12.435  -0.859  1.00  0.00     0.217 HD
ENDBRANCH  15  18
BRANCH  16  20
HETATM   20  O5  UNL     1      20.713 -10.583  -2.351  1.00  0.00    -0.358 OA
ATOM     21  H5  UNL     1      20.682 -10.129  -3.185  1.00  0.00     0.217 HD
ENDBRANCH  16  20
ENDBRANCH   8  12
BRANCH   3  22
HETATM   22  O2  UNL     1      20.645  -1.507  -0.820  1.00  0.00    -0.360 OA
ATOM     23  H2  UNL     1      19.881  -1.894  -1.231  1.00  0.00     0.217 HD
ENDBRANCH   3  22
BRANCH   1  24
HETATM   24  O1  UNL     1      24.146  -1.688   2.552  1.00  0.00    -0.356 OA
HETATM   25  C1  UNL     1      25.508  -1.613   2.151  1.00  0.00     0.210 C 
ENDBRANCH   1  24
TORSDOF 5
ENDMDL
