MODEL 7
REMARK VINA RESULT: -6.673310747      2.335      7.502
REMARK  5 active torsions:
REMARK  status: ('A' for Active; 'I' for Inactive)
REMARK    1  A    between atoms: O1_2  and  C2_3 
REMARK    2  A    between atoms: C4_5  and  O2_6 
REMARK    3  A    between atoms: C8_12  and  C9_13 
REMARK    4  A    between atoms: C12_16  and  O4_17 
REMARK    5  A    between atoms: C13_19  and  O5_20 
ROOT
HETATM    1  C2  UNL     1      20.910  -8.412  -0.699  1.00  0.00     0.073 A 
HETATM    2  C3  UNL     1      21.934  -8.215   0.214  1.00  0.00     0.074 A 
HETATM    3  C4  UNL     1      22.305  -6.966   0.668  1.00  0.00     0.085 A 
HETATM    4  C5  UNL     1      21.618  -5.874   0.184  1.00  0.00     0.081 A 
HETATM    5  C6  UNL     1      21.982  -4.621   0.633  1.00  0.00     0.190 A 
HETATM    6  O3  UNL     1      22.908  -4.422   1.460  1.00  0.00    -0.287 OA
HETATM    7  C7  UNL     1      21.298  -3.528   0.151  1.00  0.00     0.094 A 
HETATM    8  C8  UNL     1      20.285  -3.736  -0.753  1.00  0.00     0.090 A 
HETATM    9  O6  UNL     1      19.987  -4.963  -1.141  1.00  0.00    -0.309 OA
HETATM   10  C15 UNL     1      20.584  -6.042  -0.734  1.00  0.00     0.095 A 
HETATM   11  C16 UNL     1      20.241  -7.304  -1.165  1.00  0.00     0.075 A 
ENDROOT
BRANCH   8  12
HETATM   12  C9  UNL     1      19.516  -2.629  -1.307  1.00  0.00     0.001 A 
HETATM   13  C10 UNL     1      18.187  -2.744  -1.656  1.00  0.00     0.017 A 
HETATM   14  C11 UNL     1      17.473  -1.696  -2.177  1.00  0.00     0.040 A 
HETATM   15  C12 UNL     1      18.059  -0.470  -2.375  1.00  0.00     0.098 A 
HETATM   16  C13 UNL     1      19.386  -0.321  -2.037  1.00  0.00     0.099 A 
HETATM   17  C14 UNL     1      20.095  -1.389  -1.512  1.00  0.00     0.053 A 
BRANCH  15  18
HETATM   18  O4  UNL     1      17.351   0.586  -2.897  1.00  0.00    -0.358 OA
ATOM     19  H4  UNL     1      16.736   0.466  -3.610  1.00  0.00     0.217 HD
ENDBRANCH  15  18
BRANCH  16  20
HETATM   20  O5  UNL     1      20.009   0.921  -2.230  1.00  0.00    -0.358 OA
ATOM     21  H5  UNL     1      20.641   1.228  -1.591  1.00  0.00     0.217 HD
ENDBRANCH  16  20
ENDBRANCH   8  12
BRANCH   3  22
HETATM   22  O2  UNL     1      23.335  -6.776   1.586  1.00  0.00    -0.360 OA
ATOM     23  H2  UNL     1      23.286  -6.137   2.287  1.00  0.00     0.217 HD
ENDBRANCH   3  22
BRANCH   1  24
HETATM   24  O1  UNL     1      20.562  -9.701  -1.137  1.00  0.00    -0.356 OA
HETATM   25  C1  UNL     1      21.119 -10.806  -0.437  1.00  0.00     0.210 C 
ENDBRANCH   1  24
TORSDOF 5
ENDMDL
