MODEL 1
REMARK VINA RESULT: -7.995624142      0.000      0.000
REMARK  5 active torsions:
REMARK  status: ('A' for Active; 'I' for Inactive)
REMARK    1  A    between atoms: O1_2  and  C2_3 
REMARK    2  A    between atoms: C4_5  and  O2_6 
REMARK    3  A    between atoms: C8_12  and  C9_13 
REMARK    4  A    between atoms: C12_16  and  O4_17 
REMARK    5  A    between atoms: C13_19  and  O5_20 
ROOT
HETATM    1  C2  UNL     1      23.235  -2.350   1.709  1.00  0.00     0.073 A 
HETATM    2  C3  UNL     1      22.378  -1.656   0.869  1.00  0.00     0.074 A 
HETATM    3  C4  UNL     1      21.497  -2.281   0.012  1.00  0.00     0.085 A 
HETATM    4  C5  UNL     1      21.477  -3.659  -0.001  1.00  0.00     0.081 A 
HETATM    5  C6  UNL     1      20.599  -4.293  -0.855  1.00  0.00     0.190 A 
HETATM    6  O3  UNL     1      19.815  -3.680  -1.624  1.00  0.00    -0.287 OA
HETATM    7  C7  UNL     1      20.577  -5.669  -0.869  1.00  0.00     0.094 A 
HETATM    8  C8  UNL     1      21.429  -6.346  -0.033  1.00  0.00     0.090 A 
HETATM    9  O6  UNL     1      22.246  -5.678   0.762  1.00  0.00    -0.309 OA
HETATM   10  C15 UNL     1      22.326  -4.383   0.833  1.00  0.00     0.095 A 
HETATM   11  C16 UNL     1      23.194  -3.725   1.676  1.00  0.00     0.075 A 
ENDROOT
BRANCH   8  12
HETATM   12  C9  UNL     1      21.463  -7.803   0.008  1.00  0.00     0.001 A 
HETATM   13  C10 UNL     1      21.168  -8.587  -1.088  1.00  0.00     0.017 A 
HETATM   14  C11 UNL     1      21.203  -9.957  -1.039  1.00  0.00     0.040 A 
HETATM   15  C12 UNL     1      21.537 -10.615   0.118  1.00  0.00     0.098 A 
HETATM   16  C13 UNL     1      21.837  -9.861   1.232  1.00  0.00     0.099 A 
HETATM   17  C14 UNL     1      21.797  -8.478   1.167  1.00  0.00     0.053 A 
BRANCH  15  18
HETATM   18  O4  UNL     1      21.574 -11.987   0.177  1.00  0.00    -0.358 OA
ATOM     19  H4  UNL     1      22.285 -12.445   0.608  1.00  0.00     0.217 HD
ENDBRANCH  15  18
BRANCH  16  20
HETATM   20  O5  UNL     1      22.181 -10.509   2.428  1.00  0.00    -0.358 OA
ATOM     21  H5  UNL     1      22.464  -9.991   3.172  1.00  0.00     0.217 HD
ENDBRANCH  16  20
ENDBRANCH   8  12
BRANCH   3  22
HETATM   22  O2  UNL     1      20.639  -1.576  -0.829  1.00  0.00    -0.360 OA
ATOM     23  H2  UNL     1      19.713  -1.773  -0.898  1.00  0.00     0.217 HD
ENDBRANCH   3  22
BRANCH   1  24
HETATM   24  O1  UNL     1      24.119  -1.677   2.569  1.00  0.00    -0.356 OA
HETATM   25  C1  UNL     1      25.474  -1.556   2.155  1.00  0.00     0.210 C 
ENDBRANCH   1  24
TORSDOF 5
ENDMDL
