MODEL 6
REMARK VINA RESULT: -6.706593246      1.494      7.041
REMARK  5 active torsions:
REMARK  status: ('A' for Active; 'I' for Inactive)
REMARK    1  A    between atoms: O1_2  and  C2_3 
REMARK    2  A    between atoms: C4_5  and  O2_6 
REMARK    3  A    between atoms: C8_12  and  C9_13 
REMARK    4  A    between atoms: C12_16  and  O4_17 
REMARK    5  A    between atoms: C13_19  and  O5_20 
ROOT
HETATM    1  C2  UNL     1      21.885  -8.388   0.992  1.00  0.00     0.073 A 
HETATM    2  C3  UNL     1      20.919  -8.245   0.008  1.00  0.00     0.074 A 
HETATM    3  C4  UNL     1      20.597  -7.029  -0.557  1.00  0.00     0.085 A 
HETATM    4  C5  UNL     1      21.274  -5.912  -0.115  1.00  0.00     0.081 A 
HETATM    5  C6  UNL     1      20.959  -4.691  -0.674  1.00  0.00     0.190 A 
HETATM    6  O3  UNL     1      20.086  -4.543  -1.567  1.00  0.00    -0.287 OA
HETATM    7  C7  UNL     1      21.633  -3.576  -0.234  1.00  0.00     0.094 A 
HETATM    8  C8  UNL     1      22.588  -3.729   0.741  1.00  0.00     0.090 A 
HETATM    9  O6  UNL     1      22.842  -4.928   1.235  1.00  0.00    -0.309 OA
HETATM   10  C15 UNL     1      22.250  -6.026   0.873  1.00  0.00     0.095 A 
HETATM   11  C16 UNL     1      22.545  -7.257   1.415  1.00  0.00     0.075 A 
ENDROOT
BRANCH   8  12
HETATM   12  C9  UNL     1      23.343  -2.594   1.257  1.00  0.00     0.001 A 
HETATM   13  C10 UNL     1      24.680  -2.675   1.584  1.00  0.00     0.017 A 
HETATM   14  C11 UNL     1      25.382  -1.600   2.069  1.00  0.00     0.040 A 
HETATM   15  C12 UNL     1      24.774  -0.383   2.252  1.00  0.00     0.098 A 
HETATM   16  C13 UNL     1      23.437  -0.269   1.935  1.00  0.00     0.099 A 
HETATM   17  C14 UNL     1      22.743  -1.363   1.446  1.00  0.00     0.053 A 
BRANCH  15  18
HETATM   18  O4  UNL     1      25.468   0.698   2.737  1.00  0.00    -0.358 OA
ATOM     19  H4  UNL     1      25.305   1.577   2.415  1.00  0.00     0.217 HD
ENDBRANCH  15  18
BRANCH  16  20
HETATM   20  O5  UNL     1      22.792   0.964   2.112  1.00  0.00    -0.358 OA
ATOM     21  H5  UNL     1      21.843   0.997   2.103  1.00  0.00     0.217 HD
ENDBRANCH  16  20
ENDBRANCH   8  12
BRANCH   3  22
HETATM   22  O2  UNL     1      19.626  -6.893  -1.546  1.00  0.00    -0.360 OA
ATOM     23  H2  UNL     1      19.517  -6.097  -2.052  1.00  0.00     0.217 HD
ENDBRANCH   3  22
BRANCH   1  24
HETATM   24  O1  UNL     1      22.184  -9.645   1.544  1.00  0.00    -0.356 OA
HETATM   25  C1  UNL     1      21.970  -9.819   2.938  1.00  0.00     0.210 C 
ENDBRANCH   1  24
TORSDOF 5
ENDMDL
