MODEL 6
REMARK VINA RESULT: -7.386148255      2.094      6.834
REMARK  5 active torsions:
REMARK  status: ('A' for Active; 'I' for Inactive)
REMARK    1  A    between atoms: C3_4  and  C4_5 
REMARK    2  A    between atoms: C7_8  and  O2_9 
REMARK    3  A    between atoms: C8_11  and  O3_12 
REMARK    4  A    between atoms: C12_18  and  O5_19 
REMARK    5  A    between atoms: C14_22  and  O6_23 
ROOT
HETATM    1  O1  UNL     1      13.372 -15.096 -29.609  1.00  0.00    -0.287 OA
HETATM    2  C1  UNL     1      12.729 -14.210 -30.226  1.00  0.00     0.190 A 
HETATM    3  C2  UNL     1      12.302 -13.070 -29.552  1.00  0.00     0.094 A 
HETATM    4  C3  UNL     1      11.599 -12.116 -30.252  1.00  0.00     0.090 A 
HETATM    5  O4  UNL     1      11.357 -12.314 -31.530  1.00  0.00    -0.309 OA
HETATM    6  C10 UNL     1      11.733 -13.364 -32.212  1.00  0.00     0.095 A 
HETATM    7  C11 UNL     1      11.409 -13.452 -33.573  1.00  0.00     0.075 A 
HETATM    8  C12 UNL     1      11.790 -14.539 -34.316  1.00  0.00     0.071 A 
HETATM    9  C13 UNL     1      12.490 -15.517 -33.669  1.00  0.00     0.074 A 
HETATM   10  C14 UNL     1      12.829 -15.450 -32.300  1.00  0.00     0.085 A 
HETATM   11  C15 UNL     1      12.442 -14.352 -31.558  1.00  0.00     0.081 A 
ENDROOT
BRANCH   4  12
HETATM   12  C4  UNL     1      11.123 -10.891 -29.590  1.00  0.00     0.001 A 
HETATM   13  C5  UNL     1      10.298  -9.977 -30.196  1.00  0.00     0.017 A 
HETATM   14  C6  UNL     1       9.891  -8.839 -29.499  1.00  0.00     0.040 A 
HETATM   15  C7  UNL     1      10.328  -8.649 -28.199  1.00  0.00     0.098 A 
HETATM   16  C8  UNL     1      11.154  -9.552 -27.575  1.00  0.00     0.099 A 
HETATM   17  C9  UNL     1      11.546 -10.668 -28.274  1.00  0.00     0.053 A 
BRANCH  15  18
HETATM   18  O2  UNL     1       9.925  -7.525 -27.515  1.00  0.00    -0.358 OA
ATOM     19  H2  UNL     1       9.231  -7.601 -26.869  1.00  0.00     0.217 HD
ENDBRANCH  15  18
BRANCH  16  20
HETATM   20  O3  UNL     1      11.589  -9.348 -26.258  1.00  0.00    -0.358 OA
ATOM     21  H3  UNL     1      11.924 -10.067 -25.734  1.00  0.00     0.217 HD
ENDBRANCH  16  20
ENDBRANCH   4  12
BRANCH  10  22
HETATM   22  O6  UNL     1      13.524 -16.475 -31.764  1.00  0.00    -0.360 OA
ATOM     23  H6  UNL     1      14.445 -16.556 -31.981  1.00  0.00     0.217 HD
ENDBRANCH  10  22
BRANCH   8  24
HETATM   24  O5  UNL     1      11.477 -14.647 -35.678  1.00  0.00    -0.361 OA
ATOM     25  H5  UNL     1      12.104 -14.420 -36.353  1.00  0.00     0.217 HD
ENDBRANCH   8  24
TORSDOF 5
ENDMDL
