MODEL 11
REMARK VINA RESULT: -7.230360850      1.051      1.722
REMARK  5 active torsions:
REMARK  status: ('A' for Active; 'I' for Inactive)
REMARK    1  A    between atoms: C3_4  and  C4_5 
REMARK    2  A    between atoms: C7_8  and  O2_9 
REMARK    3  A    between atoms: C8_11  and  O3_12 
REMARK    4  A    between atoms: C12_18  and  O5_19 
REMARK    5  A    between atoms: C14_22  and  O6_23 
ROOT
HETATM    1  O1  UNL     1      10.909 -11.395 -33.005  1.00  0.00    -0.287 OA
HETATM    2  C1  UNL     1      11.206 -11.632 -31.806  1.00  0.00     0.190 A 
HETATM    3  C2  UNL     1      11.936 -12.772 -31.488  1.00  0.00     0.094 A 
HETATM    4  C3  UNL     1      12.246 -13.007 -30.168  1.00  0.00     0.090 A 
HETATM    5  O4  UNL     1      11.844 -12.148 -29.256  1.00  0.00    -0.309 OA
HETATM    6  C10 UNL     1      11.157 -11.062 -29.499  1.00  0.00     0.095 A 
HETATM    7  C11 UNL     1      10.790 -10.228 -28.434  1.00  0.00     0.075 A 
HETATM    8  C12 UNL     1      10.070  -9.083 -28.656  1.00  0.00     0.071 A 
HETATM    9  C13 UNL     1       9.734  -8.803 -29.949  1.00  0.00     0.074 A 
HETATM   10  C14 UNL     1      10.093  -9.626 -31.038  1.00  0.00     0.085 A 
HETATM   11  C15 UNL     1      10.819 -10.778 -30.808  1.00  0.00     0.081 A 
ENDROOT
BRANCH   4  12
HETATM   12  C4  UNL     1      13.016 -14.197 -29.773  1.00  0.00     0.001 A 
HETATM   13  C5  UNL     1      13.144 -14.617 -28.473  1.00  0.00     0.017 A 
HETATM   14  C6  UNL     1      13.892 -15.758 -28.180  1.00  0.00     0.040 A 
HETATM   15  C7  UNL     1      14.499 -16.453 -29.214  1.00  0.00     0.098 A 
HETATM   16  C8  UNL     1      14.383 -16.048 -30.521  1.00  0.00     0.099 A 
HETATM   17  C9  UNL     1      13.642 -14.923 -30.793  1.00  0.00     0.053 A 
BRANCH  15  18
HETATM   18  O2  UNL     1      15.236 -17.577 -28.922  1.00  0.00    -0.358 OA
ATOM     19  H2  UNL     1      15.241 -18.299 -29.540  1.00  0.00     0.217 HD
ENDBRANCH  15  18
BRANCH  16  20
HETATM   20  O3  UNL     1      15.002 -16.760 -31.559  1.00  0.00    -0.358 OA
ATOM     21  H3  UNL     1      14.556 -16.913 -32.384  1.00  0.00     0.217 HD
ENDBRANCH  16  20
ENDBRANCH   4  12
BRANCH  10  22
HETATM   22  O6  UNL     1       9.708  -9.252 -32.276  1.00  0.00    -0.360 OA
ATOM     23  H6  UNL     1       9.206  -9.868 -32.797  1.00  0.00     0.217 HD
ENDBRANCH  10  22
BRANCH   8  24
HETATM   24  O5  UNL     1       9.692  -8.235 -27.605  1.00  0.00    -0.361 OA
ATOM     25  H5  UNL     1       9.071  -7.529 -27.733  1.00  0.00     0.217 HD
ENDBRANCH   8  24
TORSDOF 5
ENDMDL
