MODEL 5
REMARK VINA RESULT: -7.457045373      1.914      7.064
REMARK  5 active torsions:
REMARK  status: ('A' for Active; 'I' for Inactive)
REMARK    1  A    between atoms: C3_4  and  C4_5 
REMARK    2  A    between atoms: C7_8  and  O2_9 
REMARK    3  A    between atoms: C8_11  and  O3_12 
REMARK    4  A    between atoms: C12_18  and  O5_19 
REMARK    5  A    between atoms: C14_22  and  O6_23 
ROOT
HETATM    1  O1  UNL     1      12.931 -14.054 -28.693  1.00  0.00    -0.287 OA
HETATM    2  C1  UNL     1      12.345 -13.371 -29.573  1.00  0.00     0.190 A 
HETATM    3  C2  UNL     1      11.791 -12.140 -29.236  1.00  0.00     0.094 A 
HETATM    4  C3  UNL     1      11.155 -11.415 -30.218  1.00  0.00     0.090 A 
HETATM    5  O4  UNL     1      11.094 -11.908 -31.436  1.00  0.00    -0.309 OA
HETATM    6  C10 UNL     1      11.596 -13.057 -31.806  1.00  0.00     0.095 A 
HETATM    7  C11 UNL     1      11.462 -13.468 -33.140  1.00  0.00     0.075 A 
HETATM    8  C12 UNL     1      11.979 -14.666 -33.560  1.00  0.00     0.071 A 
HETATM    9  C13 UNL     1      12.619 -15.427 -32.625  1.00  0.00     0.074 A 
HETATM   10  C14 UNL     1      12.767 -15.034 -31.277  1.00  0.00     0.085 A 
HETATM   11  C15 UNL     1      12.246 -13.826 -30.861  1.00  0.00     0.081 A 
ENDROOT
BRANCH   4  12
HETATM   12  C4  UNL     1      10.551 -10.107 -29.919  1.00  0.00     0.001 A 
HETATM   13  C5  UNL     1      10.028  -9.278 -30.880  1.00  0.00     0.017 A 
HETATM   14  C6  UNL     1       9.472  -8.053 -30.514  1.00  0.00     0.040 A 
HETATM   15  C7  UNL     1       9.456  -7.688 -29.178  1.00  0.00     0.098 A 
HETATM   16  C8  UNL     1       9.975  -8.502 -28.201  1.00  0.00     0.099 A 
HETATM   17  C9  UNL     1      10.519  -9.707 -28.577  1.00  0.00     0.053 A 
BRANCH  15  18
HETATM   18  O2  UNL     1       8.908  -6.478 -28.821  1.00  0.00    -0.358 OA
ATOM     19  H2  UNL     1       9.387  -5.910 -28.228  1.00  0.00     0.217 HD
ENDBRANCH  15  18
BRANCH  16  20
HETATM   20  O3  UNL     1       9.953  -8.122 -26.852  1.00  0.00    -0.358 OA
ATOM     21  H3  UNL     1      10.515  -7.429 -26.527  1.00  0.00     0.217 HD
ENDBRANCH  16  20
ENDBRANCH   4  12
BRANCH  10  22
HETATM   22  O6  UNL     1      13.420 -15.866 -30.438  1.00  0.00    -0.360 OA
ATOM     23  H6  UNL     1      12.918 -16.313 -29.767  1.00  0.00     0.217 HD
ENDBRANCH  10  22
BRANCH   8  24
HETATM   24  O5  UNL     1      11.855 -15.096 -34.889  1.00  0.00    -0.361 OA
ATOM     25  H5  UNL     1      12.432 -15.756 -35.255  1.00  0.00     0.217 HD
ENDBRANCH   8  24
TORSDOF 5
ENDMDL
