MODEL 2
REMARK VINA RESULT: -8.179517321      0.761      1.568
REMARK  5 active torsions:
REMARK  status: ('A' for Active; 'I' for Inactive)
REMARK    1  A    between atoms: C3_4  and  C4_5 
REMARK    2  A    between atoms: C7_8  and  O2_9 
REMARK    3  A    between atoms: C8_11  and  O3_12 
REMARK    4  A    between atoms: C12_18  and  O5_19 
REMARK    5  A    between atoms: C14_22  and  O6_23 
ROOT
HETATM    1  O1  UNL     1      10.284 -10.199 -32.538  1.00  0.00    -0.287 OA
HETATM    2  C1  UNL     1      10.699 -10.638 -31.435  1.00  0.00     0.190 A 
HETATM    3  C2  UNL     1      11.370 -11.855 -31.384  1.00  0.00     0.094 A 
HETATM    4  C3  UNL     1      11.813 -12.311 -30.163  1.00  0.00     0.090 A 
HETATM    5  O4  UNL     1      11.588 -11.583 -29.091  1.00  0.00    -0.309 OA
HETATM    6  C10 UNL     1      10.964 -10.434 -29.081  1.00  0.00     0.095 A 
HETATM    7  C11 UNL     1      10.790  -9.756 -27.866  1.00  0.00     0.075 A 
HETATM    8  C12 UNL     1      10.141  -8.549 -27.824  1.00  0.00     0.071 A 
HETATM    9  C13 UNL     1       9.679  -8.051 -29.008  1.00  0.00     0.074 A 
HETATM   10  C14 UNL     1       9.843  -8.714 -30.243  1.00  0.00     0.085 A 
HETATM   11  C15 UNL     1      10.499  -9.929 -30.280  1.00  0.00     0.081 A 
ENDROOT
BRANCH   4  12
HETATM   12  C4  UNL     1      12.528 -13.592 -30.049  1.00  0.00     0.001 A 
HETATM   13  C5  UNL     1      12.919 -14.136 -28.851  1.00  0.00     0.017 A 
HETATM   14  C6  UNL     1      13.594 -15.357 -28.828  1.00  0.00     0.040 A 
HETATM   15  C7  UNL     1      13.861 -16.005 -30.023  1.00  0.00     0.098 A 
HETATM   16  C8  UNL     1      13.478 -15.478 -31.232  1.00  0.00     0.099 A 
HETATM   17  C9  UNL     1      12.813 -14.275 -31.238  1.00  0.00     0.053 A 
BRANCH  15  18
HETATM   18  O2  UNL     1      14.527 -17.208 -29.997  1.00  0.00    -0.358 OA
ATOM     19  H2  UNL     1      14.287 -17.883 -30.622  1.00  0.00     0.217 HD
ENDBRANCH  15  18
BRANCH  16  20
HETATM   20  O3  UNL     1      13.753 -16.144 -32.434  1.00  0.00    -0.358 OA
ATOM     21  H3  UNL     1      14.331 -16.898 -32.458  1.00  0.00     0.217 HD
ENDBRANCH  16  20
ENDBRANCH   4  12
BRANCH  10  22
HETATM   22  O6  UNL     1       9.347  -8.129 -31.353  1.00  0.00    -0.360 OA
ATOM     23  H6  UNL     1       9.958  -7.843 -32.023  1.00  0.00     0.217 HD
ENDBRANCH  10  22
BRANCH   8  24
HETATM   24  O5  UNL     1       9.956  -7.855 -26.620  1.00  0.00    -0.361 OA
ATOM     25  H5  UNL     1       9.354  -8.164 -25.954  1.00  0.00     0.217 HD
ENDBRANCH   8  24
TORSDOF 5
ENDMDL
