MODEL 3
REMARK VINA RESULT: -7.586760881      1.898      7.080
REMARK  5 active torsions:
REMARK  status: ('A' for Active; 'I' for Inactive)
REMARK    1  A    between atoms: C3_4  and  C4_5 
REMARK    2  A    between atoms: C7_8  and  O2_9 
REMARK    3  A    between atoms: C8_11  and  O3_12 
REMARK    4  A    between atoms: C12_18  and  O5_19 
REMARK    5  A    between atoms: C14_22  and  O6_23 
ROOT
HETATM    1  O1  UNL     1      13.139 -14.749 -29.250  1.00  0.00    -0.287 OA
HETATM    2  C1  UNL     1      12.536 -13.864 -29.910  1.00  0.00     0.190 A 
HETATM    3  C2  UNL     1      12.085 -12.714 -29.272  1.00  0.00     0.094 A 
HETATM    4  C3  UNL     1      11.427 -11.763 -30.019  1.00  0.00     0.090 A 
HETATM    5  O4  UNL     1      11.250 -11.973 -31.305  1.00  0.00    -0.309 OA
HETATM    6  C10 UNL     1      11.652 -13.034 -31.955  1.00  0.00     0.095 A 
HETATM    7  C11 UNL     1      11.399 -13.136 -33.330  1.00  0.00     0.075 A 
HETATM    8  C12 UNL     1      11.809 -14.235 -34.039  1.00  0.00     0.071 A 
HETATM    9  C13 UNL     1      12.465 -15.211 -33.346  1.00  0.00     0.074 A 
HETATM   10  C14 UNL     1      12.732 -15.130 -31.962  1.00  0.00     0.085 A 
HETATM   11  C15 UNL     1      12.318 -14.020 -31.253  1.00  0.00     0.081 A 
ENDROOT
BRANCH   4  12
HETATM   12  C4  UNL     1      10.928 -10.526 -29.396  1.00  0.00     0.001 A 
HETATM   13  C5  UNL     1      11.102 -10.224 -28.069  1.00  0.00     0.017 A 
HETATM   14  C6  UNL     1      10.598  -9.030 -27.555  1.00  0.00     0.040 A 
HETATM   15  C7  UNL     1       9.925  -8.161 -28.398  1.00  0.00     0.098 A 
HETATM   16  C8  UNL     1       9.740  -8.444 -29.729  1.00  0.00     0.099 A 
HETATM   17  C9  UNL     1      10.244  -9.625 -30.220  1.00  0.00     0.053 A 
BRANCH  15  18
HETATM   18  O2  UNL     1       9.429  -6.983 -27.888  1.00  0.00    -0.358 OA
ATOM     19  H2  UNL     1       8.490  -6.887 -27.776  1.00  0.00     0.217 HD
ENDBRANCH  15  18
BRANCH  16  20
HETATM   20  O3  UNL     1       9.058  -7.556 -30.573  1.00  0.00    -0.358 OA
ATOM     21  H3  UNL     1       8.745  -7.831 -31.427  1.00  0.00     0.217 HD
ENDBRANCH  16  20
ENDBRANCH   4  12
BRANCH  10  22
HETATM   22  O6  UNL     1      13.390 -16.155 -31.378  1.00  0.00    -0.360 OA
ATOM     23  H6  UNL     1      13.965 -15.961 -30.647  1.00  0.00     0.217 HD
ENDBRANCH  10  22
BRANCH   8  24
HETATM   24  O5  UNL     1      11.565 -14.356 -35.414  1.00  0.00    -0.361 OA
ATOM     25  H5  UNL     1      12.238 -14.170 -36.058  1.00  0.00     0.217 HD
ENDBRANCH   8  24
TORSDOF 5
ENDMDL
