MODEL 1
REMARK VINA RESULT: -8.182196083      0.000      0.000
REMARK  5 active torsions:
REMARK  status: ('A' for Active; 'I' for Inactive)
REMARK    1  A    between atoms: C3_4  and  C4_5 
REMARK    2  A    between atoms: C7_8  and  O2_9 
REMARK    3  A    between atoms: C8_11  and  O3_12 
REMARK    4  A    between atoms: C12_18  and  O5_19 
REMARK    5  A    between atoms: C14_22  and  O6_23 
ROOT
HETATM    1  O1  UNL     1      10.351 -10.272 -32.569  1.00  0.00    -0.287 OA
HETATM    2  C1  UNL     1      10.754 -10.699 -31.457  1.00  0.00     0.190 A 
HETATM    3  C2  UNL     1      11.429 -11.913 -31.386  1.00  0.00     0.094 A 
HETATM    4  C3  UNL     1      11.858 -12.356 -30.156  1.00  0.00     0.090 A 
HETATM    5  O4  UNL     1      11.616 -11.619 -29.093  1.00  0.00    -0.309 OA
HETATM    6  C10 UNL     1      10.986 -10.473 -29.102  1.00  0.00     0.095 A 
HETATM    7  C11 UNL     1      10.792  -9.785 -27.895  1.00  0.00     0.075 A 
HETATM    8  C12 UNL     1      10.137  -8.582 -27.872  1.00  0.00     0.071 A 
HETATM    9  C13 UNL     1       9.689  -8.096 -29.067  1.00  0.00     0.074 A 
HETATM   10  C14 UNL     1       9.873  -8.769 -30.293  1.00  0.00     0.085 A 
HETATM   11  C15 UNL     1      10.534  -9.981 -30.311  1.00  0.00     0.081 A 
ENDROOT
BRANCH   4  12
HETATM   12  C4  UNL     1      12.578 -13.632 -30.021  1.00  0.00     0.001 A 
HETATM   13  C5  UNL     1      12.945 -14.409 -31.091  1.00  0.00     0.017 A 
HETATM   14  C6  UNL     1      13.627 -15.608 -30.879  1.00  0.00     0.040 A 
HETATM   15  C7  UNL     1      13.924 -15.998 -29.584  1.00  0.00     0.098 A 
HETATM   16  C8  UNL     1      13.565 -15.235 -28.500  1.00  0.00     0.099 A 
HETATM   17  C9  UNL     1      12.894 -14.056 -28.725  1.00  0.00     0.053 A 
BRANCH  15  18
HETATM   18  O2  UNL     1      14.595 -17.181 -29.378  1.00  0.00    -0.358 OA
ATOM     19  H2  UNL     1      15.326 -17.198 -28.770  1.00  0.00     0.217 HD
ENDBRANCH  15  18
BRANCH  16  20
HETATM   20  O3  UNL     1      13.871 -15.640 -27.193  1.00  0.00    -0.358 OA
ATOM     21  H3  UNL     1      13.385 -15.306 -26.448  1.00  0.00     0.217 HD
ENDBRANCH  16  20
ENDBRANCH   4  12
BRANCH  10  22
HETATM   22  O6  UNL     1       9.388  -8.196 -31.415  1.00  0.00    -0.360 OA
ATOM     23  H6  UNL     1       8.822  -8.713 -31.976  1.00  0.00     0.217 HD
ENDBRANCH  10  22
BRANCH   8  24
HETATM   24  O5  UNL     1       9.933  -7.878 -26.677  1.00  0.00    -0.361 OA
ATOM     25  H5  UNL     1      10.454  -8.050 -25.902  1.00  0.00     0.217 HD
ENDBRANCH   8  24
TORSDOF 5
ENDMDL
