MODEL 1
REMARK VINA RESULT: -8.401788579      0.000      0.000
REMARK  4 active torsions:
REMARK  status: ('A' for Active; 'I' for Inactive)
REMARK    1  A    between atoms: C2_2  and  C4_4 
REMARK    2  A    between atoms: C6_9  and  C7_10 
REMARK    3  A    between atoms: C8_13  and  C9_14 
REMARK    4  A    between atoms: C9_14  and  C10_15 
ROOT
HETATM    1  C4  UNL     1      16.680  22.303  63.827  1.00  0.00     0.046 C 
HETATM    2  C5  UNL     1      16.625  21.679  62.471  1.00  0.00     0.242 C 
HETATM    3  N1  UNL     1      15.727  20.568  62.508  1.00  0.00    -0.060 N 
ATOM      4  H11 UNL     1      16.141  19.708  62.151  1.00  0.00     0.278 HD
ATOM      5  H12 UNL     1      14.971  20.643  61.828  1.00  0.00     0.278 HD
HETATM    6  C6  UNL     1      15.261  20.446  63.849  1.00  0.00     0.291 C 
HETATM    7  C8  UNL     1      16.356  21.080  64.686  1.00  0.00     0.046 C 
ENDROOT
BRANCH   7   8
HETATM    8  C9  UNL     1      17.509  20.134  64.749  1.00  0.00     0.121 C 
BRANCH   8   9
HETATM    9  C10 UNL     1      17.733  19.669  66.138  1.00  0.00     0.172 C 
HETATM   10  O3  UNL     1      16.787  19.102  66.735  1.00  0.00    -0.648 OA
HETATM   11  O4  UNL     1      18.939  19.836  66.791  1.00  0.00    -0.648 OA
ENDBRANCH   8   9
ENDBRANCH   7   8
BRANCH   1  12
HETATM   12  C2  UNL     1      17.934  22.963  64.179  1.00  0.00    -0.087 C 
HETATM   13  C1  UNL     1      18.075  23.652  65.280  1.00  0.00     0.014 C 
HETATM   14  C3  UNL     1      19.111  22.867  63.247  1.00  0.00     0.043 C 
ENDBRANCH   1  12
BRANCH   6  15
HETATM   15  C7  UNL     1      13.978  21.171  63.991  1.00  0.00     0.205 C 
HETATM   16  O1  UNL     1      13.502  21.447  65.127  1.00  0.00    -0.646 OA
HETATM   17  O2  UNL     1      13.291  21.551  62.870  1.00  0.00    -0.646 OA
ENDBRANCH   6  15
TORSDOF 4
ENDMDL
