MODEL 13
REMARK VINA RESULT: -10.123576319      1.686      2.117
REMARK  2 active torsions:
REMARK  status: ('A' for Active; 'I' for Inactive)
REMARK    1  A    between atoms: C2_2  and  C4_4 
REMARK    2  A    between atoms: C10_10  and  C12_12 
ROOT
HETATM    1  C4  UNL     1     -12.711   4.373 -19.323  1.00  0.00    -0.076 C 
HETATM    2  C5  UNL     1     -13.388   3.269 -19.577  1.00  0.00     0.010 C 
HETATM    3  C6  UNL     1     -12.630   2.025 -19.822  1.00  0.00    -0.057 C 
HETATM    4  C7  UNL     1     -13.014   1.222 -20.802  1.00  0.00    -0.019 C 
HETATM    5  C8  UNL     1     -12.293  -0.028 -21.095  1.00  0.00     0.034 C 
HETATM    6  C9  UNL     1     -11.670  -0.498 -19.827  1.00  0.00     0.016 C 
HETATM    7  C10 UNL     1     -11.126  -1.861 -20.003  1.00  0.00     0.049 C 
HETATM    8  C11 UNL     1     -10.861  -2.174 -21.497  1.00  0.00     0.027 C 
HETATM    9  C13 UNL     1      -9.976  -2.278 -19.173  1.00  0.00     0.020 C 
HETATM   10  C14 UNL     1      -9.455  -1.346 -18.166  1.00  0.00     0.002 C 
HETATM   11  C15 UNL     1     -10.299  -0.130 -17.915  1.00  0.00     0.010 C 
HETATM   12  C16 UNL     1     -10.739   0.523 -19.215  1.00  0.00    -0.031 C 
HETATM   13  C17 UNL     1      -9.477   0.754 -19.998  1.00  0.00     0.016 C 
HETATM   14  C18 UNL     1     -11.508   1.782 -18.908  1.00  0.00     0.027 C 
HETATM   15  C19 UNL     1     -10.717   3.010 -18.713  1.00  0.00     0.014 C 
HETATM   16  C20 UNL     1     -11.246   4.264 -19.358  1.00  0.00     0.035 C 
ENDROOT
BRANCH   7  17
HETATM   17  C12 UNL     1     -12.269  -2.797 -19.665  1.00  0.00     0.181 C 
HETATM   18  O1  UNL     1     -12.195  -4.004 -19.952  1.00  0.00    -0.647 OA
HETATM   19  O2  UNL     1     -13.424  -2.369 -19.037  1.00  0.00    -0.647 OA
ENDBRANCH   7  17
BRANCH   1  20
HETATM   20  C2  UNL     1     -13.362   5.675 -19.057  1.00  0.00     0.006 C 
HETATM   21  C1  UNL     1     -13.423   5.890 -17.559  1.00  0.00     0.014 C 
HETATM   22  C3  UNL     1     -14.786   5.576 -19.575  1.00  0.00     0.014 C 
ENDBRANCH   1  20
TORSDOF 2
ENDMDL
