MODEL 2
REMARK VINA RESULT: -10.695520076      3.351      6.639
REMARK  2 active torsions:
REMARK  status: ('A' for Active; 'I' for Inactive)
REMARK    1  A    between atoms: C2_2  and  C4_4 
REMARK    2  A    between atoms: C10_10  and  C12_12 
ROOT
HETATM    1  C4  UNL     1     -10.618  -0.461 -20.537  1.00  0.00    -0.076 C 
HETATM    2  C5  UNL     1     -11.642   0.215 -21.020  1.00  0.00     0.010 C 
HETATM    3  C6  UNL     1     -12.210   1.305 -20.199  1.00  0.00    -0.057 C 
HETATM    4  C7  UNL     1     -13.525   1.430 -20.120  1.00  0.00    -0.019 C 
HETATM    5  C8  UNL     1     -14.145   2.495 -19.313  1.00  0.00     0.034 C 
HETATM    6  C9  UNL     1     -13.194   3.638 -19.265  1.00  0.00     0.016 C 
HETATM    7  C10 UNL     1     -13.849   4.819 -18.664  1.00  0.00     0.049 C 
HETATM    8  C11 UNL     1     -15.062   4.409 -17.794  1.00  0.00     0.027 C 
HETATM    9  C13 UNL     1     -13.012   5.811 -17.956  1.00  0.00     0.020 C 
HETATM   10  C14 UNL     1     -11.557   5.616 -17.926  1.00  0.00     0.002 C 
HETATM   11  C15 UNL     1     -11.032   4.536 -18.826  1.00  0.00     0.010 C 
HETATM   12  C16 UNL     1     -11.845   3.258 -18.698  1.00  0.00    -0.031 C 
HETATM   13  C17 UNL     1     -11.861   2.935 -17.231  1.00  0.00     0.016 C 
HETATM   14  C18 UNL     1     -11.227   2.184 -19.555  1.00  0.00     0.027 C 
HETATM   15  C19 UNL     1     -10.139   1.396 -18.948  1.00  0.00     0.014 C 
HETATM   16  C20 UNL     1     -10.165  -0.091 -19.189  1.00  0.00     0.035 C 
ENDROOT
BRANCH   7  17
HETATM   17  C12 UNL     1     -14.502   5.548 -19.822  1.00  0.00     0.181 C 
HETATM   18  O1  UNL     1     -15.687   5.318 -20.117  1.00  0.00    -0.647 OA
HETATM   19  O2  UNL     1     -13.832   6.482 -20.590  1.00  0.00    -0.647 OA
ENDBRANCH   7  17
BRANCH   1  20
HETATM   20  C2  UNL     1      -9.965  -1.569 -21.271  1.00  0.00     0.006 C 
HETATM   21  C1  UNL     1     -11.001  -2.635 -21.562  1.00  0.00     0.014 C 
HETATM   22  C3  UNL     1      -8.924  -2.167 -20.342  1.00  0.00     0.014 C 
ENDBRANCH   1  20
TORSDOF 2
ENDMDL
