MODEL 7
REMARK VINA RESULT: -10.472023880      3.460      6.917
REMARK  2 active torsions:
REMARK  status: ('A' for Active; 'I' for Inactive)
REMARK    1  A    between atoms: C2_2  and  C4_4 
REMARK    2  A    between atoms: C10_10  and  C12_12 
ROOT
HETATM    1  C4  UNL     1     -10.928   1.107 -18.424  1.00  0.00    -0.076 C 
HETATM    2  C5  UNL     1     -11.874   1.338 -17.534  1.00  0.00     0.010 C 
HETATM    3  C6  UNL     1     -12.514   2.670 -17.524  1.00  0.00    -0.057 C 
HETATM    4  C7  UNL     1     -12.751   3.259 -16.362  1.00  0.00    -0.019 C 
HETATM    5  C8  UNL     1     -13.382   4.588 -16.293  1.00  0.00     0.034 C 
HETATM    6  C9  UNL     1     -14.241   4.744 -17.498  1.00  0.00     0.016 C 
HETATM    7  C10 UNL     1     -15.075   5.958 -17.374  1.00  0.00     0.049 C 
HETATM    8  C11 UNL     1     -14.460   6.964 -16.369  1.00  0.00     0.027 C 
HETATM    9  C13 UNL     1     -15.506   6.651 -18.606  1.00  0.00     0.020 C 
HETATM   10  C14 UNL     1     -15.140   6.077 -19.906  1.00  0.00     0.002 C 
HETATM   11  C15 UNL     1     -14.551   4.696 -19.859  1.00  0.00     0.010 C 
HETATM   12  C16 UNL     1     -13.474   4.585 -18.791  1.00  0.00    -0.031 C 
HETATM   13  C17 UNL     1     -12.507   5.699 -19.076  1.00  0.00     0.016 C 
HETATM   14  C18 UNL     1     -12.858   3.211 -18.843  1.00  0.00     0.027 C 
HETATM   15  C19 UNL     1     -11.749   3.018 -19.794  1.00  0.00     0.014 C 
HETATM   16  C20 UNL     1     -10.565   2.230 -19.300  1.00  0.00     0.035 C 
ENDROOT
BRANCH   7  17
HETATM   17  C12 UNL     1     -16.336   5.508 -16.663  1.00  0.00     0.181 C 
HETATM   18  O1  UNL     1     -17.236   4.928 -17.294  1.00  0.00    -0.647 OA
HETATM   19  O2  UNL     1     -16.546   5.713 -15.313  1.00  0.00    -0.647 OA
ENDBRANCH   7  17
BRANCH   1  20
HETATM   20  C2  UNL     1     -10.221  -0.189 -18.531  1.00  0.00     0.006 C 
HETATM   21  C1  UNL     1      -9.424  -0.202 -19.820  1.00  0.00     0.014 C 
HETATM   22  C3  UNL     1     -11.283  -1.271 -18.625  1.00  0.00     0.014 C 
ENDBRANCH   1  20
TORSDOF 2
ENDMDL
