MODEL 4
REMARK VINA RESULT: -10.609754222      0.935      1.212
REMARK  2 active torsions:
REMARK  status: ('A' for Active; 'I' for Inactive)
REMARK    1  A    between atoms: C2_2  and  C4_4 
REMARK    2  A    between atoms: C10_10  and  C12_12 
ROOT
HETATM    1  C4  UNL     1     -13.379   4.575 -17.044  1.00  0.00    -0.076 C 
HETATM    2  C5  UNL     1     -13.261   3.349 -16.573  1.00  0.00     0.010 C 
HETATM    3  C6  UNL     1     -12.833   2.282 -17.501  1.00  0.00    -0.057 C 
HETATM    4  C7  UNL     1     -13.439   1.106 -17.450  1.00  0.00    -0.019 C 
HETATM    5  C8  UNL     1     -13.056   0.008 -18.354  1.00  0.00     0.034 C 
HETATM    6  C9  UNL     1     -11.622   0.193 -18.708  1.00  0.00     0.016 C 
HETATM    7  C10 UNL     1     -11.119  -0.997 -19.427  1.00  0.00     0.049 C 
HETATM    8  C11 UNL     1     -12.277  -1.800 -20.069  1.00  0.00     0.027 C 
HETATM    9  C13 UNL     1     -10.008  -0.828 -20.387  1.00  0.00     0.020 C 
HETATM   10  C14 UNL     1      -9.408   0.502 -20.549  1.00  0.00     0.002 C 
HETATM   11  C15 UNL     1      -9.835   1.529 -19.540  1.00  0.00     0.010 C 
HETATM   12  C16 UNL     1     -11.343   1.533 -19.350  1.00  0.00    -0.031 C 
HETATM   13  C17 UNL     1     -11.923   1.690 -20.727  1.00  0.00     0.016 C 
HETATM   14  C18 UNL     1     -11.724   2.634 -18.395  1.00  0.00     0.027 C 
HETATM   15  C19 UNL     1     -11.927   3.974 -18.977  1.00  0.00     0.014 C 
HETATM   16  C20 UNL     1     -13.116   4.753 -18.479  1.00  0.00     0.035 C 
ENDROOT
BRANCH   7  17
HETATM   17  C12 UNL     1     -10.622  -1.938 -18.347  1.00  0.00     0.181 C 
HETATM   18  O1  UNL     1      -9.611  -1.649 -17.684  1.00  0.00    -0.647 OA
HETATM   19  O2  UNL     1     -11.248  -3.133 -18.052  1.00  0.00    -0.647 OA
ENDBRANCH   7  17
BRANCH   1  20
HETATM   20  C2  UNL     1     -13.796   5.724 -16.208  1.00  0.00     0.006 C 
HETATM   21  C1  UNL     1     -14.804   5.239 -15.186  1.00  0.00     0.014 C 
HETATM   22  C3  UNL     1     -14.494   6.713 -17.124  1.00  0.00     0.014 C 
ENDBRANCH   1  20
TORSDOF 2
ENDMDL
