MODEL 3
REMARK VINA RESULT: -10.693805344      1.300      1.695
REMARK  2 active torsions:
REMARK  status: ('A' for Active; 'I' for Inactive)
REMARK    1  A    between atoms: C2_2  and  C4_4 
REMARK    2  A    between atoms: C10_10  and  C12_12 
ROOT
HETATM    1  C4  UNL     1     -14.819   3.635 -18.249  1.00  0.00    -0.076 C 
HETATM    2  C5  UNL     1     -14.554   2.473 -17.683  1.00  0.00     0.010 C 
HETATM    3  C6  UNL     1     -13.642   1.545 -18.383  1.00  0.00    -0.057 C 
HETATM    4  C7  UNL     1     -13.944   0.257 -18.422  1.00  0.00    -0.019 C 
HETATM    5  C8  UNL     1     -13.074  -0.712 -19.110  1.00  0.00     0.034 C 
HETATM    6  C9  UNL     1     -11.684  -0.182 -19.067  1.00  0.00     0.016 C 
HETATM    7  C10 UNL     1     -10.732  -1.210 -19.538  1.00  0.00     0.049 C 
HETATM    8  C11 UNL     1     -11.438  -2.270 -20.419  1.00  0.00     0.027 C 
HETATM    9  C13 UNL     1      -9.467  -0.772 -20.164  1.00  0.00     0.020 C 
HETATM   10  C14 UNL     1      -9.176   0.664 -20.243  1.00  0.00     0.002 C 
HETATM   11  C15 UNL     1     -10.100   1.554 -19.461  1.00  0.00     0.010 C 
HETATM   12  C16 UNL     1     -11.557   1.188 -19.695  1.00  0.00    -0.031 C 
HETATM   13  C17 UNL     1     -11.742   1.202 -21.187  1.00  0.00     0.016 C 
HETATM   14  C18 UNL     1     -12.441   2.160 -18.959  1.00  0.00     0.027 C 
HETATM   15  C19 UNL     1     -12.780   3.411 -19.662  1.00  0.00     0.014 C 
HETATM   16  C20 UNL     1     -14.209   3.875 -19.564  1.00  0.00     0.035 C 
ENDROOT
BRANCH   7  17
HETATM   17  C12 UNL     1     -10.355  -2.004 -18.302  1.00  0.00     0.181 C 
HETATM   18  O1  UNL     1      -9.410  -1.633 -17.586  1.00  0.00    -0.647 OA
HETATM   19  O2  UNL     1     -11.024  -3.150 -17.918  1.00  0.00    -0.647 OA
ENDBRANCH   7  17
BRANCH   1  20
HETATM   20  C2  UNL     1     -15.713   4.645 -17.639  1.00  0.00     0.006 C 
HETATM   21  C1  UNL     1     -15.352   6.009 -18.191  1.00  0.00     0.014 C 
HETATM   22  C3  UNL     1     -15.427   4.651 -16.148  1.00  0.00     0.014 C 
ENDBRANCH   1  20
TORSDOF 2
ENDMDL
