MODEL 6
REMARK VINA RESULT: -10.481281719      3.241      6.664
REMARK  2 active torsions:
REMARK  status: ('A' for Active; 'I' for Inactive)
REMARK    1  A    between atoms: C2_2  and  C4_4 
REMARK    2  A    between atoms: C10_10  and  C12_12 
ROOT
HETATM    1  C4  UNL     1     -12.877  -0.570 -20.439  1.00  0.00    -0.076 C 
HETATM    2  C5  UNL     1     -13.889  -0.289 -19.640  1.00  0.00     0.010 C 
HETATM    3  C6  UNL     1     -13.859   0.988 -18.898  1.00  0.00    -0.057 C 
HETATM    4  C7  UNL     1     -14.231   1.001 -17.628  1.00  0.00    -0.019 C 
HETATM    5  C8  UNL     1     -14.216   2.244 -16.838  1.00  0.00     0.034 C 
HETATM    6  C9  UNL     1     -14.421   3.379 -17.778  1.00  0.00     0.016 C 
HETATM    7  C10 UNL     1     -14.643   4.631 -17.024  1.00  0.00     0.049 C 
HETATM    8  C11 UNL     1     -14.075   4.532 -15.587  1.00  0.00     0.027 C 
HETATM    9  C13 UNL     1     -14.256   5.914 -17.648  1.00  0.00     0.020 C 
HETATM   10  C14 UNL     1     -13.721   5.903 -19.015  1.00  0.00     0.002 C 
HETATM   11  C15 UNL     1     -13.834   4.594 -19.742  1.00  0.00     0.010 C 
HETATM   12  C16 UNL     1     -13.380   3.432 -18.874  1.00  0.00    -0.031 C 
HETATM   13  C17 UNL     1     -12.002   3.798 -18.398  1.00  0.00     0.016 C 
HETATM   14  C18 UNL     1     -13.433   2.157 -19.676  1.00  0.00     0.027 C 
HETATM   15  C19 UNL     1     -12.247   1.839 -20.492  1.00  0.00     0.014 C 
HETATM   16  C20 UNL     1     -11.781   0.407 -20.476  1.00  0.00     0.035 C 
ENDROOT
BRANCH   7  17
HETATM   17  C12 UNL     1     -16.139   4.696 -16.786  1.00  0.00     0.181 C 
HETATM   18  O1  UNL     1     -16.924   4.723 -17.748  1.00  0.00    -0.647 OA
HETATM   19  O2  UNL     1     -16.692   4.729 -15.520  1.00  0.00    -0.647 OA
ENDBRANCH   7  17
BRANCH   1  20
HETATM   20  C2  UNL     1     -12.801  -1.816 -21.235  1.00  0.00     0.006 C 
HETATM   21  C1  UNL     1     -13.263  -2.972 -20.372  1.00  0.00     0.014 C 
HETATM   22  C3  UNL     1     -11.339  -2.039 -21.576  1.00  0.00     0.014 C 
ENDBRANCH   1  20
TORSDOF 2
ENDMDL
