MODEL 1
REMARK VINA RESULT: -11.096243100      0.000      0.000
REMARK  2 active torsions:
REMARK  status: ('A' for Active; 'I' for Inactive)
REMARK    1  A    between atoms: C2_2  and  C4_4 
REMARK    2  A    between atoms: C10_10  and  C12_12 
ROOT
HETATM    1  C4  UNL     1     -13.332   3.769 -16.916  1.00  0.00    -0.076 C 
HETATM    2  C5  UNL     1     -13.550   2.479 -16.746  1.00  0.00     0.010 C 
HETATM    3  C6  UNL     1     -13.104   1.549 -17.804  1.00  0.00    -0.057 C 
HETATM    4  C7  UNL     1     -13.901   0.555 -18.163  1.00  0.00    -0.019 C 
HETATM    5  C8  UNL     1     -13.510  -0.398 -19.215  1.00  0.00     0.034 C 
HETATM    6  C9  UNL     1     -12.023  -0.477 -19.223  1.00  0.00     0.016 C 
HETATM    7  C10 UNL     1     -11.578  -1.582 -20.098  1.00  0.00     0.049 C 
HETATM    8  C11 UNL     1     -12.667  -1.957 -21.133  1.00  0.00     0.027 C 
HETATM    9  C13 UNL     1     -10.254  -1.482 -20.750  1.00  0.00     0.020 C 
HETATM   10  C14 UNL     1      -9.409  -0.317 -20.459  1.00  0.00     0.002 C 
HETATM   11  C15 UNL     1      -9.880   0.558 -19.333  1.00  0.00     0.010 C 
HETATM   12  C16 UNL     1     -11.365   0.865 -19.449  1.00  0.00    -0.031 C 
HETATM   13  C17 UNL     1     -11.555   1.421 -20.832  1.00  0.00     0.016 C 
HETATM   14  C18 UNL     1     -11.767   1.812 -18.348  1.00  0.00     0.027 C 
HETATM   15  C19 UNL     1     -11.583   3.250 -18.611  1.00  0.00     0.014 C 
HETATM   16  C20 UNL     1     -12.700   4.164 -18.182  1.00  0.00     0.035 C 
ENDROOT
BRANCH   7  17
HETATM   17  C12 UNL     1     -11.532  -2.807 -19.205  1.00  0.00     0.181 C 
HETATM   18  O1  UNL     1     -12.013  -3.883 -19.596  1.00  0.00    -0.647 OA
HETATM   19  O2  UNL     1     -10.968  -2.790 -17.944  1.00  0.00    -0.647 OA
ENDBRANCH   7  17
BRANCH   1  20
HETATM   20  C2  UNL     1     -13.730   4.792 -15.922  1.00  0.00     0.006 C 
HETATM   21  C1  UNL     1     -15.129   4.474 -15.433  1.00  0.00     0.014 C 
HETATM   22  C3  UNL     1     -13.779   6.124 -16.649  1.00  0.00     0.014 C 
ENDBRANCH   1  20
TORSDOF 2
ENDMDL
