MODEL 4
REMARK VINA RESULT: -7.948827733      3.760      6.131
REMARK  7 active torsions:
REMARK  status: ('A' for Active; 'I' for Inactive)
REMARK    1  A    between atoms: N1_2  and  C2_4 
REMARK    2  A    between atoms: C6_10  and  C7_11 
REMARK    3  A    between atoms: C10_14  and  N3_15 
REMARK    4  A    between atoms: N5_29  and  C19_30 
REMARK    5  A    between atoms: C19_30  and  C20_31 
REMARK    6  A    between atoms: C20_31  and  C21_32 
REMARK    7  A    between atoms: C21_32  and  N6_33 
ROOT
HETATM    1  C2  UNL     1      12.955  -9.657  14.878  1.00  0.00     0.679 A 
HETATM    2  N2  UNL     1      13.784  -9.334  13.871  1.00  0.00    -0.201 N 
ATOM      3  H2  UNL     1      13.880  -8.353  13.608  1.00  0.00     0.183 HD
HETATM    4  C3  UNL     1      14.490 -10.257  13.200  1.00  0.00     0.121 A 
HETATM    5  C4  UNL     1      14.373 -11.587  13.542  1.00  0.00     0.026 A 
HETATM    6  C5  UNL     1      15.068 -12.587  12.895  1.00  0.00     0.034 A 
HETATM    7  C6  UNL     1      14.938 -13.920  13.254  1.00  0.00     0.045 A 
HETATM    8  C18 UNL     1      14.074 -14.192  14.294  1.00  0.00     0.260 A 
HETATM    9  O2  UNL     1      13.917 -15.386  14.660  1.00  0.00    -0.267 OA
HETATM   10  N5  UNL     1      13.389 -13.227  14.934  1.00  0.00    -0.298 N 
HETATM   11  C22 UNL     1      13.524 -11.914  14.573  1.00  0.00     0.137 A 
HETATM   12  N7  UNL     1      12.840 -10.950  15.214  1.00  0.00    -0.176 N 
ATOM     13  H7  UNL     1      12.216 -11.209  15.979  1.00  0.00     0.186 HD
ENDROOT
BRANCH   7  14
HETATM   14  C7  UNL     1      15.694 -14.943  12.540  1.00  0.00     0.002 A 
HETATM   15  C8  UNL     1      16.906 -15.420  12.985  1.00  0.00     0.016 A 
HETATM   16  C9  UNL     1      17.644 -16.385  12.334  1.00  0.00     0.031 A 
HETATM   17  C10 UNL     1      17.161 -16.919  11.167  1.00  0.00     0.043 A 
HETATM   18  C16 UNL     1      15.943 -16.472  10.677  1.00  0.00     0.054 A 
HETATM   19  C17 UNL     1      15.218 -15.499  11.351  1.00  0.00     0.047 A 
HETATM   20 CL1  UNL     1      13.676 -14.930  10.732  1.00  0.00    -0.083 Cl
BRANCH  17  21
HETATM   21  N3  UNL     1      17.861 -17.918  10.438  1.00  0.00    -0.287 N 
HETATM   22  C11 UNL     1      17.416 -19.198  10.540  1.00  0.00     0.117 A 
HETATM   23  C12 UNL     1      18.085 -20.172   9.839  1.00  0.00     0.106 A 
HETATM   24  N4  UNL     1      19.148 -19.862   9.076  1.00  0.00    -0.364 N 
HETATM   25  C13 UNL     1      19.577 -18.588   8.984  1.00  0.00     0.074 A 
ATOM     26  H4  UNL     1      19.633 -20.597   8.563  1.00  0.00     0.165 HD
HETATM   27  C14 UNL     1      20.757 -18.330   8.121  1.00  0.00     0.074 C 
HETATM   28  C15 UNL     1      18.921 -17.583   9.681  1.00  0.00     0.274 A 
HETATM   29  O1  UNL     1      19.337 -16.386   9.586  1.00  0.00    -0.265 OA
ENDBRANCH  17  21
ENDBRANCH   7  14
BRANCH  10  30
HETATM   30  C19 UNL     1      12.490 -13.495  16.028  1.00  0.00     0.135 C 
BRANCH  30  31
HETATM   31  C20 UNL     1      11.129 -13.906  15.531  1.00  0.00     0.047 C 
BRANCH  31  32
HETATM   32  C21 UNL     1      10.002 -13.487  16.416  1.00  0.00     0.231 C 
BRANCH  32  33
HETATM   33  N6  UNL     1      10.305 -12.242  17.117  1.00  0.00    -0.079 N 
ATOM     34  H63 UNL     1      11.192 -11.845  16.805  1.00  0.00     0.274 HD
ATOM     35  H62 UNL     1       9.683 -11.487  16.825  1.00  0.00     0.274 HD
ATOM     36  H61 UNL     1      10.289 -12.367  18.129  1.00  0.00     0.274 HD
ENDBRANCH  32  33
ENDBRANCH  31  32
ENDBRANCH  30  31
ENDBRANCH  10  30
BRANCH   1  37
HETATM   37  N1  UNL     1      12.221  -8.631  15.566  1.00  0.00    -0.230 N 
HETATM   38  C1  UNL     1      10.778  -8.609  15.582  1.00  0.00     0.165 C 
ATOM     39  H1  UNL     1      12.734  -7.899  16.057  1.00  0.00     0.177 HD
ENDBRANCH   1  37
TORSDOF 7
ENDMDL
