MODEL 6
REMARK VINA RESULT: -7.642202506      3.082      5.030
REMARK  7 active torsions:
REMARK  status: ('A' for Active; 'I' for Inactive)
REMARK    1  A    between atoms: N1_2  and  C2_4 
REMARK    2  A    between atoms: C6_10  and  C7_11 
REMARK    3  A    between atoms: C10_14  and  N3_15 
REMARK    4  A    between atoms: N5_29  and  C19_30 
REMARK    5  A    between atoms: C19_30  and  C20_31 
REMARK    6  A    between atoms: C20_31  and  C21_32 
REMARK    7  A    between atoms: C21_32  and  N6_33 
ROOT
HETATM    1  C2  UNL     1      10.534 -14.221  17.029  1.00  0.00     0.679 A 
HETATM    2  N2  UNL     1      10.409 -15.543  16.822  1.00  0.00    -0.201 N 
ATOM      3  H2  UNL     1       9.652 -16.044  17.287  1.00  0.00     0.183 HD
HETATM    4  C3  UNL     1      11.244 -16.226  16.024  1.00  0.00     0.121 A 
HETATM    5  C4  UNL     1      12.272 -15.565  15.387  1.00  0.00     0.026 A 
HETATM    6  C5  UNL     1      13.165 -16.204  14.553  1.00  0.00     0.034 A 
HETATM    7  C6  UNL     1      14.193 -15.520  13.920  1.00  0.00     0.045 A 
HETATM    8  C18 UNL     1      14.273 -14.167  14.169  1.00  0.00     0.260 A 
HETATM    9  O2  UNL     1      15.188 -13.499  13.620  1.00  0.00    -0.267 OA
HETATM   10  N5  UNL     1      13.407 -13.530  14.980  1.00  0.00    -0.298 N 
HETATM   11  C22 UNL     1      12.397 -14.212  15.600  1.00  0.00     0.137 A 
HETATM   12  N7  UNL     1      11.532 -13.575  16.409  1.00  0.00    -0.176 N 
ATOM     13  H7  UNL     1      11.638 -12.571  16.556  1.00  0.00     0.186 HD
ENDROOT
BRANCH   7  14
HETATM   14  C7  UNL     1      15.114 -16.240  13.047  1.00  0.00     0.002 A 
HETATM   15  C8  UNL     1      16.141 -17.021  13.528  1.00  0.00     0.016 A 
HETATM   16  C9  UNL     1      17.027 -17.711  12.730  1.00  0.00     0.031 A 
HETATM   17  C10 UNL     1      16.899 -17.632  11.368  1.00  0.00     0.043 A 
HETATM   18  C16 UNL     1      15.879 -16.858  10.833  1.00  0.00     0.054 A 
HETATM   19  C17 UNL     1      14.999 -16.171  11.657  1.00  0.00     0.047 A 
HETATM   20 CL1  UNL     1      13.708 -15.190  10.982  1.00  0.00    -0.083 Cl
BRANCH  17  21
HETATM   21  N3  UNL     1      17.771 -18.315  10.478  1.00  0.00    -0.287 N 
HETATM   22  C11 UNL     1      17.563 -19.646  10.294  1.00  0.00     0.117 A 
HETATM   23  C12 UNL     1      18.400 -20.317   9.436  1.00  0.00     0.106 A 
HETATM   24  N4  UNL     1      19.394 -19.671   8.800  1.00  0.00    -0.364 N 
HETATM   25  C13 UNL     1      19.588 -18.352   8.992  1.00  0.00     0.074 A 
ATOM     26  H4  UNL     1      20.007 -20.184   8.167  1.00  0.00     0.165 HD
HETATM   27  C14 UNL     1      20.706 -17.714   8.254  1.00  0.00     0.074 C 
HETATM   28  C15 UNL     1      18.757 -17.647   9.854  1.00  0.00     0.274 A 
HETATM   29  O1  UNL     1      18.951 -16.404  10.027  1.00  0.00    -0.265 OA
ENDBRANCH  17  21
ENDBRANCH   7  14
BRANCH  10  30
HETATM   30  C19 UNL     1      13.473 -12.115  15.242  1.00  0.00     0.135 C 
BRANCH  30  31
HETATM   31  C20 UNL     1      12.784 -11.324  14.161  1.00  0.00     0.047 C 
BRANCH  31  32
HETATM   32  C21 UNL     1      13.536 -10.113  13.716  1.00  0.00     0.231 C 
BRANCH  32  33
HETATM   33  N6  UNL     1      14.888 -10.451  13.280  1.00  0.00    -0.079 N 
ATOM     34  H63 UNL     1      15.136 -11.405  13.542  1.00  0.00     0.274 HD
ATOM     35  H62 UNL     1      14.940 -10.547  12.265  1.00  0.00     0.274 HD
ATOM     36  H61 UNL     1      15.573  -9.779  13.626  1.00  0.00     0.274 HD
ENDBRANCH  32  33
ENDBRANCH  31  32
ENDBRANCH  30  31
ENDBRANCH  10  30
BRANCH   1  37
HETATM   37  N1  UNL     1       9.613 -13.535  17.893  1.00  0.00    -0.230 N 
HETATM   38  C1  UNL     1       8.348 -14.119  18.271  1.00  0.00     0.165 C 
ATOM     39  H1  UNL     1       9.860 -12.612  18.249  1.00  0.00     0.177 HD
ENDBRANCH   1  37
TORSDOF 7
ENDMDL
