MODEL 5
REMARK VINA RESULT: -7.766855135      0.961      1.274
REMARK  7 active torsions:
REMARK  status: ('A' for Active; 'I' for Inactive)
REMARK    1  A    between atoms: N1_2  and  C2_4 
REMARK    2  A    between atoms: C6_10  and  C7_11 
REMARK    3  A    between atoms: C10_14  and  N3_15 
REMARK    4  A    between atoms: N5_29  and  C19_30 
REMARK    5  A    between atoms: C19_30  and  C20_31 
REMARK    6  A    between atoms: C20_31  and  C21_32 
REMARK    7  A    between atoms: C21_32  and  N6_33 
ROOT
HETATM    1  C2  UNL     1      14.576 -18.075  15.441  1.00  0.00     0.679 A 
HETATM    2  N2  UNL     1      15.627 -18.871  15.700  1.00  0.00    -0.201 N 
ATOM      3  H2  UNL     1      15.655 -19.378  16.586  1.00  0.00     0.183 HD
HETATM    4  C3  UNL     1      16.642 -19.023  14.835  1.00  0.00     0.121 A 
HETATM    5  C4  UNL     1      16.621 -18.347  13.634  1.00  0.00     0.026 A 
HETATM    6  C5  UNL     1      17.630 -18.457  12.700  1.00  0.00     0.034 A 
HETATM    7  C6  UNL     1      17.590 -17.769  11.497  1.00  0.00     0.045 A 
HETATM    8  C18 UNL     1      16.489 -16.968  11.284  1.00  0.00     0.260 A 
HETATM    9  O2  UNL     1      16.403 -16.320  10.209  1.00  0.00    -0.267 OA
HETATM   10  N5  UNL     1      15.497 -16.852  12.187  1.00  0.00    -0.298 N 
HETATM   11  C22 UNL     1      15.544 -17.534  13.372  1.00  0.00     0.137 A 
HETATM   12  N7  UNL     1      14.552 -17.418  14.273  1.00  0.00    -0.176 N 
ATOM     13  H7  UNL     1      13.759 -16.812  14.062  1.00  0.00     0.186 HD
ENDROOT
BRANCH   7  14
HETATM   14  C7  UNL     1      18.681 -17.916  10.539  1.00  0.00     0.002 A 
HETATM   15  C8  UNL     1      18.659 -18.843   9.520  1.00  0.00     0.016 A 
HETATM   16  C9  UNL     1      19.672 -19.006   8.601  1.00  0.00     0.031 A 
HETATM   17  C10 UNL     1      20.783 -18.208   8.684  1.00  0.00     0.043 A 
HETATM   18  C16 UNL     1      20.854 -17.258   9.693  1.00  0.00     0.054 A 
HETATM   19  C17 UNL     1      19.820 -17.112  10.607  1.00  0.00     0.047 A 
HETATM   20 CL1  UNL     1      19.907 -15.911  11.886  1.00  0.00    -0.083 Cl
BRANCH  17  21
HETATM   21  N3  UNL     1      21.869 -18.314   7.774  1.00  0.00    -0.287 N 
HETATM   22  C11 UNL     1      23.039 -18.817   8.248  1.00  0.00     0.117 A 
HETATM   23  C12 UNL     1      24.096 -18.925   7.377  1.00  0.00     0.106 A 
HETATM   24  N4  UNL     1      23.970 -18.542   6.094  1.00  0.00    -0.364 N 
HETATM   25  C13 UNL     1      22.804 -18.046   5.638  1.00  0.00     0.074 A 
ATOM     26  H4  UNL     1      24.764 -18.628   5.461  1.00  0.00     0.165 HD
HETATM   27  C14 UNL     1      22.747 -17.647   4.209  1.00  0.00     0.074 C 
HETATM   28  C15 UNL     1      21.718 -17.926   6.495  1.00  0.00     0.274 A 
HETATM   29  O1  UNL     1      20.625 -17.456   6.052  1.00  0.00    -0.265 OA
ENDBRANCH  17  21
ENDBRANCH   7  14
BRANCH  10  30
HETATM   30  C19 UNL     1      14.335 -16.026  11.976  1.00  0.00     0.135 C 
BRANCH  30  31
HETATM   31  C20 UNL     1      14.557 -14.626  12.486  1.00  0.00     0.047 C 
BRANCH  31  32
HETATM   32  C21 UNL     1      14.753 -13.608  11.411  1.00  0.00     0.231 C 
BRANCH  32  33
HETATM   33  N6  UNL     1      16.169 -13.396  11.124  1.00  0.00    -0.079 N 
ATOM     34  H63 UNL     1      16.652 -12.979  11.919  1.00  0.00     0.274 HD
ATOM     35  H62 UNL     1      16.677 -14.281  11.076  1.00  0.00     0.274 HD
ATOM     36  H61 UNL     1      16.302 -12.845  10.276  1.00  0.00     0.274 HD
ENDBRANCH  32  33
ENDBRANCH  31  32
ENDBRANCH  30  31
ENDBRANCH  10  30
BRANCH   1  37
HETATM   37  N1  UNL     1      13.514 -17.948  16.401  1.00  0.00    -0.230 N 
HETATM   38  C1  UNL     1      12.346 -17.141  16.138  1.00  0.00     0.165 C 
ATOM     39  H1  UNL     1      13.588 -18.440  17.291  1.00  0.00     0.177 HD
ENDBRANCH   1  37
TORSDOF 7
ENDMDL
