MODEL 1
REMARK VINA RESULT: -9.180848756      0.000      0.000
REMARK  7 active torsions:
REMARK  status: ('A' for Active; 'I' for Inactive)
REMARK    1  A    between atoms: N1_2  and  C2_4 
REMARK    2  A    between atoms: C6_10  and  C7_11 
REMARK    3  A    between atoms: C10_14  and  N3_15 
REMARK    4  A    between atoms: N5_29  and  C19_30 
REMARK    5  A    between atoms: C19_30  and  C20_31 
REMARK    6  A    between atoms: C20_31  and  C21_32 
REMARK    7  A    between atoms: C21_32  and  N6_33 
ROOT
HETATM    1  C2  UNL     1      14.448 -17.948  15.386  1.00  0.00     0.679 A 
HETATM    2  N2  UNL     1      15.465 -18.786  15.650  1.00  0.00    -0.201 N 
ATOM      3  H2  UNL     1      15.447 -19.325  16.516  1.00  0.00     0.183 HD
HETATM    4  C3  UNL     1      16.503 -18.940  14.813  1.00  0.00     0.121 A 
HETATM    5  C4  UNL     1      16.543 -18.221  13.638  1.00  0.00     0.026 A 
HETATM    6  C5  UNL     1      17.578 -18.330  12.733  1.00  0.00     0.034 A 
HETATM    7  C6  UNL     1      17.600 -17.598  11.555  1.00  0.00     0.045 A 
HETATM    8  C18 UNL     1      16.532 -16.756  11.337  1.00  0.00     0.260 A 
HETATM    9  O2  UNL     1      16.502 -16.067  10.284  1.00  0.00    -0.267 OA
HETATM   10  N5  UNL     1      15.515 -16.640  12.211  1.00  0.00    -0.298 N 
HETATM   11  C22 UNL     1      15.501 -17.365  13.371  1.00  0.00     0.137 A 
HETATM   12  N7  UNL     1      14.484 -17.249  14.243  1.00  0.00    -0.176 N 
ATOM     13  H7  UNL     1      13.717 -16.611  14.029  1.00  0.00     0.186 HD
ENDROOT
BRANCH   7  14
HETATM   14  C7  UNL     1      18.717 -17.747  10.627  1.00  0.00     0.002 A 
HETATM   15  C8  UNL     1      19.845 -16.960  10.687  1.00  0.00     0.016 A 
HETATM   16  C9  UNL     1      20.916 -17.075   9.827  1.00  0.00     0.031 A 
HETATM   17  C10 UNL     1      20.879 -18.027   8.841  1.00  0.00     0.043 A 
HETATM   18  C16 UNL     1      19.763 -18.846   8.739  1.00  0.00     0.054 A 
HETATM   19  C17 UNL     1      18.698 -18.710   9.617  1.00  0.00     0.047 A 
HETATM   20 CL1  UNL     1      17.284 -19.745   9.489  1.00  0.00    -0.083 Cl
BRANCH  17  21
HETATM   21  N3  UNL     1      21.942 -18.209   7.916  1.00  0.00    -0.287 N 
HETATM   22  C11 UNL     1      23.105 -18.728   8.392  1.00  0.00     0.117 A 
HETATM   23  C12 UNL     1      24.140 -18.909   7.507  1.00  0.00     0.106 A 
HETATM   24  N4  UNL     1      24.001 -18.581   6.210  1.00  0.00    -0.364 N 
HETATM   25  C13 UNL     1      22.842 -18.068   5.753  1.00  0.00     0.074 A 
ATOM     26  H4  UNL     1      24.780 -18.721   5.567  1.00  0.00     0.165 HD
HETATM   27  C14 UNL     1      22.770 -17.732   4.309  1.00  0.00     0.074 C 
HETATM   28  C15 UNL     1      21.778 -17.874   6.624  1.00  0.00     0.274 A 
HETATM   29  O1  UNL     1      20.692 -17.389   6.180  1.00  0.00    -0.265 OA
ENDBRANCH  17  21
ENDBRANCH   7  14
BRANCH  10  30
HETATM   30  C19 UNL     1      14.386 -15.769  11.993  1.00  0.00     0.135 C 
BRANCH  30  31
HETATM   31  C20 UNL     1      14.663 -14.376  12.496  1.00  0.00     0.047 C 
BRANCH  31  32
HETATM   32  C21 UNL     1      14.727 -13.341  11.422  1.00  0.00     0.231 C 
BRANCH  32  33
HETATM   33  N6  UNL     1      16.094 -13.143  10.948  1.00  0.00    -0.079 N 
ATOM     34  H63 UNL     1      16.777 -13.403  11.661  1.00  0.00     0.274 HD
ATOM     35  H62 UNL     1      16.344 -13.826  10.233  1.00  0.00     0.274 HD
ATOM     36  H61 UNL     1      16.243 -12.188  10.620  1.00  0.00     0.274 HD
ENDBRANCH  32  33
ENDBRANCH  31  32
ENDBRANCH  30  31
ENDBRANCH  10  30
BRANCH   1  37
HETATM   37  N1  UNL     1      13.360 -17.821  16.315  1.00  0.00    -0.230 N 
HETATM   38  C1  UNL     1      12.871 -16.531  16.740  1.00  0.00     0.165 C 
ATOM     39  H1  UNL     1      12.920 -18.664  16.684  1.00  0.00     0.177 HD
ENDBRANCH   1  37
TORSDOF 7
ENDMDL
