MODEL 8
REMARK VINA RESULT: -7.417801372      3.334      5.602
REMARK  7 active torsions:
REMARK  status: ('A' for Active; 'I' for Inactive)
REMARK    1  A    between atoms: N1_2  and  C2_4 
REMARK    2  A    between atoms: C6_10  and  C7_11 
REMARK    3  A    between atoms: C10_14  and  N3_15 
REMARK    4  A    between atoms: N5_29  and  C19_30 
REMARK    5  A    between atoms: C19_30  and  C20_31 
REMARK    6  A    between atoms: C20_31  and  C21_32 
REMARK    7  A    between atoms: C21_32  and  N6_33 
ROOT
HETATM    1  C2  UNL     1       9.564 -15.209  17.409  1.00  0.00     0.679 A 
HETATM    2  N2  UNL     1       9.532 -16.508  17.066  1.00  0.00    -0.201 N 
ATOM      3  H2  UNL     1       8.793 -17.100  17.446  1.00  0.00     0.183 HD
HETATM    4  C3  UNL     1      10.440 -17.054  16.242  1.00  0.00     0.121 A 
HETATM    5  C4  UNL     1      11.445 -16.270  15.719  1.00  0.00     0.026 A 
HETATM    6  C5  UNL     1      12.409 -16.765  14.866  1.00  0.00     0.034 A 
HETATM    7  C6  UNL     1      13.413 -15.958  14.349  1.00  0.00     0.045 A 
HETATM    8  C18 UNL     1      13.395 -14.635  14.735  1.00  0.00     0.260 A 
HETATM    9  O2  UNL     1      14.284 -13.860  14.296  1.00  0.00    -0.267 OA
HETATM   10  N5  UNL     1      12.460 -14.139  15.566  1.00  0.00    -0.298 N 
HETATM   11  C22 UNL     1      11.474 -14.941  16.071  1.00  0.00     0.137 A 
HETATM   12  N7  UNL     1      10.539 -14.444  16.901  1.00  0.00    -0.176 N 
ATOM     13  H7  UNL     1      10.574 -13.455  17.151  1.00  0.00     0.186 HD
ENDROOT
BRANCH   7  14
HETATM   14  C7  UNL     1      14.411 -16.527  13.451  1.00  0.00     0.002 A 
HETATM   15  C8  UNL     1      15.459 -17.303  13.895  1.00  0.00     0.016 A 
HETATM   16  C9  UNL     1      16.417 -17.853  13.072  1.00  0.00     0.031 A 
HETATM   17  C10 UNL     1      16.345 -17.629  11.721  1.00  0.00     0.043 A 
HETATM   18  C16 UNL     1      15.307 -16.854  11.223  1.00  0.00     0.054 A 
HETATM   19  C17 UNL     1      14.354 -16.310  12.073  1.00  0.00     0.047 A 
HETATM   20 CL1  UNL     1      13.040 -15.327  11.445  1.00  0.00    -0.083 Cl
BRANCH  17  21
HETATM   21  N3  UNL     1      17.293 -18.163  10.808  1.00  0.00    -0.287 N 
HETATM   22  C11 UNL     1      17.004 -19.359  10.229  1.00  0.00     0.117 A 
HETATM   23  C12 UNL     1      17.913 -19.884   9.344  1.00  0.00     0.106 A 
HETATM   24  N4  UNL     1      19.054 -19.230   9.061  1.00  0.00    -0.364 N 
HETATM   25  C13 UNL     1      19.327 -18.046   9.642  1.00  0.00     0.074 A 
ATOM     26  H4  UNL     1      19.718 -19.635   8.402  1.00  0.00     0.165 HD
HETATM   27  C14 UNL     1      20.607 -17.388   9.276  1.00  0.00     0.074 C 
HETATM   28  C15 UNL     1      18.427 -17.490  10.541  1.00  0.00     0.274 A 
HETATM   29  O1  UNL     1      18.696 -16.372  11.081  1.00  0.00    -0.265 OA
ENDBRANCH  17  21
ENDBRANCH   7  14
BRANCH  10  30
HETATM   30  C19 UNL     1      12.423 -12.756  15.971  1.00  0.00     0.135 C 
BRANCH  30  31
HETATM   31  C20 UNL     1      11.702 -11.907  14.957  1.00  0.00     0.047 C 
BRANCH  31  32
HETATM   32  C21 UNL     1      12.493 -10.739  14.465  1.00  0.00     0.231 C 
BRANCH  32  33
HETATM   33  N6  UNL     1      13.907 -10.867  14.807  1.00  0.00    -0.079 N 
ATOM     34  H63 UNL     1      14.401  -9.982  14.686  1.00  0.00     0.274 HD
ATOM     35  H62 UNL     1      14.039 -10.986  15.812  1.00  0.00     0.274 HD
ATOM     36  H61 UNL     1      14.354 -11.618  14.281  1.00  0.00     0.274 HD
ENDBRANCH  32  33
ENDBRANCH  31  32
ENDBRANCH  30  31
ENDBRANCH  10  30
BRANCH   1  37
HETATM   37  N1  UNL     1       8.568 -14.673  18.296  1.00  0.00    -0.230 N 
HETATM   38  C1  UNL     1       7.321 -14.140  17.803  1.00  0.00     0.165 C 
ATOM     39  H1  UNL     1       8.747 -14.670  19.300  1.00  0.00     0.177 HD
ENDBRANCH   1  37
TORSDOF 7
ENDMDL
