MODEL 3
REMARK VINA RESULT: -8.336132512      1.274      1.726
REMARK  7 active torsions:
REMARK  status: ('A' for Active; 'I' for Inactive)
REMARK    1  A    between atoms: N1_2  and  C2_4 
REMARK    2  A    between atoms: C6_10  and  C7_11 
REMARK    3  A    between atoms: C10_14  and  N3_15 
REMARK    4  A    between atoms: N5_29  and  C19_30 
REMARK    5  A    between atoms: C19_30  and  C20_31 
REMARK    6  A    between atoms: C20_31  and  C21_32 
REMARK    7  A    between atoms: C21_32  and  N6_33 
ROOT
HETATM    1  C2  UNL     1      13.945 -17.825  15.757  1.00  0.00     0.679 A 
HETATM    2  N2  UNL     1      14.892 -18.768  15.892  1.00  0.00    -0.201 N 
ATOM      3  H2  UNL     1      14.859 -19.386  16.703  1.00  0.00     0.183 HD
HETATM    4  C3  UNL     1      15.881 -18.924  14.997  1.00  0.00     0.121 A 
HETATM    5  C4  UNL     1      15.941 -18.098  13.896  1.00  0.00     0.026 A 
HETATM    6  C5  UNL     1      16.928 -18.204  12.939  1.00  0.00     0.034 A 
HETATM    7  C6  UNL     1      16.970 -17.363  11.836  1.00  0.00     0.045 A 
HETATM    8  C18 UNL     1      15.973 -16.416  11.749  1.00  0.00     0.260 A 
HETATM    9  O2  UNL     1      15.965 -15.626  10.769  1.00  0.00    -0.267 OA
HETATM   10  N5  UNL     1      15.004 -16.302  12.676  1.00  0.00    -0.298 N 
HETATM   11  C22 UNL     1      14.969 -17.135  13.761  1.00  0.00     0.137 A 
HETATM   12  N7  UNL     1      14.000 -17.021  14.686  1.00  0.00    -0.176 N 
ATOM     13  H7  UNL     1      13.285 -16.302  14.569  1.00  0.00     0.186 HD
ENDROOT
BRANCH   7  14
HETATM   14  C7  UNL     1      18.034 -17.512  10.849  1.00  0.00     0.002 A 
HETATM   15  C8  UNL     1      19.191 -16.766  10.881  1.00  0.00     0.016 A 
HETATM   16  C9  UNL     1      20.213 -16.883   9.964  1.00  0.00     0.031 A 
HETATM   17  C10 UNL     1      20.094 -17.795   8.946  1.00  0.00     0.043 A 
HETATM   18  C16 UNL     1      18.947 -18.572   8.871  1.00  0.00     0.054 A 
HETATM   19  C17 UNL     1      17.932 -18.435   9.806  1.00  0.00     0.047 A 
HETATM   20 CL1  UNL     1      16.478 -19.417   9.712  1.00  0.00    -0.083 Cl
BRANCH  17  21
HETATM   21  N3  UNL     1      21.104 -17.976   7.963  1.00  0.00    -0.287 N 
HETATM   22  C11 UNL     1      20.779 -17.702   6.672  1.00  0.00     0.117 A 
HETATM   23  C12 UNL     1      21.748 -17.873   5.713  1.00  0.00     0.106 A 
HETATM   24  N4  UNL     1      22.979 -18.300   6.048  1.00  0.00    -0.364 N 
HETATM   25  C13 UNL     1      23.286 -18.567   7.332  1.00  0.00     0.074 A 
ATOM     26  H4  UNL     1      23.685 -18.422   5.323  1.00  0.00     0.165 HD
HETATM   27  C14 UNL     1      24.666 -19.033   7.618  1.00  0.00     0.074 C 
HETATM   28  C15 UNL     1      22.328 -18.403   8.323  1.00  0.00     0.274 A 
HETATM   29  O1  UNL     1      22.630 -18.659   9.530  1.00  0.00    -0.265 OA
ENDBRANCH  17  21
ENDBRANCH   7  14
BRANCH  10  30
HETATM   30  C19 UNL     1      13.950 -15.322  12.595  1.00  0.00     0.135 C 
BRANCH  30  31
HETATM   31  C20 UNL     1      12.793 -15.829  11.773  1.00  0.00     0.047 C 
BRANCH  31  32
HETATM   32  C21 UNL     1      12.356 -14.896  10.692  1.00  0.00     0.231 C 
BRANCH  32  33
HETATM   33  N6  UNL     1      13.434 -13.995  10.292  1.00  0.00    -0.079 N 
ATOM     34  H63 UNL     1      14.092 -13.840  11.056  1.00  0.00     0.274 HD
ATOM     35  H62 UNL     1      14.066 -14.442   9.627  1.00  0.00     0.274 HD
ATOM     36  H61 UNL     1      13.071 -13.115   9.927  1.00  0.00     0.274 HD
ENDBRANCH  32  33
ENDBRANCH  31  32
ENDBRANCH  30  31
ENDBRANCH  10  30
BRANCH   1  37
HETATM   37  N1  UNL     1      12.907 -17.698  16.743  1.00  0.00    -0.230 N 
HETATM   38  C1  UNL     1      12.177 -16.467  16.924  1.00  0.00     0.165 C 
ATOM     39  H1  UNL     1      12.680 -18.501  17.330  1.00  0.00     0.177 HD
ENDBRANCH   1  37
TORSDOF 7
ENDMDL
