MODEL 2
REMARK VINA RESULT: -9.887306559      1.133      2.263
REMARK  8 active torsions:
REMARK  status: ('A' for Active; 'I' for Inactive)
REMARK    1  A    between atoms: N4_10  and  C5_11 
REMARK    2  A    between atoms: C6_13  and  C7_14 
REMARK    3  A    between atoms: C7_14  and  O2_15 
REMARK    4  A    between atoms: O2_15  and  P1_16 
REMARK    5  A    between atoms: P1_16  and  O5_19 
REMARK    6  A    between atoms: O5_19  and  P2_20 
REMARK    7  A    between atoms: C8_24  and  O9_25 
REMARK    8  A    between atoms: C9_27  and  O10_28 
ROOT
HETATM    1  C5  UNL     1     -49.742  17.397  14.905  1.00  0.00     0.262 C 
HETATM    2  O1  UNL     1     -50.785  18.024  15.551  1.00  0.00    -0.353 OA
HETATM    3  C6  UNL     1     -51.912  17.672  14.855  1.00  0.00     0.180 C 
HETATM    4  C8  UNL     1     -51.743  16.177  14.678  1.00  0.00     0.182 C 
HETATM    5  C9  UNL     1     -50.264  16.079  14.374  1.00  0.00     0.198 C 
ENDROOT
BRANCH   1   6
HETATM    6  N4  UNL     1     -48.714  17.117  15.871  1.00  0.00    -0.297 N 
HETATM    7  C2  UNL     1     -48.940  16.470  17.043  1.00  0.00     0.146 A 
HETATM    8  N2  UNL     1     -50.052  15.950  17.607  1.00  0.00    -0.314 N 
HETATM    9  C3  UNL     1     -47.727  16.401  17.672  1.00  0.00     0.146 A 
HETATM   10  C1  UNL     1     -50.015  15.346  18.804  1.00  0.00     0.196 A 
ATOM     11  H2  UNL     1     -50.940  16.019  17.111  1.00  0.00     0.170 HD
HETATM   12  N1  UNL     1     -51.166  14.791  19.419  1.00  0.00    -0.063 NA
HETATM   13  N5  UNL     1     -48.806  15.277  19.430  1.00  0.00    -0.295 N 
HETATM   14  C10 UNL     1     -47.689  15.781  18.900  1.00  0.00     0.278 A 
ATOM     15  H5  UNL     1     -48.752  14.822  20.342  1.00  0.00     0.171 HD
HETATM   16  O11 UNL     1     -46.579  15.696  19.517  1.00  0.00    -0.265 OA
HETATM   17  N3  UNL     1     -46.816  16.989  16.894  1.00  0.00    -0.345 N 
HETATM   18  C4  UNL     1     -47.412  17.434  15.781  1.00  0.00     0.188 A 
ATOM     19  H3  UNL     1     -45.824  17.084  17.112  1.00  0.00     0.167 HD
ENDBRANCH   1   6
BRANCH   5  20
HETATM   20  O10 UNL     1     -50.140  16.003  12.974  1.00  0.00    -0.388 OA
ATOM     21  H10 UNL     1     -50.751  16.586  12.539  1.00  0.00     0.210 HD
ENDBRANCH   5  20
BRANCH   3  22
HETATM   22  C7  UNL     1     -53.186  17.857  15.685  1.00  0.00     0.216 C 
BRANCH  22  23
HETATM   23  O2  UNL     1     -53.170  16.851  16.633  1.00  0.00    -0.287 OA
BRANCH  23  24
HETATM   24  P1  UNL     1     -54.294  17.064  17.857  1.00  0.00     0.418 P 
HETATM   25  O3  UNL     1     -54.743  18.526  17.780  1.00  0.00    -0.624 OA
HETATM   26  O4  UNL     1     -53.649  16.754  19.389  1.00  0.00    -0.624 OA
BRANCH  24  27
HETATM   27  O5  UNL     1     -55.573  16.010  17.602  1.00  0.00    -0.173 OA
BRANCH  27  28
HETATM   28  P2  UNL     1     -55.145  14.596  16.840  1.00  0.00     0.431 P 
HETATM   29  O6  UNL     1     -56.298  13.606  17.025  1.00  0.00    -0.616 OA
HETATM   30  O7  UNL     1     -53.812  13.894  17.641  1.00  0.00    -0.616 OA
HETATM   31  O8  UNL     1     -54.875  14.743  15.202  1.00  0.00    -0.616 OA
ENDBRANCH  27  28
ENDBRANCH  24  27
ENDBRANCH  23  24
ENDBRANCH  22  23
ENDBRANCH   3  22
BRANCH   4  32
HETATM   32  O9  UNL     1     -52.518  15.692  13.633  1.00  0.00    -0.390 OA
ATOM     33  H9  UNL     1     -53.094  14.993  13.918  1.00  0.00     0.210 HD
ENDBRANCH   4  32
TORSDOF 8
ENDMDL
