MODEL 7
REMARK VINA RESULT: -9.551602581      1.219      2.098
REMARK  8 active torsions:
REMARK  status: ('A' for Active; 'I' for Inactive)
REMARK    1  A    between atoms: N4_10  and  C5_11 
REMARK    2  A    between atoms: C6_13  and  C7_14 
REMARK    3  A    between atoms: C7_14  and  O2_15 
REMARK    4  A    between atoms: O2_15  and  P1_16 
REMARK    5  A    between atoms: P1_16  and  O5_19 
REMARK    6  A    between atoms: O5_19  and  P2_20 
REMARK    7  A    between atoms: C8_24  and  O9_25 
REMARK    8  A    between atoms: C9_27  and  O10_28 
ROOT
HETATM    1  C5  UNL     1     -49.518  17.443  14.898  1.00  0.00     0.262 C 
HETATM    2  O1  UNL     1     -50.681  17.902  15.477  1.00  0.00    -0.353 OA
HETATM    3  C6  UNL     1     -51.659  17.715  14.536  1.00  0.00     0.180 C 
HETATM    4  C8  UNL     1     -51.398  16.300  14.060  1.00  0.00     0.182 C 
HETATM    5  C9  UNL     1     -49.887  16.280  14.003  1.00  0.00     0.198 C 
ENDROOT
BRANCH   1   6
HETATM    6  N4  UNL     1     -48.656  16.954  15.939  1.00  0.00    -0.297 N 
HETATM    7  C2  UNL     1     -49.109  16.355  17.070  1.00  0.00     0.146 A 
HETATM    8  N2  UNL     1     -50.348  16.064  17.524  1.00  0.00    -0.314 N 
HETATM    9  C3  UNL     1     -47.995  16.038  17.798  1.00  0.00     0.146 A 
HETATM   10  C1  UNL     1     -50.538  15.453  18.704  1.00  0.00     0.196 A 
ATOM     11  H2  UNL     1     -51.157  16.314  16.956  1.00  0.00     0.170 HD
HETATM   12  N1  UNL     1     -51.826  15.135  19.204  1.00  0.00    -0.063 NA
HETATM   13  N5  UNL     1     -49.427  15.138  19.428  1.00  0.00    -0.295 N 
HETATM   14  C10 UNL     1     -48.190  15.411  19.008  1.00  0.00     0.278 A 
ATOM     15  H5  UNL     1     -49.546  14.673  20.329  1.00  0.00     0.171 HD
HETATM   16  O11 UNL     1     -47.178  15.100  19.715  1.00  0.00    -0.265 OA
HETATM   17  N3  UNL     1     -46.920  16.438  17.116  1.00  0.00    -0.345 N 
HETATM   18  C4  UNL     1     -47.314  17.004  15.969  1.00  0.00     0.188 A 
ATOM     19  H3  UNL     1     -45.952  16.330  17.420  1.00  0.00     0.167 HD
ENDBRANCH   1   6
BRANCH   5  20
HETATM   20  O10 UNL     1     -49.526  16.525  12.665  1.00  0.00    -0.388 OA
ATOM     21  H10 UNL     1     -50.164  17.077  12.229  1.00  0.00     0.210 HD
ENDBRANCH   5  20
BRANCH   3  22
HETATM   22  C7  UNL     1     -53.061  17.701  15.152  1.00  0.00     0.216 C 
BRANCH  22  23
HETATM   23  O2  UNL     1     -53.417  16.369  15.254  1.00  0.00    -0.287 OA
BRANCH  23  24
HETATM   24  P1  UNL     1     -54.511  16.058  16.484  1.00  0.00     0.418 P 
HETATM   25  O3  UNL     1     -55.903  16.103  15.843  1.00  0.00    -0.624 OA
HETATM   26  O4  UNL     1     -54.428  17.198  17.729  1.00  0.00    -0.624 OA
BRANCH  24  27
HETATM   27  O5  UNL     1     -54.178  14.547  17.130  1.00  0.00    -0.173 OA
BRANCH  27  28
HETATM   28  P2  UNL     1     -55.401  13.928  18.072  1.00  0.00     0.431 P 
HETATM   29  O6  UNL     1     -56.529  13.492  17.133  1.00  0.00    -0.616 OA
HETATM   30  O7  UNL     1     -56.067  15.169  19.034  1.00  0.00    -0.616 OA
HETATM   31  O8  UNL     1     -54.972  12.600  18.982  1.00  0.00    -0.616 OA
ENDBRANCH  27  28
ENDBRANCH  24  27
ENDBRANCH  23  24
ENDBRANCH  22  23
ENDBRANCH   3  22
BRANCH   4  32
HETATM   32  O9  UNL     1     -51.966  16.064  12.815  1.00  0.00    -0.390 OA
ATOM     33  H9  UNL     1     -52.783  15.585  12.886  1.00  0.00     0.210 HD
ENDBRANCH   4  32
TORSDOF 8
ENDMDL
