MODEL 8
REMARK VINA RESULT: -9.514821990      1.665      3.009
REMARK  8 active torsions:
REMARK  status: ('A' for Active; 'I' for Inactive)
REMARK    1  A    between atoms: N4_10  and  C5_11 
REMARK    2  A    between atoms: C6_13  and  C7_14 
REMARK    3  A    between atoms: C7_14  and  O2_15 
REMARK    4  A    between atoms: O2_15  and  P1_16 
REMARK    5  A    between atoms: P1_16  and  O5_19 
REMARK    6  A    between atoms: O5_19  and  P2_20 
REMARK    7  A    between atoms: C8_24  and  O9_25 
REMARK    8  A    between atoms: C9_27  and  O10_28 
ROOT
HETATM    1  C5  UNL     1     -51.252  17.447  14.452  1.00  0.00     0.262 C 
HETATM    2  O1  UNL     1     -51.970  18.276  15.286  1.00  0.00    -0.353 OA
HETATM    3  C6  UNL     1     -53.246  17.776  15.291  1.00  0.00     0.180 C 
HETATM    4  C8  UNL     1     -53.022  16.291  15.488  1.00  0.00     0.182 C 
HETATM    5  C9  UNL     1     -51.818  16.052  14.603  1.00  0.00     0.198 C 
ENDROOT
BRANCH   1   6
HETATM    6  N4  UNL     1     -49.886  17.430  14.898  1.00  0.00    -0.297 N 
HETATM    7  C2  UNL     1     -49.486  16.881  16.074  1.00  0.00     0.146 A 
HETATM    8  N2  UNL     1     -50.152  16.259  17.072  1.00  0.00    -0.314 N 
HETATM    9  C3  UNL     1     -48.132  17.063  16.131  1.00  0.00     0.146 A 
HETATM   10  C1  UNL     1     -49.516  15.795  18.158  1.00  0.00     0.196 A 
ATOM     11  H2  UNL     1     -51.162  16.140  16.997  1.00  0.00     0.170 HD
HETATM   12  N1  UNL     1     -50.189  15.138  19.220  1.00  0.00    -0.063 NA
HETATM   13  N5  UNL     1     -48.165  15.976  18.214  1.00  0.00    -0.295 N 
HETATM   14  C10 UNL     1     -47.479  16.586  17.245  1.00  0.00     0.278 A 
ATOM     15  H5  UNL     1     -47.659  15.632  19.030  1.00  0.00     0.171 HD
HETATM   16  O11 UNL     1     -46.218  16.736  17.336  1.00  0.00    -0.265 OA
HETATM   17  N3  UNL     1     -47.746  17.698  15.023  1.00  0.00    -0.345 N 
HETATM   18  C4  UNL     1     -48.818  17.930  14.256  1.00  0.00     0.188 A 
ATOM     19  H3  UNL     1     -46.788  17.966  14.797  1.00  0.00     0.167 HD
ENDBRANCH   1   6
BRANCH   5  20
HETATM   20  O10 UNL     1     -52.305  15.559  13.378  1.00  0.00    -0.388 OA
ATOM     21  H10 UNL     1     -51.711  14.921  13.000  1.00  0.00     0.210 HD
ENDBRANCH   5  20
BRANCH   3  22
HETATM   22  C7  UNL     1     -54.048  18.247  16.508  1.00  0.00     0.216 C 
BRANCH  22  23
HETATM   23  O2  UNL     1     -54.710  17.130  16.980  1.00  0.00    -0.287 OA
BRANCH  23  24
HETATM   24  P1  UNL     1     -54.704  17.000  18.651  1.00  0.00     0.418 P 
HETATM   25  O3  UNL     1     -55.157  18.361  19.189  1.00  0.00    -0.624 OA
HETATM   26  O4  UNL     1     -53.173  16.632  19.267  1.00  0.00    -0.624 OA
BRANCH  24  27
HETATM   27  O5  UNL     1     -55.760  15.776  19.099  1.00  0.00    -0.173 OA
BRANCH  27  28
HETATM   28  P2  UNL     1     -55.657  14.413  18.153  1.00  0.00     0.431 P 
HETATM   29  O6  UNL     1     -56.442  14.685  16.866  1.00  0.00    -0.616 OA
HETATM   30  O7  UNL     1     -56.472  13.123  18.916  1.00  0.00    -0.616 OA
HETATM   31  O8  UNL     1     -54.107  13.991  17.708  1.00  0.00    -0.616 OA
ENDBRANCH  27  28
ENDBRANCH  24  27
ENDBRANCH  23  24
ENDBRANCH  22  23
ENDBRANCH   3  22
BRANCH   4  32
HETATM   32  O9  UNL     1     -54.120  15.547  15.078  1.00  0.00    -0.390 OA
ATOM     33  H9  UNL     1     -54.687  15.325  15.808  1.00  0.00     0.210 HD
ENDBRANCH   4  32
TORSDOF 8
ENDMDL
