MODEL 10
REMARK VINA RESULT: -9.396819568      3.463      5.565
REMARK  8 active torsions:
REMARK  status: ('A' for Active; 'I' for Inactive)
REMARK    1  A    between atoms: N4_10  and  C5_11 
REMARK    2  A    between atoms: C6_13  and  C7_14 
REMARK    3  A    between atoms: C7_14  and  O2_15 
REMARK    4  A    between atoms: O2_15  and  P1_16 
REMARK    5  A    between atoms: P1_16  and  O5_19 
REMARK    6  A    between atoms: O5_19  and  P2_20 
REMARK    7  A    between atoms: C8_24  and  O9_25 
REMARK    8  A    between atoms: C9_27  and  O10_28 
ROOT
HETATM    1  C5  UNL     1     -52.550  15.946  17.923  1.00  0.00     0.262 C 
HETATM    2  O1  UNL     1     -53.093  14.688  17.778  1.00  0.00    -0.353 OA
HETATM    3  C6  UNL     1     -54.217  14.681  18.561  1.00  0.00     0.180 C 
HETATM    4  C8  UNL     1     -54.888  15.988  18.194  1.00  0.00     0.182 C 
HETATM    5  C9  UNL     1     -53.697  16.917  18.099  1.00  0.00     0.198 C 
ENDROOT
BRANCH   1   6
HETATM    6  N4  UNL     1     -51.857  16.282  16.709  1.00  0.00    -0.297 N 
HETATM    7  C2  UNL     1     -50.505  16.263  16.586  1.00  0.00     0.146 A 
HETATM    8  N2  UNL     1     -49.507  15.964  17.447  1.00  0.00    -0.314 N 
HETATM    9  C3  UNL     1     -50.241  16.639  15.298  1.00  0.00     0.146 A 
HETATM   10  C1  UNL     1     -48.219  16.023  17.076  1.00  0.00     0.196 A 
ATOM     11  H2  UNL     1     -49.739  15.687  18.400  1.00  0.00     0.170 HD
HETATM   12  N1  UNL     1     -47.152  15.714  17.958  1.00  0.00    -0.063 NA
HETATM   13  N5  UNL     1     -47.957  16.397  15.791  1.00  0.00    -0.295 N 
HETATM   14  C10 UNL     1     -48.919  16.699  14.917  1.00  0.00     0.278 A 
ATOM     15  H5  UNL     1     -46.985  16.449  15.486  1.00  0.00     0.171 HD
HETATM   16  O11 UNL     1     -48.632  17.045  13.726  1.00  0.00    -0.265 OA
HETATM   17  N3  UNL     1     -51.401  16.872  14.682  1.00  0.00    -0.345 N 
HETATM   18  C4  UNL     1     -52.404  16.655  15.541  1.00  0.00     0.188 A 
ATOM     19  H3  UNL     1     -51.508  17.168  13.711  1.00  0.00     0.167 HD
ENDBRANCH   1   6
BRANCH   5  20
HETATM   20  O10 UNL     1     -53.612  17.598  19.327  1.00  0.00    -0.388 OA
ATOM     21  H10 UNL     1     -53.769  18.528  19.220  1.00  0.00     0.210 HD
ENDBRANCH   5  20
BRANCH   3  22
HETATM   22  C7  UNL     1     -55.198  13.576  18.157  1.00  0.00     0.216 C 
BRANCH  22  23
HETATM   23  O2  UNL     1     -56.311  14.223  17.654  1.00  0.00    -0.287 OA
BRANCH  23  24
HETATM   24  P1  UNL     1     -57.734  13.822  18.442  1.00  0.00     0.418 P 
HETATM   25  O3  UNL     1     -57.541  14.221  19.908  1.00  0.00    -0.624 OA
HETATM   26  O4  UNL     1     -58.084  12.171  18.348  1.00  0.00    -0.624 OA
BRANCH  24  27
HETATM   27  O5  UNL     1     -58.997  14.669  17.733  1.00  0.00    -0.173 OA
BRANCH  27  28
HETATM   28  P2  UNL     1     -60.402  14.659  18.622  1.00  0.00     0.431 P 
HETATM   29  O6  UNL     1     -61.505  15.259  17.746  1.00  0.00    -0.616 OA
HETATM   30  O7  UNL     1     -60.249  15.722  19.948  1.00  0.00    -0.616 OA
HETATM   31  O8  UNL     1     -60.914  13.146  19.097  1.00  0.00    -0.616 OA
ENDBRANCH  27  28
ENDBRANCH  24  27
ENDBRANCH  23  24
ENDBRANCH  22  23
ENDBRANCH   3  22
BRANCH   4  32
HETATM   32  O9  UNL     1     -55.785  16.398  19.172  1.00  0.00    -0.390 OA
ATOM     33  H9  UNL     1     -55.685  17.320  19.377  1.00  0.00     0.210 HD
ENDBRANCH   4  32
TORSDOF 8
ENDMDL
