MODEL 6
REMARK VINA RESULT: -7.927680490      1.117      5.867
REMARK  3 active torsions:
REMARK  status: ('A' for Active; 'I' for Inactive)
REMARK       I    between atoms: C1_2  and  N1_3 
REMARK    1  A    between atoms: C1_2  and  C8_11 
REMARK    2  A    between atoms: N1_3  and  C2_5 
REMARK    3  A    between atoms: C2_5  and  C3_6 
ROOT
HETATM    1  O1  UNL     1      27.871  11.584  -1.159  1.00  0.00    -0.273 OA
HETATM    2  C1  UNL     1      27.621  11.974  -2.329  1.00  0.00     0.221 C 
HETATM    3  N1  UNL     1      27.659  13.351  -2.670  1.00  0.00    -0.360 N 
ATOM      4  H1  UNL     1      27.455  13.657  -3.621  1.00  0.00     0.162 HD
ENDROOT
BRANCH   3   5
HETATM    5  C2  UNL     1      27.993  14.311  -1.643  1.00  0.00     0.127 C 
BRANCH   5   6
HETATM    6  C3  UNL     1      29.447  14.657  -1.594  1.00  0.00     0.003 C 
HETATM    7  C4  UNL     1      29.897  15.057  -2.980  1.00  0.00     0.006 C 
HETATM    8  C5  UNL     1      29.290  16.426  -3.137  1.00  0.00     0.000 C 
HETATM    9  C6  UNL     1      29.437  17.033  -1.777  1.00  0.00     0.000 C 
HETATM   10  C7  UNL     1      29.676  15.919  -0.805  1.00  0.00     0.006 C 
ENDBRANCH   5   6
ENDBRANCH   3   5
BRANCH   2  11
HETATM   11  C8  UNL     1      27.277  10.985  -3.384  1.00  0.00     0.078 C 
HETATM   12  C9  UNL     1      26.734   9.731  -2.735  1.00  0.00     0.014 C 
HETATM   13  C10 UNL     1      27.627   8.603  -3.182  1.00  0.00     0.001 C 
HETATM   14  C11 UNL     1      28.922   9.301  -3.519  1.00  0.00     0.001 C 
HETATM   15  C12 UNL     1      28.454  10.556  -4.197  1.00  0.00     0.014 C 
ENDBRANCH   2  11
TORSDOF 3
ENDMDL
