MODEL 2
REMARK VINA RESULT: -8.371926582      0.651      5.967
REMARK  3 active torsions:
REMARK  status: ('A' for Active; 'I' for Inactive)
REMARK       I    between atoms: C1_2  and  N1_3 
REMARK    1  A    between atoms: C1_2  and  C8_11 
REMARK    2  A    between atoms: N1_3  and  C2_5 
REMARK    3  A    between atoms: C2_5  and  C3_6 
ROOT
HETATM    1  O1  UNL     1      27.587  12.188  -1.027  1.00  0.00    -0.273 OA
HETATM    2  C1  UNL     1      27.812  12.354  -2.254  1.00  0.00     0.221 C 
HETATM    3  N1  UNL     1      28.549  13.472  -2.723  1.00  0.00    -0.360 N 
ATOM      4  H1  UNL     1      28.725  13.598  -3.720  1.00  0.00     0.162 HD
ENDROOT
BRANCH   3   5
HETATM    5  C2  UNL     1      29.043  14.431  -1.761  1.00  0.00     0.127 C 
BRANCH   5   6
HETATM    6  C3  UNL     1      29.067  15.836  -2.271  1.00  0.00     0.003 C 
HETATM    7  C4  UNL     1      29.250  16.773  -1.099  1.00  0.00     0.006 C 
HETATM    8  C5  UNL     1      30.701  16.578  -0.751  1.00  0.00     0.000 C 
HETATM    9  C6  UNL     1      31.366  16.432  -2.083  1.00  0.00     0.000 C 
HETATM   10  C7  UNL     1      30.307  16.094  -3.086  1.00  0.00     0.006 C 
ENDBRANCH   5   6
ENDBRANCH   3   5
BRANCH   2  11
HETATM   11  C8  UNL     1      27.302  11.366  -3.242  1.00  0.00     0.078 C 
HETATM   12  C9  UNL     1      26.973  10.072  -2.531  1.00  0.00     0.014 C 
HETATM   13  C10 UNL     1      27.807   9.004  -3.191  1.00  0.00     0.001 C 
HETATM   14  C11 UNL     1      28.963   9.780  -3.772  1.00  0.00     0.001 C 
HETATM   15  C12 UNL     1      28.300  11.019  -4.298  1.00  0.00     0.014 C 
ENDBRANCH   2  11
TORSDOF 3
ENDMDL
