MODEL 14
REMARK VINA RESULT: -7.496316983      1.063      1.063
REMARK  3 active torsions:
REMARK  status: ('A' for Active; 'I' for Inactive)
REMARK       I    between atoms: C1_2  and  N1_3 
REMARK    1  A    between atoms: C1_2  and  C8_11 
REMARK    2  A    between atoms: N1_3  and  C2_5 
REMARK    3  A    between atoms: C2_5  and  C3_6 
ROOT
HETATM    1  O1  UNL     1      29.517  13.852  -2.998  1.00  0.00    -0.273 OA
HETATM    2  C1  UNL     1      28.766  14.156  -2.034  1.00  0.00     0.221 C 
HETATM    3  N1  UNL     1      28.052  13.163  -1.315  1.00  0.00    -0.360 N 
ATOM      4  H1  UNL     1      27.446  13.420  -0.536  1.00  0.00     0.162 HD
ENDROOT
BRANCH   3   5
HETATM    5  C2  UNL     1      28.200  11.780  -1.708  1.00  0.00     0.127 C 
BRANCH   5   6
HETATM    6  C3  UNL     1      27.127  11.301  -2.634  1.00  0.00     0.003 C 
HETATM    7  C4  UNL     1      27.692  11.232  -4.035  1.00  0.00     0.006 C 
HETATM    8  C5  UNL     1      28.571  10.012  -3.971  1.00  0.00     0.000 C 
HETATM    9  C6  UNL     1      27.795   9.064  -3.111  1.00  0.00     0.000 C 
HETATM   10  C7  UNL     1      26.777   9.863  -2.357  1.00  0.00     0.006 C 
ENDBRANCH   5   6
ENDBRANCH   3   5
BRANCH   2  11
HETATM   11  C8  UNL     1      28.616  15.579  -1.632  1.00  0.00     0.078 C 
HETATM   12  C9  UNL     1      29.194  16.468  -2.711  1.00  0.00     0.014 C 
HETATM   13  C10 UNL     1      30.266  17.293  -2.048  1.00  0.00     0.001 C 
HETATM   14  C11 UNL     1      30.666  16.452  -0.861  1.00  0.00     0.001 C 
HETATM   15  C12 UNL     1      29.349  15.918  -0.376  1.00  0.00     0.014 C 
ENDBRANCH   2  11
TORSDOF 3
ENDMDL
