MODEL 5
REMARK VINA RESULT: -7.939254504      0.607      1.225
REMARK  3 active torsions:
REMARK  status: ('A' for Active; 'I' for Inactive)
REMARK       I    between atoms: C1_2  and  N1_3 
REMARK    1  A    between atoms: C1_2  and  C8_11 
REMARK    2  A    between atoms: N1_3  and  C2_5 
REMARK    3  A    between atoms: C2_5  and  C3_6 
ROOT
HETATM    1  O1  UNL     1      28.383  13.849  -0.552  1.00  0.00    -0.273 OA
HETATM    2  C1  UNL     1      28.456  14.208  -1.755  1.00  0.00     0.221 C 
HETATM    3  N1  UNL     1      28.243  13.286  -2.813  1.00  0.00    -0.360 N 
ATOM      4  H1  UNL     1      28.305  13.587  -3.786  1.00  0.00     0.162 HD
ENDROOT
BRANCH   3   5
HETATM    5  C2  UNL     1      27.936  11.912  -2.485  1.00  0.00     0.127 C 
BRANCH   5   6
HETATM    6  C3  UNL     1      28.481  10.924  -3.465  1.00  0.00     0.003 C 
HETATM    7  C4  UNL     1      28.553   9.569  -2.799  1.00  0.00     0.006 C 
HETATM    8  C5  UNL     1      27.108   9.151  -2.756  1.00  0.00     0.000 C 
HETATM    9  C6  UNL     1      26.560   9.645  -4.057  1.00  0.00     0.000 C 
HETATM   10  C7  UNL     1      27.504  10.680  -4.586  1.00  0.00     0.006 C 
ENDBRANCH   5   6
ENDBRANCH   3   5
BRANCH   2  11
HETATM   11  C8  UNL     1      28.772  15.621  -2.090  1.00  0.00     0.078 C 
HETATM   12  C9  UNL     1      29.933  15.658  -3.059  1.00  0.00     0.014 C 
HETATM   13  C10 UNL     1      31.009  16.480  -2.398  1.00  0.00     0.001 C 
HETATM   14  C11 UNL     1      30.691  16.347  -0.929  1.00  0.00     0.001 C 
HETATM   15  C12 UNL     1      29.193  16.428  -0.906  1.00  0.00     0.014 C 
ENDBRANCH   2  11
TORSDOF 3
ENDMDL
