MODEL 4
REMARK VINA RESULT: -7.960946822      1.081      1.861
REMARK  3 active torsions:
REMARK  status: ('A' for Active; 'I' for Inactive)
REMARK       I    between atoms: C1_2  and  N1_3 
REMARK    1  A    between atoms: C1_2  and  C8_11 
REMARK    2  A    between atoms: N1_3  and  C2_5 
REMARK    3  A    between atoms: C2_5  and  C3_6 
ROOT
HETATM    1  O1  UNL     1      27.877  13.739  -1.061  1.00  0.00    -0.273 OA
HETATM    2  C1  UNL     1      28.663  13.740  -2.043  1.00  0.00     0.221 C 
HETATM    3  N1  UNL     1      28.534  12.794  -3.092  1.00  0.00    -0.360 N 
ATOM      4  H1  UNL     1      29.177  12.803  -3.884  1.00  0.00     0.162 HD
ENDROOT
BRANCH   3   5
HETATM    5  C2  UNL     1      27.473  11.815  -3.017  1.00  0.00     0.127 C 
BRANCH   5   6
HETATM    6  C3  UNL     1      27.920  10.483  -2.506  1.00  0.00     0.003 C 
HETATM    7  C4  UNL     1      26.738   9.540  -2.511  1.00  0.00     0.006 C 
HETATM    8  C5  UNL     1      26.570   9.236  -3.975  1.00  0.00     0.000 C 
HETATM    9  C6  UNL     1      27.976   9.147  -4.479  1.00  0.00     0.000 C 
HETATM   10  C7  UNL     1      28.862   9.820  -3.477  1.00  0.00     0.006 C 
ENDBRANCH   5   6
ENDBRANCH   3   5
BRANCH   2  11
HETATM   11  C8  UNL     1      29.754  14.748  -2.118  1.00  0.00     0.078 C 
HETATM   12  C9  UNL     1      29.588  15.749  -0.996  1.00  0.00     0.014 C 
HETATM   13  C10 UNL     1      29.469  17.100  -1.650  1.00  0.00     0.001 C 
HETATM   14  C11 UNL     1      28.962  16.771  -3.033  1.00  0.00     0.001 C 
HETATM   15  C12 UNL     1      29.742  15.538  -3.386  1.00  0.00     0.014 C 
ENDBRANCH   2  11
TORSDOF 3
ENDMDL
