MODEL 2
REMARK VINA RESULT: -9.125098743      1.006      2.052
REMARK  10 active torsions:
REMARK  status: ('A' for Active; 'I' for Inactive)
REMARK    1  A    between atoms: N4_11  and  C5_12 
REMARK    2  A    between atoms: C6_14  and  C7_15 
REMARK    3  A    between atoms: C7_15  and  S1_16 
REMARK    4  A    between atoms: S1_16  and  P1_17 
REMARK    5  A    between atoms: P1_17  and  N5_20 
REMARK    6  A    between atoms: N5_20  and  C8_22 
REMARK    7  A    between atoms: C8_22  and  C9_23 
REMARK    8  A    between atoms: C9_23  and  C10_24 
REMARK    9  A    between atoms: C18_34  and  O5_35 
REMARK   10  A    between atoms: C19_37  and  O6_38 
ROOT
HETATM    1  C5  UNL     1     -30.995   6.792 -24.900  1.00  0.00     0.262 C 
HETATM    2  O2  UNL     1     -30.508   6.652 -26.198  1.00  0.00    -0.355 OA
HETATM    3  C6  UNL     1     -29.596   5.612 -26.043  1.00  0.00     0.165 C 
HETATM    4  C18 UNL     1     -30.510   4.566 -25.435  1.00  0.00     0.180 C 
HETATM    5  C19 UNL     1     -31.324   5.443 -24.471  1.00  0.00     0.198 C 
ENDROOT
BRANCH   3   6
HETATM    6  C7  UNL     1     -29.064   5.112 -27.358  1.00  0.00     0.121 C 
BRANCH   6   7
HETATM    7  S1  UNL     1     -29.620   6.110 -28.692  1.00  0.00    -0.047 SA
BRANCH   7   8
HETATM    8  P1  UNL     1     -31.440   5.806 -29.499  1.00  0.00     0.270 P 
HETATM    9  O3  UNL     1     -31.710   7.258 -29.821  1.00  0.00    -0.644 OA
HETATM   10  O4  UNL     1     -32.834   5.817 -28.487  1.00  0.00    -0.644 OA
BRANCH   8  11
HETATM   11  N5  UNL     1     -31.618   5.166 -31.059  1.00  0.00    -0.340 N 
ATOM     12  H5  UNL     1     -32.457   4.683 -31.380  1.00  0.00     0.164 HD
BRANCH  11  13
HETATM   13  C8  UNL     1     -30.482   5.374 -31.863  1.00  0.00     0.129 C 
BRANCH  13  14
HETATM   14  C9  UNL     1     -29.574   4.211 -32.099  1.00  0.00     0.060 C 
BRANCH  14  15
HETATM   15  C10 UNL     1     -28.185   4.615 -32.360  1.00  0.00    -0.029 A 
HETATM   16  C11 UNL     1     -27.235   4.860 -31.377  1.00  0.00     0.096 A 
HETATM   17  N6  UNL     1     -26.062   5.163 -31.946  1.00  0.00    -0.365 N 
HETATM   18  C12 UNL     1     -26.223   5.123 -33.287  1.00  0.00     0.042 A 
ATOM     19  H6  UNL     1     -25.197   5.387 -31.453  1.00  0.00     0.165 HD
HETATM   20  C13 UNL     1     -25.350   5.362 -34.329  1.00  0.00     0.030 A 
HETATM   21  C17 UNL     1     -27.548   4.782 -33.558  1.00  0.00    -0.002 A 
HETATM   22  C14 UNL     1     -25.776   5.269 -35.623  1.00  0.00     0.002 A 
HETATM   23  C15 UNL     1     -27.085   4.934 -35.896  1.00  0.00     0.001 A 
HETATM   24  C16 UNL     1     -27.963   4.693 -34.864  1.00  0.00     0.014 A 
ENDBRANCH  14  15
ENDBRANCH  13  14
ENDBRANCH  11  13
ENDBRANCH   8  11
ENDBRANCH   7   8
ENDBRANCH   6   7
ENDBRANCH   3   6
BRANCH   4  25
HETATM   25  O5  UNL     1     -29.748   3.618 -24.816  1.00  0.00    -0.390 OA
ATOM     26  H5  UNL     1     -28.835   3.761 -25.040  1.00  0.00     0.210 HD
ENDBRANCH   4  25
BRANCH   1  27
HETATM   27  N4  UNL     1     -32.011   7.784 -24.913  1.00  0.00    -0.297 N 
HETATM   28  C4  UNL     1     -32.467   8.398 -26.022  1.00  0.00     0.188 A 
HETATM   29  N3  UNL     1     -33.419   9.281 -25.714  1.00  0.00    -0.345 N 
HETATM   30  C3  UNL     1     -33.621   9.273 -24.378  1.00  0.00     0.146 A 
ATOM     31  H3  UNL     1     -33.917   9.869 -26.382  1.00  0.00     0.167 HD
HETATM   32  C2  UNL     1     -34.453   9.954 -23.521  1.00  0.00     0.278 A 
HETATM   33  C20 UNL     1     -32.720   8.322 -23.905  1.00  0.00     0.146 A 
HETATM   34  N2  UNL     1     -34.383   9.685 -22.214  1.00  0.00    -0.295 N 
HETATM   35  O1  UNL     1     -35.264  10.808 -23.928  1.00  0.00    -0.265 OA
HETATM   36  C1  UNL     1     -33.520   8.769 -21.729  1.00  0.00     0.196 A 
ATOM     37  H2  UNL     1     -34.996  10.182 -21.569  1.00  0.00     0.171 HD
HETATM   38  N1  UNL     1     -33.430   8.469 -20.341  1.00  0.00    -0.063 NA
HETATM   39  N7  UNL     1     -32.710   8.110 -22.584  1.00  0.00    -0.314 N 
ATOM     40  H7  UNL     1     -32.061   7.419 -22.207  1.00  0.00     0.170 HD
ENDBRANCH   1  27
BRANCH   5  41
HETATM   41  O6  UNL     1     -30.754   5.134 -23.210  1.00  0.00    -0.388 OA
ATOM     42  H6  UNL     1     -29.811   5.035 -23.261  1.00  0.00     0.210 HD
ENDBRANCH   5  41
TORSDOF 10
ENDMDL
