MODEL 3
REMARK VINA RESULT: -8.910294959      1.333      1.538
REMARK  10 active torsions:
REMARK  status: ('A' for Active; 'I' for Inactive)
REMARK    1  A    between atoms: N4_11  and  C5_12 
REMARK    2  A    between atoms: C6_14  and  C7_15 
REMARK    3  A    between atoms: C7_15  and  S1_16 
REMARK    4  A    between atoms: S1_16  and  P1_17 
REMARK    5  A    between atoms: P1_17  and  N5_20 
REMARK    6  A    between atoms: N5_20  and  C8_22 
REMARK    7  A    between atoms: C8_22  and  C9_23 
REMARK    8  A    between atoms: C9_23  and  C10_24 
REMARK    9  A    between atoms: C18_34  and  O5_35 
REMARK   10  A    between atoms: C19_37  and  O6_38 
ROOT
HETATM    1  C5  UNL     1     -31.133   5.915 -24.377  1.00  0.00     0.262 C 
HETATM    2  O2  UNL     1     -31.228   5.904 -25.767  1.00  0.00    -0.355 OA
HETATM    3  C6  UNL     1     -30.513   4.752 -26.086  1.00  0.00     0.165 C 
HETATM    4  C18 UNL     1     -31.271   3.744 -25.244  1.00  0.00     0.180 C 
HETATM    5  C19 UNL     1     -31.483   4.566 -23.962  1.00  0.00     0.198 C 
ENDROOT
BRANCH   3   6
HETATM    6  C7  UNL     1     -30.633   4.384 -27.539  1.00  0.00     0.121 C 
BRANCH   6   7
HETATM    7  S1  UNL     1     -31.497   5.620 -28.441  1.00  0.00    -0.047 SA
BRANCH   7   8
HETATM    8  P1  UNL     1     -30.486   7.098 -29.362  1.00  0.00     0.270 P 
HETATM    9  O3  UNL     1     -30.447   8.025 -28.168  1.00  0.00    -0.644 OA
HETATM   10  O4  UNL     1     -31.351   8.315 -30.222  1.00  0.00    -0.644 OA
BRANCH   8  11
HETATM   11  N5  UNL     1     -28.818   6.984 -29.644  1.00  0.00    -0.340 N 
ATOM     12  H5  UNL     1     -28.194   7.789 -29.680  1.00  0.00     0.164 HD
BRANCH  11  13
HETATM   13  C8  UNL     1     -28.388   5.656 -29.824  1.00  0.00     0.129 C 
BRANCH  13  14
HETATM   14  C9  UNL     1     -28.773   4.966 -31.092  1.00  0.00     0.060 C 
BRANCH  14  15
HETATM   15  C10 UNL     1     -27.716   5.015 -32.112  1.00  0.00    -0.029 A 
HETATM   16  C11 UNL     1     -26.361   5.155 -31.840  1.00  0.00     0.096 A 
HETATM   17  N6  UNL     1     -25.663   5.120 -32.982  1.00  0.00    -0.365 N 
HETATM   18  C12 UNL     1     -26.535   4.959 -34.002  1.00  0.00     0.042 A 
ATOM     19  H6  UNL     1     -24.649   5.200 -33.067  1.00  0.00     0.165 HD
HETATM   20  C13 UNL     1     -26.353   4.874 -35.366  1.00  0.00     0.030 A 
HETATM   21  C17 UNL     1     -27.823   4.894 -33.470  1.00  0.00    -0.002 A 
HETATM   22  C14 UNL     1     -27.425   4.727 -36.200  1.00  0.00     0.002 A 
HETATM   23  C15 UNL     1     -28.700   4.665 -35.679  1.00  0.00     0.001 A 
HETATM   24  C16 UNL     1     -28.892   4.748 -34.319  1.00  0.00     0.014 A 
ENDBRANCH  14  15
ENDBRANCH  13  14
ENDBRANCH  11  13
ENDBRANCH   8  11
ENDBRANCH   7   8
ENDBRANCH   6   7
ENDBRANCH   3   6
BRANCH   4  25
HETATM   25  O5  UNL     1     -30.493   2.636 -25.072  1.00  0.00    -0.390 OA
ATOM     26  H5  UNL     1     -30.801   1.950 -25.653  1.00  0.00     0.210 HD
ENDBRANCH   4  25
BRANCH   1  27
HETATM   27  N4  UNL     1     -31.894   7.010 -23.890  1.00  0.00    -0.297 N 
HETATM   28  C4  UNL     1     -32.072   7.299 -22.587  1.00  0.00     0.188 A 
HETATM   29  N3  UNL     1     -32.834   8.385 -22.445  1.00  0.00    -0.345 N 
HETATM   30  C3  UNL     1     -33.184   8.849 -23.665  1.00  0.00     0.146 A 
ATOM     31  H3  UNL     1     -33.110   8.801 -21.555  1.00  0.00     0.167 HD
HETATM   32  C2  UNL     1     -33.935   9.907 -24.119  1.00  0.00     0.278 A 
HETATM   33  C20 UNL     1     -32.576   7.962 -24.550  1.00  0.00     0.146 A 
HETATM   34  N2  UNL     1     -34.075  10.071 -25.439  1.00  0.00    -0.295 N 
HETATM   35  O1  UNL     1     -34.486  10.709 -23.340  1.00  0.00    -0.265 OA
HETATM   36  C1  UNL     1     -33.499   9.227 -26.319  1.00  0.00     0.196 A 
ATOM     37  H2  UNL     1     -34.629  10.853 -25.788  1.00  0.00     0.171 HD
HETATM   38  N1  UNL     1     -33.636   9.386 -27.726  1.00  0.00    -0.063 NA
HETATM   39  N7  UNL     1     -32.763   8.195 -25.855  1.00  0.00    -0.314 N 
ATOM     40  H7  UNL     1     -32.331   7.563 -26.529  1.00  0.00     0.170 HD
ENDBRANCH   1  27
BRANCH   5  41
HETATM   41  O6  UNL     1     -30.521   4.017 -23.077  1.00  0.00    -0.388 OA
ATOM     42  H6  UNL     1     -30.855   3.945 -22.190  1.00  0.00     0.210 HD
ENDBRANCH   5  41
TORSDOF 10
ENDMDL
