MODEL 13
REMARK VINA RESULT: -8.527939643      2.800     10.328
REMARK  10 active torsions:
REMARK  status: ('A' for Active; 'I' for Inactive)
REMARK    1  A    between atoms: N4_11  and  C5_12 
REMARK    2  A    between atoms: C6_14  and  C7_15 
REMARK    3  A    between atoms: C7_15  and  S1_16 
REMARK    4  A    between atoms: S1_16  and  P1_17 
REMARK    5  A    between atoms: P1_17  and  N5_20 
REMARK    6  A    between atoms: N5_20  and  C8_22 
REMARK    7  A    between atoms: C8_22  and  C9_23 
REMARK    8  A    between atoms: C9_23  and  C10_24 
REMARK    9  A    between atoms: C18_34  and  O5_35 
REMARK   10  A    between atoms: C19_37  and  O6_38 
ROOT
HETATM    1  C5  UNL     1     -29.502   4.966 -30.482  1.00  0.00     0.262 C 
HETATM    2  O2  UNL     1     -30.581   4.615 -29.674  1.00  0.00    -0.355 OA
HETATM    3  C6  UNL     1     -30.027   4.733 -28.402  1.00  0.00     0.165 C 
HETATM    4  C18 UNL     1     -29.537   6.166 -28.472  1.00  0.00     0.180 C 
HETATM    5  C19 UNL     1     -28.977   6.192 -29.903  1.00  0.00     0.198 C 
ENDROOT
BRANCH   3   6
HETATM    6  C7  UNL     1     -31.055   4.605 -27.312  1.00  0.00     0.121 C 
BRANCH   6   7
HETATM    7  S1  UNL     1     -30.409   3.746 -25.923  1.00  0.00    -0.047 SA
BRANCH   7   8
HETATM    8  P1  UNL     1     -31.451   3.669 -24.201  1.00  0.00     0.270 P 
HETATM    9  O3  UNL     1     -30.252   3.800 -23.290  1.00  0.00    -0.644 OA
HETATM   10  O4  UNL     1     -31.783   2.144 -23.473  1.00  0.00    -0.644 OA
BRANCH   8  11
HETATM   11  N5  UNL     1     -32.336   5.005 -23.645  1.00  0.00    -0.340 N 
ATOM     12  H5  UNL     1     -33.217   4.928 -23.138  1.00  0.00     0.164 HD
BRANCH  11  13
HETATM   13  C8  UNL     1     -31.721   6.232 -23.958  1.00  0.00     0.129 C 
BRANCH  13  14
HETATM   14  C9  UNL     1     -31.751   7.309 -22.923  1.00  0.00     0.060 C 
BRANCH  14  15
HETATM   15  C10 UNL     1     -32.857   8.257 -23.120  1.00  0.00    -0.029 A 
HETATM   16  C11 UNL     1     -33.320   8.686 -24.357  1.00  0.00     0.096 A 
HETATM   17  N6  UNL     1     -34.361   9.510 -24.191  1.00  0.00    -0.365 N 
HETATM   18  C12 UNL     1     -34.592   9.633 -22.864  1.00  0.00     0.042 A 
ATOM     19  H6  UNL     1     -34.889   9.967 -24.935  1.00  0.00     0.165 HD
HETATM   20  C13 UNL     1     -35.523  10.361 -22.153  1.00  0.00     0.030 A 
HETATM   21  C17 UNL     1     -33.655   8.855 -22.184  1.00  0.00    -0.002 A 
HETATM   22  C14 UNL     1     -35.532  10.326 -20.787  1.00  0.00     0.002 A 
HETATM   23  C15 UNL     1     -34.607   9.560 -20.111  1.00  0.00     0.001 A 
HETATM   24  C16 UNL     1     -33.675   8.829 -20.812  1.00  0.00     0.014 A 
ENDBRANCH  14  15
ENDBRANCH  13  14
ENDBRANCH  11  13
ENDBRANCH   8  11
ENDBRANCH   7   8
ENDBRANCH   6   7
ENDBRANCH   3   6
BRANCH   4  25
HETATM   25  O5  UNL     1     -28.597   6.361 -27.503  1.00  0.00    -0.390 OA
ATOM     26  H5  UNL     1     -28.481   7.294 -27.368  1.00  0.00     0.210 HD
ENDBRANCH   4  25
BRANCH   1  27
HETATM   27  N4  UNL     1     -29.942   4.968 -31.831  1.00  0.00    -0.297 N 
HETATM   28  C4  UNL     1     -31.233   4.973 -32.216  1.00  0.00     0.188 A 
HETATM   29  N3  UNL     1     -31.328   4.972 -33.547  1.00  0.00    -0.345 N 
HETATM   30  C3  UNL     1     -30.089   4.967 -34.085  1.00  0.00     0.146 A 
ATOM     31  H3  UNL     1     -32.201   4.975 -34.076  1.00  0.00     0.167 HD
HETATM   32  C2  UNL     1     -29.590   4.965 -35.366  1.00  0.00     0.278 A 
HETATM   33  C20 UNL     1     -29.241   4.965 -32.980  1.00  0.00     0.146 A 
HETATM   34  N2  UNL     1     -28.264   4.961 -35.534  1.00  0.00    -0.295 N 
HETATM   35  O1  UNL     1     -30.335   4.967 -36.364  1.00  0.00    -0.265 OA
HETATM   36  C1  UNL     1     -27.420   4.957 -34.482  1.00  0.00     0.196 A 
ATOM     37  H2  UNL     1     -27.882   4.961 -36.480  1.00  0.00     0.171 HD
HETATM   38  N1  UNL     1     -26.006   4.953 -34.642  1.00  0.00    -0.063 NA
HETATM   39  N7  UNL     1     -27.927   4.960 -33.232  1.00  0.00    -0.314 N 
ATOM     40  H7  UNL     1     -27.280   4.958 -32.443  1.00  0.00     0.170 HD
ENDBRANCH   1  27
BRANCH   5  41
HETATM   41  O6  UNL     1     -27.577   6.122 -29.691  1.00  0.00    -0.388 OA
ATOM     42  H6  UNL     1     -27.337   6.387 -28.811  1.00  0.00     0.210 HD
ENDBRANCH   5  41
TORSDOF 10
ENDMDL
