MODEL 1
REMARK VINA RESULT: -9.385816377      0.000      0.000
REMARK  10 active torsions:
REMARK  status: ('A' for Active; 'I' for Inactive)
REMARK    1  A    between atoms: N4_11  and  C5_12 
REMARK    2  A    between atoms: C6_14  and  C7_15 
REMARK    3  A    between atoms: C7_15  and  S1_16 
REMARK    4  A    between atoms: S1_16  and  P1_17 
REMARK    5  A    between atoms: P1_17  and  N5_20 
REMARK    6  A    between atoms: N5_20  and  C8_22 
REMARK    7  A    between atoms: C8_22  and  C9_23 
REMARK    8  A    between atoms: C9_23  and  C10_24 
REMARK    9  A    between atoms: C18_34  and  O5_35 
REMARK   10  A    between atoms: C19_37  and  O6_38 
ROOT
HETATM    1  C5  UNL     1     -30.563   6.149 -24.592  1.00  0.00     0.262 C 
HETATM    2  O2  UNL     1     -30.223   6.524 -25.891  1.00  0.00    -0.355 OA
HETATM    3  C6  UNL     1     -29.387   5.478 -26.273  1.00  0.00     0.165 C 
HETATM    4  C18 UNL     1     -30.314   4.307 -26.015  1.00  0.00     0.180 C 
HETATM    5  C19 UNL     1     -30.953   4.752 -24.691  1.00  0.00     0.198 C 
ENDROOT
BRANCH   3   6
HETATM    6  C7  UNL     1     -29.033   5.529 -27.733  1.00  0.00     0.121 C 
BRANCH   6   7
HETATM    7  S1  UNL     1     -30.014   6.709 -28.587  1.00  0.00    -0.047 SA
BRANCH   7   8
HETATM    8  P1  UNL     1     -31.836   6.203 -29.282  1.00  0.00     0.270 P 
HETATM    9  O3  UNL     1     -32.063   7.479 -30.061  1.00  0.00    -0.644 OA
HETATM   10  O4  UNL     1     -33.237   6.574 -28.351  1.00  0.00    -0.644 OA
BRANCH   8  11
HETATM   11  N5  UNL     1     -32.019   5.096 -30.554  1.00  0.00    -0.340 N 
ATOM     12  H5  UNL     1     -32.897   4.946 -31.051  1.00  0.00     0.164 HD
BRANCH  11  13
HETATM   13  C8  UNL     1     -30.827   4.409 -30.850  1.00  0.00     0.129 C 
BRANCH  13  14
HETATM   14  C9  UNL     1     -30.313   4.480 -32.251  1.00  0.00     0.060 C 
BRANCH  14  15
HETATM   15  C10 UNL     1     -28.861   4.700 -32.316  1.00  0.00    -0.029 A 
HETATM   16  C11 UNL     1     -28.040   4.885 -31.210  1.00  0.00     0.096 A 
HETATM   17  N6  UNL     1     -26.768   5.013 -31.607  1.00  0.00    -0.365 N 
HETATM   18  C12 UNL     1     -26.737   4.917 -32.955  1.00  0.00     0.042 A 
ATOM     19  H6  UNL     1     -25.962   5.159 -30.999  1.00  0.00     0.165 HD
HETATM   20  C13 UNL     1     -25.700   4.991 -33.862  1.00  0.00     0.030 A 
HETATM   21  C17 UNL     1     -28.041   4.722 -33.410  1.00  0.00    -0.002 A 
HETATM   22  C14 UNL     1     -25.942   4.878 -35.202  1.00  0.00     0.002 A 
HETATM   23  C15 UNL     1     -27.230   4.687 -35.656  1.00  0.00     0.001 A 
HETATM   24  C16 UNL     1     -28.271   4.611 -34.759  1.00  0.00     0.014 A 
ENDBRANCH  14  15
ENDBRANCH  13  14
ENDBRANCH  11  13
ENDBRANCH   8  11
ENDBRANCH   7   8
ENDBRANCH   6   7
ENDBRANCH   3   6
BRANCH   4  25
HETATM   25  O5  UNL     1     -29.570   3.166 -25.919  1.00  0.00    -0.390 OA
ATOM     26  H5  UNL     1     -30.154   2.428 -25.789  1.00  0.00     0.210 HD
ENDBRANCH   4  25
BRANCH   1  27
HETATM   27  N4  UNL     1     -31.492   7.095 -24.087  1.00  0.00    -0.297 N 
HETATM   28  C4  UNL     1     -31.888   7.169 -22.802  1.00  0.00     0.188 A 
HETATM   29  N3  UNL     1     -32.768   8.158 -22.635  1.00  0.00    -0.345 N 
HETATM   30  C3  UNL     1     -32.979   8.773 -23.820  1.00  0.00     0.146 A 
ATOM     31  H3  UNL     1     -33.212   8.411 -21.752  1.00  0.00     0.167 HD
HETATM   32  C2  UNL     1     -33.758   9.826 -24.238  1.00  0.00     0.278 A 
HETATM   33  C20 UNL     1     -32.163   8.081 -24.710  1.00  0.00     0.146 A 
HETATM   34  N2  UNL     1     -33.718  10.177 -25.527  1.00  0.00    -0.295 N 
HETATM   35  O1  UNL     1     -34.494  10.455 -23.454  1.00  0.00    -0.265 OA
HETATM   36  C1  UNL     1     -32.938   9.524 -26.411  1.00  0.00     0.196 A 
ATOM     37  H2  UNL     1     -34.291  10.957 -25.849  1.00  0.00     0.171 HD
HETATM   38  N1  UNL     1     -32.882   9.883 -27.787  1.00  0.00    -0.063 NA
HETATM   39  N7  UNL     1     -32.179   8.493 -25.983  1.00  0.00    -0.314 N 
ATOM     40  H7  UNL     1     -31.592   8.006 -26.660  1.00  0.00     0.170 HD
ENDBRANCH   1  27
BRANCH   5  41
HETATM   41  O6  UNL     1     -30.284   3.946 -23.735  1.00  0.00    -0.388 OA
ATOM     42  H6  UNL     1     -29.494   3.557 -24.090  1.00  0.00     0.210 HD
ENDBRANCH   5  41
TORSDOF 10
ENDMDL
