MODEL 3
REMARK VINA RESULT: -9.704148498      2.593      5.318
REMARK  2 active torsions:
REMARK  status: ('A' for Active; 'I' for Inactive)
REMARK    1  A    between atoms: C14_19  and  N3_20 
REMARK    2  A    between atoms: N3_20  and  C15_22 
ROOT
HETATM    1  C1  UNL     1     -22.844 -35.461  -8.468  1.00  0.00     0.039 C 
HETATM    2  C2  UNL     1     -22.157 -34.579  -7.446  1.00  0.00     0.132 A 
HETATM    3  N1  UNL     1     -22.607 -33.230  -7.488  1.00  0.00    -0.347 N 
ATOM      4  H1  UNL     1     -22.499 -32.596  -8.278  1.00  0.00     0.163 HD
HETATM    5  C3  UNL     1     -23.230 -32.907  -6.254  1.00  0.00     0.254 A 
HETATM    6  O1  UNL     1     -23.750 -31.819  -5.909  1.00  0.00    -0.268 OA
HETATM    7  C4  UNL     1     -23.178 -34.076  -5.397  1.00  0.00     0.058 A 
HETATM    8  C5  UNL     1     -23.499 -34.638  -4.151  1.00  0.00     0.049 A 
HETATM    9  C6  UNL     1     -23.074 -35.927  -4.090  1.00  0.00     0.046 A 
HETATM   10  C7  UNL     1     -23.193 -37.016  -3.148  1.00  0.00     0.019 A 
HETATM   11  C8  UNL     1     -23.239 -38.341  -3.639  1.00  0.00     0.016 A 
HETATM   12  C9  UNL     1     -23.336 -39.437  -2.829  1.00  0.00     0.002 A 
HETATM   13  C10 UNL     1     -23.389 -39.233  -1.480  1.00  0.00     0.019 A 
HETATM   14  C11 UNL     1     -23.346 -37.987  -0.936  1.00  0.00     0.061 A 
HETATM   15  C12 UNL     1     -23.365 -37.789   0.431  1.00  0.00     0.274 A 
HETATM   16  O2  UNL     1     -23.460 -38.814   1.152  1.00  0.00    -0.267 OA
HETATM   17  N2  UNL     1     -23.285 -36.549   0.923  1.00  0.00    -0.151 N 
HETATM   18  C13 UNL     1     -23.307 -36.367   2.356  1.00  0.00     0.179 C 
HETATM   19  C14 UNL     1     -23.182 -35.470   0.132  1.00  0.00     0.684 A 
HETATM   20  N4  UNL     1     -23.164 -35.654  -1.203  1.00  0.00    -0.190 N 
ATOM     21  H4  UNL     1     -23.085 -34.833  -1.801  1.00  0.00     0.184 HD
HETATM   22  C19 UNL     1     -23.245 -36.878  -1.796  1.00  0.00     0.077 A 
HETATM   23  N5  UNL     1     -22.490 -36.155  -5.315  1.00  0.00    -0.356 N 
ATOM     24  H5  UNL     1     -22.067 -37.039  -5.598  1.00  0.00     0.166 HD
HETATM   25  C20 UNL     1     -22.551 -35.062  -6.087  1.00  0.00     0.048 A 
ENDROOT
BRANCH  19  26
HETATM   26  N3  UNL     1     -23.092 -34.193   0.682  1.00  0.00    -0.218 N 
ATOM     27  H3  UNL     1     -23.926 -33.862   1.166  1.00  0.00     0.178 HD
BRANCH  26  28
HETATM   28  C15 UNL     1     -21.991 -33.283   0.662  1.00  0.00     0.036 C 
HETATM   29  C16 UNL     1     -21.638 -32.777  -0.721  1.00  0.00     0.038 C 
HETATM   30  C17 UNL     1     -22.306 -32.092   1.533  1.00  0.00     0.038 C 
HETATM   31  C18 UNL     1     -20.745 -33.936   1.299  1.00  0.00     0.038 C 
ENDBRANCH  26  28
ENDBRANCH  19  26
TORSDOF 2
ENDMDL
