MODEL 2
REMARK VINA RESULT: -10.111774219      1.070      1.198
REMARK  2 active torsions:
REMARK  status: ('A' for Active; 'I' for Inactive)
REMARK    1  A    between atoms: C14_19  and  N3_20 
REMARK    2  A    between atoms: N3_20  and  C15_22 
ROOT
HETATM    1  C1  UNL     1     -22.451 -28.804  -6.652  1.00  0.00     0.039 C 
HETATM    2  C2  UNL     1     -23.477 -29.919  -6.631  1.00  0.00     0.132 A 
HETATM    3  N1  UNL     1     -23.476 -30.695  -7.824  1.00  0.00    -0.347 N 
ATOM      4  H1  UNL     1     -23.703 -30.346  -8.755  1.00  0.00     0.163 HD
HETATM    5  C3  UNL     1     -23.107 -32.029  -7.512  1.00  0.00     0.254 A 
HETATM    6  O1  UNL     1     -22.994 -33.005  -8.293  1.00  0.00    -0.268 OA
HETATM    7  C4  UNL     1     -22.868 -32.116  -6.085  1.00  0.00     0.058 A 
HETATM    8  C5  UNL     1     -22.507 -32.928  -4.998  1.00  0.00     0.049 A 
HETATM    9  C6  UNL     1     -22.505 -32.206  -3.848  1.00  0.00     0.046 A 
HETATM   10  C7  UNL     1     -22.138 -32.446  -2.471  1.00  0.00     0.019 A 
HETATM   11  C8  UNL     1     -21.628 -31.375  -1.704  1.00  0.00     0.016 A 
HETATM   12  C9  UNL     1     -21.267 -31.498  -0.391  1.00  0.00     0.002 A 
HETATM   13  C10 UNL     1     -21.410 -32.721   0.200  1.00  0.00     0.019 A 
HETATM   14  C11 UNL     1     -21.897 -33.797  -0.476  1.00  0.00     0.061 A 
HETATM   15  C12 UNL     1     -22.073 -35.021   0.137  1.00  0.00     0.274 A 
HETATM   16  O2  UNL     1     -21.727 -35.108   1.342  1.00  0.00    -0.267 OA
HETATM   17  N2  UNL     1     -22.588 -36.042  -0.555  1.00  0.00    -0.151 N 
HETATM   18  C13 UNL     1     -22.761 -37.314   0.107  1.00  0.00     0.179 C 
HETATM   19  C14 UNL     1     -22.951 -35.924  -1.841  1.00  0.00     0.684 A 
HETATM   20  N4  UNL     1     -22.782 -34.732  -2.447  1.00  0.00    -0.190 N 
ATOM     21  H4  UNL     1     -23.060 -34.645  -3.424  1.00  0.00     0.184 HD
HETATM   22  C19 UNL     1     -22.261 -33.638  -1.825  1.00  0.00     0.077 A 
HETATM   23  N5  UNL     1     -22.867 -30.937  -4.238  1.00  0.00    -0.356 N 
ATOM     24  H5  UNL     1     -22.959 -30.142  -3.605  1.00  0.00     0.166 HD
HETATM   25  C20 UNL     1     -23.082 -30.884  -5.558  1.00  0.00     0.048 A 
ENDROOT
BRANCH  19  26
HETATM   26  N3  UNL     1     -23.494 -37.009  -2.528  1.00  0.00    -0.218 N 
ATOM     27  H3  UNL     1     -24.120 -37.604  -1.986  1.00  0.00     0.178 HD
BRANCH  26  28
HETATM   28  C15 UNL     1     -23.293 -37.402  -3.886  1.00  0.00     0.036 C 
HETATM   29  C16 UNL     1     -22.061 -36.797  -4.526  1.00  0.00     0.038 C 
HETATM   30  C17 UNL     1     -23.174 -38.905  -3.962  1.00  0.00     0.038 C 
HETATM   31  C18 UNL     1     -24.533 -37.048  -4.735  1.00  0.00     0.038 C 
ENDBRANCH  26  28
ENDBRANCH  19  26
TORSDOF 2
ENDMDL
