MODEL 1
REMARK VINA RESULT: -10.222436702      0.000      0.000
REMARK  2 active torsions:
REMARK  status: ('A' for Active; 'I' for Inactive)
REMARK    1  A    between atoms: C14_19  and  N3_20 
REMARK    2  A    between atoms: N3_20  and  C15_22 
ROOT
HETATM    1  C1  UNL     1     -22.617 -27.542  -4.977  1.00  0.00     0.039 C 
HETATM    2  C2  UNL     1     -23.590 -28.684  -5.178  1.00  0.00     0.132 A 
HETATM    3  N1  UNL     1     -23.571 -29.201  -6.504  1.00  0.00    -0.347 N 
ATOM      4  H1  UNL     1     -23.827 -28.682  -7.344  1.00  0.00     0.163 HD
HETATM    5  C3  UNL     1     -23.139 -30.552  -6.473  1.00  0.00     0.254 A 
HETATM    6  O1  UNL     1     -22.992 -31.342  -7.437  1.00  0.00    -0.268 OA
HETATM    7  C4  UNL     1     -22.875 -30.915  -5.094  1.00  0.00     0.058 A 
HETATM    8  C5  UNL     1     -22.462 -31.914  -4.197  1.00  0.00     0.049 A 
HETATM    9  C6  UNL     1     -22.477 -31.441  -2.924  1.00  0.00     0.046 A 
HETATM   10  C7  UNL     1     -22.080 -31.938  -1.627  1.00  0.00     0.019 A 
HETATM   11  C8  UNL     1     -21.608 -31.022  -0.659  1.00  0.00     0.016 A 
HETATM   12  C9  UNL     1     -21.223 -31.392   0.599  1.00  0.00     0.002 A 
HETATM   13  C10 UNL     1     -21.303 -32.715   0.929  1.00  0.00     0.019 A 
HETATM   14  C11 UNL     1     -21.750 -33.652   0.051  1.00  0.00     0.061 A 
HETATM   15  C12 UNL     1     -21.862 -34.983   0.403  1.00  0.00     0.274 A 
HETATM   16  O2  UNL     1     -21.496 -35.297   1.563  1.00  0.00    -0.267 OA
HETATM   17  N2  UNL     1     -22.341 -35.865  -0.481  1.00  0.00    -0.151 N 
HETATM   18  C13 UNL     1     -22.446 -37.252  -0.090  1.00  0.00     0.179 C 
HETATM   19  C14 UNL     1     -22.726 -35.506  -1.714  1.00  0.00     0.684 A 
HETATM   20  N4  UNL     1     -22.620 -34.209  -2.065  1.00  0.00    -0.190 N 
ATOM     21  H4  UNL     1     -22.916 -33.938  -3.003  1.00  0.00     0.184 HD
HETATM   22  C19 UNL     1     -22.140 -33.240  -1.236  1.00  0.00     0.077 A 
HETATM   23  N5  UNL     1     -22.901 -30.137  -3.046  1.00  0.00    -0.356 N 
ATOM     24  H5  UNL     1     -23.020 -29.493  -2.264  1.00  0.00     0.166 HD
HETATM   25  C20 UNL     1     -23.137 -29.827  -4.327  1.00  0.00     0.048 A 
ENDROOT
BRANCH  19  26
HETATM   26  N3  UNL     1     -23.229 -36.452  -2.604  1.00  0.00    -0.218 N 
ATOM     27  H3  UNL     1     -23.901 -37.112  -2.212  1.00  0.00     0.178 HD
BRANCH  26  28
HETATM   28  C15 UNL     1     -22.933 -36.627  -3.990  1.00  0.00     0.036 C 
HETATM   29  C16 UNL     1     -21.661 -35.939  -4.438  1.00  0.00     0.038 C 
HETATM   30  C17 UNL     1     -22.805 -38.099  -4.295  1.00  0.00     0.038 C 
HETATM   31  C18 UNL     1     -24.111 -36.132  -4.856  1.00  0.00     0.038 C 
ENDBRANCH  26  28
ENDBRANCH  19  26
TORSDOF 2
ENDMDL
