MODEL 13
REMARK VINA RESULT: -9.062636307      3.406      5.757
REMARK  2 active torsions:
REMARK  status: ('A' for Active; 'I' for Inactive)
REMARK    1  A    between atoms: C14_19  and  N3_20 
REMARK    2  A    between atoms: N3_20  and  C15_22 
ROOT
HETATM    1  C1  UNL     1     -22.262 -32.198   3.845  1.00  0.00     0.039 C 
HETATM    2  C2  UNL     1     -22.623 -31.803   2.427  1.00  0.00     0.132 A 
HETATM    3  N1  UNL     1     -21.693 -30.891   1.854  1.00  0.00    -0.347 N 
ATOM      4  H1  UNL     1     -21.506 -29.948   2.192  1.00  0.00     0.163 HD
HETATM    5  C3  UNL     1     -21.068 -31.503   0.736  1.00  0.00     0.254 A 
HETATM    6  O1  UNL     1     -20.194 -31.020  -0.025  1.00  0.00    -0.268 OA
HETATM    7  C4  UNL     1     -21.609 -32.840   0.585  1.00  0.00     0.058 A 
HETATM    8  C5  UNL     1     -21.599 -34.039  -0.145  1.00  0.00     0.049 A 
HETATM    9  C6  UNL     1     -22.484 -34.923   0.386  1.00  0.00     0.046 A 
HETATM   10  C7  UNL     1     -22.843 -36.302   0.149  1.00  0.00     0.019 A 
HETATM   11  C8  UNL     1     -23.274 -37.092   1.238  1.00  0.00     0.016 A 
HETATM   12  C9  UNL     1     -23.648 -38.401   1.114  1.00  0.00     0.002 A 
HETATM   13  C10 UNL     1     -23.601 -38.964  -0.130  1.00  0.00     0.019 A 
HETATM   14  C11 UNL     1     -23.200 -38.264  -1.225  1.00  0.00     0.061 A 
HETATM   15  C12 UNL     1     -23.188 -38.829  -2.485  1.00  0.00     0.274 A 
HETATM   16  O2  UNL     1     -23.531 -40.035  -2.570  1.00  0.00    -0.267 OA
HETATM   17  N2  UNL     1     -22.820 -38.093  -3.538  1.00  0.00    -0.151 N 
HETATM   18  C13 UNL     1     -22.815 -38.706  -4.846  1.00  0.00     0.179 C 
HETATM   19  C14 UNL     1     -22.460 -36.806  -3.422  1.00  0.00     0.684 A 
HETATM   20  N4  UNL     1     -22.468 -36.248  -2.196  1.00  0.00    -0.190 N 
ATOM     21  H4  UNL     1     -22.194 -35.269  -2.111  1.00  0.00     0.184 HD
HETATM   22  C19 UNL     1     -22.822 -36.919  -1.064  1.00  0.00     0.077 A 
HETATM   23  N5  UNL     1     -23.038 -34.256   1.455  1.00  0.00    -0.356 N 
ATOM     24  H5  UNL     1     -23.747 -34.646   2.075  1.00  0.00     0.166 HD
HETATM   25  C20 UNL     1     -22.522 -33.026   1.572  1.00  0.00     0.048 A 
ENDROOT
BRANCH  19  26
HETATM   26  N3  UNL     1     -22.091 -36.069  -4.545  1.00  0.00    -0.218 N 
ATOM     27  H3  UNL     1     -22.194 -36.548  -5.440  1.00  0.00     0.178 HD
BRANCH  26  28
HETATM   28  C15 UNL     1     -21.589 -34.734  -4.617  1.00  0.00     0.036 C 
HETATM   29  C16 UNL     1     -20.283 -34.528  -3.879  1.00  0.00     0.038 C 
HETATM   30  C17 UNL     1     -21.380 -34.352  -6.062  1.00  0.00     0.038 C 
HETATM   31  C18 UNL     1     -22.639 -33.737  -4.080  1.00  0.00     0.038 C 
ENDBRANCH  26  28
ENDBRANCH  19  26
TORSDOF 2
ENDMDL
