MODEL 6
REMARK VINA RESULT: -9.526005103      6.496      9.703
REMARK  10 active torsions:
REMARK  status: ('A' for Active; 'I' for Inactive)
REMARK    1  A    between atoms: N4_10  and  C5_11 
REMARK    2  A    between atoms: C6_13  and  C7_14 
REMARK    3  A    between atoms: C7_14  and  O2_15 
REMARK    4  A    between atoms: O2_15  and  P1_16 
REMARK    5  A    between atoms: P1_16  and  O5_19 
REMARK    6  A    between atoms: O5_19  and  P2_20 
REMARK    7  A    between atoms: P2_20  and  O8_23 
REMARK    8  A    between atoms: O8_23  and  P3_24 
REMARK    9  A    between atoms: C8_28  and  O11_29 
REMARK   10  A    between atoms: C9_31  and  O12_32 
ROOT
HETATM    1  C5  UNL     1      23.640  28.859  84.524  1.00  0.00     0.262 C 
HETATM    2  O1  UNL     1      24.595  29.080  83.540  1.00  0.00    -0.353 OA
HETATM    3  C6  UNL     1      25.782  28.918  84.292  1.00  0.00     0.180 C 
HETATM    4  C8  UNL     1      25.572  27.618  84.994  1.00  0.00     0.182 C 
HETATM    5  C9  UNL     1      24.048  27.519  85.066  1.00  0.00     0.198 C 
ENDROOT
BRANCH   1   6
HETATM    6  N4  UNL     1      22.290  28.882  84.030  1.00  0.00    -0.297 N 
HETATM    7  C2  UNL     1      21.926  28.665  82.749  1.00  0.00     0.146 A 
HETATM    8  N2  UNL     1      22.649  28.387  81.649  1.00  0.00    -0.314 N 
HETATM    9  C3  UNL     1      20.547  28.761  82.616  1.00  0.00     0.146 A 
HETATM   10  C1  UNL     1      22.031  28.212  80.471  1.00  0.00     0.196 A 
ATOM     11  H2  UNL     1      23.663  28.308  81.710  1.00  0.00     0.170 HD
HETATM   12  N1  UNL     1      22.846  27.918  79.328  1.00  0.00    -0.063 NA
HETATM   13  N5  UNL     1      20.675  28.305  80.334  1.00  0.00    -0.295 N 
HETATM   14  C10 UNL     1      19.920  28.581  81.405  1.00  0.00     0.278 A 
ATOM     15  H5  UNL     1      20.241  28.165  79.421  1.00  0.00     0.171 HD
HETATM   16  O13 UNL     1      18.681  28.662  81.262  1.00  0.00    -0.265 OA
HETATM   17  N3  UNL     1      20.087  29.042  83.854  1.00  0.00    -0.345 N 
HETATM   18  C4  UNL     1      21.146  29.113  84.699  1.00  0.00     0.188 A 
ATOM     19  H3  UNL     1      19.109  29.179  84.111  1.00  0.00     0.167 HD
ENDBRANCH   1   6
BRANCH   5  20
HETATM   20  O12 UNL     1      23.613  27.441  86.388  1.00  0.00    -0.388 OA
ATOM     21  H12 UNL     1      23.896  26.606  86.740  1.00  0.00     0.210 HD
ENDBRANCH   5  20
BRANCH   3  22
HETATM   22  C7  UNL     1      26.993  28.907  83.375  1.00  0.00     0.216 C 
BRANCH  22  23
HETATM   23  O2  UNL     1      27.824  27.914  83.813  1.00  0.00    -0.287 OA
BRANCH  23  24
HETATM   24  P1  UNL     1      29.318  28.533  84.124  1.00  0.00     0.417 P 
HETATM   25  O3  UNL     1      30.603  27.501  84.281  1.00  0.00    -0.624 OA
HETATM   26  O4  UNL     1      29.591  28.731  82.629  1.00  0.00    -0.624 OA
BRANCH  24  27
HETATM   27  O5  UNL     1      28.997  28.446  85.632  1.00  0.00    -0.180 OA
BRANCH  27  28
HETATM   28  P2  UNL     1      29.342  29.423  86.780  1.00  0.00     0.426 P 
HETATM   29  O6  UNL     1      29.894  28.276  87.785  1.00  0.00    -0.624 OA
HETATM   30  O7  UNL     1      27.717  29.793  86.857  1.00  0.00    -0.624 OA
BRANCH  28  31
HETATM   31  O8  UNL     1      29.605  30.567  87.786  1.00  0.00    -0.191 OA
BRANCH  31  32
HETATM   32  P3  UNL     1      31.021  31.231  88.127  1.00  0.00     0.358 P 
HETATM   33  O9  UNL     1      31.761  30.750  86.879  1.00  0.00    -0.635 OA
HETATM   34  O10 UNL     1      32.100  30.542  89.175  1.00  0.00    -0.635 OA
HETATM   35  S1  UNL     1      31.472  33.194  87.433  1.00  0.00     0.013 SA
ENDBRANCH  31  32
ENDBRANCH  28  31
ENDBRANCH  27  28
ENDBRANCH  24  27
ENDBRANCH  23  24
ENDBRANCH  22  23
ENDBRANCH   3  22
BRANCH   4  36
HETATM   36  O11 UNL     1      26.050  27.665  86.286  1.00  0.00    -0.390 OA
ATOM     37  H11 UNL     1      26.923  28.037  86.316  1.00  0.00     0.210 HD
ENDBRANCH   4  36
TORSDOF 10
ENDMDL
