MODEL 5
REMARK VINA RESULT: -9.684377600      2.987      4.843
REMARK  10 active torsions:
REMARK  status: ('A' for Active; 'I' for Inactive)
REMARK    1  A    between atoms: N4_10  and  C5_11 
REMARK    2  A    between atoms: C6_13  and  C7_14 
REMARK    3  A    between atoms: C7_14  and  O2_15 
REMARK    4  A    between atoms: O2_15  and  P1_16 
REMARK    5  A    between atoms: P1_16  and  O5_19 
REMARK    6  A    between atoms: O5_19  and  P2_20 
REMARK    7  A    between atoms: P2_20  and  O8_23 
REMARK    8  A    between atoms: O8_23  and  P3_24 
REMARK    9  A    between atoms: C8_28  and  O11_29 
REMARK   10  A    between atoms: C9_31  and  O12_32 
ROOT
HETATM    1  C5  UNL     1      30.742  29.708  87.965  1.00  0.00     0.262 C 
HETATM    2  O1  UNL     1      29.687  29.233  87.197  1.00  0.00    -0.353 OA
HETATM    3  C6  UNL     1      28.931  30.418  87.036  1.00  0.00     0.180 C 
HETATM    4  C8  UNL     1      29.942  31.411  86.568  1.00  0.00     0.182 C 
HETATM    5  C9  UNL     1      31.248  30.853  87.135  1.00  0.00     0.198 C 
ENDROOT
BRANCH   1   6
HETATM    6  N4  UNL     1      31.749  28.717  88.234  1.00  0.00    -0.297 N 
HETATM    7  C2  UNL     1      31.959  27.603  87.504  1.00  0.00     0.146 A 
HETATM    8  N2  UNL     1      31.348  27.126  86.404  1.00  0.00    -0.314 N 
HETATM    9  C3  UNL     1      33.007  26.865  88.039  1.00  0.00     0.146 A 
HETATM   10  C1  UNL     1      31.757  25.969  85.861  1.00  0.00     0.196 A 
ATOM     11  H2  UNL     1      30.575  27.642  85.984  1.00  0.00     0.170 HD
HETATM   12  N1  UNL     1      31.073  25.504  84.689  1.00  0.00    -0.063 NA
HETATM   13  N5  UNL     1      32.787  25.239  86.382  1.00  0.00    -0.295 N 
HETATM   14  C10 UNL     1      33.421  25.680  87.476  1.00  0.00     0.278 A 
ATOM     15  H5  UNL     1      33.071  24.364  85.941  1.00  0.00     0.171 HD
HETATM   16  O13 UNL     1      34.362  24.999  87.941  1.00  0.00    -0.265 OA
HETATM   17  N3  UNL     1      33.424  27.566  89.115  1.00  0.00    -0.345 N 
HETATM   18  C4  UNL     1      32.659  28.680  89.223  1.00  0.00     0.188 A 
ATOM     19  H3  UNL     1      34.186  27.302  89.740  1.00  0.00     0.167 HD
ENDBRANCH   1   6
BRANCH   5  20
HETATM   20  O12 UNL     1      31.853  31.769  87.992  1.00  0.00    -0.388 OA
ATOM     21  H12 UNL     1      32.454  32.297  87.479  1.00  0.00     0.210 HD
ENDBRANCH   5  20
BRANCH   3  22
HETATM   22  C7  UNL     1      27.808  30.199  86.037  1.00  0.00     0.216 C 
BRANCH  22  23
HETATM   23  O2  UNL     1      26.701  29.826  86.746  1.00  0.00    -0.287 OA
BRANCH  23  24
HETATM   24  P1  UNL     1      25.807  28.762  85.865  1.00  0.00     0.417 P 
HETATM   25  O3  UNL     1      26.242  28.443  84.299  1.00  0.00    -0.624 OA
HETATM   26  O4  UNL     1      26.626  27.577  86.389  1.00  0.00    -0.624 OA
BRANCH  24  27
HETATM   27  O5  UNL     1      24.907  29.938  85.430  1.00  0.00    -0.180 OA
BRANCH  27  28
HETATM   28  P2  UNL     1      23.380  29.984  85.184  1.00  0.00     0.426 P 
HETATM   29  O6  UNL     1      23.295  31.601  85.099  1.00  0.00    -0.624 OA
HETATM   30  O7  UNL     1      23.191  29.284  86.687  1.00  0.00    -0.624 OA
BRANCH  28  31
HETATM   31  O8  UNL     1      21.863  29.796  84.954  1.00  0.00    -0.191 OA
BRANCH  31  32
HETATM   32  P3  UNL     1      21.172  29.029  83.730  1.00  0.00     0.358 P 
HETATM   33  O9  UNL     1      20.900  30.259  82.865  1.00  0.00    -0.635 OA
HETATM   34  O10 UNL     1      19.589  28.552  83.756  1.00  0.00    -0.635 OA
HETATM   35  S1  UNL     1      22.356  28.348  82.096  1.00  0.00     0.013 SA
ENDBRANCH  31  32
ENDBRANCH  28  31
ENDBRANCH  27  28
ENDBRANCH  24  27
ENDBRANCH  23  24
ENDBRANCH  22  23
ENDBRANCH   3  22
BRANCH   4  36
HETATM   36  O11 UNL     1      29.731  32.646  87.141  1.00  0.00    -0.390 OA
ATOM     37  H11 UNL     1      29.481  32.564  88.053  1.00  0.00     0.210 HD
ENDBRANCH   4  36
TORSDOF 10
ENDMDL
