MODEL 1
REMARK VINA RESULT: -10.801566704      0.000      0.000
REMARK  10 active torsions:
REMARK  status: ('A' for Active; 'I' for Inactive)
REMARK    1  A    between atoms: N4_10  and  C5_11 
REMARK    2  A    between atoms: C6_13  and  C7_14 
REMARK    3  A    between atoms: C7_14  and  O2_15 
REMARK    4  A    between atoms: O2_15  and  P1_16 
REMARK    5  A    between atoms: P1_16  and  O5_19 
REMARK    6  A    between atoms: O5_19  and  P2_20 
REMARK    7  A    between atoms: P2_20  and  O8_23 
REMARK    8  A    between atoms: O8_23  and  P3_24 
REMARK    9  A    between atoms: C8_28  and  O11_29 
REMARK   10  A    between atoms: C9_31  and  O12_32 
ROOT
HETATM    1  C5  UNL     1      30.175  30.773  86.389  1.00  0.00     0.262 C 
HETATM    2  O1  UNL     1      28.875  30.434  86.035  1.00  0.00    -0.353 OA
HETATM    3  C6  UNL     1      29.118  29.316  85.203  1.00  0.00     0.180 C 
HETATM    4  C8  UNL     1      30.024  28.463  86.026  1.00  0.00     0.182 C 
HETATM    5  C9  UNL     1      30.700  29.481  86.946  1.00  0.00     0.198 C 
ENDROOT
BRANCH   1   6
HETATM    6  N4  UNL     1      30.250  31.863  87.324  1.00  0.00    -0.297 N 
HETATM    7  C2  UNL     1      31.068  32.930  87.210  1.00  0.00     0.146 A 
HETATM    8  N2  UNL     1      31.974  33.267  86.275  1.00  0.00    -0.314 N 
HETATM    9  C3  UNL     1      30.887  33.793  88.284  1.00  0.00     0.146 A 
HETATM   10  C1  UNL     1      32.670  34.407  86.399  1.00  0.00     0.196 A 
ATOM     11  H2  UNL     1      32.132  32.657  85.473  1.00  0.00     0.170 HD
HETATM   12  N1  UNL     1      33.624  34.720  85.375  1.00  0.00    -0.063 NA
HETATM   13  N5  UNL     1      32.497  35.260  87.452  1.00  0.00    -0.295 N 
HETATM   14  C10 UNL     1      31.604  34.961  88.404  1.00  0.00     0.278 A 
ATOM     15  H5  UNL     1      33.044  36.119  87.512  1.00  0.00     0.171 HD
HETATM   16  O13 UNL     1      31.458  35.752  89.361  1.00  0.00    -0.265 OA
HETATM   17  N3  UNL     1      29.937  33.216  89.050  1.00  0.00    -0.345 N 
HETATM   18  C4  UNL     1      29.560  32.053  88.462  1.00  0.00     0.188 A 
ATOM     19  H3  UNL     1      29.565  33.592  89.923  1.00  0.00     0.167 HD
ENDBRANCH   1   6
BRANCH   5  20
HETATM   20  O12 UNL     1      32.082  29.470  86.775  1.00  0.00    -0.388 OA
ATOM     21  H12 UNL     1      32.461  30.050  87.425  1.00  0.00     0.210 HD
ENDBRANCH   5  20
BRANCH   3  22
HETATM   22  C7  UNL     1      27.813  28.625  84.849  1.00  0.00     0.216 C 
BRANCH  22  23
HETATM   23  O2  UNL     1      26.806  29.522  85.070  1.00  0.00    -0.287 OA
BRANCH  23  24
HETATM   24  P1  UNL     1      25.664  28.850  86.047  1.00  0.00     0.417 P 
HETATM   25  O3  UNL     1      24.584  27.772  85.405  1.00  0.00    -0.624 OA
HETATM   26  O4  UNL     1      26.622  27.726  86.459  1.00  0.00    -0.624 OA
BRANCH  24  27
HETATM   27  O5  UNL     1      24.742  30.045  85.726  1.00  0.00    -0.180 OA
BRANCH  27  28
HETATM   28  P2  UNL     1      23.249  30.068  85.319  1.00  0.00     0.426 P 
HETATM   29  O6  UNL     1      23.247  31.625  84.864  1.00  0.00    -0.624 OA
HETATM   30  O7  UNL     1      22.885  29.736  86.914  1.00  0.00    -0.624 OA
BRANCH  28  31
HETATM   31  O8  UNL     1      21.754  29.867  84.982  1.00  0.00    -0.191 OA
BRANCH  31  32
HETATM   32  P3  UNL     1      21.158  29.058  83.736  1.00  0.00     0.358 P 
HETATM   33  O9  UNL     1      20.901  30.264  82.833  1.00  0.00    -0.635 OA
HETATM   34  O10 UNL     1      19.591  28.533  83.680  1.00  0.00    -0.635 OA
HETATM   35  S1  UNL     1      22.455  28.385  82.186  1.00  0.00     0.013 SA
ENDBRANCH  31  32
ENDBRANCH  28  31
ENDBRANCH  27  28
ENDBRANCH  24  27
ENDBRANCH  23  24
ENDBRANCH  22  23
ENDBRANCH   3  22
BRANCH   4  36
HETATM   36  O11 UNL     1      31.004  27.883  85.251  1.00  0.00    -0.390 OA
ATOM     37  H11 UNL     1      31.595  28.537  84.898  1.00  0.00     0.210 HD
ENDBRANCH   4  36
TORSDOF 10
ENDMDL
