MODEL 4
REMARK VINA RESULT: -9.796147105      5.735      9.599
REMARK  10 active torsions:
REMARK  status: ('A' for Active; 'I' for Inactive)
REMARK    1  A    between atoms: N4_10  and  C5_11 
REMARK    2  A    between atoms: C6_13  and  C7_14 
REMARK    3  A    between atoms: C7_14  and  O2_15 
REMARK    4  A    between atoms: O2_15  and  P1_16 
REMARK    5  A    between atoms: P1_16  and  O5_19 
REMARK    6  A    between atoms: O5_19  and  P2_20 
REMARK    7  A    between atoms: P2_20  and  O8_23 
REMARK    8  A    between atoms: O8_23  and  P3_24 
REMARK    9  A    between atoms: C8_28  and  O11_29 
REMARK   10  A    between atoms: C9_31  and  O12_32 
ROOT
HETATM    1  C5  UNL     1      24.898  29.125  84.692  1.00  0.00     0.262 C 
HETATM    2  O1  UNL     1      26.272  29.130  84.489  1.00  0.00    -0.353 OA
HETATM    3  C6  UNL     1      26.722  29.458  85.789  1.00  0.00     0.180 C 
HETATM    4  C8  UNL     1      25.996  28.489  86.662  1.00  0.00     0.182 C 
HETATM    5  C9  UNL     1      24.749  28.166  85.838  1.00  0.00     0.198 C 
ENDROOT
BRANCH   1   6
HETATM    6  N4  UNL     1      24.147  28.736  83.529  1.00  0.00    -0.297 N 
HETATM    7  C2  UNL     1      22.801  28.714  83.443  1.00  0.00     0.146 A 
HETATM    8  N2  UNL     1      21.843  29.022  84.336  1.00  0.00    -0.314 N 
HETATM    9  C3  UNL     1      22.404  28.290  82.181  1.00  0.00     0.146 A 
HETATM   10  C1  UNL     1      20.550  28.913  83.993  1.00  0.00     0.196 A 
ATOM     11  H2  UNL     1      22.098  29.338  85.271  1.00  0.00     0.170 HD
HETATM   12  N1  UNL     1      19.568  29.253  84.980  1.00  0.00    -0.063 NA
HETATM   13  N5  UNL     1      20.154  28.496  82.753  1.00  0.00    -0.295 N 
HETATM   14  C10 UNL     1      21.077  28.180  81.836  1.00  0.00     0.278 A 
ATOM     15  H5  UNL     1      19.161  28.427  82.528  1.00  0.00     0.171 HD
HETATM   16  O13 UNL     1      20.697  27.801  80.707  1.00  0.00    -0.265 OA
HETATM   17  N3  UNL     1      23.550  28.055  81.507  1.00  0.00    -0.345 N 
HETATM   18  C4  UNL     1      24.594  28.327  82.328  1.00  0.00     0.188 A 
ATOM     19  H3  UNL     1      23.619  27.728  80.542  1.00  0.00     0.167 HD
ENDBRANCH   1   6
BRANCH   5  20
HETATM   20  O12 UNL     1      23.589  28.504  86.532  1.00  0.00    -0.388 OA
ATOM     21  H12 UNL     1      23.838  29.045  87.271  1.00  0.00     0.210 HD
ENDBRANCH   5  20
BRANCH   3  22
HETATM   22  C7  UNL     1      28.232  29.319  85.878  1.00  0.00     0.216 C 
BRANCH  22  23
HETATM   23  O2  UNL     1      28.497  28.368  86.823  1.00  0.00    -0.287 OA
BRANCH  23  24
HETATM   24  P1  UNL     1      30.089  27.953  86.767  1.00  0.00     0.417 P 
HETATM   25  O3  UNL     1      30.601  26.600  87.571  1.00  0.00    -0.624 OA
HETATM   26  O4  UNL     1      29.880  27.167  85.467  1.00  0.00    -0.624 OA
BRANCH  24  27
HETATM   27  O5  UNL     1      30.324  28.843  88.007  1.00  0.00    -0.180 OA
BRANCH  27  28
HETATM   28  P2  UNL     1      31.035  30.212  88.129  1.00  0.00     0.426 P 
HETATM   29  O6  UNL     1      32.042  29.963  86.882  1.00  0.00    -0.624 OA
HETATM   30  O7  UNL     1      31.552  29.726  89.640  1.00  0.00    -0.624 OA
BRANCH  28  31
HETATM   31  O8  UNL     1      31.604  31.616  88.434  1.00  0.00    -0.191 OA
BRANCH  31  32
HETATM   32  P3  UNL     1      31.205  32.985  87.706  1.00  0.00     0.358 P 
HETATM   33  O9  UNL     1      29.974  32.456  86.970  1.00  0.00    -0.635 OA
HETATM   34  O10 UNL     1      31.949  33.512  86.327  1.00  0.00    -0.635 OA
HETATM   35  S1  UNL     1      29.854  34.336  88.649  1.00  0.00     0.013 SA
ENDBRANCH  31  32
ENDBRANCH  28  31
ENDBRANCH  27  28
ENDBRANCH  24  27
ENDBRANCH  23  24
ENDBRANCH  22  23
ENDBRANCH   3  22
BRANCH   4  36
HETATM   36  O11 UNL     1      25.581  29.085  87.832  1.00  0.00    -0.390 OA
ATOM     37  H11 UNL     1      25.098  28.476  88.377  1.00  0.00     0.210 HD
ENDBRANCH   4  36
TORSDOF 10
ENDMDL
