MODEL 19
REMARK VINA RESULT: -6.698086515      1.227      1.593
REMARK  8 active torsions:
REMARK  status: ('A' for Active; 'I' for Inactive)
REMARK    1  A    between atoms: C2_2  and  N1_3 
REMARK    2  A    between atoms: C2_2  and  C9_18 
REMARK    3  A    between atoms: N1_3  and  C3_6 
REMARK    4  A    between atoms: C3_6  and  C4_7 
REMARK    5  A    between atoms: C3_6  and  C8_15 
REMARK    6  A    between atoms: C4_7  and  C5_8 
REMARK    7  A    between atoms: C5_8  and  C6_9 
REMARK    8  A    between atoms: C6_9  and  N2_10 
ROOT
HETATM    1  C3  UNL     1      17.774  -6.631  -3.625  1.00  0.00     0.286 C 
ENDROOT
BRANCH   1   2
HETATM    2  N1  UNL     1      18.389  -7.724  -2.928  1.00  0.00    -0.047 N 
ATOM      3  H12 UNL     1      19.385  -7.773  -3.147  1.00  0.00     0.279 HD
ATOM      4  H11 UNL     1      18.083  -8.615  -3.319  1.00  0.00     0.279 HD
BRANCH   2   5
HETATM    5  C2  UNL     1      18.188  -7.701  -1.514  1.00  0.00     0.282 C 
HETATM    6  C1  UNL     1      16.879  -7.071  -1.086  1.00  0.00     0.052 C 
BRANCH   5   7
HETATM    7  C9  UNL     1      19.306  -7.075  -0.754  1.00  0.00     0.204 C 
HETATM    8  O3  UNL     1      19.210  -6.509   0.338  1.00  0.00    -0.646 OA
HETATM    9  O4  UNL     1      20.564  -7.143  -1.345  1.00  0.00    -0.646 OA
ENDBRANCH   5   7
ENDBRANCH   2   5
ENDBRANCH   1   2
BRANCH   1  10
HETATM   10  C4  UNL     1      18.756  -6.034  -4.595  1.00  0.00     0.046 C 
BRANCH  10  11
HETATM   11  C5  UNL     1      18.422  -6.185  -6.036  1.00  0.00     0.022 C 
BRANCH  11  12
HETATM   12  C6  UNL     1      19.600  -6.927  -6.678  1.00  0.00     0.122 C 
BRANCH  12  13
HETATM   13  N2  UNL     1      19.607  -6.704  -8.101  1.00  0.00    -0.367 N 
HETATM   14  C7  UNL     1      20.286  -7.420  -8.916  1.00  0.00     0.196 C 
HETATM   15  N3  UNL     1      20.275  -7.179 -10.315  1.00  0.00    -0.067 NA
HETATM   16  N4  UNL     1      21.084  -8.501  -8.413  1.00  0.00    -0.067 NA
ATOM     17  H2  UNL     1      19.043  -5.940  -8.476  1.00  0.00     0.161 HD
ENDBRANCH  12  13
ENDBRANCH  11  12
ENDBRANCH  10  11
ENDBRANCH   1  10
BRANCH   1  18
HETATM   18  C8  UNL     1      16.632  -7.128  -4.423  1.00  0.00     0.204 C 
HETATM   19  O1  UNL     1      15.630  -6.410  -4.581  1.00  0.00    -0.646 OA
HETATM   20  O2  UNL     1      16.668  -8.380  -4.995  1.00  0.00    -0.646 OA
ENDBRANCH   1  18
TORSDOF 8
ENDMDL
