MODEL 2
REMARK VINA RESULT: -7.491065019      1.432      1.659
REMARK  8 active torsions:
REMARK  status: ('A' for Active; 'I' for Inactive)
REMARK    1  A    between atoms: C2_2  and  N1_3 
REMARK    2  A    between atoms: C2_2  and  C9_18 
REMARK    3  A    between atoms: N1_3  and  C3_6 
REMARK    4  A    between atoms: C3_6  and  C4_7 
REMARK    5  A    between atoms: C3_6  and  C8_15 
REMARK    6  A    between atoms: C4_7  and  C5_8 
REMARK    7  A    between atoms: C5_8  and  C6_9 
REMARK    8  A    between atoms: C6_9  and  N2_10 
ROOT
HETATM    1  C3  UNL     1      17.828  -6.264  -4.336  1.00  0.00     0.286 C 
ENDROOT
BRANCH   1   2
HETATM    2  N1  UNL     1      18.693  -7.125  -3.580  1.00  0.00    -0.047 N 
ATOM      3  H12 UNL     1      19.519  -7.371  -4.125  1.00  0.00     0.279 HD
ATOM      4  H11 UNL     1      18.274  -8.048  -3.474  1.00  0.00     0.279 HD
BRANCH   2   5
HETATM    5  C2  UNL     1      19.072  -6.598  -2.307  1.00  0.00     0.282 C 
HETATM    6  C1  UNL     1      20.278  -7.278  -1.691  1.00  0.00     0.052 C 
BRANCH   5   7
HETATM    7  C9  UNL     1      17.964  -6.566  -1.311  1.00  0.00     0.204 C 
HETATM    8  O3  UNL     1      17.540  -7.532  -0.670  1.00  0.00    -0.646 OA
HETATM    9  O4  UNL     1      17.365  -5.328  -1.098  1.00  0.00    -0.646 OA
ENDBRANCH   5   7
ENDBRANCH   2   5
ENDBRANCH   1   2
BRANCH   1  10
HETATM   10  C4  UNL     1      18.511  -5.861  -5.614  1.00  0.00     0.046 C 
BRANCH  10  11
HETATM   11  C5  UNL     1      19.657  -6.711  -6.034  1.00  0.00     0.022 C 
BRANCH  11  12
HETATM   12  C6  UNL     1      19.541  -6.873  -7.555  1.00  0.00     0.122 C 
BRANCH  12  13
HETATM   13  N2  UNL     1      20.360  -7.972  -7.997  1.00  0.00    -0.367 N 
HETATM   14  C7  UNL     1      20.749  -8.109  -9.209  1.00  0.00     0.196 C 
HETATM   15  N3  UNL     1      21.556  -9.202  -9.620  1.00  0.00    -0.067 NA
HETATM   16  N4  UNL     1      20.367  -7.133 -10.189  1.00  0.00    -0.067 NA
ATOM     17  H2  UNL     1      20.642  -8.675  -7.313  1.00  0.00     0.161 HD
ENDBRANCH  12  13
ENDBRANCH  11  12
ENDBRANCH  10  11
ENDBRANCH   1  10
BRANCH   1  18
HETATM   18  C8  UNL     1      16.603  -6.999  -4.717  1.00  0.00     0.204 C 
HETATM   19  O1  UNL     1      15.498  -6.432  -4.654  1.00  0.00    -0.646 OA
HETATM   20  O2  UNL     1      16.672  -8.306  -5.143  1.00  0.00    -0.646 OA
ENDBRANCH   1  18
TORSDOF 8
ENDMDL
