MODEL 3
REMARK VINA RESULT: -7.364462556      3.339      7.455
REMARK  8 active torsions:
REMARK  status: ('A' for Active; 'I' for Inactive)
REMARK    1  A    between atoms: C2_2  and  N1_3 
REMARK    2  A    between atoms: C2_2  and  C9_18 
REMARK    3  A    between atoms: N1_3  and  C3_6 
REMARK    4  A    between atoms: C3_6  and  C4_7 
REMARK    5  A    between atoms: C3_6  and  C8_15 
REMARK    6  A    between atoms: C4_7  and  C5_8 
REMARK    7  A    between atoms: C5_8  and  C6_9 
REMARK    8  A    between atoms: C6_9  and  N2_10 
ROOT
HETATM    1  C3  UNL     1      18.668  -6.095  -2.122  1.00  0.00     0.286 C 
ENDROOT
BRANCH   1   2
HETATM    2  N1  UNL     1      17.902  -5.699  -3.269  1.00  0.00    -0.047 N 
ATOM      3  H12 UNL     1      18.122  -4.737  -3.532  1.00  0.00     0.279 HD
ATOM      4  H11 UNL     1      16.919  -5.589  -3.021  1.00  0.00     0.279 HD
BRANCH   2   5
HETATM    5  C2  UNL     1      18.041  -6.569  -4.393  1.00  0.00     0.282 C 
HETATM    6  C1  UNL     1      18.650  -5.910  -5.614  1.00  0.00     0.052 C 
BRANCH   5   7
HETATM    7  C9  UNL     1      16.780  -7.258  -4.784  1.00  0.00     0.204 C 
HETATM    8  O3  UNL     1      16.695  -8.387  -5.277  1.00  0.00    -0.646 OA
HETATM    9  O4  UNL     1      15.601  -6.551  -4.568  1.00  0.00    -0.646 OA
ENDBRANCH   5   7
ENDBRANCH   2   5
ENDBRANCH   1   2
BRANCH   1  10
HETATM   10  C4  UNL     1      18.273  -7.486  -1.708  1.00  0.00     0.046 C 
BRANCH  10  11
HETATM   11  C5  UNL     1      17.236  -7.578  -0.646  1.00  0.00     0.022 C 
BRANCH  11  12
HETATM   12  C6  UNL     1      17.713  -6.683   0.504  1.00  0.00     0.122 C 
BRANCH  12  13
HETATM   13  N2  UNL     1      16.949  -6.960   1.693  1.00  0.00    -0.367 N 
HETATM   14  C7  UNL     1      17.322  -7.802   2.582  1.00  0.00     0.196 C 
HETATM   15  N3  UNL     1      16.551  -8.056   3.746  1.00  0.00    -0.067 NA
HETATM   16  N4  UNL     1      18.556  -8.513   2.409  1.00  0.00    -0.067 NA
ATOM     17  H2  UNL     1      16.070  -6.461   1.834  1.00  0.00     0.161 HD
ENDBRANCH  12  13
ENDBRANCH  11  12
ENDBRANCH  10  11
ENDBRANCH   1  10
BRANCH   1  18
HETATM   18  C8  UNL     1      20.103  -6.143  -2.474  1.00  0.00     0.204 C 
HETATM   19  O1  UNL     1      20.724  -7.216  -2.389  1.00  0.00    -0.646 OA
HETATM   20  O2  UNL     1      20.761  -5.009  -2.895  1.00  0.00    -0.646 OA
ENDBRANCH   1  18
TORSDOF 8
ENDMDL
