MODEL 1
REMARK VINA RESULT: -7.647884693      0.000      0.000
REMARK  8 active torsions:
REMARK  status: ('A' for Active; 'I' for Inactive)
REMARK    1  A    between atoms: C2_2  and  N1_3 
REMARK    2  A    between atoms: C2_2  and  C9_18 
REMARK    3  A    between atoms: N1_3  and  C3_6 
REMARK    4  A    between atoms: C3_6  and  C4_7 
REMARK    5  A    between atoms: C3_6  and  C8_15 
REMARK    6  A    between atoms: C4_7  and  C5_8 
REMARK    7  A    between atoms: C5_8  and  C6_9 
REMARK    8  A    between atoms: C6_9  and  N2_10 
ROOT
HETATM    1  C3  UNL     1      17.873  -6.449  -4.224  1.00  0.00     0.286 C 
ENDROOT
BRANCH   1   2
HETATM    2  N1  UNL     1      18.682  -7.427  -3.554  1.00  0.00    -0.047 N 
ATOM      3  H12 UNL     1      19.471  -7.701  -4.141  1.00  0.00     0.279 HD
ATOM      4  H11 UNL     1      18.191  -8.319  -3.497  1.00  0.00     0.279 HD
BRANCH   2   5
HETATM    5  C2  UNL     1      19.137  -7.022  -2.262  1.00  0.00     0.282 C 
HETATM    6  C1  UNL     1      18.382  -5.843  -1.682  1.00  0.00     0.052 C 
BRANCH   5   7
HETATM    7  C9  UNL     1      20.600  -6.749  -2.194  1.00  0.00     0.204 C 
HETATM    8  O3  UNL     1      21.430  -7.414  -1.567  1.00  0.00    -0.646 OA
HETATM    9  O4  UNL     1      21.053  -5.643  -2.906  1.00  0.00    -0.646 OA
ENDBRANCH   5   7
ENDBRANCH   2   5
ENDBRANCH   1   2
BRANCH   1  10
HETATM   10  C4  UNL     1      18.596  -5.944  -5.442  1.00  0.00     0.046 C 
BRANCH  10  11
HETATM   11  C5  UNL     1      19.724  -6.786  -5.923  1.00  0.00     0.022 C 
BRANCH  11  12
HETATM   12  C6  UNL     1      19.537  -6.933  -7.438  1.00  0.00     0.122 C 
BRANCH  12  13
HETATM   13  N2  UNL     1      20.357  -8.009  -7.934  1.00  0.00    -0.367 N 
HETATM   14  C7  UNL     1      20.735  -8.093  -9.154  1.00  0.00     0.196 C 
HETATM   15  N3  UNL     1      21.543  -9.164  -9.617  1.00  0.00    -0.067 NA
HETATM   16  N4  UNL     1      20.339  -7.080 -10.089  1.00  0.00    -0.067 NA
ATOM     17  H2  UNL     1      20.649  -8.737  -7.282  1.00  0.00     0.161 HD
ENDBRANCH  12  13
ENDBRANCH  11  12
ENDBRANCH  10  11
ENDBRANCH   1  10
BRANCH   1  18
HETATM   18  C8  UNL     1      16.622  -7.077  -4.698  1.00  0.00     0.204 C 
HETATM   19  O1  UNL     1      15.543  -6.469  -4.585  1.00  0.00    -0.646 OA
HETATM   20  O2  UNL     1      16.638  -8.332  -5.265  1.00  0.00    -0.646 OA
ENDBRANCH   1  18
TORSDOF 8
ENDMDL
