MODEL 7
REMARK VINA RESULT: -7.139796056      1.016      1.379
REMARK  8 active torsions:
REMARK  status: ('A' for Active; 'I' for Inactive)
REMARK    1  A    between atoms: C2_2  and  N1_3 
REMARK    2  A    between atoms: C2_2  and  C9_18 
REMARK    3  A    between atoms: N1_3  and  C3_6 
REMARK    4  A    between atoms: C3_6  and  C4_7 
REMARK    5  A    between atoms: C3_6  and  C8_15 
REMARK    6  A    between atoms: C4_7  and  C5_8 
REMARK    7  A    between atoms: C5_8  and  C6_9 
REMARK    8  A    between atoms: C6_9  and  N2_10 
ROOT
HETATM    1  C3  UNL     1      17.831  -6.470  -4.242  1.00  0.00     0.286 C 
ENDROOT
BRANCH   1   2
HETATM    2  N1  UNL     1      18.739  -7.220  -3.422  1.00  0.00    -0.047 N 
ATOM      3  H12 UNL     1      19.425  -7.707  -4.001  1.00  0.00     0.279 HD
ATOM      4  H11 UNL     1      18.266  -8.021  -3.005  1.00  0.00     0.279 HD
BRANCH   2   5
HETATM    5  C2  UNL     1      19.393  -6.445  -2.416  1.00  0.00     0.282 C 
HETATM    6  C1  UNL     1      20.500  -5.554  -2.944  1.00  0.00     0.052 C 
BRANCH   5   7
HETATM    7  C9  UNL     1      19.913  -7.250  -1.275  1.00  0.00     0.204 C 
HETATM    8  O3  UNL     1      19.248  -7.667  -0.323  1.00  0.00    -0.646 OA
HETATM    9  O4  UNL     1      21.271  -7.549  -1.303  1.00  0.00    -0.646 OA
ENDBRANCH   5   7
ENDBRANCH   2   5
ENDBRANCH   1   2
BRANCH   1  10
HETATM   10  C4  UNL     1      18.094  -6.772  -5.692  1.00  0.00     0.046 C 
BRANCH  10  11
HETATM   11  C5  UNL     1      19.521  -6.760  -6.110  1.00  0.00     0.022 C 
BRANCH  11  12
HETATM   12  C6  UNL     1      19.525  -6.879  -7.639  1.00  0.00     0.122 C 
BRANCH  12  13
HETATM   13  N2  UNL     1      20.367  -7.975  -8.046  1.00  0.00    -0.367 N 
HETATM   14  C7  UNL     1      20.790  -8.122  -9.245  1.00  0.00     0.196 C 
HETATM   15  N3  UNL     1      21.619  -9.211  -9.621  1.00  0.00    -0.067 NA
HETATM   16  N4  UNL     1      20.422  -7.163 -10.247  1.00  0.00    -0.067 NA
ATOM     17  H2  UNL     1      20.639  -8.665  -7.346  1.00  0.00     0.161 HD
ENDBRANCH  12  13
ENDBRANCH  11  12
ENDBRANCH  10  11
ENDBRANCH   1  10
BRANCH   1  18
HETATM   18  C8  UNL     1      16.442  -6.890  -3.961  1.00  0.00     0.204 C 
HETATM   19  O1  UNL     1      16.209  -7.656  -3.010  1.00  0.00    -0.646 OA
HETATM   20  O2  UNL     1      15.401  -6.442  -4.742  1.00  0.00    -0.646 OA
ENDBRANCH   1  18
TORSDOF 8
ENDMDL
