MODEL 3
REMARK VINA RESULT: -7.338785345      3.406      7.473
REMARK  8 active torsions:
REMARK  status: ('A' for Active; 'I' for Inactive)
REMARK    1  A    between atoms: C2_2  and  N1_3 
REMARK    2  A    between atoms: C2_2  and  C9_18 
REMARK    3  A    between atoms: N1_3  and  C3_6 
REMARK    4  A    between atoms: C3_6  and  C4_7 
REMARK    5  A    between atoms: C3_6  and  C8_15 
REMARK    6  A    between atoms: C4_7  and  C5_8 
REMARK    7  A    between atoms: C5_8  and  C6_9 
REMARK    8  A    between atoms: C6_9  and  N2_10 
ROOT
HETATM    1  C3  UNL     1     -15.235  79.443  -0.345  1.00  0.00     0.286 C 
ENDROOT
BRANCH   1   2
HETATM    2  N1  UNL     1     -15.825  78.665   0.706  1.00  0.00    -0.047 N 
ATOM      3  H12 UNL     1     -16.253  77.819   0.328  1.00  0.00     0.279 HD
ATOM      4  H11 UNL     1     -16.656  79.130   1.072  1.00  0.00     0.279 HD
BRANCH   2   5
HETATM    5  C2  UNL     1     -14.925  78.339   1.767  1.00  0.00     0.282 C 
HETATM    6  C1  UNL     1     -14.552  79.517   2.644  1.00  0.00     0.052 C 
BRANCH   5   7
HETATM    7  C9  UNL     1     -13.684  77.649   1.317  1.00  0.00     0.204 C 
HETATM    8  O3  UNL     1     -12.560  78.154   1.252  1.00  0.00    -0.646 OA
HETATM    9  O4  UNL     1     -13.824  76.318   0.940  1.00  0.00    -0.646 OA
ENDBRANCH   5   7
ENDBRANCH   2   5
ENDBRANCH   1   2
BRANCH   1  10
HETATM   10  C4  UNL     1     -15.821  79.031  -1.667  1.00  0.00     0.046 C 
BRANCH  10  11
HETATM   11  C5  UNL     1     -15.552  77.631  -2.089  1.00  0.00     0.022 C 
BRANCH  11  12
HETATM   12  C6  UNL     1     -16.442  77.369  -3.311  1.00  0.00     0.122 C 
BRANCH  12  13
HETATM   13  N2  UNL     1     -15.662  76.783  -4.372  1.00  0.00    -0.367 N 
HETATM   14  C7  UNL     1     -15.878  77.022  -5.610  1.00  0.00     0.196 C 
HETATM   15  N3  UNL     1     -15.096  76.431  -6.637  1.00  0.00    -0.067 NA
HETATM   16  N4  UNL     1     -16.939  77.912  -5.985  1.00  0.00    -0.067 NA
ATOM     17  H2  UNL     1     -14.902  76.149  -4.123  1.00  0.00     0.161 HD
ENDBRANCH  12  13
ENDBRANCH  11  12
ENDBRANCH  10  11
ENDBRANCH   1  10
BRANCH   1  18
HETATM   18  C8  UNL     1     -15.567  80.871  -0.155  1.00  0.00     0.204 C 
HETATM   19  O1  UNL     1     -16.748  81.211   0.031  1.00  0.00    -0.646 OA
HETATM   20  O2  UNL     1     -14.580  81.831  -0.180  1.00  0.00    -0.646 OA
ENDBRANCH   1  18
TORSDOF 8
ENDMDL
