MODEL 2
REMARK VINA RESULT: -7.460430263      0.943      1.593
REMARK  8 active torsions:
REMARK  status: ('A' for Active; 'I' for Inactive)
REMARK    1  A    between atoms: C2_2  and  N1_3 
REMARK    2  A    between atoms: C2_2  and  C9_18 
REMARK    3  A    between atoms: N1_3  and  C3_6 
REMARK    4  A    between atoms: C3_6  and  C4_7 
REMARK    5  A    between atoms: C3_6  and  C8_15 
REMARK    6  A    between atoms: C4_7  and  C5_8 
REMARK    7  A    between atoms: C5_8  and  C6_9 
REMARK    8  A    between atoms: C6_9  and  N2_10 
ROOT
HETATM    1  C3  UNL     1     -14.264  78.575   1.434  1.00  0.00     0.286 C 
ENDROOT
BRANCH   1   2
HETATM    2  N1  UNL     1     -14.417  79.023   0.079  1.00  0.00    -0.047 N 
ATOM      3  H12 UNL     1     -14.031  78.337  -0.570  1.00  0.00     0.279 HD
ATOM      4  H11 UNL     1     -13.796  79.809  -0.110  1.00  0.00     0.279 HD
BRANCH   2   5
HETATM    5  C2  UNL     1     -15.761  79.351  -0.278  1.00  0.00     0.282 C 
HETATM    6  C1  UNL     1     -16.298  78.561  -1.455  1.00  0.00     0.052 C 
BRANCH   5   7
HETATM    7  C9  UNL     1     -15.986  80.804  -0.519  1.00  0.00     0.204 C 
HETATM    8  O3  UNL     1     -15.274  81.723  -0.105  1.00  0.00    -0.646 OA
HETATM    9  O4  UNL     1     -17.104  81.134  -1.279  1.00  0.00    -0.646 OA
ENDBRANCH   5   7
ENDBRANCH   2   5
ENDBRANCH   1   2
BRANCH   1  10
HETATM   10  C4  UNL     1     -15.315  79.216   2.299  1.00  0.00     0.046 C 
BRANCH  10  11
HETATM   11  C5  UNL     1     -14.813  79.997   3.461  1.00  0.00     0.022 C 
BRANCH  11  12
HETATM   12  C6  UNL     1     -15.366  79.310   4.715  1.00  0.00     0.122 C 
BRANCH  12  13
HETATM   13  N2  UNL     1     -16.742  79.689   4.918  1.00  0.00    -0.367 N 
HETATM   14  C7  UNL     1     -17.197  80.082   6.048  1.00  0.00     0.196 C 
HETATM   15  N3  UNL     1     -18.557  80.450   6.222  1.00  0.00    -0.067 NA
HETATM   16  N4  UNL     1     -16.317  80.159   7.178  1.00  0.00    -0.067 NA
ATOM     17  H2  UNL     1     -17.382  79.641   4.125  1.00  0.00     0.161 HD
ENDBRANCH  12  13
ENDBRANCH  11  12
ENDBRANCH  10  11
ENDBRANCH   1  10
BRANCH   1  18
HETATM   18  C8  UNL     1     -14.483  77.115   1.504  1.00  0.00     0.204 C 
HETATM   19  O1  UNL     1     -13.670  76.342   0.968  1.00  0.00    -0.646 OA
HETATM   20  O2  UNL     1     -15.579  76.600   2.157  1.00  0.00    -0.646 OA
ENDBRANCH   1  18
TORSDOF 8
ENDMDL
