MODEL 1
REMARK VINA RESULT: -7.630075539      0.000      0.000
REMARK  8 active torsions:
REMARK  status: ('A' for Active; 'I' for Inactive)
REMARK    1  A    between atoms: C2_2  and  N1_3 
REMARK    2  A    between atoms: C2_2  and  C9_18 
REMARK    3  A    between atoms: N1_3  and  C3_6 
REMARK    4  A    between atoms: C3_6  and  C4_7 
REMARK    5  A    between atoms: C3_6  and  C8_15 
REMARK    6  A    between atoms: C4_7  and  C5_8 
REMARK    7  A    between atoms: C5_8  and  C6_9 
REMARK    8  A    between atoms: C6_9  and  N2_10 
ROOT
HETATM    1  C3  UNL     1     -14.470  78.556   1.280  1.00  0.00     0.286 C 
ENDROOT
BRANCH   1   2
HETATM    2  N1  UNL     1     -15.620  79.083   0.603  1.00  0.00    -0.047 N 
ATOM      3  H12 UNL     1     -16.231  79.569   1.260  1.00  0.00     0.279 HD
ATOM      4  H11 UNL     1     -16.243  78.328   0.315  1.00  0.00     0.279 HD
BRANCH   2   5
HETATM    5  C2  UNL     1     -15.309  79.926  -0.507  1.00  0.00     0.282 C 
HETATM    6  C1  UNL     1     -15.079  81.377  -0.136  1.00  0.00     0.052 C 
BRANCH   5   7
HETATM    7  C9  UNL     1     -16.298  79.854  -1.618  1.00  0.00     0.204 C 
HETATM    8  O3  UNL     1     -16.356  78.971  -2.478  1.00  0.00    -0.646 OA
HETATM    9  O4  UNL     1     -17.233  80.883  -1.676  1.00  0.00    -0.646 OA
ENDBRANCH   5   7
ENDBRANCH   2   5
ENDBRANCH   1   2
BRANCH   1  10
HETATM   10  C4  UNL     1     -14.408  79.113   2.676  1.00  0.00     0.046 C 
BRANCH  10  11
HETATM   11  C5  UNL     1     -15.613  79.853   3.134  1.00  0.00     0.022 C 
BRANCH  11  12
HETATM   12  C6  UNL     1     -15.748  79.571   4.636  1.00  0.00     0.122 C 
BRANCH  12  13
HETATM   13  N2  UNL     1     -17.109  79.788   5.057  1.00  0.00    -0.367 N 
HETATM   14  C7  UNL     1     -17.425  80.120   6.252  1.00  0.00     0.196 C 
HETATM   15  N3  UNL     1     -18.774  80.328   6.642  1.00  0.00    -0.067 NA
HETATM   16  N4  UNL     1     -16.393  80.292   7.235  1.00  0.00    -0.067 NA
ATOM     17  H2  UNL     1     -17.855  79.672   4.371  1.00  0.00     0.161 HD
ENDBRANCH  12  13
ENDBRANCH  11  12
ENDBRANCH  10  11
ENDBRANCH   1  10
BRANCH   1  18
HETATM   18  C8  UNL     1     -14.596  77.089   1.408  1.00  0.00     0.204 C 
HETATM   19  O1  UNL     1     -15.588  76.601   1.978  1.00  0.00    -0.646 OA
HETATM   20  O2  UNL     1     -13.625  76.254   0.902  1.00  0.00    -0.646 OA
ENDBRANCH   1  18
TORSDOF 8
ENDMDL
