MODEL 5
REMARK VINA RESULT: -7.125638882      0.863      1.259
REMARK  8 active torsions:
REMARK  status: ('A' for Active; 'I' for Inactive)
REMARK    1  A    between atoms: C2_2  and  N1_3 
REMARK    2  A    between atoms: C2_2  and  C9_18 
REMARK    3  A    between atoms: N1_3  and  C3_6 
REMARK    4  A    between atoms: C3_6  and  C4_7 
REMARK    5  A    between atoms: C3_6  and  C8_15 
REMARK    6  A    between atoms: C4_7  and  C5_8 
REMARK    7  A    between atoms: C5_8  and  C6_9 
REMARK    8  A    between atoms: C6_9  and  N2_10 
ROOT
HETATM    1  C3  UNL     1     -14.417  78.344   0.924  1.00  0.00     0.286 C 
ENDROOT
BRANCH   1   2
HETATM    2  N1  UNL     1     -15.592  78.754   0.209  1.00  0.00    -0.047 N 
ATOM      3  H12 UNL     1     -16.349  78.971   0.858  1.00  0.00     0.279 HD
ATOM      4  H11 UNL     1     -16.007  77.962  -0.281  1.00  0.00     0.279 HD
BRANCH   2   5
HETATM    5  C2  UNL     1     -15.377  79.843  -0.691  1.00  0.00     0.282 C 
HETATM    6  C1  UNL     1     -15.362  81.203  -0.023  1.00  0.00     0.052 C 
BRANCH   5   7
HETATM    7  C9  UNL     1     -16.323  79.872  -1.842  1.00  0.00     0.204 C 
HETATM    8  O3  UNL     1     -16.357  79.058  -2.770  1.00  0.00    -0.646 OA
HETATM    9  O4  UNL     1     -17.242  80.916  -1.856  1.00  0.00    -0.646 OA
ENDBRANCH   5   7
ENDBRANCH   2   5
ENDBRANCH   1   2
BRANCH   1  10
HETATM   10  C4  UNL     1     -14.710  78.313   2.398  1.00  0.00     0.046 C 
BRANCH  10  11
HETATM   11  C5  UNL     1     -14.626  79.620   3.105  1.00  0.00     0.022 C 
BRANCH  11  12
HETATM   12  C6  UNL     1     -15.950  79.788   3.860  1.00  0.00     0.122 C 
BRANCH  12  13
HETATM   13  N2  UNL     1     -15.704  79.851   5.278  1.00  0.00    -0.367 N 
HETATM   14  C7  UNL     1     -16.630  80.050   6.139  1.00  0.00     0.196 C 
HETATM   15  N3  UNL     1     -16.361  80.108   7.532  1.00  0.00    -0.067 NA
HETATM   16  N4  UNL     1     -17.984  80.220   5.695  1.00  0.00    -0.067 NA
ATOM     17  H2  UNL     1     -14.747  79.730   5.612  1.00  0.00     0.161 HD
ENDBRANCH  12  13
ENDBRANCH  11  12
ENDBRANCH  10  11
ENDBRANCH   1  10
BRANCH   1  18
HETATM   18  C8  UNL     1     -14.050  76.967   0.530  1.00  0.00     0.204 C 
HETATM   19  O1  UNL     1     -13.455  76.232   1.337  1.00  0.00    -0.646 OA
HETATM   20  O2  UNL     1     -14.360  76.489  -0.723  1.00  0.00    -0.646 OA
ENDBRANCH   1  18
TORSDOF 8
ENDMDL
