MODEL 6
REMARK VINA RESULT: -6.966309747      3.583      7.649
REMARK  8 active torsions:
REMARK  status: ('A' for Active; 'I' for Inactive)
REMARK    1  A    between atoms: C2_2  and  N1_3 
REMARK    2  A    between atoms: C2_2  and  C9_18 
REMARK    3  A    between atoms: N1_3  and  C3_6 
REMARK    4  A    between atoms: C3_6  and  C4_7 
REMARK    5  A    between atoms: C3_6  and  C8_15 
REMARK    6  A    between atoms: C4_7  and  C5_8 
REMARK    7  A    between atoms: C5_8  and  C6_9 
REMARK    8  A    between atoms: C6_9  and  N2_10 
ROOT
HETATM    1  C3  UNL     1     -15.224  79.619  -0.497  1.00  0.00     0.286 C 
ENDROOT
BRANCH   1   2
HETATM    2  N1  UNL     1     -15.538  78.920   0.716  1.00  0.00    -0.047 N 
ATOM      3  H12 UNL     1     -15.908  77.992   0.509  1.00  0.00     0.279 HD
ATOM      4  H11 UNL     1     -16.354  79.335   1.166  1.00  0.00     0.279 HD
BRANCH   2   5
HETATM    5  C2  UNL     1     -14.449  78.831   1.637  1.00  0.00     0.282 C 
HETATM    6  C1  UNL     1     -13.916  77.426   1.829  1.00  0.00     0.052 C 
BRANCH   5   7
HETATM    7  C9  UNL     1     -14.733  79.436   2.968  1.00  0.00     0.204 C 
HETATM    8  O3  UNL     1     -14.123  80.380   3.478  1.00  0.00    -0.646 OA
HETATM    9  O4  UNL     1     -15.782  78.872   3.688  1.00  0.00    -0.646 OA
ENDBRANCH   5   7
ENDBRANCH   2   5
ENDBRANCH   1   2
BRANCH   1  10
HETATM   10  C4  UNL     1     -16.097  79.112  -1.612  1.00  0.00     0.046 C 
BRANCH  10  11
HETATM   11  C5  UNL     1     -15.767  77.758  -2.131  1.00  0.00     0.022 C 
BRANCH  11  12
HETATM   12  C6  UNL     1     -16.532  77.602  -3.450  1.00  0.00     0.122 C 
BRANCH  12  13
HETATM   13  N2  UNL     1     -15.696  76.959  -4.432  1.00  0.00    -0.367 N 
HETATM   14  C7  UNL     1     -15.879  77.084  -5.693  1.00  0.00     0.196 C 
HETATM   15  N3  UNL     1     -15.040  76.440  -6.640  1.00  0.00    -0.067 NA
HETATM   16  N4  UNL     1     -16.958  77.897  -6.175  1.00  0.00    -0.067 NA
ATOM     17  H2  UNL     1     -14.923  76.379  -4.107  1.00  0.00     0.161 HD
ENDBRANCH  12  13
ENDBRANCH  11  12
ENDBRANCH  10  11
ENDBRANCH   1  10
BRANCH   1  18
HETATM   18  C8  UNL     1     -15.526  81.057  -0.337  1.00  0.00     0.204 C 
HETATM   19  O1  UNL     1     -14.597  81.870  -0.181  1.00  0.00    -0.646 OA
HETATM   20  O2  UNL     1     -16.826  81.508  -0.358  1.00  0.00    -0.646 OA
ENDBRANCH   1  18
TORSDOF 8
ENDMDL
