MODEL 3
REMARK VINA RESULT: -9.749223919      5.913     10.515
REMARK  6 active torsions:
REMARK  status: ('A' for Active; 'I' for Inactive)
REMARK    1  A    between atoms: C1_2  and  C2_4 
REMARK    2  A    between atoms: C5_9  and  C6_10 
REMARK    3  A    between atoms: C8_12  and  C9_13 
REMARK       I    between atoms: C9_13  and  N2_15 
REMARK    4  A    between atoms: N2_15  and  C10_17 
REMARK    5  A    between atoms: C10_17  and  C11_18 
REMARK    6  A    between atoms: C11_18  and  C12_19 
ROOT
HETATM    1  C6  UNL     1     -19.400  20.712   0.228  1.00  0.00     0.059 A 
HETATM    2  C7  UNL     1     -20.690  20.901   0.667  1.00  0.00     0.049 A 
HETATM    3  C8  UNL     1     -21.301  19.991   1.538  1.00  0.00     0.035 A 
HETATM    4  C18 UNL     1     -20.554  18.905   1.934  1.00  0.00     0.034 A 
HETATM    5  C19 UNL     1     -19.248  18.722   1.485  1.00  0.00     0.089 A 
HETATM    6  N3  UNL     1     -18.710  19.634   0.643  1.00  0.00    -0.364 N 
ATOM      7  H3  UNL     1     -17.754  19.501   0.312  1.00  0.00     0.165 HD
ENDROOT
BRANCH   3   8
HETATM    8  C9  UNL     1     -22.667  20.208   1.991  1.00  0.00     0.251 C 
HETATM    9  O3  UNL     1     -23.618  19.870   1.227  1.00  0.00    -0.268 OA
HETATM   10  N2  UNL     1     -23.037  20.774   3.232  1.00  0.00    -0.357 N 
ATOM     11  H2  UNL     1     -22.305  21.062   3.882  1.00  0.00     0.162 HD
BRANCH  10  12
HETATM   12  C10 UNL     1     -24.426  20.958   3.612  1.00  0.00     0.127 C 
BRANCH  12  13
HETATM   13  C11 UNL     1     -24.663  20.861   5.095  1.00  0.00     0.058 C 
BRANCH  13  14
HETATM   14  C12 UNL     1     -23.937  19.690   5.671  1.00  0.00    -0.057 A 
HETATM   15  C13 UNL     1     -23.352  19.795   6.933  1.00  0.00     0.007 A 
HETATM   16  C14 UNL     1     -22.680  18.729   7.489  1.00  0.00     0.001 A 
HETATM   17  C15 UNL     1     -22.572  17.543   6.816  1.00  0.00     0.000 A 
HETATM   18  C16 UNL     1     -23.161  17.452   5.560  1.00  0.00     0.001 A 
HETATM   19  C17 UNL     1     -23.828  18.501   4.999  1.00  0.00     0.007 A 
ENDBRANCH  13  14
ENDBRANCH  12  13
ENDBRANCH  10  12
ENDBRANCH   3   8
BRANCH   1  20
HETATM   20  C5  UNL     1     -18.789  21.675  -0.680  1.00  0.00     0.060 A 
HETATM   21  N1  UNL     1     -17.590  21.450  -1.243  1.00  0.00    -0.364 N 
HETATM   22  C4  UNL     1     -17.023  22.354  -2.093  1.00  0.00     0.089 A 
ATOM     23  H1  UNL     1     -17.094  20.585  -1.031  1.00  0.00     0.165 HD
HETATM   24  C3  UNL     1     -17.654  23.535  -2.408  1.00  0.00     0.035 A 
HETATM   25  C2  UNL     1     -18.887  23.800  -1.847  1.00  0.00     0.044 A 
HETATM   26  C20 UNL     1     -19.412  22.863  -1.004  1.00  0.00     0.050 A 
BRANCH  25  27
HETATM   27  C1  UNL     1     -19.567  25.053  -2.177  1.00  0.00     0.209 C 
HETATM   28  O1  UNL     1     -19.030  26.160  -1.915  1.00  0.00    -0.644 OA
HETATM   29  O2  UNL     1     -20.798  25.049  -2.777  1.00  0.00    -0.644 OA
ENDBRANCH  25  27
ENDBRANCH   1  20
TORSDOF 6
ENDMDL
