MODEL 1
REMARK VINA RESULT: -9.904819512      0.000      0.000
REMARK  6 active torsions:
REMARK  status: ('A' for Active; 'I' for Inactive)
REMARK    1  A    between atoms: C1_2  and  C2_4 
REMARK    2  A    between atoms: C5_9  and  C6_10 
REMARK    3  A    between atoms: C8_12  and  C9_13 
REMARK       I    between atoms: C9_13  and  N2_15 
REMARK    4  A    between atoms: N2_15  and  C10_17 
REMARK    5  A    between atoms: C10_17  and  C11_18 
REMARK    6  A    between atoms: C11_18  and  C12_19 
ROOT
HETATM    1  C6  UNL     1     -29.611  23.125   3.639  1.00  0.00     0.059 A 
HETATM    2  C7  UNL     1     -28.377  22.678   4.050  1.00  0.00     0.049 A 
HETATM    3  C8  UNL     1     -27.432  22.207   3.130  1.00  0.00     0.035 A 
HETATM    4  C18 UNL     1     -27.793  22.214   1.802  1.00  0.00     0.034 A 
HETATM    5  C19 UNL     1     -29.046  22.670   1.395  1.00  0.00     0.089 A 
HETATM    6  N3  UNL     1     -29.918  23.112   2.329  1.00  0.00    -0.364 N 
ATOM      7  H3  UNL     1     -30.836  23.445   2.032  1.00  0.00     0.165 HD
ENDROOT
BRANCH   3   8
HETATM    8  C9  UNL     1     -26.132  21.738   3.584  1.00  0.00     0.251 C 
HETATM    9  O3  UNL     1     -25.757  22.037   4.756  1.00  0.00    -0.268 OA
HETATM   10  N2  UNL     1     -25.229  20.963   2.821  1.00  0.00    -0.357 N 
ATOM     11  H2  UNL     1     -25.487  20.698   1.871  1.00  0.00     0.162 HD
BRANCH  10  12
HETATM   12  C10 UNL     1     -23.947  20.532   3.348  1.00  0.00     0.127 C 
BRANCH  12  13
HETATM   13  C11 UNL     1     -23.900  19.070   3.697  1.00  0.00     0.058 C 
BRANCH  13  14
HETATM   14  C12 UNL     1     -23.487  18.879   5.119  1.00  0.00    -0.057 A 
HETATM   15  C13 UNL     1     -22.885  17.682   5.508  1.00  0.00     0.007 A 
HETATM   16  C14 UNL     1     -22.491  17.481   6.812  1.00  0.00     0.001 A 
HETATM   17  C15 UNL     1     -22.683  18.452   7.757  1.00  0.00     0.000 A 
HETATM   18  C16 UNL     1     -23.284  19.640   7.357  1.00  0.00     0.001 A 
HETATM   19  C17 UNL     1     -23.678  19.849   6.068  1.00  0.00     0.007 A 
ENDBRANCH  13  14
ENDBRANCH  12  13
ENDBRANCH  10  12
ENDBRANCH   3   8
BRANCH   1  20
HETATM   20  C5  UNL     1     -30.576  23.609   4.619  1.00  0.00     0.060 A 
HETATM   21  N1  UNL     1     -31.084  24.851   4.554  1.00  0.00    -0.364 N 
HETATM   22  C4  UNL     1     -31.987  25.299   5.473  1.00  0.00     0.089 A 
ATOM     23  H1  UNL     1     -30.787  25.473   3.802  1.00  0.00     0.165 HD
HETATM   24  C3  UNL     1     -32.416  24.498   6.505  1.00  0.00     0.035 A 
HETATM   25  C2  UNL     1     -31.915  23.215   6.604  1.00  0.00     0.044 A 
HETATM   26  C20 UNL     1     -31.014  22.815   5.658  1.00  0.00     0.050 A 
BRANCH  25  27
HETATM   27  C1  UNL     1     -32.366  22.355   7.698  1.00  0.00     0.209 C 
HETATM   28  O1  UNL     1     -32.619  22.841   8.831  1.00  0.00    -0.644 OA
HETATM   29  O2  UNL     1     -32.523  21.007   7.514  1.00  0.00    -0.644 OA
ENDBRANCH  25  27
ENDBRANCH   1  20
TORSDOF 6
ENDMDL
