MODEL 2
REMARK VINA RESULT: -9.893438204      0.060      1.122
REMARK  6 active torsions:
REMARK  status: ('A' for Active; 'I' for Inactive)
REMARK    1  A    between atoms: C1_2  and  C2_4 
REMARK    2  A    between atoms: C5_9  and  C6_10 
REMARK    3  A    between atoms: C8_12  and  C9_13 
REMARK       I    between atoms: C9_13  and  N2_15 
REMARK    4  A    between atoms: N2_15  and  C10_17 
REMARK    5  A    between atoms: C10_17  and  C11_18 
REMARK    6  A    between atoms: C11_18  and  C12_19 
ROOT
HETATM    1  C6  UNL     1     -29.606  23.139   3.645  1.00  0.00     0.059 A 
HETATM    2  C7  UNL     1     -28.363  22.715   4.055  1.00  0.00     0.049 A 
HETATM    3  C8  UNL     1     -27.417  22.247   3.135  1.00  0.00     0.035 A 
HETATM    4  C18 UNL     1     -27.786  22.232   1.809  1.00  0.00     0.034 A 
HETATM    5  C19 UNL     1     -29.048  22.664   1.404  1.00  0.00     0.089 A 
HETATM    6  N3  UNL     1     -29.921  23.105   2.338  1.00  0.00    -0.364 N 
ATOM      7  H3  UNL     1     -30.845  23.420   2.043  1.00  0.00     0.165 HD
ENDROOT
BRANCH   3   8
HETATM    8  C9  UNL     1     -26.107  21.803   3.587  1.00  0.00     0.251 C 
HETATM    9  O3  UNL     1     -25.704  22.174   4.729  1.00  0.00    -0.268 OA
HETATM   10  N2  UNL     1     -25.224  20.979   2.854  1.00  0.00    -0.357 N 
ATOM     11  H2  UNL     1     -25.505  20.655   1.928  1.00  0.00     0.162 HD
BRANCH  10  12
HETATM   12  C10 UNL     1     -23.930  20.578   3.376  1.00  0.00     0.127 C 
BRANCH  12  13
HETATM   13  C11 UNL     1     -23.824  19.103   3.654  1.00  0.00     0.058 C 
BRANCH  13  14
HETATM   14  C12 UNL     1     -23.435  18.859   5.074  1.00  0.00    -0.057 A 
HETATM   15  C13 UNL     1     -23.644  19.857   6.027  1.00  0.00     0.007 A 
HETATM   16  C14 UNL     1     -23.297  19.657   7.345  1.00  0.00     0.001 A 
HETATM   17  C15 UNL     1     -22.741  18.475   7.749  1.00  0.00     0.000 A 
HETATM   18  C16 UNL     1     -22.538  17.488   6.790  1.00  0.00     0.001 A 
HETATM   19  C17 UNL     1     -22.877  17.676   5.483  1.00  0.00     0.007 A 
ENDBRANCH  13  14
ENDBRANCH  12  13
ENDBRANCH  10  12
ENDBRANCH   3   8
BRANCH   1  20
HETATM   20  C5  UNL     1     -30.573  23.621   4.625  1.00  0.00     0.060 A 
HETATM   21  N1  UNL     1     -31.075  24.865   4.566  1.00  0.00    -0.364 N 
HETATM   22  C4  UNL     1     -31.980  25.312   5.485  1.00  0.00     0.089 A 
ATOM     23  H1  UNL     1     -30.773  25.490   3.819  1.00  0.00     0.165 HD
HETATM   24  C3  UNL     1     -32.415  24.506   6.511  1.00  0.00     0.035 A 
HETATM   25  C2  UNL     1     -31.920  23.220   6.603  1.00  0.00     0.044 A 
HETATM   26  C20 UNL     1     -31.018  22.822   5.658  1.00  0.00     0.050 A 
BRANCH  25  27
HETATM   27  C1  UNL     1     -32.377  22.355   7.690  1.00  0.00     0.209 C 
HETATM   28  O1  UNL     1     -32.469  21.112   7.524  1.00  0.00    -0.644 OA
HETATM   29  O2  UNL     1     -32.715  22.878   8.911  1.00  0.00    -0.644 OA
ENDBRANCH  25  27
ENDBRANCH   1  20
TORSDOF 6
ENDMDL
