MODEL 10
REMARK VINA RESULT: -7.080988213      3.321      5.814
REMARK  1 active torsions:
REMARK  status: ('A' for Active; 'I' for Inactive)
REMARK    1  A    between atoms: C8_15  and  C9_16 
ROOT
HETATM    1  C1  UNL     1     -23.691  19.292   7.723  1.00  0.00     0.069 C 
HETATM    2  C2  UNL     1     -24.042  19.783   6.397  1.00  0.00     0.019 A 
HETATM    3  N1  UNL     1     -24.860  20.844   6.316  1.00  0.00    -0.343 N 
ATOM      4  H1  UNL     1     -25.140  21.313   7.177  1.00  0.00     0.167 HD
HETATM    5  C3  UNL     1     -25.325  21.312   5.149  1.00  0.00     0.153 A 
HETATM    6  C4  UNL     1     -26.143  22.380   4.880  1.00  0.00     0.107 A 
HETATM    7  C5  UNL     1     -26.729  23.280   5.863  1.00  0.00     0.105 C 
HETATM    8  N2  UNL     1     -27.181  23.968   6.675  1.00  0.00    -0.191 NA
HETATM    9  C6  UNL     1     -26.270  22.418   3.523  1.00  0.00     0.134 A 
HETATM   10  N3  UNL     1     -25.539  21.379   2.987  1.00  0.00    -0.299 N 
ATOM     11  H3  UNL     1     -25.454  21.161   1.994  1.00  0.00     0.186 HD
HETATM   12  N4  UNL     1     -24.959  20.707   3.988  1.00  0.00    -0.202 N 
HETATM   13  C7  UNL     1     -24.131  19.632   4.064  1.00  0.00     0.276 A 
HETATM   14  O1  UNL     1     -23.817  19.109   2.969  1.00  0.00    -0.266 OA
HETATM   15  C8  UNL     1     -23.632  19.108   5.230  1.00  0.00     0.037 A 
ENDROOT
BRANCH  15  16
HETATM   16  C9  UNL     1     -22.672  18.036   5.370  1.00  0.00     0.018 C 
HETATM   17  C10 UNL     1     -23.317  16.778   4.671  1.00  0.00     0.015 C 
HETATM   18  C11 UNL     1     -21.429  18.225   4.460  1.00  0.00     0.015 C 
ENDBRANCH  15  16
TORSDOF 1
ENDMDL
