MODEL 4
REMARK VINA RESULT: -7.654103118      1.611      4.879
REMARK  1 active torsions:
REMARK  status: ('A' for Active; 'I' for Inactive)
REMARK    1  A    between atoms: C8_15  and  C9_16 
ROOT
HETATM    1  C1  UNL     1     -24.209  19.497   4.045  1.00  0.00     0.069 C 
HETATM    2  C2  UNL     1     -24.237  19.696   5.488  1.00  0.00     0.019 A 
HETATM    3  N1  UNL     1     -24.971  20.713   5.968  1.00  0.00    -0.343 N 
ATOM      4  H1  UNL     1     -25.540  21.255   5.317  1.00  0.00     0.167 HD
HETATM    5  C3  UNL     1     -24.986  21.045   7.266  1.00  0.00     0.153 A 
HETATM    6  C4  UNL     1     -25.680  22.028   7.926  1.00  0.00     0.107 A 
HETATM    7  C5  UNL     1     -26.592  22.987   7.321  1.00  0.00     0.105 C 
HETATM    8  N2  UNL     1     -27.304  23.736   6.801  1.00  0.00    -0.191 NA
HETATM    9  C6  UNL     1     -25.343  21.900   9.242  1.00  0.00     0.134 A 
HETATM   10  N3  UNL     1     -24.454  20.854   9.365  1.00  0.00    -0.299 N 
ATOM     11  H3  UNL     1     -24.030  20.532  10.236  1.00  0.00     0.186 HD
HETATM   12  N4  UNL     1     -24.241  20.332   8.151  1.00  0.00    -0.202 N 
HETATM   13  C7  UNL     1     -23.496  19.302   7.672  1.00  0.00     0.276 A 
HETATM   14  O1  UNL     1     -22.829  18.669   8.524  1.00  0.00    -0.266 OA
HETATM   15  C8  UNL     1     -23.439  18.923   6.354  1.00  0.00     0.037 A 
ENDROOT
BRANCH  15  16
HETATM   16  C9  UNL     1     -22.749  17.779   5.798  1.00  0.00     0.018 C 
HETATM   17  C10 UNL     1     -23.753  17.118   4.778  1.00  0.00     0.015 C 
HETATM   18  C11 UNL     1     -21.617  18.185   4.817  1.00  0.00     0.015 C 
ENDBRANCH  15  16
TORSDOF 1
ENDMDL
