MODEL 2
REMARK VINA RESULT: -7.941849239      2.101      5.607
REMARK  1 active torsions:
REMARK  status: ('A' for Active; 'I' for Inactive)
REMARK    1  A    between atoms: C8_15  and  C9_16 
ROOT
HETATM    1  C1  UNL     1     -22.581  18.037   7.929  1.00  0.00     0.069 C 
HETATM    2  C2  UNL     1     -23.393  19.113   7.375  1.00  0.00     0.019 A 
HETATM    3  N1  UNL     1     -23.969  19.971   8.231  1.00  0.00    -0.343 N 
ATOM      4  H1  UNL     1     -23.755  19.887   9.225  1.00  0.00     0.167 HD
HETATM    5  C3  UNL     1     -24.814  20.932   7.835  1.00  0.00     0.153 A 
HETATM    6  C4  UNL     1     -25.472  21.894   8.559  1.00  0.00     0.107 A 
HETATM    7  C5  UNL     1     -25.401  22.080  10.000  1.00  0.00     0.105 C 
HETATM    8  N2  UNL     1     -25.323  22.191  11.149  1.00  0.00    -0.191 NA
HETATM    9  C6  UNL     1     -26.178  22.625   7.649  1.00  0.00     0.134 A 
HETATM   10  N3  UNL     1     -25.947  22.102   6.395  1.00  0.00    -0.299 N 
ATOM     11  H3  UNL     1     -26.348  22.447   5.522  1.00  0.00     0.186 HD
HETATM   12  N4  UNL     1     -25.108  21.066   6.514  1.00  0.00    -0.202 N 
HETATM   13  C7  UNL     1     -24.528  20.200   5.642  1.00  0.00     0.276 A 
HETATM   14  O1  UNL     1     -24.824  20.364   4.435  1.00  0.00    -0.266 OA
HETATM   15  C8  UNL     1     -23.662  19.196   5.994  1.00  0.00     0.037 A 
ENDROOT
BRANCH  15  16
HETATM   16  C9  UNL     1     -22.937  18.312   5.108  1.00  0.00     0.018 C 
HETATM   17  C10 UNL     1     -23.964  17.203   4.661  1.00  0.00     0.015 C 
HETATM   18  C11 UNL     1     -22.641  18.960   3.729  1.00  0.00     0.015 C 
ENDBRANCH  15  16
TORSDOF 1
ENDMDL
