MODEL 1
REMARK VINA RESULT: -9.828494417      0.000      0.000
REMARK  1 active torsions:
REMARK  status: ('A' for Active; 'I' for Inactive)
REMARK    1  A    between atoms: C8_15  and  C9_16 
ROOT
HETATM    1  C1  UNL     1     -26.299  22.848   7.433  1.00  0.00     0.069 C 
HETATM    2  C2  UNL     1     -25.358  21.794   7.786  1.00  0.00     0.019 A 
HETATM    3  N1  UNL     1     -24.928  20.981   6.809  1.00  0.00    -0.343 N 
ATOM      4  H1  UNL     1     -25.210  21.179   5.848  1.00  0.00     0.167 HD
HETATM    5  C3  UNL     1     -24.143  19.921   7.042  1.00  0.00     0.153 A 
HETATM    6  C4  UNL     1     -23.601  19.006   6.175  1.00  0.00     0.107 A 
HETATM    7  C5  UNL     1     -23.785  18.979   4.731  1.00  0.00     0.105 C 
HETATM    8  N2  UNL     1     -23.961  18.989   3.588  1.00  0.00    -0.191 NA
HETATM    9  C6  UNL     1     -22.861  18.157   6.945  1.00  0.00     0.134 A 
HETATM   10  N3  UNL     1     -22.963  18.559   8.259  1.00  0.00    -0.299 N 
ATOM     11  H3  UNL     1     -22.516  18.107   9.057  1.00  0.00     0.186 HD
HETATM   12  N4  UNL     1     -23.748  19.643   8.312  1.00  0.00    -0.202 N 
HETATM   13  C7  UNL     1     -24.181  20.461   9.307  1.00  0.00     0.276 A 
HETATM   14  O1  UNL     1     -23.788  20.170  10.461  1.00  0.00    -0.266 OA
HETATM   15  C8  UNL     1     -24.989  21.555   9.125  1.00  0.00     0.037 A 
ENDROOT
BRANCH  15  16
HETATM   16  C9  UNL     1     -25.398  22.519  10.123  1.00  0.00     0.018 C 
HETATM   17  C10 UNL     1     -26.552  21.831  10.948  1.00  0.00     0.015 C 
HETATM   18  C11 UNL     1     -24.346  22.695  11.251  1.00  0.00     0.015 C 
ENDBRANCH  15  16
TORSDOF 1
ENDMDL
