MODEL 8
REMARK VINA RESULT: -8.063105281      2.810      6.273
REMARK  3 active torsions:
REMARK  status: ('A' for Active; 'I' for Inactive)
REMARK    1  A    between atoms: C3_4  and  N2_5 
REMARK    2  A    between atoms: N2_5  and  C4_7 
REMARK    3  A    between atoms: C8_13  and  C9_14 
ROOT
HETATM    1  N2  UNL     1     -24.133  21.078   4.888  1.00  0.00    -0.352 N 
ATOM      2  H2  UNL     1     -23.516  21.798   5.264  1.00  0.00     0.166 HD
ENDROOT
BRANCH   1   3
HETATM    3  C3  UNL     1     -25.383  21.530   4.394  1.00  0.00     0.062 A 
HETATM    4  C2  UNL     1     -25.993  21.331   3.197  1.00  0.00     0.122 A 
HETATM    5  N1  UNL     1     -27.172  22.024   3.152  1.00  0.00    -0.345 N 
HETATM    6  C1  UNL     1     -28.072  22.033   2.028  1.00  0.00     0.157 C 
HETATM    7  C14 UNL     1     -27.336  22.676   4.311  1.00  0.00     0.119 A 
HETATM    8  C10 UNL     1     -26.244  22.391   5.102  1.00  0.00     0.036 A 
HETATM    9  N4  UNL     1     -28.325  23.488   4.755  1.00  0.00    -0.351 N 
HETATM   10  C11 UNL     1     -26.165  22.939   6.353  1.00  0.00     0.019 A 
HETATM   11  C12 UNL     1     -27.186  23.759   6.774  1.00  0.00     0.018 A 
HETATM   12  C13 UNL     1     -28.284  24.045   5.977  1.00  0.00     0.090 A 
ATOM     13  H4  UNL     1     -29.122  23.680   4.148  1.00  0.00     0.166 HD
ENDBRANCH   1   3
BRANCH   1  14
HETATM   14  C4  UNL     1     -23.639  19.776   4.925  1.00  0.00     0.065 A 
HETATM   15  C5  UNL     1     -23.463  19.095   3.713  1.00  0.00     0.118 A 
HETATM   16  N3  UNL     1     -23.089  17.809   3.628  1.00  0.00    -0.373 N 
HETATM   17  C6  UNL     1     -22.873  17.133   4.761  1.00  0.00     0.089 A 
ATOM     18  H3  UNL     1     -22.973  17.358   2.721  1.00  0.00     0.164 HD
HETATM   19  C7  UNL     1     -23.024  17.729   5.985  1.00  0.00     0.038 A 
HETATM   20  C8  UNL     1     -23.417  19.090   6.071  1.00  0.00     0.070 A 
BRANCH  20  21
HETATM   21  C9  UNL     1     -23.513  19.696   7.375  1.00  0.00     0.211 C 
HETATM   22  O1  UNL     1     -24.361  20.540   7.672  1.00  0.00    -0.644 OA
HETATM   23  O2  UNL     1     -22.625  19.356   8.412  1.00  0.00    -0.644 OA
ENDBRANCH  20  21
ENDBRANCH   1  14
TORSDOF 3
ENDMDL
