MODEL 10
REMARK VINA RESULT: -7.839925384      2.587      6.167
REMARK  3 active torsions:
REMARK  status: ('A' for Active; 'I' for Inactive)
REMARK    1  A    between atoms: C3_4  and  N2_5 
REMARK    2  A    between atoms: N2_5  and  C4_7 
REMARK    3  A    between atoms: C8_13  and  C9_14 
ROOT
HETATM    1  N2  UNL     1     -25.088  20.604   4.864  1.00  0.00    -0.352 N 
ATOM      2  H2  UNL     1     -25.758  20.039   5.385  1.00  0.00     0.166 HD
ENDROOT
BRANCH   1   3
HETATM    3  C3  UNL     1     -25.576  21.838   4.364  1.00  0.00     0.062 A 
HETATM    4  C2  UNL     1     -25.469  22.406   3.134  1.00  0.00     0.122 A 
HETATM    5  N1  UNL     1     -26.048  23.645   3.140  1.00  0.00    -0.345 N 
HETATM    6  C1  UNL     1     -26.114  24.522   2.000  1.00  0.00     0.157 C 
HETATM    7  C14 UNL     1     -26.532  23.893   4.365  1.00  0.00     0.119 A 
HETATM    8  C10 UNL     1     -26.255  22.792   5.147  1.00  0.00     0.036 A 
HETATM    9  N4  UNL     1     -27.185  24.964   4.876  1.00  0.00    -0.351 N 
HETATM   10  C11 UNL     1     -26.647  22.788   6.457  1.00  0.00     0.019 A 
HETATM   11  C12 UNL     1     -27.308  23.892   6.945  1.00  0.00     0.018 A 
HETATM   12  C13 UNL     1     -27.586  24.998   6.158  1.00  0.00     0.090 A 
ATOM     13  H4  UNL     1     -27.377  25.763   4.274  1.00  0.00     0.166 HD
ENDBRANCH   1   3
BRANCH   1  14
HETATM   14  C4  UNL     1     -23.810  20.064   4.734  1.00  0.00     0.065 A 
HETATM   15  C5  UNL     1     -23.274  19.922   3.448  1.00  0.00     0.118 A 
HETATM   16  N3  UNL     1     -22.098  19.327   3.192  1.00  0.00    -0.373 N 
HETATM   17  C6  UNL     1     -21.396  18.839   4.219  1.00  0.00     0.089 A 
ATOM     18  H3  UNL     1     -21.749  19.250   2.237  1.00  0.00     0.164 HD
HETATM   19  C7  UNL     1     -21.853  18.939   5.506  1.00  0.00     0.038 A 
HETATM   20  C8  UNL     1     -23.095  19.571   5.774  1.00  0.00     0.070 A 
BRANCH  20  21
HETATM   21  C9  UNL     1     -23.517  19.704   7.146  1.00  0.00     0.211 C 
HETATM   22  O1  UNL     1     -24.304  20.570   7.534  1.00  0.00    -0.644 OA
HETATM   23  O2  UNL     1     -23.046  18.837   8.147  1.00  0.00    -0.644 OA
ENDBRANCH  20  21
ENDBRANCH   1  14
TORSDOF 3
ENDMDL
