MODEL 1
REMARK VINA RESULT: -8.733458273      0.000      0.000
REMARK  3 active torsions:
REMARK  status: ('A' for Active; 'I' for Inactive)
REMARK    1  A    between atoms: C3_4  and  N2_5 
REMARK    2  A    between atoms: N2_5  and  C4_7 
REMARK    3  A    between atoms: C8_13  and  C9_14 
ROOT
HETATM    1  N2  UNL     1     -25.324  20.526   4.345  1.00  0.00    -0.352 N 
ATOM      2  H2  UNL     1     -26.060  19.837   4.496  1.00  0.00     0.166 HD
ENDROOT
BRANCH   1   3
HETATM    3  C3  UNL     1     -24.004  20.013   4.262  1.00  0.00     0.062 A 
HETATM    4  C2  UNL     1     -23.202  19.787   3.189  1.00  0.00     0.122 A 
HETATM    5  N1  UNL     1     -22.027  19.217   3.597  1.00  0.00    -0.345 N 
HETATM    6  C1  UNL     1     -20.949  18.847   2.716  1.00  0.00     0.157 C 
HETATM    7  C14 UNL     1     -22.056  19.067   4.927  1.00  0.00     0.119 A 
HETATM    8  C10 UNL     1     -23.268  19.550   5.371  1.00  0.00     0.036 A 
HETATM    9  N4  UNL     1     -21.149  18.559   5.797  1.00  0.00    -0.351 N 
HETATM   10  C11 UNL     1     -23.553  19.513   6.707  1.00  0.00     0.019 A 
HETATM   11  C12 UNL     1     -22.611  18.991   7.563  1.00  0.00     0.018 A 
HETATM   12  C13 UNL     1     -21.392  18.505   7.117  1.00  0.00     0.090 A 
ATOM     13  H4  UNL     1     -20.260  18.209   5.440  1.00  0.00     0.166 HD
ENDBRANCH   1   3
BRANCH   1  14
HETATM   14  C4  UNL     1     -25.743  21.851   4.248  1.00  0.00     0.065 A 
HETATM   15  C5  UNL     1     -25.495  22.709   5.327  1.00  0.00     0.118 A 
HETATM   16  N3  UNL     1     -25.938  23.974   5.390  1.00  0.00    -0.373 N 
HETATM   17  C6  UNL     1     -26.658  24.448   4.368  1.00  0.00     0.089 A 
ATOM     18  H3  UNL     1     -25.730  24.561   6.198  1.00  0.00     0.164 HD
HETATM   19  C7  UNL     1     -26.942  23.671   3.277  1.00  0.00     0.038 A 
HETATM   20  C8  UNL     1     -26.471  22.333   3.213  1.00  0.00     0.070 A 
BRANCH  20  21
HETATM   21  C9  UNL     1     -26.745  21.564   2.025  1.00  0.00     0.211 C 
HETATM   22  O1  UNL     1     -25.872  21.199   1.234  1.00  0.00    -0.644 OA
HETATM   23  O2  UNL     1     -28.054  21.176   1.686  1.00  0.00    -0.644 OA
ENDBRANCH  20  21
ENDBRANCH   1  14
TORSDOF 3
ENDMDL
