MODEL 3
REMARK VINA RESULT: -8.243781959      1.416      1.624
REMARK  3 active torsions:
REMARK  status: ('A' for Active; 'I' for Inactive)
REMARK    1  A    between atoms: C3_4  and  N2_5 
REMARK    2  A    between atoms: N2_5  and  C4_7 
REMARK    3  A    between atoms: C8_13  and  C9_14 
ROOT
HETATM    1  N2  UNL     1     -25.421  20.879   4.016  1.00  0.00    -0.352 N 
ATOM      2  H2  UNL     1     -26.134  20.443   4.600  1.00  0.00     0.166 HD
ENDROOT
BRANCH   1   3
HETATM    3  C3  UNL     1     -24.149  20.251   4.019  1.00  0.00     0.062 A 
HETATM    4  C2  UNL     1     -23.332  19.890   2.996  1.00  0.00     0.122 A 
HETATM    5  N1  UNL     1     -22.227  19.248   3.486  1.00  0.00    -0.345 N 
HETATM    6  C1  UNL     1     -21.155  18.733   2.674  1.00  0.00     0.157 C 
HETATM    7  C14 UNL     1     -22.317  19.185   4.820  1.00  0.00     0.119 A 
HETATM    8  C10 UNL     1     -23.498  19.798   5.183  1.00  0.00     0.036 A 
HETATM    9  N4  UNL     1     -21.491  18.658   5.756  1.00  0.00    -0.351 N 
HETATM   10  C11 UNL     1     -23.833  19.870   6.506  1.00  0.00     0.019 A 
HETATM   11  C12 UNL     1     -22.973  19.324   7.430  1.00  0.00     0.018 A 
HETATM   12  C13 UNL     1     -21.786  18.709   7.066  1.00  0.00     0.090 A 
ATOM     13  H4  UNL     1     -20.624  18.212   5.458  1.00  0.00     0.166 HD
ENDBRANCH   1   3
BRANCH   1  14
HETATM   14  C4  UNL     1     -25.821  22.016   3.317  1.00  0.00     0.065 A 
HETATM   15  C5  UNL     1     -24.832  22.865   2.804  1.00  0.00     0.118 A 
HETATM   16  N3  UNL     1     -25.093  24.035   2.202  1.00  0.00    -0.373 N 
HETATM   17  C6  UNL     1     -26.368  24.420   2.085  1.00  0.00     0.089 A 
ATOM     18  H3  UNL     1     -24.337  24.618   1.843  1.00  0.00     0.164 HD
HETATM   19  C7  UNL     1     -27.392  23.645   2.561  1.00  0.00     0.038 A 
HETATM   20  C8  UNL     1     -27.112  22.406   3.195  1.00  0.00     0.070 A 
BRANCH  20  21
HETATM   21  C9  UNL     1     -28.219  21.594   3.636  1.00  0.00     0.211 C 
HETATM   22  O1  UNL     1     -28.396  20.429   3.270  1.00  0.00    -0.644 OA
HETATM   23  O2  UNL     1     -29.186  22.091   4.527  1.00  0.00    -0.644 OA
ENDBRANCH  20  21
ENDBRANCH   1  14
TORSDOF 3
ENDMDL
