MODEL 4
REMARK VINA RESULT: -8.212204481      2.015      2.364
REMARK  3 active torsions:
REMARK  status: ('A' for Active; 'I' for Inactive)
REMARK    1  A    between atoms: C3_4  and  N2_5 
REMARK    2  A    between atoms: N2_5  and  C4_7 
REMARK    3  A    between atoms: C8_13  and  C9_14 
ROOT
HETATM    1  N2  UNL     1     -25.307  20.562   4.495  1.00  0.00    -0.352 N 
ATOM      2  H2  UNL     1     -25.956  20.040   5.084  1.00  0.00     0.166 HD
ENDROOT
BRANCH   1   3
HETATM    3  C3  UNL     1     -24.005  20.013   4.373  1.00  0.00     0.062 A 
HETATM    4  C2  UNL     1     -23.246  19.756   3.277  1.00  0.00     0.122 A 
HETATM    5  N1  UNL     1     -22.073  19.159   3.651  1.00  0.00    -0.345 N 
HETATM    6  C1  UNL     1     -21.035  18.753   2.738  1.00  0.00     0.157 C 
HETATM    7  C14 UNL     1     -22.060  19.023   4.983  1.00  0.00     0.119 A 
HETATM    8  C10 UNL     1     -23.244  19.542   5.461  1.00  0.00     0.036 A 
HETATM    9  N4  UNL     1     -21.138  18.500   5.827  1.00  0.00    -0.351 N 
HETATM   10  C11 UNL     1     -23.485  19.526   6.807  1.00  0.00     0.019 A 
HETATM   11  C12 UNL     1     -22.529  18.987   7.636  1.00  0.00     0.018 A 
HETATM   12  C13 UNL     1     -21.338  18.465   7.155  1.00  0.00     0.090 A 
ATOM     13  H4  UNL     1     -20.271  18.124   5.445  1.00  0.00     0.166 HD
ENDBRANCH   1   3
BRANCH   1  14
HETATM   14  C4  UNL     1     -25.814  21.722   3.913  1.00  0.00     0.065 A 
HETATM   15  C5  UNL     1     -25.884  21.790   2.515  1.00  0.00     0.118 A 
HETATM   16  N3  UNL     1     -26.259  22.888   1.841  1.00  0.00    -0.373 N 
HETATM   17  C6  UNL     1     -26.584  23.982   2.536  1.00  0.00     0.089 A 
ATOM     18  H3  UNL     1     -26.295  22.888   0.822  1.00  0.00     0.164 HD
HETATM   19  C7  UNL     1     -26.541  23.994   3.905  1.00  0.00     0.038 A 
HETATM   20  C8  UNL     1     -26.146  22.830   4.616  1.00  0.00     0.070 A 
BRANCH  20  21
HETATM   21  C9  UNL     1     -26.164  22.865   6.057  1.00  0.00     0.211 C 
HETATM   22  O1  UNL     1     -25.258  22.412   6.760  1.00  0.00    -0.644 OA
HETATM   23  O2  UNL     1     -27.241  23.429   6.765  1.00  0.00    -0.644 OA
ENDBRANCH  20  21
ENDBRANCH   1  14
TORSDOF 3
ENDMDL
