MODEL 2
REMARK VINA RESULT: -8.606732300      0.026      1.061
REMARK  4 active torsions:
REMARK  status: ('A' for Active; 'I' for Inactive)
REMARK    1  A    between atoms: C1_2  and  C2_3 
REMARK       I    between atoms: C1_2  and  N1_11 
REMARK    2  A    between atoms: C2_3  and  C3_4 
REMARK    3  A    between atoms: N1_11  and  C9_13 
REMARK    4  A    between atoms: C13_19  and  C14_20 
ROOT
HETATM    1  O1  UNL     1     -21.512  17.103   1.697  1.00  0.00    -0.273 OA
HETATM    2  C1  UNL     1     -21.585  17.783   2.742  1.00  0.00     0.226 C 
HETATM    3  N1  UNL     1     -21.094  19.111   2.839  1.00  0.00    -0.325 N 
ATOM      4  H1  UNL     1     -21.198  19.588   3.735  1.00  0.00     0.169 HD
ENDROOT
BRANCH   3   5
HETATM    5  C9  UNL     1     -20.471  19.821   1.787  1.00  0.00     0.067 A 
HETATM    6  C10 UNL     1     -19.137  19.689   1.482  1.00  0.00     0.118 A 
HETATM    7  N2  UNL     1     -18.531  20.373   0.466  1.00  0.00    -0.373 N 
HETATM    8  C11 UNL     1     -19.263  21.199  -0.253  1.00  0.00     0.089 A 
ATOM      9  H2  UNL     1     -17.537  20.247   0.270  1.00  0.00     0.164 HD
HETATM   10  C12 UNL     1     -20.577  21.380  -0.011  1.00  0.00     0.038 A 
HETATM   11  C13 UNL     1     -21.219  20.702   1.010  1.00  0.00     0.070 A 
BRANCH  11  12
HETATM   12  C14 UNL     1     -22.626  20.973   1.178  1.00  0.00     0.211 C 
HETATM   13  O2  UNL     1     -23.149  22.043   1.537  1.00  0.00    -0.644 OA
HETATM   14  O3  UNL     1     -23.548  19.940   0.917  1.00  0.00    -0.644 OA
ENDBRANCH  11  12
ENDBRANCH   3   5
BRANCH   2  15
HETATM   15  C2  UNL     1     -22.223  17.191   3.985  1.00  0.00     0.141 C 
BRANCH  15  16
HETATM   16  C3  UNL     1     -22.930  18.238   4.749  1.00  0.00    -0.049 A 
HETATM   17  C4  UNL     1     -22.602  18.471   6.067  1.00  0.00     0.009 A 
HETATM   18  C5  UNL     1     -23.253  19.444   6.795  1.00  0.00     0.024 A 
HETATM   19  C6  UNL     1     -24.252  20.209   6.218  1.00  0.00     0.034 A 
HETATM   20 CL1  UNL     1     -25.093  21.456   7.133  1.00  0.00    -0.084 Cl
HETATM   21  C7  UNL     1     -24.556  19.951   4.898  1.00  0.00     0.024 A 
HETATM   22  C8  UNL     1     -23.921  18.984   4.145  1.00  0.00     0.009 A 
ENDBRANCH  15  16
ENDBRANCH   2  15
TORSDOF 4
ENDMDL
