MODEL 1
REMARK VINA RESULT: -8.617600088      0.000      0.000
REMARK  4 active torsions:
REMARK  status: ('A' for Active; 'I' for Inactive)
REMARK    1  A    between atoms: C1_2  and  C2_3 
REMARK       I    between atoms: C1_2  and  N1_11 
REMARK    2  A    between atoms: C2_3  and  C3_4 
REMARK    3  A    between atoms: N1_11  and  C9_13 
REMARK    4  A    between atoms: C13_19  and  C14_20 
ROOT
HETATM    1  O1  UNL     1     -21.496  17.102   1.703  1.00  0.00    -0.273 OA
HETATM    2  C1  UNL     1     -21.572  17.779   2.749  1.00  0.00     0.226 C 
HETATM    3  N1  UNL     1     -21.084  19.108   2.851  1.00  0.00    -0.325 N 
ATOM      4  H1  UNL     1     -21.191  19.583   3.747  1.00  0.00     0.169 HD
ENDROOT
BRANCH   3   5
HETATM    5  C9  UNL     1     -20.460  19.822   1.802  1.00  0.00     0.067 A 
HETATM    6  C10 UNL     1     -19.124  19.698   1.503  1.00  0.00     0.118 A 
HETATM    7  N2  UNL     1     -18.517  20.386   0.490  1.00  0.00    -0.373 N 
HETATM    8  C11 UNL     1     -19.251  21.207  -0.233  1.00  0.00     0.089 A 
ATOM      9  H2  UNL     1     -17.522  20.266   0.299  1.00  0.00     0.164 HD
HETATM   10  C12 UNL     1     -20.567  21.380   0.002  1.00  0.00     0.038 A 
HETATM   11  C13 UNL     1     -21.211  20.698   1.020  1.00  0.00     0.070 A 
BRANCH  11  12
HETATM   12  C14 UNL     1     -22.620  20.960   1.181  1.00  0.00     0.211 C 
HETATM   13  O2  UNL     1     -23.150  22.019   1.561  1.00  0.00    -0.644 OA
HETATM   14  O3  UNL     1     -23.536  19.930   0.887  1.00  0.00    -0.644 OA
ENDBRANCH  11  12
ENDBRANCH   3   5
BRANCH   2  15
HETATM   15  C2  UNL     1     -22.212  17.183   3.989  1.00  0.00     0.141 C 
BRANCH  15  16
HETATM   16  C3  UNL     1     -22.914  18.228   4.760  1.00  0.00    -0.049 A 
HETATM   17  C4  UNL     1     -23.892  18.990   4.157  1.00  0.00     0.009 A 
HETATM   18  C5  UNL     1     -24.557  19.970   4.862  1.00  0.00     0.024 A 
HETATM   19  C6  UNL     1     -24.256  20.213   6.191  1.00  0.00     0.034 A 
HETATM   20 CL1  UNL     1     -25.096  21.462   7.105  1.00  0.00    -0.084 Cl
HETATM   21  C7  UNL     1     -23.272  19.435   6.763  1.00  0.00     0.024 A 
HETATM   22  C8  UNL     1     -22.592  18.446   6.083  1.00  0.00     0.009 A 
ENDBRANCH  15  16
ENDBRANCH   2  15
TORSDOF 4
ENDMDL
