MODEL 3
REMARK VINA RESULT: -8.536423691      2.061      3.300
REMARK  4 active torsions:
REMARK  status: ('A' for Active; 'I' for Inactive)
REMARK    1  A    between atoms: C1_2  and  C2_3 
REMARK       I    between atoms: C1_2  and  N1_11 
REMARK    2  A    between atoms: C2_3  and  C3_4 
REMARK    3  A    between atoms: N1_11  and  C9_13 
REMARK    4  A    between atoms: C13_19  and  C14_20 
ROOT
HETATM    1  O1  UNL     1     -25.241  20.942   1.350  1.00  0.00    -0.273 OA
HETATM    2  C1  UNL     1     -24.644  21.120   2.432  1.00  0.00     0.226 C 
HETATM    3  N1  UNL     1     -23.276  21.491   2.512  1.00  0.00    -0.325 N 
ATOM      4  H1  UNL     1     -22.874  21.614   3.442  1.00  0.00     0.169 HD
ENDROOT
BRANCH   3   5
HETATM    5  C9  UNL     1     -22.430  21.702   1.400  1.00  0.00     0.067 A 
HETATM    6  C10 UNL     1     -22.506  22.820   0.603  1.00  0.00     0.118 A 
HETATM    7  N2  UNL     1     -21.690  23.028  -0.473  1.00  0.00    -0.373 N 
HETATM    8  C11 UNL     1     -20.787  22.111  -0.758  1.00  0.00     0.089 A 
ATOM      9  H2  UNL     1     -21.776  23.872  -1.040  1.00  0.00     0.164 HD
HETATM   10  C12 UNL     1     -20.656  20.990  -0.022  1.00  0.00     0.038 A 
HETATM   11  C13 UNL     1     -21.467  20.750   1.074  1.00  0.00     0.070 A 
BRANCH  11  12
HETATM   12  C14 UNL     1     -21.237  19.519   1.788  1.00  0.00     0.211 C 
HETATM   13  O2  UNL     1     -21.269  18.364   1.327  1.00  0.00    -0.644 OA
HETATM   14  O3  UNL     1     -20.940  19.582   3.165  1.00  0.00    -0.644 OA
ENDBRANCH  11  12
ENDBRANCH   3   5
BRANCH   2  15
HETATM   15  C2  UNL     1     -25.388  20.940   3.743  1.00  0.00     0.141 C 
BRANCH  15  16
HETATM   16  C3  UNL     1     -24.630  20.052   4.647  1.00  0.00    -0.049 A 
HETATM   17  C4  UNL     1     -24.217  18.812   4.209  1.00  0.00     0.009 A 
HETATM   18  C5  UNL     1     -23.509  17.970   5.040  1.00  0.00     0.024 A 
HETATM   19  C6  UNL     1     -23.198  18.351   6.334  1.00  0.00     0.034 A 
HETATM   20 CL1  UNL     1     -22.294  17.289   7.408  1.00  0.00    -0.084 Cl
HETATM   21  C7  UNL     1     -23.626  19.598   6.740  1.00  0.00     0.024 A 
HETATM   22  C8  UNL     1     -24.335  20.461   5.930  1.00  0.00     0.009 A 
ENDBRANCH  15  16
ENDBRANCH   2  15
TORSDOF 4
ENDMDL
