MODEL 3
REMARK VINA RESULT: -8.238407975      6.093      9.084
REMARK  3 active torsions:
REMARK  status: ('A' for Active; 'I' for Inactive)
REMARK    1  A    between atoms: C4_5  and  C5_6 
REMARK    2  A    between atoms: C12_14  and  N2_15 
REMARK       I    between atoms: N2_15  and  C13_17 
REMARK    3  A    between atoms: C13_17  and  C14_19 
ROOT
HETATM    1  N1  UNL     1      74.862  36.593  -0.494  1.00  0.00    -0.100 NA
HETATM    2  C1  UNL     1      73.838  35.629  -0.532  1.00  0.00     0.073 A 
HETATM    3  C2  UNL     1      72.940  35.559  -1.561  1.00  0.00     0.030 A 
HETATM    4  C3  UNL     1      71.938  34.638  -1.625  1.00  0.00     0.014 A 
HETATM    5  C4  UNL     1      71.820  33.733  -0.610  1.00  0.00    -0.024 A 
HETATM    6  C11 UNL     1      72.729  33.784   0.457  1.00  0.00     0.043 A 
HETATM    7  C12 UNL     1      73.739  34.715   0.522  1.00  0.00     0.059 A 
ENDROOT
BRANCH   7   8
HETATM    8  N2  UNL     1      74.666  34.801   1.564  1.00  0.00    -0.325 N 
HETATM    9  C13 UNL     1      74.456  35.387   2.817  1.00  0.00     0.226 C 
HETATM   10  O1  UNL     1      73.370  35.909   3.132  1.00  0.00    -0.273 OA
ATOM     11  H2  UNL     1      75.587  34.397   1.394  1.00  0.00     0.169 HD
BRANCH   9  12
HETATM   12  C14 UNL     1      75.596  35.371   3.793  1.00  0.00     0.082 C 
HETATM   13  C15 UNL     1      75.975  36.775   4.147  1.00  0.00     0.040 C 
HETATM   14  C16 UNL     1      76.020  36.985   5.656  1.00  0.00     0.168 C 
HETATM   15  O2  UNL     1      76.750  36.019   6.306  1.00  0.00    -0.391 OA
HETATM   16  C17 UNL     1      76.369  34.732   6.021  1.00  0.00     0.168 C 
HETATM   17  C18 UNL     1      75.204  34.654   5.064  1.00  0.00     0.040 C 
ENDBRANCH   9  12
ENDBRANCH   7   8
BRANCH   5  18
HETATM   18  C5  UNL     1      70.784  32.718  -0.596  1.00  0.00    -0.026 A 
HETATM   19  C6  UNL     1      71.066  31.366  -0.478  1.00  0.00     0.015 A 
HETATM   20  C7  UNL     1      70.037  30.438  -0.470  1.00  0.00     0.043 A 
HETATM   21  C8  UNL     1      68.719  30.852  -0.580  1.00  0.00     0.116 A 
HETATM   22  F1  UNL     1      67.704  29.955  -0.573  1.00  0.00    -0.206 F 
HETATM   23  C9  UNL     1      68.444  32.179  -0.695  1.00  0.00     0.043 A 
HETATM   24  C10 UNL     1      69.448  33.115  -0.706  1.00  0.00     0.015 A 
ENDBRANCH   5  18
TORSDOF 3
ENDMDL
