MODEL 4
REMARK VINA RESULT: -8.230838389      4.089      8.660
REMARK  3 active torsions:
REMARK  status: ('A' for Active; 'I' for Inactive)
REMARK    1  A    between atoms: C4_5  and  C5_6 
REMARK    2  A    between atoms: C12_14  and  N2_15 
REMARK       I    between atoms: N2_15  and  C13_17 
REMARK    3  A    between atoms: C13_17  and  C14_19 
ROOT
HETATM    1  N1  UNL     1      67.662  32.780  -0.701  1.00  0.00    -0.100 NA
HETATM    2  C1  UNL     1      69.036  32.484  -0.638  1.00  0.00     0.073 A 
HETATM    3  C2  UNL     1      69.987  33.331  -1.135  1.00  0.00     0.030 A 
HETATM    4  C3  UNL     1      71.325  33.072  -1.088  1.00  0.00     0.014 A 
HETATM    5  C4  UNL     1      71.743  31.906  -0.515  1.00  0.00    -0.024 A 
HETATM    6  C11 UNL     1      70.786  31.020   0.003  1.00  0.00     0.043 A 
HETATM    7  C12 UNL     1      69.436  31.282  -0.046  1.00  0.00     0.059 A 
ENDROOT
BRANCH   7   8
HETATM    8  N2  UNL     1      68.450  30.431   0.458  1.00  0.00    -0.325 N 
HETATM    9  C13 UNL     1      67.449  29.790  -0.281  1.00  0.00     0.226 C 
HETATM   10  O1  UNL     1      67.343  29.927  -1.515  1.00  0.00    -0.273 OA
ATOM     11  H2  UNL     1      68.460  30.259   1.463  1.00  0.00     0.169 HD
BRANCH   9  12
HETATM   12  C14 UNL     1      66.485  28.914   0.466  1.00  0.00     0.082 C 
HETATM   13  C15 UNL     1      66.248  29.477   1.831  1.00  0.00     0.040 C 
HETATM   14  C16 UNL     1      64.760  29.631   2.129  1.00  0.00     0.168 C 
HETATM   15  O2  UNL     1      64.041  28.493   1.851  1.00  0.00    -0.391 OA
HETATM   16  C17 UNL     1      64.220  28.005   0.581  1.00  0.00     0.168 C 
HETATM   17  C18 UNL     1      65.157  28.844  -0.253  1.00  0.00     0.040 C 
ENDBRANCH   9  12
ENDBRANCH   7   8
BRANCH   5  18
HETATM   18  C5  UNL     1      73.145  31.550  -0.422  1.00  0.00    -0.026 A 
HETATM   19  C6  UNL     1      73.600  30.511   0.375  1.00  0.00     0.015 A 
HETATM   20  C7  UNL     1      74.952  30.213   0.427  1.00  0.00     0.043 A 
HETATM   21  C8  UNL     1      75.861  30.949  -0.316  1.00  0.00     0.116 A 
HETATM   22  F1  UNL     1      77.186  30.669  -0.275  1.00  0.00    -0.206 F 
HETATM   23  C9  UNL     1      75.413  31.969  -1.098  1.00  0.00     0.043 A 
HETATM   24  C10 UNL     1      74.079  32.280  -1.163  1.00  0.00     0.015 A 
ENDBRANCH   5  18
TORSDOF 3
ENDMDL
