MODEL 1
REMARK VINA RESULT: -10.341162109      0.000      0.000
REMARK  3 active torsions:
REMARK  status: ('A' for Active; 'I' for Inactive)
REMARK    1  A    between atoms: C4_5  and  C5_6 
REMARK    2  A    between atoms: C12_14  and  N2_15 
REMARK       I    between atoms: N2_15  and  C13_17 
REMARK    3  A    between atoms: C13_17  and  C14_19 
ROOT
HETATM    1  N1  UNL     1      66.146  28.976  -1.707  1.00  0.00    -0.100 NA
HETATM    2  C1  UNL     1      65.733  28.890  -0.365  1.00  0.00     0.073 A 
HETATM    3  C2  UNL     1      64.507  28.400  -0.010  1.00  0.00     0.030 A 
HETATM    4  C3  UNL     1      64.080  28.304   1.281  1.00  0.00     0.014 A 
HETATM    5  C4  UNL     1      64.917  28.717   2.277  1.00  0.00    -0.024 A 
HETATM    6  C11 UNL     1      66.181  29.224   1.938  1.00  0.00     0.043 A 
HETATM    7  C12 UNL     1      66.611  29.321   0.635  1.00  0.00     0.059 A 
ENDROOT
BRANCH   7   8
HETATM    8  N2  UNL     1      67.859  29.818   0.252  1.00  0.00    -0.325 N 
HETATM    9  C13 UNL     1      68.100  30.975  -0.497  1.00  0.00     0.226 C 
HETATM   10  O1  UNL     1      67.177  31.703  -0.909  1.00  0.00    -0.273 OA
ATOM     11  H2  UNL     1      68.676  29.284   0.548  1.00  0.00     0.169 HD
BRANCH   9  12
HETATM   12  C14 UNL     1      69.528  31.325  -0.798  1.00  0.00     0.082 C 
HETATM   13  C15 UNL     1      69.650  32.801  -1.010  1.00  0.00     0.040 C 
HETATM   14  C16 UNL     1      70.749  33.408  -0.145  1.00  0.00     0.168 C 
HETATM   15  O2  UNL     1      71.937  32.721  -0.234  1.00  0.00    -0.391 OA
HETATM   16  C17 UNL     1      71.833  31.375   0.011  1.00  0.00     0.168 C 
HETATM   17  C18 UNL     1      70.429  30.938   0.352  1.00  0.00     0.040 C 
ENDBRANCH   9  12
ENDBRANCH   7   8
BRANCH   5  18
HETATM   18  C5  UNL     1      64.545  28.652   3.677  1.00  0.00    -0.026 A 
HETATM   19  C6  UNL     1      65.480  28.539   4.693  1.00  0.00     0.015 A 
HETATM   20  C7  UNL     1      65.070  28.480   6.015  1.00  0.00     0.043 A 
HETATM   21  C8  UNL     1      63.722  28.533   6.333  1.00  0.00     0.116 A 
HETATM   22  F1  UNL     1      63.306  28.477   7.621  1.00  0.00    -0.206 F 
HETATM   23  C9  UNL     1      62.804  28.644   5.334  1.00  0.00     0.043 A 
HETATM   24  C10 UNL     1      63.190  28.703   4.019  1.00  0.00     0.015 A 
ENDBRANCH   5  18
TORSDOF 3
ENDMDL
