MODEL 5
REMARK VINA RESULT: -8.209460463      6.100      9.354
REMARK  3 active torsions:
REMARK  status: ('A' for Active; 'I' for Inactive)
REMARK    1  A    between atoms: C4_5  and  C5_6 
REMARK    2  A    between atoms: C12_14  and  N2_15 
REMARK       I    between atoms: N2_15  and  C13_17 
REMARK    3  A    between atoms: C13_17  and  C14_19 
ROOT
HETATM    1  N1  UNL     1      75.616  35.878  -1.741  1.00  0.00    -0.100 NA
HETATM    2  C1  UNL     1      74.500  35.062  -1.480  1.00  0.00     0.073 A 
HETATM    3  C2  UNL     1      73.498  35.446  -0.634  1.00  0.00     0.030 A 
HETATM    4  C3  UNL     1      72.405  34.677  -0.362  1.00  0.00     0.014 A 
HETATM    5  C4  UNL     1      72.301  33.458  -0.964  1.00  0.00    -0.024 A 
HETATM    6  C11 UNL     1      73.317  33.040  -1.837  1.00  0.00     0.043 A 
HETATM    7  C12 UNL     1      74.420  33.816  -2.110  1.00  0.00     0.059 A 
ENDROOT
BRANCH   7   8
HETATM    8  N2  UNL     1      75.453  33.441  -2.972  1.00  0.00    -0.325 N 
HETATM    9  C13 UNL     1      75.362  33.277  -4.359  1.00  0.00     0.226 C 
HETATM   10  O1  UNL     1      74.298  33.461  -4.980  1.00  0.00    -0.273 OA
ATOM     11  H2  UNL     1      76.365  33.270  -2.548  1.00  0.00     0.169 HD
BRANCH   9  12
HETATM   12  C14 UNL     1      76.604  32.865  -5.095  1.00  0.00     0.082 C 
HETATM   13  C15 UNL     1      76.823  31.395  -4.927  1.00  0.00     0.040 C 
HETATM   14  C16 UNL     1      77.022  30.696  -6.268  1.00  0.00     0.168 C 
HETATM   15  O2  UNL     1      77.953  31.322  -7.061  1.00  0.00    -0.391 OA
HETATM   16  C17 UNL     1      77.723  32.661  -7.257  1.00  0.00     0.168 C 
HETATM   17  C18 UNL     1      76.472  33.157  -6.572  1.00  0.00     0.040 C 
ENDBRANCH   9  12
ENDBRANCH   7   8
BRANCH   5  18
HETATM   18  C5  UNL     1      71.174  32.575  -0.733  1.00  0.00    -0.026 A 
HETATM   19  C6  UNL     1      71.323  31.213  -0.524  1.00  0.00     0.015 A 
HETATM   20  C7  UNL     1      70.211  30.415  -0.308  1.00  0.00     0.043 A 
HETATM   21  C8  UNL     1      68.942  30.971  -0.299  1.00  0.00     0.116 A 
HETATM   22  F1  UNL     1      67.845  30.202  -0.089  1.00  0.00    -0.206 F 
HETATM   23  C9  UNL     1      68.797  32.308  -0.505  1.00  0.00     0.043 A 
HETATM   24  C10 UNL     1      69.885  33.115  -0.721  1.00  0.00     0.015 A 
ENDBRANCH   5  18
TORSDOF 3
ENDMDL
