MODEL 2
REMARK VINA RESULT: -9.780677564      0.944      1.332
REMARK  3 active torsions:
REMARK  status: ('A' for Active; 'I' for Inactive)
REMARK    1  A    between atoms: C4_5  and  C5_6 
REMARK    2  A    between atoms: C12_14  and  N2_15 
REMARK       I    between atoms: N2_15  and  C13_17 
REMARK    3  A    between atoms: C13_17  and  C14_19 
ROOT
HETATM    1  N1  UNL     1      66.206  28.744  -1.036  1.00  0.00    -0.100 NA
HETATM    2  C1  UNL     1      65.599  28.680   0.231  1.00  0.00     0.073 A 
HETATM    3  C2  UNL     1      64.409  28.040   0.437  1.00  0.00     0.030 A 
HETATM    4  C3  UNL     1      63.796  27.962   1.653  1.00  0.00     0.014 A 
HETATM    5  C4  UNL     1      64.399  28.552   2.725  1.00  0.00    -0.024 A 
HETATM    6  C11 UNL     1      65.622  29.215   2.539  1.00  0.00     0.043 A 
HETATM    7  C12 UNL     1      66.238  29.294   1.312  1.00  0.00     0.059 A 
ENDROOT
BRANCH   7   8
HETATM    8  N2  UNL     1      67.454  29.943   1.082  1.00  0.00    -0.325 N 
HETATM    9  C13 UNL     1      67.714  30.897   0.091  1.00  0.00     0.226 C 
HETATM   10  O1  UNL     1      66.840  31.273  -0.713  1.00  0.00    -0.273 OA
ATOM     11  H2  UNL     1      68.230  29.697   1.697  1.00  0.00     0.169 HD
BRANCH   9  12
HETATM   12  C14 UNL     1      69.100  31.468   0.020  1.00  0.00     0.082 C 
HETATM   13  C15 UNL     1      69.987  30.541  -0.750  1.00  0.00     0.040 C 
HETATM   14  C16 UNL     1      70.728  31.267  -1.868  1.00  0.00     0.168 C 
HETATM   15  O2  UNL     1      71.345  32.417  -1.438  1.00  0.00    -0.391 OA
HETATM   16  C17 UNL     1      70.519  33.290  -0.775  1.00  0.00     0.168 C 
HETATM   17  C18 UNL     1      69.092  32.806  -0.682  1.00  0.00     0.040 C 
ENDBRANCH   9  12
ENDBRANCH   7   8
BRANCH   5  18
HETATM   18  C5  UNL     1      63.820  28.518   4.054  1.00  0.00    -0.026 A 
HETATM   19  C6  UNL     1      64.591  28.508   5.205  1.00  0.00     0.015 A 
HETATM   20  C7  UNL     1      63.985  28.475   6.450  1.00  0.00     0.043 A 
HETATM   21  C8  UNL     1      62.604  28.452   6.556  1.00  0.00     0.116 A 
HETATM   22  F1  UNL     1      61.997  28.420   7.768  1.00  0.00    -0.206 F 
HETATM   23  C9  UNL     1      61.847  28.462   5.426  1.00  0.00     0.043 A 
HETATM   24  C10 UNL     1      62.427  28.494   4.183  1.00  0.00     0.015 A 
ENDBRANCH   5  18
TORSDOF 3
ENDMDL
