MODEL 2
REMARK VINA RESULT: -10.233536305      0.982      1.718
REMARK  3 active torsions:
REMARK  status: ('A' for Active; 'I' for Inactive)
REMARK    1  A    between atoms: C4_5  and  C5_6 
REMARK    2  A    between atoms: C12_14  and  N2_15 
REMARK       I    between atoms: N2_15  and  C13_17 
REMARK    3  A    between atoms: C13_17  and  C14_19 
ROOT
HETATM    1  N1  UNL     1      66.390  28.709  -1.251  1.00  0.00    -0.100 NA
HETATM    2  C1  UNL     1      65.759  28.633   0.018  1.00  0.00     0.073 A 
HETATM    3  C2  UNL     1      64.502  28.067   0.122  1.00  0.00     0.030 A 
HETATM    4  C3  UNL     1      63.879  27.987   1.347  1.00  0.00     0.014 A 
HETATM    5  C4  UNL     1      64.476  28.458   2.490  1.00  0.00    -0.024 A 
HETATM    6  C11 UNL     1      65.744  29.025   2.366  1.00  0.00     0.043 A 
HETATM    7  C12 UNL     1      66.403  29.126   1.165  1.00  0.00     0.059 A 
ENDROOT
BRANCH   7   8
HETATM    8  N2  UNL     1      67.676  29.681   0.959  1.00  0.00    -0.325 N 
HETATM    9  C13 UNL     1      68.037  30.714   0.067  1.00  0.00     0.226 C 
HETATM   10  O1  UNL     1      67.162  31.240  -0.651  1.00  0.00    -0.273 OA
ATOM     11  H2  UNL     1      68.432  29.290   1.522  1.00  0.00     0.169 HD
BRANCH   9  12
HETATM   12  C14 UNL     1      69.470  31.197  -0.031  1.00  0.00     0.083 C 
HETATM   13  C15 UNL     1      70.153  30.604  -1.225  1.00  0.00     0.046 C 
HETATM   14  C16 UNL     1      70.943  31.569  -2.035  1.00  0.00     0.122 C 
HETATM   15  C17 UNL     1      72.285  31.914  -1.452  1.00  0.00     0.034 C 
HETATM   16  O2  UNL     1      70.344  32.813  -2.169  1.00  0.00    -0.381 OA
HETATM   17  C18 UNL     1      71.906  33.001  -0.447  1.00  0.00     0.034 C 
HETATM   18  C19 UNL     1      70.510  33.328  -0.868  1.00  0.00     0.122 C 
HETATM   19  C20 UNL     1      69.452  32.698  -0.016  1.00  0.00     0.046 C 
ENDBRANCH   9  12
ENDBRANCH   7   8
BRANCH   5  20
HETATM   20  C5  UNL     1      63.821  28.379   3.804  1.00  0.00    -0.026 A 
HETATM   21  C6  UNL     1      62.452  28.294   3.948  1.00  0.00     0.015 A 
HETATM   22  C7  UNL     1      61.841  28.219   5.189  1.00  0.00     0.043 A 
HETATM   23  C8  UNL     1      62.605  28.226   6.338  1.00  0.00     0.116 A 
HETATM   24  F1  UNL     1      62.064  28.153   7.586  1.00  0.00    -0.206 F 
HETATM   25  C9  UNL     1      63.968  28.309   6.188  1.00  0.00     0.043 A 
HETATM   26  C10 UNL     1      64.584  28.384   4.958  1.00  0.00     0.015 A 
ENDBRANCH   5  20
TORSDOF 3
ENDMDL
