MODEL 1
REMARK VINA RESULT: -11.577020854      0.000      0.000
REMARK  3 active torsions:
REMARK  status: ('A' for Active; 'I' for Inactive)
REMARK    1  A    between atoms: C4_5  and  C5_6 
REMARK    2  A    between atoms: C12_14  and  N2_15 
REMARK       I    between atoms: N2_15  and  C13_17 
REMARK    3  A    between atoms: C13_17  and  C14_19 
ROOT
HETATM    1  N1  UNL     1      65.926  28.510  -1.622  1.00  0.00    -0.100 NA
HETATM    2  C1  UNL     1      65.541  28.489  -0.256  1.00  0.00     0.073 A 
HETATM    3  C2  UNL     1      64.356  27.876   0.110  1.00  0.00     0.030 A 
HETATM    4  C3  UNL     1      63.972  27.849   1.431  1.00  0.00     0.014 A 
HETATM    5  C4  UNL     1      64.740  28.419   2.416  1.00  0.00    -0.024 A 
HETATM    6  C11 UNL     1      65.931  29.031   2.029  1.00  0.00     0.043 A 
HETATM    7  C12 UNL     1      66.354  29.083   0.723  1.00  0.00     0.059 A 
ENDROOT
BRANCH   7   8
HETATM    8  N2  UNL     1      67.536  29.679   0.255  1.00  0.00    -0.325 N 
HETATM    9  C13 UNL     1      67.665  30.810  -0.581  1.00  0.00     0.226 C 
HETATM   10  O1  UNL     1      66.639  31.396  -0.984  1.00  0.00    -0.273 OA
ATOM     11  H2  UNL     1      68.407  29.242   0.555  1.00  0.00     0.169 HD
BRANCH   9  12
HETATM   12  C14 UNL     1      69.027  31.325  -0.995  1.00  0.00     0.083 C 
HETATM   13  C15 UNL     1      69.375  32.578  -0.252  1.00  0.00     0.046 C 
HETATM   14  C16 UNL     1      70.757  32.617   0.295  1.00  0.00     0.122 C 
HETATM   15  C17 UNL     1      71.817  32.939  -0.722  1.00  0.00     0.034 C 
HETATM   16  O2  UNL     1      71.193  31.404   0.809  1.00  0.00    -0.381 OA
HETATM   17  C18 UNL     1      72.057  31.567  -1.351  1.00  0.00     0.034 C 
HETATM   18  C19 UNL     1      71.374  30.664  -0.376  1.00  0.00     0.122 C 
HETATM   19  C20 UNL     1      70.016  30.210  -0.815  1.00  0.00     0.046 C 
ENDBRANCH   9  12
ENDBRANCH   7   8
BRANCH   5  20
HETATM   20  C5  UNL     1      64.339  28.395   3.830  1.00  0.00    -0.026 A 
HETATM   21  C6  UNL     1      65.251  28.305   4.860  1.00  0.00     0.015 A 
HETATM   22  C7  UNL     1      64.866  28.284   6.191  1.00  0.00     0.043 A 
HETATM   23  C8  UNL     1      63.530  28.355   6.526  1.00  0.00     0.116 A 
HETATM   24  F1  UNL     1      63.088  28.340   7.815  1.00  0.00    -0.206 F 
HETATM   25  C9  UNL     1      62.626  28.446   5.496  1.00  0.00     0.043 A 
HETATM   26  C10 UNL     1      63.000  28.467   4.169  1.00  0.00     0.015 A 
ENDBRANCH   5  20
TORSDOF 3
ENDMDL
