MODEL 3
REMARK VINA RESULT: -10.199224775      0.957      1.020
REMARK  3 active torsions:
REMARK  status: ('A' for Active; 'I' for Inactive)
REMARK    1  A    between atoms: C4_5  and  C5_6 
REMARK    2  A    between atoms: C12_14  and  N2_15 
REMARK       I    between atoms: N2_15  and  C13_17 
REMARK    3  A    between atoms: C13_17  and  C14_19 
ROOT
HETATM    1  N1  UNL     1      66.047  28.806  -1.935  1.00  0.00    -0.100 NA
HETATM    2  C1  UNL     1      65.671  28.735  -0.568  1.00  0.00     0.073 A 
HETATM    3  C2  UNL     1      64.766  27.772  -0.158  1.00  0.00     0.030 A 
HETATM    4  C3  UNL     1      64.393  27.693   1.164  1.00  0.00     0.014 A 
HETATM    5  C4  UNL     1      64.899  28.553   2.107  1.00  0.00    -0.024 A 
HETATM    6  C11 UNL     1      65.810  29.517   1.676  1.00  0.00     0.043 A 
HETATM    7  C12 UNL     1      66.211  29.633   0.368  1.00  0.00     0.059 A 
ENDROOT
BRANCH   7   8
HETATM    8  N2  UNL     1      67.120  30.573  -0.143  1.00  0.00    -0.325 N 
HETATM    9  C13 UNL     1      68.482  30.378  -0.460  1.00  0.00     0.226 C 
HETATM   10  O1  UNL     1      68.999  29.255  -0.288  1.00  0.00    -0.273 OA
ATOM     11  H2  UNL     1      66.751  31.510  -0.306  1.00  0.00     0.169 HD
BRANCH   9  12
HETATM   12  C14 UNL     1      69.327  31.510  -1.006  1.00  0.00     0.083 C 
HETATM   13  C15 UNL     1      69.622  32.520   0.060  1.00  0.00     0.046 C 
HETATM   14  C16 UNL     1      71.038  32.973   0.117  1.00  0.00     0.122 C 
HETATM   15  C17 UNL     1      71.407  33.986  -0.930  1.00  0.00     0.034 C 
HETATM   16  O2  UNL     1      71.961  31.961  -0.106  1.00  0.00    -0.381 OA
HETATM   17  C18 UNL     1      71.697  33.086  -2.131  1.00  0.00     0.034 C 
HETATM   18  C19 UNL     1      71.785  31.742  -1.486  1.00  0.00     0.122 C 
HETATM   19  C20 UNL     1      70.549  30.910  -1.638  1.00  0.00     0.046 C 
ENDBRANCH   9  12
ENDBRANCH   7   8
BRANCH   5  20
HETATM   20  C5  UNL     1      64.507  28.478   3.523  1.00  0.00    -0.026 A 
HETATM   21  C6  UNL     1      65.427  28.371   4.544  1.00  0.00     0.015 A 
HETATM   22  C7  UNL     1      65.051  28.301   5.875  1.00  0.00     0.043 A 
HETATM   23  C8  UNL     1      63.716  28.338   6.220  1.00  0.00     0.116 A 
HETATM   24  F1  UNL     1      63.282  28.273   7.510  1.00  0.00    -0.206 F 
HETATM   25  C9  UNL     1      62.804  28.445   5.199  1.00  0.00     0.043 A 
HETATM   26  C10 UNL     1      63.169  28.515   3.871  1.00  0.00     0.015 A 
ENDBRANCH   5  20
TORSDOF 3
ENDMDL
