MODEL 5
REMARK VINA RESULT: -8.417497475      6.110      9.450
REMARK  3 active torsions:
REMARK  status: ('A' for Active; 'I' for Inactive)
REMARK    1  A    between atoms: C4_5  and  C5_6 
REMARK    2  A    between atoms: C12_14  and  N2_15 
REMARK       I    between atoms: N2_15  and  C13_17 
REMARK    3  A    between atoms: C13_17  and  C14_19 
ROOT
HETATM    1  N1  UNL     1      74.834  36.371  -0.074  1.00  0.00    -0.100 NA
HETATM    2  C1  UNL     1      73.807  35.397  -0.185  1.00  0.00     0.073 A 
HETATM    3  C2  UNL     1      72.956  35.424  -1.275  1.00  0.00     0.030 A 
HETATM    4  C3  UNL     1      71.956  34.486  -1.394  1.00  0.00     0.014 A 
HETATM    5  C4  UNL     1      71.772  33.506  -0.451  1.00  0.00    -0.024 A 
HETATM    6  C11 UNL     1      72.640  33.493   0.640  1.00  0.00     0.043 A 
HETATM    7  C12 UNL     1      73.651  34.409   0.801  1.00  0.00     0.059 A 
ENDROOT
BRANCH   7   8
HETATM    8  N2  UNL     1      74.563  34.463   1.868  1.00  0.00    -0.325 N 
HETATM    9  C13 UNL     1      74.395  35.091   3.121  1.00  0.00     0.226 C 
HETATM   10  O1  UNL     1      73.326  35.687   3.371  1.00  0.00    -0.273 OA
ATOM     11  H2  UNL     1      75.454  33.991   1.719  1.00  0.00     0.169 HD
BRANCH   9  12
HETATM   12  C14 UNL     1      75.489  35.054   4.167  1.00  0.00     0.083 C 
HETATM   13  C15 UNL     1      76.140  36.396   4.308  1.00  0.00     0.046 C 
HETATM   14  C16 UNL     1      76.347  36.846   5.710  1.00  0.00     0.122 C 
HETATM   15  C17 UNL     1      77.527  36.213   6.396  1.00  0.00     0.034 C 
HETATM   16  O2  UNL     1      75.299  36.529   6.562  1.00  0.00    -0.381 OA
HETATM   17  C18 UNL     1      76.928  34.887   6.862  1.00  0.00     0.034 C 
HETATM   18  C19 UNL     1      75.466  35.135   6.681  1.00  0.00     0.122 C 
HETATM   19  C20 UNL     1      74.893  34.524   5.439  1.00  0.00     0.046 C 
ENDBRANCH   9  12
ENDBRANCH   7   8
BRANCH   5  20
HETATM   20  C5  UNL     1      70.708  32.498  -0.568  1.00  0.00    -0.026 A 
HETATM   21  C6  UNL     1      70.967  31.146  -0.633  1.00  0.00     0.015 A 
HETATM   22  C7  UNL     1      69.959  30.202  -0.743  1.00  0.00     0.043 A 
HETATM   23  C8  UNL     1      68.639  30.602  -0.791  1.00  0.00     0.116 A 
HETATM   24  F1  UNL     1      67.603  29.724  -0.898  1.00  0.00    -0.206 F 
HETATM   25  C9  UNL     1      68.387  31.950  -0.726  1.00  0.00     0.043 A 
HETATM   26  C10 UNL     1      69.383  32.896  -0.616  1.00  0.00     0.015 A 
ENDBRANCH   5  20
TORSDOF 3
ENDMDL
