MODEL 6
REMARK VINA RESULT: -8.054888958      6.039      9.418
REMARK  3 active torsions:
REMARK  status: ('A' for Active; 'I' for Inactive)
REMARK    1  A    between atoms: C4_5  and  C5_6 
REMARK    2  A    between atoms: C12_14  and  N2_15 
REMARK       I    between atoms: N2_15  and  C13_17 
REMARK    3  A    between atoms: C13_17  and  C14_19 
ROOT
HETATM    1  N1  UNL     1      75.987  34.776  -0.461  1.00  0.00    -0.100 NA
HETATM    2  C1  UNL     1      74.737  34.104  -0.496  1.00  0.00     0.073 A 
HETATM    3  C2  UNL     1      74.191  33.743  -1.715  1.00  0.00     0.030 A 
HETATM    4  C3  UNL     1      72.980  33.091  -1.762  1.00  0.00     0.014 A 
HETATM    5  C4  UNL     1      72.284  32.781  -0.620  1.00  0.00    -0.024 A 
HETATM    6  C11 UNL     1      72.850  33.152   0.599  1.00  0.00     0.043 A 
HETATM    7  C12 UNL     1      74.056  33.803   0.695  1.00  0.00     0.059 A 
ENDROOT
BRANCH   7   8
HETATM    8  N2  UNL     1      74.690  34.209   1.879  1.00  0.00    -0.325 N 
HETATM    9  C13 UNL     1      74.298  35.237   2.765  1.00  0.00     0.226 C 
HETATM   10  O1  UNL     1      73.269  35.900   2.520  1.00  0.00    -0.273 OA
ATOM     11  H2  UNL     1      75.537  33.699   2.131  1.00  0.00     0.169 HD
BRANCH   9  12
HETATM   12  C14 UNL     1      75.104  35.547   4.009  1.00  0.00     0.083 C 
HETATM   13  C15 UNL     1      75.647  36.942   3.961  1.00  0.00     0.046 C 
HETATM   14  C16 UNL     1      75.488  37.718   5.219  1.00  0.00     0.122 C 
HETATM   15  C17 UNL     1      76.488  37.377   6.288  1.00  0.00     0.034 C 
HETATM   16  O2  UNL     1      74.277  37.504   5.861  1.00  0.00    -0.381 OA
HETATM   17  C18 UNL     1      75.847  36.141   6.917  1.00  0.00     0.034 C 
HETATM   18  C19 UNL     1      74.465  36.198   6.353  1.00  0.00     0.122 C 
HETATM   19  C20 UNL     1      74.238  35.266   5.202  1.00  0.00     0.046 C 
ENDBRANCH   9  12
ENDBRANCH   7   8
BRANCH   5  20
HETATM   20  C5  UNL     1      70.989  32.085  -0.659  1.00  0.00    -0.026 A 
HETATM   21  C6  UNL     1      69.785  32.754  -0.692  1.00  0.00     0.015 A 
HETATM   22  C7  UNL     1      68.569  32.092  -0.729  1.00  0.00     0.043 A 
HETATM   23  C8  UNL     1      68.532  30.713  -0.735  1.00  0.00     0.116 A 
HETATM   24  F1  UNL     1      67.370  30.004  -0.772  1.00  0.00    -0.206 F 
HETATM   25  C9  UNL     1      69.735  30.051  -0.704  1.00  0.00     0.043 A 
HETATM   26  C10 UNL     1      70.950  30.701  -0.667  1.00  0.00     0.015 A 
ENDBRANCH   5  20
TORSDOF 3
ENDMDL
