MODEL 7
REMARK VINA RESULT: -8.009458649      6.126      9.381
REMARK  3 active torsions:
REMARK  status: ('A' for Active; 'I' for Inactive)
REMARK    1  A    between atoms: C4_5  and  C5_6 
REMARK    2  A    between atoms: C12_14  and  N2_15 
REMARK       I    between atoms: N2_15  and  C13_17 
REMARK    3  A    between atoms: C13_17  and  C14_19 
ROOT
HETATM    1  N1  UNL     1      76.202  34.468   0.133  1.00  0.00    -0.100 NA
HETATM    2  C1  UNL     1      74.928  33.859  -0.021  1.00  0.00     0.073 A 
HETATM    3  C2  UNL     1      74.608  33.240  -1.216  1.00  0.00     0.030 A 
HETATM    4  C3  UNL     1      73.377  32.646  -1.378  1.00  0.00     0.014 A 
HETATM    5  C4  UNL     1      72.440  32.646  -0.375  1.00  0.00    -0.024 A 
HETATM    6  C11 UNL     1      72.781  33.274   0.823  1.00  0.00     0.043 A 
HETATM    7  C12 UNL     1      73.996  33.880   1.029  1.00  0.00     0.059 A 
ENDROOT
BRANCH   7   8
HETATM    8  N2  UNL     1      74.413  34.530   2.202  1.00  0.00    -0.325 N 
HETATM    9  C13 UNL     1      73.874  35.698   2.784  1.00  0.00     0.226 C 
HETATM   10  O1  UNL     1      72.906  36.267   2.237  1.00  0.00    -0.273 OA
ATOM     11  H2  UNL     1      75.202  34.107   2.692  1.00  0.00     0.169 HD
BRANCH   9  12
HETATM   12  C14 UNL     1      74.450  36.272   4.062  1.00  0.00     0.083 C 
HETATM   13  C15 UNL     1      74.074  35.431   5.243  1.00  0.00     0.046 C 
HETATM   14  C16 UNL     1      75.189  35.141   6.183  1.00  0.00     0.122 C 
HETATM   15  C17 UNL     1      75.528  36.274   7.111  1.00  0.00     0.034 C 
HETATM   16  O2  UNL     1      76.402  34.893   5.557  1.00  0.00    -0.381 OA
HETATM   17  C18 UNL     1      76.436  37.126   6.227  1.00  0.00     0.034 C 
HETATM   18  C19 UNL     1      76.736  36.185   5.106  1.00  0.00     0.122 C 
HETATM   19  C20 UNL     1      75.930  36.433   3.869  1.00  0.00     0.046 C 
ENDBRANCH   9  12
ENDBRANCH   7   8
BRANCH   5  20
HETATM   20  C5  UNL     1      71.122  32.015  -0.537  1.00  0.00    -0.026 A 
HETATM   21  C6  UNL     1      70.963  30.654  -0.684  1.00  0.00     0.015 A 
HETATM   22  C7  UNL     1      69.718  30.065  -0.835  1.00  0.00     0.043 A 
HETATM   23  C8  UNL     1      68.580  30.846  -0.842  1.00  0.00     0.116 A 
HETATM   24  F1  UNL     1      67.328  30.328  -0.987  1.00  0.00    -0.206 F 
HETATM   25  C9  UNL     1      68.745  32.201  -0.695  1.00  0.00     0.043 A 
HETATM   26  C10 UNL     1      69.979  32.795  -0.543  1.00  0.00     0.015 A 
ENDBRANCH   5  20
TORSDOF 3
ENDMDL
