MODEL 4
REMARK VINA RESULT: -9.479288600      1.323      2.103
REMARK  3 active torsions:
REMARK  status: ('A' for Active; 'I' for Inactive)
REMARK    1  A    between atoms: C4_5  and  C5_6 
REMARK    2  A    between atoms: C12_14  and  N2_15 
REMARK       I    between atoms: N2_15  and  C13_17 
REMARK    3  A    between atoms: C13_17  and  C14_19 
ROOT
HETATM    1  N1  UNL     1      67.074  29.659  -1.628  1.00  0.00    -0.100 NA
HETATM    2  C1  UNL     1      66.494  29.413  -0.356  1.00  0.00     0.073 A 
HETATM    3  C2  UNL     1      65.425  28.541  -0.251  1.00  0.00     0.030 A 
HETATM    4  C3  UNL     1      64.854  28.293   0.976  1.00  0.00     0.014 A 
HETATM    5  C4  UNL     1      65.318  28.892   2.120  1.00  0.00    -0.024 A 
HETATM    6  C11 UNL     1      66.397  29.767   1.996  1.00  0.00     0.043 A 
HETATM    7  C12 UNL     1      66.998  30.045   0.793  1.00  0.00     0.059 A 
ENDROOT
BRANCH   7   8
HETATM    8  N2  UNL     1      68.084  30.910   0.585  1.00  0.00    -0.325 N 
HETATM    9  C13 UNL     1      69.344  30.603   0.029  1.00  0.00     0.226 C 
HETATM   10  O1  UNL     1      69.583  29.436  -0.345  1.00  0.00    -0.273 OA
ATOM     11  H2  UNL     1      67.945  31.880   0.872  1.00  0.00     0.169 HD
BRANCH   9  12
HETATM   12  C14 UNL     1      70.412  31.666  -0.123  1.00  0.00     0.083 C 
HETATM   13  C15 UNL     1      71.597  31.131  -0.867  1.00  0.00     0.046 C 
HETATM   14  C16 UNL     1      72.125  32.027  -1.930  1.00  0.00     0.122 C 
HETATM   15  C17 UNL     1      72.969  33.163  -1.421  1.00  0.00     0.034 C 
HETATM   16  O2  UNL     1      71.138  32.686  -2.649  1.00  0.00    -0.381 OA
HETATM   17  C18 UNL     1      71.900  34.182  -1.030  1.00  0.00     0.034 C 
HETATM   18  C19 UNL     1      70.686  33.614  -1.690  1.00  0.00     0.122 C 
HETATM   19  C20 UNL     1      69.779  32.868  -0.761  1.00  0.00     0.046 C 
ENDBRANCH   9  12
ENDBRANCH   7   8
BRANCH   5  20
HETATM   20  C5  UNL     1      64.716  28.635   3.437  1.00  0.00    -0.026 A 
HETATM   21  C6  UNL     1      63.352  28.583   3.633  1.00  0.00     0.015 A 
HETATM   22  C7  UNL     1      62.791  28.339   4.876  1.00  0.00     0.043 A 
HETATM   23  C8  UNL     1      63.602  28.137   5.973  1.00  0.00     0.116 A 
HETATM   24  F1  UNL     1      63.112  27.893   7.221  1.00  0.00    -0.206 F 
HETATM   25  C9  UNL     1      64.960  28.189   5.772  1.00  0.00     0.043 A 
HETATM   26  C10 UNL     1      65.527  28.431   4.539  1.00  0.00     0.015 A 
ENDBRANCH   5  20
TORSDOF 3
ENDMDL
