MODEL 3
REMARK VINA RESULT: -8.046659228      1.720      6.758
REMARK  6 active torsions:
REMARK  status: ('A' for Active; 'I' for Inactive)
REMARK    1  A    between atoms: C2_2  and  C3_3 
REMARK       I    between atoms: C3_3  and  N1_5 
REMARK    2  A    between atoms: C9_12  and  C10_13 
REMARK    3  A    between atoms: C12_15  and  O3_16 
REMARK    4  A    between atoms: C15_19  and  O4_20 
REMARK    5  A    between atoms: C19_24  and  C20_25 
REMARK       I    between atoms: C20_25  and  N2_27 
REMARK    6  A    between atoms: N2_27  and  C21_29 
ROOT
HETATM    1  C3  UNL     1       6.251  14.049  19.770  1.00  0.00     0.219 C 
HETATM    2  O1  UNL     1       5.636  15.168  19.811  1.00  0.00    -0.273 OA
HETATM    3  N1  UNL     1       7.667  14.018  19.669  1.00  0.00    -0.346 N 
HETATM    4  C4  UNL     1       8.248  12.717  19.635  1.00  0.00     0.152 C 
HETATM    5  C5  UNL     1       9.560  12.637  18.899  1.00  0.00     0.195 C 
HETATM    6  O2  UNL     1      10.602  13.240  19.632  1.00  0.00    -0.348 OA
HETATM    7  C6  UNL     1      10.494  14.324  20.476  1.00  0.00     0.092 A 
HETATM    8  C7  UNL     1       9.498  15.283  20.521  1.00  0.00    -0.005 A 
HETATM    9  C8  UNL     1       9.517  16.322  21.427  1.00  0.00     0.024 A 
HETATM   10  C9  UNL     1      10.562  16.405  22.314  1.00  0.00    -0.024 A 
HETATM   11  C18 UNL     1      11.536  15.454  22.259  1.00  0.00     0.032 A 
HETATM   12  C19 UNL     1      11.537  14.387  21.346  1.00  0.00     0.066 A 
HETATM   13  C27 UNL     1       8.298  15.327  19.616  1.00  0.00     0.167 C 
ENDROOT
BRANCH  12  14
HETATM   14  C20 UNL     1      12.653  13.477  21.439  1.00  0.00     0.254 C 
HETATM   15  O5  UNL     1      13.236  13.363  22.575  1.00  0.00    -0.268 OA
HETATM   16  N2  UNL     1      13.218  12.668  20.439  1.00  0.00    -0.350 N 
ATOM     17  H2  UNL     1      12.810  12.702  19.504  1.00  0.00     0.163 HD
BRANCH  16  18
HETATM   18  C21 UNL     1      14.351  11.787  20.660  1.00  0.00     0.113 C 
HETATM   19  C22 UNL     1      13.869  10.384  20.996  1.00  0.00     0.029 C 
HETATM   20  C23 UNL     1      14.512   9.353  20.109  1.00  0.00     0.032 C 
HETATM   21  C24 UNL     1      15.993   9.496  19.962  1.00  0.00     0.272 C 
HETATM   22  N3  UNL     1      16.376  10.866  19.834  1.00  0.00     0.086 N 
HETATM   23  C25 UNL     1      17.498  11.063  18.938  1.00  0.00     0.310 C 
HETATM   24  C26 UNL     1      15.218  11.638  19.425  1.00  0.00     0.296 C 
ENDBRANCH  16  18
ENDBRANCH  12  14
BRANCH  10  25
HETATM   25  C10 UNL     1      10.593  17.497  23.276  1.00  0.00    -0.021 A 
HETATM   26  C11 UNL     1      10.755  18.815  22.908  1.00  0.00     0.049 A 
HETATM   27  C12 UNL     1      10.786  19.864  23.801  1.00  0.00     0.071 A 
HETATM   28  C14 UNL     1      10.647  19.555  25.142  1.00  0.00     0.073 A 
HETATM   29  C15 UNL     1      10.483  18.271  25.573  1.00  0.00     0.071 A 
HETATM   30  C17 UNL     1      10.457  17.255  24.642  1.00  0.00     0.049 A 
BRANCH  27  31
HETATM   31  O3  UNL     1      10.950  21.174  23.400  1.00  0.00    -0.356 OA
HETATM   32  C13 UNL     1      11.287  21.459  22.060  1.00  0.00     0.210 C 
ENDBRANCH  27  31
BRANCH  29  33
HETATM   33  O4  UNL     1      10.339  17.921  26.913  1.00  0.00    -0.356 OA
HETATM   34  C16 UNL     1      11.131  16.919  27.491  1.00  0.00     0.210 C 
ENDBRANCH  29  33
ENDBRANCH  10  25
BRANCH   1  35
HETATM   35  C2  UNL     1       5.484  12.789  19.832  1.00  0.00     0.098 C 
HETATM   36  C1  UNL     1       4.470  12.758  18.690  1.00  0.00     0.014 C 
ENDBRANCH   1  35
TORSDOF 6
ENDMDL
