MODEL 2
REMARK VINA RESULT: -8.818560667      0.110      2.225
REMARK  6 active torsions:
REMARK  status: ('A' for Active; 'I' for Inactive)
REMARK    1  A    between atoms: C2_2  and  C3_3 
REMARK       I    between atoms: C3_3  and  N1_5 
REMARK    2  A    between atoms: C9_12  and  C10_13 
REMARK    3  A    between atoms: C12_15  and  O3_16 
REMARK    4  A    between atoms: C15_19  and  O4_20 
REMARK    5  A    between atoms: C19_24  and  C20_25 
REMARK       I    between atoms: C20_25  and  N2_27 
REMARK    6  A    between atoms: N2_27  and  C21_29 
ROOT
HETATM    1  C3  UNL     1      15.200  12.886  20.943  1.00  0.00     0.219 C 
HETATM    2  O1  UNL     1      15.739  13.241  22.046  1.00  0.00    -0.273 OA
HETATM    3  N1  UNL     1      13.787  12.846  20.822  1.00  0.00    -0.346 N 
HETATM    4  C4  UNL     1      13.294  12.440  19.548  1.00  0.00     0.152 C 
HETATM    5  C5  UNL     1      11.941  11.777  19.583  1.00  0.00     0.195 C 
HETATM    6  O2  UNL     1      10.915  12.707  19.841  1.00  0.00    -0.348 OA
HETATM    7  C6  UNL     1      11.010  13.839  20.623  1.00  0.00     0.092 A 
HETATM    8  C7  UNL     1      11.939  14.131  21.606  1.00  0.00    -0.005 A 
HETATM    9  C8  UNL     1      11.913  15.313  22.315  1.00  0.00     0.024 A 
HETATM   10  C9  UNL     1      10.931  16.230  22.034  1.00  0.00    -0.024 A 
HETATM   11  C18 UNL     1      10.022  15.931  21.064  1.00  0.00     0.032 A 
HETATM   12  C19 UNL     1      10.029  14.734  20.329  1.00  0.00     0.066 A 
HETATM   13  C27 UNL     1      13.066  13.228  22.026  1.00  0.00     0.167 C 
ENDROOT
BRANCH  12  14
HETATM   14  C20 UNL     1       8.987  14.593  19.341  1.00  0.00     0.254 C 
HETATM   15  O5  UNL     1       8.510  15.664  18.821  1.00  0.00    -0.268 OA
HETATM   16  N2  UNL     1       8.393  13.421  18.844  1.00  0.00    -0.350 N 
ATOM     17  H2  UNL     1       8.718  12.525  19.208  1.00  0.00     0.163 HD
BRANCH  16  18
HETATM   18  C21 UNL     1       7.344  13.412  17.840  1.00  0.00     0.113 C 
HETATM   19  C22 UNL     1       7.903  12.970  16.497  1.00  0.00     0.029 C 
HETATM   20  C23 UNL     1       7.100  11.841  15.910  1.00  0.00     0.032 C 
HETATM   21  C24 UNL     1       5.619  12.047  15.944  1.00  0.00     0.272 C 
HETATM   22  N3  UNL     1       5.201  12.637  17.175  1.00  0.00     0.086 N 
HETATM   23  C25 UNL     1       3.914  12.152  17.631  1.00  0.00     0.310 C 
HETATM   24  C26 UNL     1       6.238  12.427  18.169  1.00  0.00     0.296 C 
ENDBRANCH  16  18
ENDBRANCH  12  14
BRANCH  10  25
HETATM   25  C10 UNL     1      10.894  17.482  22.775  1.00  0.00    -0.021 A 
HETATM   26  C11 UNL     1      11.110  18.709  22.185  1.00  0.00     0.049 A 
HETATM   27  C12 UNL     1      11.078  19.906  22.866  1.00  0.00     0.071 A 
HETATM   28  C14 UNL     1      10.813  19.853  24.223  1.00  0.00     0.073 A 
HETATM   29  C15 UNL     1      10.590  18.672  24.868  1.00  0.00     0.071 A 
HETATM   30  C17 UNL     1      10.631  17.500  24.144  1.00  0.00     0.049 A 
BRANCH  27  31
HETATM   31  O3  UNL     1      11.299  21.118  22.246  1.00  0.00    -0.356 OA
HETATM   32  C13 UNL     1      11.457  21.169  20.844  1.00  0.00     0.210 C 
ENDBRANCH  27  31
BRANCH  29  33
HETATM   33  O4  UNL     1      10.320  18.578  26.230  1.00  0.00    -0.356 OA
HETATM   34  C16 UNL     1      10.723  17.460  26.976  1.00  0.00     0.210 C 
ENDBRANCH  29  33
ENDBRANCH  10  25
BRANCH   1  35
HETATM   35  C2  UNL     1      16.054  12.520  19.796  1.00  0.00     0.098 C 
HETATM   36  C1  UNL     1      17.019  11.413  20.215  1.00  0.00     0.014 C 
ENDBRANCH   1  35
TORSDOF 6
ENDMDL
