MODEL 1
REMARK VINA RESULT: -8.833838140      0.000      0.000
REMARK  6 active torsions:
REMARK  status: ('A' for Active; 'I' for Inactive)
REMARK    1  A    between atoms: C2_2  and  C3_3 
REMARK       I    between atoms: C3_3  and  N1_5 
REMARK    2  A    between atoms: C9_12  and  C10_13 
REMARK    3  A    between atoms: C12_15  and  O3_16 
REMARK    4  A    between atoms: C15_19  and  O4_20 
REMARK    5  A    between atoms: C19_24  and  C20_25 
REMARK       I    between atoms: C20_25  and  N2_27 
REMARK    6  A    between atoms: N2_27  and  C21_29 
ROOT
HETATM    1  C3  UNL     1      15.256  12.827  20.923  1.00  0.00     0.219 C 
HETATM    2  O1  UNL     1      15.791  13.167  22.032  1.00  0.00    -0.273 OA
HETATM    3  N1  UNL     1      13.843  12.777  20.799  1.00  0.00    -0.346 N 
HETATM    4  C4  UNL     1      13.355  12.388  19.518  1.00  0.00     0.152 C 
HETATM    5  C5  UNL     1      12.008  11.713  19.540  1.00  0.00     0.195 C 
HETATM    6  O2  UNL     1      10.974  12.631  19.814  1.00  0.00    -0.348 OA
HETATM    7  C6  UNL     1      11.058  13.750  20.614  1.00  0.00     0.092 A 
HETATM    8  C7  UNL     1      11.984  14.032  21.603  1.00  0.00    -0.005 A 
HETATM    9  C8  UNL     1      11.948  15.203  22.332  1.00  0.00     0.024 A 
HETATM   10  C9  UNL     1      10.958  16.116  22.065  1.00  0.00    -0.024 A 
HETATM   11  C18 UNL     1      10.053  15.825  21.090  1.00  0.00     0.032 A 
HETATM   12  C19 UNL     1      10.070  14.641  20.334  1.00  0.00     0.066 A 
HETATM   13  C27 UNL     1      13.118  13.133  22.009  1.00  0.00     0.167 C 
ENDROOT
BRANCH  12  14
HETATM   14  C20 UNL     1       9.030  14.508  19.343  1.00  0.00     0.254 C 
HETATM   15  O5  UNL     1       8.578  15.581  18.807  1.00  0.00    -0.268 OA
HETATM   16  N2  UNL     1       8.415  13.342  18.859  1.00  0.00    -0.350 N 
ATOM     17  H2  UNL     1       8.720  12.444  19.237  1.00  0.00     0.163 HD
BRANCH  16  18
HETATM   18  C21 UNL     1       7.370  13.341  17.850  1.00  0.00     0.113 C 
HETATM   19  C22 UNL     1       7.927  12.867  16.516  1.00  0.00     0.029 C 
HETATM   20  C23 UNL     1       7.102  11.747  15.942  1.00  0.00     0.032 C 
HETATM   21  C24 UNL     1       5.626  11.985  15.965  1.00  0.00     0.272 C 
HETATM   22  N3  UNL     1       5.215  12.602  17.185  1.00  0.00     0.086 N 
HETATM   23  C25 UNL     1       3.915  12.152  17.642  1.00  0.00     0.310 C 
HETATM   24  C26 UNL     1       6.242  12.385  18.187  1.00  0.00     0.296 C 
ENDBRANCH  16  18
ENDBRANCH  12  14
BRANCH  10  25
HETATM   25  C10 UNL     1      10.909  17.355  22.827  1.00  0.00    -0.021 A 
HETATM   26  C11 UNL     1      10.662  17.392  24.183  1.00  0.00     0.049 A 
HETATM   27  C12 UNL     1      10.613  18.552  24.924  1.00  0.00     0.071 A 
HETATM   28  C14 UNL     1      10.825  19.741  24.250  1.00  0.00     0.073 A 
HETATM   29  C15 UNL     1      11.075  19.774  22.909  1.00  0.00     0.071 A 
HETATM   30  C17 UNL     1      11.115  18.587  22.210  1.00  0.00     0.049 A 
BRANCH  27  31
HETATM   31  O3  UNL     1      10.363  18.555  26.281  1.00  0.00    -0.356 OA
HETATM   32  C13 UNL     1      10.741  17.444  27.065  1.00  0.00     0.210 C 
ENDBRANCH  27  31
BRANCH  29  33
HETATM   33  O4  UNL     1      11.294  20.950  22.196  1.00  0.00    -0.356 OA
HETATM   34  C16 UNL     1      11.439  20.937  20.801  1.00  0.00     0.210 C 
ENDBRANCH  29  33
ENDBRANCH  10  25
BRANCH   1  35
HETATM   35  C2  UNL     1      16.114  12.488  19.770  1.00  0.00     0.098 C 
HETATM   36  C1  UNL     1      17.016  11.311  20.138  1.00  0.00     0.014 C 
ENDBRANCH   1  35
TORSDOF 6
ENDMDL
