MODEL 6
REMARK VINA RESULT: -7.750648012      3.573      9.335
REMARK  6 active torsions:
REMARK  status: ('A' for Active; 'I' for Inactive)
REMARK    1  A    between atoms: C2_2  and  C3_3 
REMARK       I    between atoms: C3_3  and  N1_5 
REMARK    2  A    between atoms: C9_12  and  C10_13 
REMARK    3  A    between atoms: C12_15  and  O3_16 
REMARK    4  A    between atoms: C15_19  and  O4_20 
REMARK    5  A    between atoms: C19_24  and  C20_25 
REMARK       I    between atoms: C20_25  and  N2_27 
REMARK    6  A    between atoms: N2_27  and  C21_29 
ROOT
HETATM    1  C3  UNL     1      11.287  19.868  21.656  1.00  0.00     0.219 C 
HETATM    2  O1  UNL     1      11.262  19.706  20.389  1.00  0.00    -0.273 OA
HETATM    3  N1  UNL     1      10.884  18.814  22.517  1.00  0.00    -0.346 N 
HETATM    4  C4  UNL     1      10.956  19.103  23.911  1.00  0.00     0.152 C 
HETATM    5  C5  UNL     1       9.975  18.335  24.759  1.00  0.00     0.195 C 
HETATM    6  O2  UNL     1      10.340  16.980  24.876  1.00  0.00    -0.348 OA
HETATM    7  C6  UNL     1      10.981  16.216  23.923  1.00  0.00     0.092 A 
HETATM    8  C7  UNL     1      11.071  16.439  22.560  1.00  0.00    -0.005 A 
HETATM    9  C8  UNL     1      11.751  15.583  21.719  1.00  0.00     0.024 A 
HETATM   10  C9  UNL     1      12.356  14.474  22.254  1.00  0.00    -0.024 A 
HETATM   11  C18 UNL     1      12.259  14.266  23.597  1.00  0.00     0.032 A 
HETATM   12  C19 UNL     1      11.574  15.123  24.473  1.00  0.00     0.066 A 
HETATM   13  C27 UNL     1      10.460  17.604  21.832  1.00  0.00     0.167 C 
ENDROOT
BRANCH  12  14
HETATM   14  C20 UNL     1      11.579  14.740  25.864  1.00  0.00     0.254 C 
HETATM   15  O5  UNL     1      11.664  13.490  26.138  1.00  0.00    -0.268 OA
HETATM   16  N2  UNL     1      11.503  15.556  27.005  1.00  0.00    -0.350 N 
ATOM     17  H2  UNL     1      11.433  16.566  26.871  1.00  0.00     0.163 HD
BRANCH  16  18
HETATM   18  C21 UNL     1      11.518  15.044  28.364  1.00  0.00     0.113 C 
HETATM   19  C22 UNL     1      12.111  16.078  29.309  1.00  0.00     0.029 C 
HETATM   20  C23 UNL     1      11.201  16.341  30.479  1.00  0.00     0.032 C 
HETATM   21  C24 UNL     1      10.666  15.111  31.140  1.00  0.00     0.272 C 
HETATM   22  N3  UNL     1      10.302  14.118  30.180  1.00  0.00     0.086 N 
HETATM   23  C25 UNL     1       9.133  13.354  30.566  1.00  0.00     0.310 C 
HETATM   24  C26 UNL     1      10.124  14.759  28.890  1.00  0.00     0.296 C 
ENDBRANCH  16  18
ENDBRANCH  12  14
BRANCH  10  25
HETATM   25  C10 UNL     1      13.077  13.564  21.376  1.00  0.00    -0.021 A 
HETATM   26  C11 UNL     1      14.364  13.141  21.629  1.00  0.00     0.049 A 
HETATM   27  C12 UNL     1      15.064  12.280  20.812  1.00  0.00     0.071 A 
HETATM   28  C14 UNL     1      14.421  11.824  19.676  1.00  0.00     0.073 A 
HETATM   29  C15 UNL     1      13.147  12.203  19.368  1.00  0.00     0.071 A 
HETATM   30  C17 UNL     1      12.486  13.067  20.215  1.00  0.00     0.049 A 
BRANCH  27  31
HETATM   31  O3  UNL     1      16.353  11.875  21.094  1.00  0.00    -0.356 OA
HETATM   32  C13 UNL     1      17.062  11.094  20.157  1.00  0.00     0.210 C 
ENDBRANCH  27  31
BRANCH  29  33
HETATM   33  O4  UNL     1      12.467  11.767  18.234  1.00  0.00    -0.356 OA
HETATM   34  C16 UNL     1      11.069  11.839  18.153  1.00  0.00     0.210 C 
ENDBRANCH  29  33
ENDBRANCH  10  25
BRANCH   1  35
HETATM   35  C2  UNL     1      11.741  21.155  22.221  1.00  0.00     0.098 C 
HETATM   36  C1  UNL     1      11.064  22.302  21.473  1.00  0.00     0.014 C 
ENDBRANCH   1  35
TORSDOF 6
ENDMDL
