MODEL 8
REMARK VINA RESULT: -7.684653595      3.579      9.441
REMARK  6 active torsions:
REMARK  status: ('A' for Active; 'I' for Inactive)
REMARK    1  A    between atoms: C2_2  and  C3_3 
REMARK       I    between atoms: C3_3  and  N1_5 
REMARK    2  A    between atoms: C9_12  and  C10_13 
REMARK    3  A    between atoms: C12_15  and  O3_16 
REMARK    4  A    between atoms: C15_19  and  O4_20 
REMARK    5  A    between atoms: C19_24  and  C20_25 
REMARK       I    between atoms: C20_25  and  N2_27 
REMARK    6  A    between atoms: N2_27  and  C21_29 
ROOT
HETATM    1  C3  UNL     1      11.245  19.877  21.651  1.00  0.00     0.219 C 
HETATM    2  O1  UNL     1      11.132  19.683  20.393  1.00  0.00    -0.273 OA
HETATM    3  N1  UNL     1      10.920  18.840  22.564  1.00  0.00    -0.346 N 
HETATM    4  C4  UNL     1      11.086  19.165  23.942  1.00  0.00     0.152 C 
HETATM    5  C5  UNL     1      10.180  18.407  24.877  1.00  0.00     0.195 C 
HETATM    6  O2  UNL     1      10.572  17.060  25.000  1.00  0.00    -0.348 OA
HETATM    7  C6  UNL     1      11.154  16.280  24.023  1.00  0.00     0.092 A 
HETATM    8  C7  UNL     1      11.144  16.470  22.652  1.00  0.00    -0.005 A 
HETATM    9  C8  UNL     1      11.775  15.602  21.785  1.00  0.00     0.024 A 
HETATM   10  C9  UNL     1      12.433  14.514  22.303  1.00  0.00    -0.024 A 
HETATM   11  C18 UNL     1      12.435  14.339  23.654  1.00  0.00     0.032 A 
HETATM   12  C19 UNL     1      11.801  15.210  24.556  1.00  0.00     0.066 A 
HETATM   13  C27 UNL     1      10.466  17.607  21.941  1.00  0.00     0.167 C 
ENDROOT
BRANCH  12  14
HETATM   14  C20 UNL     1      11.911  14.862  25.952  1.00  0.00     0.254 C 
HETATM   15  O5  UNL     1      12.948  14.206  26.323  1.00  0.00    -0.268 OA
HETATM   16  N2  UNL     1      11.024  15.143  27.004  1.00  0.00    -0.350 N 
ATOM     17  H2  UNL     1      10.172  15.663  26.790  1.00  0.00     0.163 HD
BRANCH  16  18
HETATM   18  C21 UNL     1      11.250  14.735  28.380  1.00  0.00     0.113 C 
HETATM   19  C22 UNL     1      11.894  15.868  29.165  1.00  0.00     0.029 C 
HETATM   20  C23 UNL     1      11.131  16.166  30.428  1.00  0.00     0.032 C 
HETATM   21  C24 UNL     1      10.767  14.961  31.234  1.00  0.00     0.272 C 
HETATM   22  N3  UNL     1      10.346  13.881  30.401  1.00  0.00     0.086 N 
HETATM   23  C25 UNL     1       9.289  13.083  30.992  1.00  0.00     0.310 C 
HETATM   24  C26 UNL     1       9.959  14.413  29.108  1.00  0.00     0.296 C 
ENDBRANCH  16  18
ENDBRANCH  12  14
BRANCH  10  25
HETATM   25  C10 UNL     1      13.102  13.591  21.398  1.00  0.00    -0.021 A 
HETATM   26  C11 UNL     1      12.504  13.088  20.263  1.00  0.00     0.049 A 
HETATM   27  C12 UNL     1      13.119  12.215  19.393  1.00  0.00     0.071 A 
HETATM   28  C14 UNL     1      14.413  11.831  19.693  1.00  0.00     0.073 A 
HETATM   29  C15 UNL     1      15.063  12.293  20.800  1.00  0.00     0.071 A 
HETATM   30  C17 UNL     1      14.407  13.166  21.641  1.00  0.00     0.049 A 
BRANCH  27  31
HETATM   31  O3  UNL     1      12.491  11.728  18.265  1.00  0.00    -0.356 OA
HETATM   32  C13 UNL     1      11.089  11.833  18.143  1.00  0.00     0.210 C 
ENDBRANCH  27  31
BRANCH  29  33
HETATM   33  O4  UNL     1      16.365  11.931  21.135  1.00  0.00    -0.356 OA
HETATM   34  C16 UNL     1      17.147  11.149  20.272  1.00  0.00     0.210 C 
ENDBRANCH  29  33
ENDBRANCH  10  25
BRANCH   1  35
HETATM   35  C2  UNL     1      11.719  21.184  22.150  1.00  0.00     0.098 C 
HETATM   36  C1  UNL     1      11.050  22.303  21.354  1.00  0.00     0.014 C 
ENDBRANCH   1  35
TORSDOF 6
ENDMDL
