MODEL 3
REMARK VINA RESULT: -7.991725512      1.898      6.023
REMARK  3 active torsions:
REMARK  status: ('A' for Active; 'I' for Inactive)
REMARK    1  A    between atoms: C1_2  and  C2_3 
REMARK       I    between atoms: C1_2  and  N1_10 
REMARK    2  A    between atoms: C2_3  and  C3_4 
REMARK    3  A    between atoms: C3_4  and  C4_5 
ROOT
HETATM    1  O1  UNL     1      28.740  14.169  16.971  1.00  0.00    -0.273 OA
HETATM    2  C1  UNL     1      29.074  14.460  15.788  1.00  0.00     0.228 C 
HETATM    3  N1  UNL     1      29.861  15.633  15.563  1.00  0.00    -0.304 N 
HETATM    4  C8  UNL     1      30.299  16.492  16.497  1.00  0.00     0.099 A 
HETATM    5  C9  UNL     1      31.035  17.502  15.867  1.00  0.00     0.019 A 
HETATM    6  C10 UNL     1      31.033  17.235  14.511  1.00  0.00     0.019 A 
HETATM    7  C11 UNL     1      30.295  16.068  14.370  1.00  0.00     0.099 A 
ENDROOT
BRANCH   2   8
HETATM    8  C2  UNL     1      28.654  13.596  14.673  1.00  0.00     0.108 C 
BRANCH   8   9
HETATM    9  C3  UNL     1      28.101  12.274  15.129  1.00  0.00     0.049 C 
BRANCH   9  10
HETATM   10  C4  UNL     1      28.232  11.204  14.130  1.00  0.00    -0.034 A 
HETATM   11  C5  UNL     1      28.706  11.434  12.839  1.00  0.00     0.033 A 
HETATM   12  C6  UNL     1      28.698  10.221  12.169  1.00  0.00     0.142 A 
HETATM   13  O2  UNL     1      28.240   9.316  13.024  1.00  0.00    -0.334 OA
HETATM   14  C7  UNL     1      27.962   9.859  14.171  1.00  0.00     0.148 A 
ENDBRANCH   9  10
ENDBRANCH   8   9
ENDBRANCH   2   8
TORSDOF 3
ENDMDL
