MODEL 2
REMARK VINA RESULT: -8.011408136      1.990      6.119
REMARK  3 active torsions:
REMARK  status: ('A' for Active; 'I' for Inactive)
REMARK    1  A    between atoms: C1_2  and  C2_3 
REMARK       I    between atoms: C1_2  and  N1_10 
REMARK    2  A    between atoms: C2_3  and  C3_4 
REMARK    3  A    between atoms: C3_4  and  C4_5 
ROOT
HETATM    1  O1  UNL     1      28.721  14.155  16.804  1.00  0.00    -0.273 OA
HETATM    2  C1  UNL     1      29.115  14.552  15.671  1.00  0.00     0.228 C 
HETATM    3  N1  UNL     1      29.915  15.734  15.596  1.00  0.00    -0.304 N 
HETATM    4  C8  UNL     1      30.309  16.499  16.627  1.00  0.00     0.099 A 
HETATM    5  C9  UNL     1      31.079  17.557  16.131  1.00  0.00     0.019 A 
HETATM    6  C10 UNL     1      31.144  17.418  14.757  1.00  0.00     0.019 A 
HETATM    7  C11 UNL     1      30.411  16.275  14.472  1.00  0.00     0.099 A 
ENDROOT
BRANCH   2   8
HETATM    8  C2  UNL     1      28.748  13.798  14.461  1.00  0.00     0.108 C 
BRANCH   8   9
HETATM    9  C3  UNL     1      28.299  12.394  14.755  1.00  0.00     0.049 C 
BRANCH   9  10
HETATM   10  C4  UNL     1      28.395  11.491  13.601  1.00  0.00    -0.034 A 
HETATM   11  C5  UNL     1      28.042  10.143  13.667  1.00  0.00     0.033 A 
HETATM   12  C6  UNL     1      28.255   9.592  12.414  1.00  0.00     0.142 A 
HETATM   13  O2  UNL     1      28.714  10.568  11.642  1.00  0.00    -0.334 OA
HETATM   14  C7  UNL     1      28.805  11.682  12.305  1.00  0.00     0.148 A 
ENDBRANCH   9  10
ENDBRANCH   8   9
ENDBRANCH   2   8
TORSDOF 3
ENDMDL
