MODEL 11
REMARK VINA RESULT: -7.514626513      1.859      6.218
REMARK  3 active torsions:
REMARK  status: ('A' for Active; 'I' for Inactive)
REMARK    1  A    between atoms: C1_2  and  C2_3 
REMARK       I    between atoms: C1_2  and  N1_10 
REMARK    2  A    between atoms: C2_3  and  C3_4 
REMARK    3  A    between atoms: C3_4  and  C4_5 
ROOT
HETATM    1  O1  UNL     1      27.864  12.824  15.756  1.00  0.00    -0.273 OA
HETATM    2  C1  UNL     1      28.447  13.298  14.740  1.00  0.00     0.228 C 
HETATM    3  N1  UNL     1      29.226  14.487  14.886  1.00  0.00    -0.304 N 
HETATM    4  C8  UNL     1      29.416  15.185  16.017  1.00  0.00     0.099 A 
HETATM    5  C9  UNL     1      30.242  16.279  15.736  1.00  0.00     0.019 A 
HETATM    6  C10 UNL     1      30.555  16.230  14.390  1.00  0.00     0.019 A 
HETATM    7  C11 UNL     1      29.904  15.104  13.905  1.00  0.00     0.099 A 
ENDROOT
BRANCH   2   8
HETATM    8  C2  UNL     1      28.315  12.623  13.438  1.00  0.00     0.108 C 
BRANCH   8   9
HETATM    9  C3  UNL     1      29.123  11.359  13.346  1.00  0.00     0.049 C 
BRANCH   9  10
HETATM   10  C4  UNL     1      28.314  10.135  13.430  1.00  0.00    -0.034 A 
HETATM   11  C5  UNL     1      28.291   9.176  12.418  1.00  0.00     0.033 A 
HETATM   12  C6  UNL     1      27.432   8.166  12.819  1.00  0.00     0.142 A 
HETATM   13  O2  UNL     1      26.967   8.511  14.012  1.00  0.00    -0.334 OA
HETATM   14  C7  UNL     1      27.463   9.650  14.392  1.00  0.00     0.148 A 
ENDBRANCH   9  10
ENDBRANCH   8   9
ENDBRANCH   2   8
TORSDOF 3
ENDMDL
