MODEL 1
REMARK VINA RESULT: -8.059511394      0.000      0.000
REMARK  3 active torsions:
REMARK  status: ('A' for Active; 'I' for Inactive)
REMARK    1  A    between atoms: C1_2  and  C2_3 
REMARK       I    between atoms: C1_2  and  N1_10 
REMARK    2  A    between atoms: C2_3  and  C3_4 
REMARK    3  A    between atoms: C3_4  and  C4_5 
ROOT
HETATM    1  O1  UNL     1      28.257  12.903  16.366  1.00  0.00    -0.273 OA
HETATM    2  C1  UNL     1      28.338  13.052  15.114  1.00  0.00     0.228 C 
HETATM    3  N1  UNL     1      28.377  11.889  14.284  1.00  0.00    -0.304 N 
HETATM    4  C8  UNL     1      28.337  10.611  14.695  1.00  0.00     0.099 A 
HETATM    5  C9  UNL     1      28.394   9.777  13.573  1.00  0.00     0.019 A 
HETATM    6  C10 UNL     1      28.472  10.586  12.455  1.00  0.00     0.019 A 
HETATM    7  C11 UNL     1      28.457  11.885  12.944  1.00  0.00     0.099 A 
ENDROOT
BRANCH   2   8
HETATM    8  C2  UNL     1      28.391  14.405  14.538  1.00  0.00     0.108 C 
BRANCH   8   9
HETATM    9  C3  UNL     1      29.794  14.895  14.313  1.00  0.00     0.049 C 
BRANCH   9  10
HETATM   10  C4  UNL     1      30.187  15.990  15.211  1.00  0.00    -0.034 A 
HETATM   11  C5  UNL     1      31.042  17.018  14.815  1.00  0.00     0.033 A 
HETATM   12  C6  UNL     1      31.201  17.870  15.896  1.00  0.00     0.142 A 
HETATM   13  O2  UNL     1      30.473  17.370  16.886  1.00  0.00    -0.334 OA
HETATM   14  C7  UNL     1      29.873  16.278  16.516  1.00  0.00     0.148 A 
ENDBRANCH   9  10
ENDBRANCH   8   9
ENDBRANCH   2   8
TORSDOF 3
ENDMDL
