MODEL 4
REMARK VINA RESULT: -7.973590977      2.848      4.671
REMARK  3 active torsions:
REMARK  status: ('A' for Active; 'I' for Inactive)
REMARK    1  A    between atoms: C1_2  and  C2_3 
REMARK       I    between atoms: C1_2  and  N1_10 
REMARK    2  A    between atoms: C2_3  and  C3_4 
REMARK    3  A    between atoms: C3_4  and  C4_5 
ROOT
HETATM    1  O1  UNL     1      31.537  17.368  14.593  1.00  0.00    -0.273 OA
HETATM    2  C1  UNL     1      30.808  16.810  15.461  1.00  0.00     0.228 C 
HETATM    3  N1  UNL     1      30.074  15.640  15.094  1.00  0.00    -0.304 N 
HETATM    4  C8  UNL     1      30.068  15.045  13.890  1.00  0.00     0.099 A 
HETATM    5  C9  UNL     1      29.225  13.929  13.946  1.00  0.00     0.019 A 
HETATM    6  C10 UNL     1      28.711  13.858  15.228  1.00  0.00     0.019 A 
HETATM    7  C11 UNL     1      29.265  14.937  15.902  1.00  0.00     0.099 A 
ENDROOT
BRANCH   2   8
HETATM    8  C2  UNL     1      30.728  17.368  16.821  1.00  0.00     0.108 C 
BRANCH   8   9
HETATM    9  C3  UNL     1      32.068  17.470  17.495  1.00  0.00     0.049 C 
BRANCH   9  10
HETATM   10  C4  UNL     1      32.271  18.735  18.214  1.00  0.00    -0.034 A 
HETATM   11  C5  UNL     1      32.562  18.788  19.577  1.00  0.00     0.033 A 
HETATM   12  C6  UNL     1      32.686  20.122  19.927  1.00  0.00     0.142 A 
HETATM   13  O2  UNL     1      32.479  20.827  18.823  1.00  0.00    -0.334 OA
HETATM   14  C7  UNL     1      32.236  20.047  17.812  1.00  0.00     0.148 A 
ENDBRANCH   9  10
ENDBRANCH   8   9
ENDBRANCH   2   8
TORSDOF 3
ENDMDL
