MODEL 7
REMARK VINA RESULT: -7.665166577      1.745      5.951
REMARK  3 active torsions:
REMARK  status: ('A' for Active; 'I' for Inactive)
REMARK    1  A    between atoms: C1_2  and  C2_3 
REMARK       I    between atoms: C1_2  and  N1_10 
REMARK    2  A    between atoms: C2_3  and  C3_4 
REMARK    3  A    between atoms: C3_4  and  C4_5 
ROOT
HETATM    1  O1  UNL     1      28.755  13.816  16.673  1.00  0.00    -0.273 OA
HETATM    2  C1  UNL     1      28.803  14.430  15.570  1.00  0.00     0.228 C 
HETATM    3  N1  UNL     1      29.515  15.668  15.502  1.00  0.00    -0.304 N 
HETATM    4  C8  UNL     1      30.160  16.275  16.511  1.00  0.00     0.099 A 
HETATM    5  C9  UNL     1      30.728  17.460  16.031  1.00  0.00     0.019 A 
HETATM    6  C10 UNL     1      30.410  17.562  14.690  1.00  0.00     0.019 A 
HETATM    7  C11 UNL     1      29.659  16.430  14.407  1.00  0.00     0.099 A 
ENDROOT
BRANCH   2   8
HETATM    8  C2  UNL     1      28.133  13.867  14.386  1.00  0.00     0.108 C 
BRANCH   8   9
HETATM    9  C3  UNL     1      28.940  12.796  13.707  1.00  0.00     0.049 C 
BRANCH   9  10
HETATM   10  C4  UNL     1      28.420  11.439  13.926  1.00  0.00    -0.034 A 
HETATM   11  C5  UNL     1      28.582  10.412  12.997  1.00  0.00     0.033 A 
HETATM   12  C6  UNL     1      27.975   9.279  13.514  1.00  0.00     0.142 A 
HETATM   13  O2  UNL     1      27.477   9.620  14.695  1.00  0.00    -0.334 OA
HETATM   14  C7  UNL     1      27.720  10.869  14.960  1.00  0.00     0.148 A 
ENDBRANCH   9  10
ENDBRANCH   8   9
ENDBRANCH   2   8
TORSDOF 3
ENDMDL
