MODEL 6
REMARK VINA RESULT: -7.715265147      2.165      6.196
REMARK  3 active torsions:
REMARK  status: ('A' for Active; 'I' for Inactive)
REMARK    1  A    between atoms: C1_2  and  C2_3 
REMARK       I    between atoms: C1_2  and  N1_10 
REMARK    2  A    between atoms: C2_3  and  C3_4 
REMARK    3  A    between atoms: C3_4  and  C4_5 
ROOT
HETATM    1  O1  UNL     1      30.310  14.959  13.349  1.00  0.00    -0.273 OA
HETATM    2  C1  UNL     1      29.750  15.235  14.447  1.00  0.00     0.228 C 
HETATM    3  N1  UNL     1      30.374  16.180  15.319  1.00  0.00    -0.304 N 
HETATM    4  C8  UNL     1      31.528  16.829  15.099  1.00  0.00     0.099 A 
HETATM    5  C9  UNL     1      31.789  17.664  16.193  1.00  0.00     0.019 A 
HETATM    6  C10 UNL     1      30.753  17.504  17.095  1.00  0.00     0.019 A 
HETATM    7  C11 UNL     1      29.901  16.577  16.511  1.00  0.00     0.099 A 
ENDROOT
BRANCH   2   8
HETATM    8  C2  UNL     1      28.477  14.587  14.805  1.00  0.00     0.108 C 
BRANCH   8   9
HETATM    9  C3  UNL     1      28.658  13.204  15.365  1.00  0.00     0.049 C 
BRANCH   9  10
HETATM   10  C4  UNL     1      28.305  12.135  14.420  1.00  0.00    -0.034 A 
HETATM   11  C5  UNL     1      27.884  10.872  14.835  1.00  0.00     0.033 A 
HETATM   12  C6  UNL     1      27.640  10.118  13.698  1.00  0.00     0.142 A 
HETATM   13  O2  UNL     1      27.904  10.899  12.659  1.00  0.00    -0.334 OA
HETATM   14  C7  UNL     1      28.292  12.076  13.048  1.00  0.00     0.148 A 
ENDBRANCH   9  10
ENDBRANCH   8   9
ENDBRANCH   2   8
TORSDOF 3
ENDMDL
