MODEL 5
REMARK VINA RESULT: -7.952591727      0.967      1.229
REMARK  3 active torsions:
REMARK  status: ('A' for Active; 'I' for Inactive)
REMARK    1  A    between atoms: C1_2  and  C2_3 
REMARK       I    between atoms: C1_2  and  N1_10 
REMARK    2  A    between atoms: C2_3  and  C3_4 
REMARK    3  A    between atoms: C3_4  and  C4_5 
ROOT
HETATM    1  O1  UNL     1      27.775  12.420  15.839  1.00  0.00    -0.273 OA
HETATM    2  C1  UNL     1      28.343  12.632  14.731  1.00  0.00     0.228 C 
HETATM    3  N1  UNL     1      28.388  11.578  13.767  1.00  0.00    -0.304 N 
HETATM    4  C8  UNL     1      27.879  10.343  13.909  1.00  0.00     0.099 A 
HETATM    5  C9  UNL     1      28.131   9.618  12.738  1.00  0.00     0.019 A 
HETATM    6  C10 UNL     1      28.813  10.450  11.870  1.00  0.00     0.019 A 
HETATM    7  C11 UNL     1      28.948  11.653  12.549  1.00  0.00     0.099 A 
ENDROOT
BRANCH   2   8
HETATM    8  C2  UNL     1      28.942  13.948  14.454  1.00  0.00     0.108 C 
BRANCH   8   9
HETATM    9  C3  UNL     1      29.111  14.790  15.688  1.00  0.00     0.049 C 
BRANCH   9  10
HETATM   10  C4  UNL     1      29.982  15.956  15.491  1.00  0.00    -0.034 A 
HETATM   11  C5  UNL     1      30.300  16.842  16.521  1.00  0.00     0.033 A 
HETATM   12  C6  UNL     1      31.131  17.817  15.993  1.00  0.00     0.142 A 
HETATM   13  O2  UNL     1      31.297  17.522  14.710  1.00  0.00    -0.334 OA
HETATM   14  C7  UNL     1      30.642  16.446  14.391  1.00  0.00     0.148 A 
ENDBRANCH   9  10
ENDBRANCH   8   9
ENDBRANCH   2   8
TORSDOF 3
ENDMDL
