MODEL 3
REMARK VINA RESULT: -9.560986944      1.578      1.950
REMARK  9 active torsions:
REMARK  status: ('A' for Active; 'I' for Inactive)
REMARK    1  A    between atoms: N1_2  and  C2_3 
REMARK    2  A    between atoms: N1_2  and  C7_9 
REMARK    3  A    between atoms: C2_3  and  C3_4 
REMARK    4  A    between atoms: C7_9  and  O2_10 
REMARK    5  A    between atoms: C7_9  and  C8_12 
REMARK    6  A    between atoms: C10_14  and  C11_15 
REMARK    7  A    between atoms: N4_22  and  C13_23 
REMARK    8  A    between atoms: C19_30  and  O4_31 
REMARK    9  A    between atoms: C21_34  and  O5_35 
ROOT
HETATM    1  C8  UNL     1       4.875  33.726  25.684  1.00  0.00     0.049 A 
HETATM    2  C9  UNL     1       5.862  33.008  25.069  1.00  0.00     0.037 A 
HETATM    3  C10 UNL     1       7.224  33.397  25.004  1.00  0.00     0.044 A 
HETATM    4  C19 UNL     1       7.571  34.573  25.602  1.00  0.00     0.082 A 
HETATM    5  C20 UNL     1       6.589  35.300  26.220  1.00  0.00     0.075 A 
HETATM    6  C21 UNL     1       5.262  34.934  26.289  1.00  0.00     0.082 A 
ENDROOT
BRANCH   3   7
HETATM    7  C11 UNL     1       8.170  32.500  24.367  1.00  0.00     0.144 A 
HETATM    8  N2  UNL     1       9.507  32.828  24.279  1.00  0.00    -0.280 N 
HETATM    9  N3  UNL     1      10.193  31.868  23.730  1.00  0.00    -0.249 N 
ATOM     10  H2  UNL     1       9.906  33.709  24.603  1.00  0.00     0.188 HD
HETATM   11  C12 UNL     1       9.300  30.903  23.457  1.00  0.00     0.347 A 
ATOM     12  H3  UNL     1      11.196  31.852  23.546  1.00  0.00     0.192 HD
HETATM   13  O3  UNL     1       9.509  29.782  22.920  1.00  0.00    -0.245 OA
HETATM   14  N4  UNL     1       8.040  31.308  23.860  1.00  0.00    -0.243 N 
BRANCH  14  15
HETATM   15  C13 UNL     1       6.924  30.457  23.739  1.00  0.00     0.084 A 
HETATM   16  C14 UNL     1       6.585  29.600  24.772  1.00  0.00     0.033 A 
HETATM   17  C15 UNL     1       5.507  28.772  24.764  1.00  0.00     0.002 A 
HETATM   18  C16 UNL     1       4.676  28.762  23.671  1.00  0.00     0.003 A 
HETATM   19  C17 UNL     1       4.962  29.597  22.608  1.00  0.00     0.044 A 
HETATM   20  C18 UNL     1       6.073  30.441  22.630  1.00  0.00     0.143 A 
HETATM   21  F1  UNL     1       6.353  31.251  21.600  1.00  0.00    -0.204 F 
ENDBRANCH  14  15
ENDBRANCH   3   7
BRANCH   4  22
HETATM   22  O4  UNL     1       8.894  35.045  25.604  1.00  0.00    -0.360 OA
ATOM     23  H4  UNL     1       9.177  35.753  25.038  1.00  0.00     0.217 HD
ENDBRANCH   4  22
BRANCH   1  24
HETATM   24  C7  UNL     1       3.486  33.344  25.655  1.00  0.00     0.151 C 
BRANCH  24  25
HETATM   25  N1  UNL     1       2.549  33.662  24.691  1.00  0.00    -0.359 N 
HETATM   26  C1  UNL     1       1.327  32.991  24.412  1.00  0.00     0.152 C 
BRANCH  25  27
HETATM   27  C2  UNL     1       2.818  34.844  23.815  1.00  0.00     0.189 C 
BRANCH  27  28
HETATM   28  C3  UNL     1       1.917  35.916  24.300  1.00  0.00     0.070 A 
HETATM   29  C4  UNL     1       0.838  36.431  23.619  1.00  0.00     0.036 A 
HETATM   30  C5  UNL     1       0.280  37.399  24.418  1.00  0.00     0.027 A 
HETATM   31  C6  UNL     1       1.049  37.433  25.562  1.00  0.00     0.142 A 
HETATM   32  O1  UNL     1       2.003  36.539  25.445  1.00  0.00    -0.325 OA
ENDBRANCH  27  28
ENDBRANCH  25  27
ENDBRANCH  24  25
BRANCH  24  33
HETATM   33  O2  UNL     1       3.090  32.612  26.660  1.00  0.00    -0.345 OA
ATOM     34  H2  UNL     1       3.256  32.942  27.535  1.00  0.00     0.219 HD
ENDBRANCH  24  33
ENDBRANCH   1  24
BRANCH   6  35
HETATM   35  O5  UNL     1       4.371  35.733  26.935  1.00  0.00    -0.360 OA
ATOM     36  H5  UNL     1       4.422  36.681  26.891  1.00  0.00     0.217 HD
ENDBRANCH   6  35
TORSDOF 9
ENDMDL
