MODEL 4
REMARK VINA RESULT: -9.374556784      3.366      8.033
REMARK  9 active torsions:
REMARK  status: ('A' for Active; 'I' for Inactive)
REMARK    1  A    between atoms: N1_2  and  C2_3 
REMARK    2  A    between atoms: N1_2  and  C7_9 
REMARK    3  A    between atoms: C2_3  and  C3_4 
REMARK    4  A    between atoms: C7_9  and  O2_10 
REMARK    5  A    between atoms: C7_9  and  C8_12 
REMARK    6  A    between atoms: C10_14  and  C11_15 
REMARK    7  A    between atoms: N4_22  and  C13_23 
REMARK    8  A    between atoms: C19_30  and  O4_31 
REMARK    9  A    between atoms: C21_34  and  O5_35 
ROOT
HETATM    1  C8  UNL     1       1.581  32.341  25.425  1.00  0.00     0.049 A 
HETATM    2  C9  UNL     1       1.315  33.130  24.341  1.00  0.00     0.037 A 
HETATM    3  C10 UNL     1       0.015  33.467  23.887  1.00  0.00     0.044 A 
HETATM    4  C19 UNL     1      -1.045  32.968  24.586  1.00  0.00     0.082 A 
HETATM    5  C20 UNL     1      -0.788  32.175  25.673  1.00  0.00     0.075 A 
HETATM    6  C21 UNL     1       0.470  31.840  26.124  1.00  0.00     0.082 A 
ENDROOT
BRANCH   3   7
HETATM    7  C11 UNL     1      -0.111  34.365  22.754  1.00  0.00     0.144 A 
HETATM    8  N2  UNL     1      -0.795  33.981  21.619  1.00  0.00    -0.280 N 
HETATM    9  N3  UNL     1      -0.846  34.947  20.749  1.00  0.00    -0.249 N 
ATOM     10  H2  UNL     1      -1.208  33.058  21.480  1.00  0.00     0.188 HD
HETATM   11  C12 UNL     1      -0.191  35.973  21.317  1.00  0.00     0.347 A 
ATOM     12  H3  UNL     1      -1.288  34.929  19.830  1.00  0.00     0.192 HD
HETATM   13  O3  UNL     1       0.014  37.122  20.841  1.00  0.00    -0.245 OA
HETATM   14  N4  UNL     1       0.262  35.599  22.570  1.00  0.00    -0.243 N 
BRANCH  14  15
HETATM   15  C13 UNL     1       0.936  36.509  23.407  1.00  0.00     0.084 A 
HETATM   16  C14 UNL     1       0.245  37.190  24.395  1.00  0.00     0.033 A 
HETATM   17  C15 UNL     1       0.814  38.057  25.275  1.00  0.00     0.002 A 
HETATM   18  C16 UNL     1       2.164  38.295  25.206  1.00  0.00     0.003 A 
HETATM   19  C17 UNL     1       2.908  37.644  24.240  1.00  0.00     0.044 A 
HETATM   20  C18 UNL     1       2.310  36.757  23.344  1.00  0.00     0.143 A 
HETATM   21  F1  UNL     1       3.029  36.124  22.406  1.00  0.00    -0.204 F 
ENDBRANCH  14  15
ENDBRANCH   3   7
BRANCH   4  22
HETATM   22  O4  UNL     1      -2.373  33.249  24.227  1.00  0.00    -0.360 OA
ATOM     23  H4  UNL     1      -3.092  33.153  24.841  1.00  0.00     0.217 HD
ENDBRANCH   4  22
BRANCH   1  24
HETATM   24  C7  UNL     1       2.914  31.947  25.806  1.00  0.00     0.151 C 
BRANCH  24  25
HETATM   25  N1  UNL     1       3.655  30.897  25.299  1.00  0.00    -0.359 N 
HETATM   26  C1  UNL     1       3.180  29.774  24.566  1.00  0.00     0.152 C 
BRANCH  25  27
HETATM   27  C2  UNL     1       5.132  30.904  25.530  1.00  0.00     0.189 C 
BRANCH  27  28
HETATM   28  C3  UNL     1       5.747  30.678  24.201  1.00  0.00     0.070 A 
HETATM   29  C4  UNL     1       6.480  29.575  23.830  1.00  0.00     0.036 A 
HETATM   30  C5  UNL     1       6.862  29.763  22.524  1.00  0.00     0.027 A 
HETATM   31  C6  UNL     1       6.341  30.985  22.151  1.00  0.00     0.142 A 
HETATM   32  O1  UNL     1       5.691  31.486  23.175  1.00  0.00    -0.325 OA
ENDBRANCH  27  28
ENDBRANCH  25  27
ENDBRANCH  24  25
BRANCH  24  33
HETATM   33  O2  UNL     1       3.466  32.681  26.733  1.00  0.00    -0.345 OA
ATOM     34  H2  UNL     1       3.059  32.682  27.592  1.00  0.00     0.219 HD
ENDBRANCH  24  33
ENDBRANCH   1  24
BRANCH   6  35
HETATM   35  O5  UNL     1       0.608  31.047  27.222  1.00  0.00    -0.360 OA
ATOM     36  H5  UNL     1       0.228  30.177  27.264  1.00  0.00     0.217 HD
ENDBRANCH   6  35
TORSDOF 9
ENDMDL
