MODEL 1
REMARK VINA RESULT: -9.800863212      0.000      0.000
REMARK  9 active torsions:
REMARK  status: ('A' for Active; 'I' for Inactive)
REMARK    1  A    between atoms: N1_2  and  C2_3 
REMARK    2  A    between atoms: N1_2  and  C7_9 
REMARK    3  A    between atoms: C2_3  and  C3_4 
REMARK    4  A    between atoms: C7_9  and  O2_10 
REMARK    5  A    between atoms: C7_9  and  C8_12 
REMARK    6  A    between atoms: C10_14  and  C11_15 
REMARK    7  A    between atoms: N4_22  and  C13_23 
REMARK    8  A    between atoms: C19_30  and  O4_31 
REMARK    9  A    between atoms: C21_34  and  O5_35 
ROOT
HETATM    1  C8  UNL     1       4.954  33.960  25.212  1.00  0.00     0.049 A 
HETATM    2  C9  UNL     1       5.964  33.226  24.654  1.00  0.00     0.037 A 
HETATM    3  C10 UNL     1       7.333  33.337  25.007  1.00  0.00     0.044 A 
HETATM    4  C19 UNL     1       7.662  34.241  25.975  1.00  0.00     0.082 A 
HETATM    5  C20 UNL     1       6.657  34.981  26.539  1.00  0.00     0.075 A 
HETATM    6  C21 UNL     1       5.323  34.883  26.204  1.00  0.00     0.082 A 
ENDROOT
BRANCH   3   7
HETATM    7  C11 UNL     1       8.286  32.448  24.369  1.00  0.00     0.144 A 
HETATM    8  N2  UNL     1       9.624  32.777  24.301  1.00  0.00    -0.280 N 
HETATM    9  N3  UNL     1      10.316  31.823  23.748  1.00  0.00    -0.249 N 
ATOM     10  H2  UNL     1      10.020  33.654  24.640  1.00  0.00     0.188 HD
HETATM   11  C12 UNL     1       9.426  30.862  23.453  1.00  0.00     0.347 A 
ATOM     12  H3  UNL     1      11.321  31.809  23.575  1.00  0.00     0.192 HD
HETATM   13  O3  UNL     1       9.641  29.747  22.905  1.00  0.00    -0.245 OA
HETATM   14  N4  UNL     1       8.161  31.262  23.847  1.00  0.00    -0.243 N 
BRANCH  14  15
HETATM   15  C13 UNL     1       7.047  30.413  23.703  1.00  0.00     0.084 A 
HETATM   16  C14 UNL     1       6.665  29.580  24.741  1.00  0.00     0.033 A 
HETATM   17  C15 UNL     1       5.584  28.757  24.711  1.00  0.00     0.002 A 
HETATM   18  C16 UNL     1       4.795  28.725  23.589  1.00  0.00     0.003 A 
HETATM   19  C17 UNL     1       5.125  29.535  22.519  1.00  0.00     0.044 A 
HETATM   20  C18 UNL     1       6.238  30.375  22.563  1.00  0.00     0.143 A 
HETATM   21  F1  UNL     1       6.560  31.161  21.527  1.00  0.00    -0.204 F 
ENDBRANCH  14  15
ENDBRANCH   3   7
BRANCH   4  22
HETATM   22  O4  UNL     1       8.986  34.422  26.406  1.00  0.00    -0.360 OA
ATOM     23  H4  UNL     1       9.310  34.038  27.213  1.00  0.00     0.217 HD
ENDBRANCH   4  22
BRANCH   1  24
HETATM   24  C7  UNL     1       3.585  33.884  24.767  1.00  0.00     0.151 C 
BRANCH  24  25
HETATM   25  N1  UNL     1       2.678  32.873  25.018  1.00  0.00    -0.359 N 
HETATM   26  C1  UNL     1       2.811  31.490  24.715  1.00  0.00     0.152 C 
BRANCH  25  27
HETATM   27  C2  UNL     1       1.390  33.237  25.685  1.00  0.00     0.189 C 
BRANCH  27  28
HETATM   28  C3  UNL     1       0.376  33.277  24.605  1.00  0.00     0.070 A 
HETATM   29  C4  UNL     1      -0.912  32.803  24.692  1.00  0.00     0.036 A 
HETATM   30  C5  UNL     1      -1.512  33.035  23.478  1.00  0.00     0.027 A 
HETATM   31  C6  UNL     1      -0.555  33.646  22.696  1.00  0.00     0.142 A 
HETATM   32  O1  UNL     1       0.542  33.768  23.406  1.00  0.00    -0.325 OA
ENDBRANCH  27  28
ENDBRANCH  25  27
ENDBRANCH  24  25
BRANCH  24  33
HETATM   33  O2  UNL     1       3.178  34.895  24.050  1.00  0.00    -0.345 OA
ATOM     34  H2  UNL     1       3.482  34.946  23.152  1.00  0.00     0.219 HD
ENDBRANCH  24  33
ENDBRANCH   1  24
BRANCH   6  35
HETATM   35  O5  UNL     1       4.407  35.667  26.835  1.00  0.00    -0.360 OA
ATOM     36  H5  UNL     1       3.830  36.251  26.356  1.00  0.00     0.217 HD
ENDBRANCH   6  35
TORSDOF 9
ENDMDL
