MODEL 2
REMARK VINA RESULT: -9.616484707      1.043      1.357
REMARK  9 active torsions:
REMARK  status: ('A' for Active; 'I' for Inactive)
REMARK    1  A    between atoms: N1_2  and  C2_3 
REMARK    2  A    between atoms: N1_2  and  C7_9 
REMARK    3  A    between atoms: C2_3  and  C3_4 
REMARK    4  A    between atoms: C7_9  and  O2_10 
REMARK    5  A    between atoms: C7_9  and  C8_12 
REMARK    6  A    between atoms: C10_14  and  C11_15 
REMARK    7  A    between atoms: N4_22  and  C13_23 
REMARK    8  A    between atoms: C19_30  and  O4_31 
REMARK    9  A    between atoms: C21_34  and  O5_35 
ROOT
HETATM    1  C8  UNL     1       5.090  33.754  25.945  1.00  0.00     0.049 A 
HETATM    2  C9  UNL     1       6.004  33.064  25.198  1.00  0.00     0.037 A 
HETATM    3  C10 UNL     1       7.406  33.265  25.249  1.00  0.00     0.044 A 
HETATM    4  C19 UNL     1       7.874  34.215  26.109  1.00  0.00     0.082 A 
HETATM    5  C20 UNL     1       6.966  34.913  26.861  1.00  0.00     0.075 A 
HETATM    6  C21 UNL     1       5.601  34.728  26.819  1.00  0.00     0.082 A 
ENDROOT
BRANCH   3   7
HETATM    7  C11 UNL     1       8.257  32.414  24.439  1.00  0.00     0.144 A 
HETATM    8  N2  UNL     1       9.584  32.731  24.232  1.00  0.00    -0.280 N 
HETATM    9  N3  UNL     1      10.185  31.812  23.533  1.00  0.00    -0.249 N 
ATOM     10  H2  UNL     1      10.035  33.576  24.582  1.00  0.00     0.188 HD
HETATM   11  C12 UNL     1       9.246  30.885  23.280  1.00  0.00     0.347 A 
ATOM     12  H3  UNL     1      11.162  31.799  23.239  1.00  0.00     0.192 HD
HETATM   13  O3  UNL     1       9.370  29.812  22.632  1.00  0.00    -0.245 OA
HETATM   14  N4  UNL     1       8.046  31.271  23.852  1.00  0.00    -0.243 N 
BRANCH  14  15
HETATM   15  C13 UNL     1       6.905  30.448  23.784  1.00  0.00     0.084 A 
HETATM   16  C14 UNL     1       6.607  29.582  24.822  1.00  0.00     0.033 A 
HETATM   17  C15 UNL     1       5.511  28.779  24.864  1.00  0.00     0.002 A 
HETATM   18  C16 UNL     1       4.617  28.806  23.823  1.00  0.00     0.003 A 
HETATM   19  C17 UNL     1       4.860  29.652  22.757  1.00  0.00     0.044 A 
HETATM   20  C18 UNL     1       5.990  30.470  22.727  1.00  0.00     0.143 A 
HETATM   21  F1  UNL     1       6.229  31.291  21.695  1.00  0.00    -0.204 F 
ENDBRANCH  14  15
ENDBRANCH   3   7
BRANCH   4  22
HETATM   22  O4  UNL     1       9.245  34.487  26.244  1.00  0.00    -0.360 OA
ATOM     23  H4  UNL     1       9.845  34.431  25.509  1.00  0.00     0.217 HD
ENDBRANCH   4  22
BRANCH   1  24
HETATM   24  C7  UNL     1       3.665  33.584  25.803  1.00  0.00     0.151 C 
BRANCH  24  25
HETATM   25  N1  UNL     1       2.811  34.314  24.999  1.00  0.00    -0.359 N 
HETATM   26  C1  UNL     1       2.472  35.690  25.115  1.00  0.00     0.152 C 
BRANCH  25  27
HETATM   27  C2  UNL     1       2.143  33.607  23.863  1.00  0.00     0.189 C 
BRANCH  27  28
HETATM   28  C3  UNL     1       0.745  33.380  24.297  1.00  0.00     0.070 A 
HETATM   29  C4  UNL     1      -0.382  33.840  23.657  1.00  0.00     0.036 A 
HETATM   30  C5  UNL     1      -1.465  33.409  24.385  1.00  0.00     0.027 A 
HETATM   31  C6  UNL     1      -0.947  32.698  25.446  1.00  0.00     0.142 A 
HETATM   32  O1  UNL     1       0.362  32.708  25.351  1.00  0.00    -0.325 OA
ENDBRANCH  27  28
ENDBRANCH  25  27
ENDBRANCH  24  25
BRANCH  24  33
HETATM   33  O2  UNL     1       3.146  32.627  26.521  1.00  0.00    -0.345 OA
ATOM     34  H2  UNL     1       3.714  32.190  27.145  1.00  0.00     0.219 HD
ENDBRANCH  24  33
ENDBRANCH   1  24
BRANCH   6  35
HETATM   35  O5  UNL     1       4.791  35.476  27.616  1.00  0.00    -0.360 OA
ATOM     36  H5  UNL     1       4.473  35.154  28.452  1.00  0.00     0.217 HD
ENDBRANCH   6  35
TORSDOF 9
ENDMDL
