MODEL 7
REMARK VINA RESULT: -9.249765714      3.196      8.026
REMARK  9 active torsions:
REMARK  status: ('A' for Active; 'I' for Inactive)
REMARK    1  A    between atoms: N1_2  and  C2_3 
REMARK    2  A    between atoms: N1_2  and  C7_9 
REMARK    3  A    between atoms: C2_3  and  C3_4 
REMARK    4  A    between atoms: C7_9  and  O2_10 
REMARK    5  A    between atoms: C7_9  and  C8_12 
REMARK    6  A    between atoms: C10_14  and  C11_15 
REMARK    7  A    between atoms: N4_22  and  C13_23 
REMARK    8  A    between atoms: C19_30  and  O4_31 
REMARK    9  A    between atoms: C21_34  and  O5_35 
ROOT
HETATM    1  C8  UNL     1       1.616  32.338  25.332  1.00  0.00     0.049 A 
HETATM    2  C9  UNL     1       1.339  33.151  24.268  1.00  0.00     0.037 A 
HETATM    3  C10 UNL     1       0.037  33.436  23.787  1.00  0.00     0.044 A 
HETATM    4  C19 UNL     1      -1.014  32.855  24.434  1.00  0.00     0.082 A 
HETATM    5  C20 UNL     1      -0.747  32.038  25.500  1.00  0.00     0.075 A 
HETATM    6  C21 UNL     1       0.514  31.753  25.978  1.00  0.00     0.082 A 
ENDROOT
BRANCH   3   7
HETATM    7  C11 UNL     1      -0.105  34.367  22.682  1.00  0.00     0.144 A 
HETATM    8  N2  UNL     1      -0.787  34.009  21.538  1.00  0.00    -0.280 N 
HETATM    9  N3  UNL     1      -0.854  35.001  20.699  1.00  0.00    -0.249 N 
ATOM     10  H2  UNL     1      -1.188  33.086  21.371  1.00  0.00     0.188 HD
HETATM   11  C12 UNL     1      -0.212  36.018  21.297  1.00  0.00     0.347 A 
ATOM     12  H3  UNL     1      -1.299  35.006  19.781  1.00  0.00     0.192 HD
HETATM   13  O3  UNL     1      -0.024  37.184  20.857  1.00  0.00    -0.245 OA
HETATM   14  N4  UNL     1       0.251  35.611  22.537  1.00  0.00    -0.243 N 
BRANCH  14  15
HETATM   15  C13 UNL     1       0.914  36.504  23.400  1.00  0.00     0.084 A 
HETATM   16  C14 UNL     1       0.219  37.138  24.416  1.00  0.00     0.033 A 
HETATM   17  C15 UNL     1       0.779  37.984  25.320  1.00  0.00     0.002 A 
HETATM   18  C16 UNL     1       2.124  38.248  25.251  1.00  0.00     0.003 A 
HETATM   19  C17 UNL     1       2.872  37.643  24.259  1.00  0.00     0.044 A 
HETATM   20  C18 UNL     1       2.284  36.777  23.336  1.00  0.00     0.143 A 
HETATM   21  F1  UNL     1       3.006  36.190  22.373  1.00  0.00    -0.204 F 
ENDBRANCH  14  15
ENDBRANCH   3   7
BRANCH   4  22
HETATM   22  O4  UNL     1      -2.345  33.078  24.045  1.00  0.00    -0.360 OA
ATOM     23  H4  UNL     1      -2.573  33.704  23.367  1.00  0.00     0.217 HD
ENDBRANCH   4  22
BRANCH   1  24
HETATM   24  C7  UNL     1       2.957  32.002  25.740  1.00  0.00     0.151 C 
BRANCH  24  25
HETATM   25  N1  UNL     1       3.851  31.177  25.084  1.00  0.00    -0.359 N 
HETATM   26  C1  UNL     1       3.958  29.763  25.181  1.00  0.00     0.152 C 
BRANCH  25  27
HETATM   27  C2  UNL     1       4.838  31.810  24.156  1.00  0.00     0.189 C 
BRANCH  27  28
HETATM   28  C3  UNL     1       5.684  32.682  25.004  1.00  0.00     0.070 A 
HETATM   29  C4  UNL     1       6.707  32.263  25.822  1.00  0.00     0.036 A 
HETATM   30  C5  UNL     1       7.228  33.382  26.425  1.00  0.00     0.027 A 
HETATM   31  C6  UNL     1       6.493  34.446  25.945  1.00  0.00     0.142 A 
HETATM   32  O1  UNL     1       5.594  33.981  25.109  1.00  0.00    -0.325 OA
ENDBRANCH  27  28
ENDBRANCH  25  27
ENDBRANCH  24  25
BRANCH  24  33
HETATM   33  O2  UNL     1       3.353  32.553  26.854  1.00  0.00    -0.345 OA
ATOM     34  H2  UNL     1       2.959  33.383  27.097  1.00  0.00     0.219 HD
ENDBRANCH  24  33
ENDBRANCH   1  24
BRANCH   6  35
HETATM   35  O5  UNL     1       0.663  30.929  27.050  1.00  0.00    -0.360 OA
ATOM     36  H5  UNL     1       1.515  30.608  27.323  1.00  0.00     0.217 HD
ENDBRANCH   6  35
TORSDOF 9
ENDMDL
