MODEL 4
REMARK VINA RESULT: -9.436590343      3.804      7.988
REMARK  8 active torsions:
REMARK  status: ('A' for Active; 'I' for Inactive)
REMARK    1  A    between atoms: C2_2  and  C3_3 
REMARK    2  A    between atoms: C3_3  and  N1_4 
REMARK    3  A    between atoms: N1_4  and  S1_6 
REMARK    4  A    between atoms: S1_6  and  C5_9 
REMARK    5  A    between atoms: C7_11  and  C8_12 
REMARK    6  A    between atoms: N4_19  and  C10_20 
REMARK    7  A    between atoms: C16_27  and  O4_28 
REMARK    8  A    between atoms: C18_31  and  O5_32 
ROOT
HETATM    1  C5  UNL     1       0.949  32.412  25.353  1.00  0.00     0.113 A 
HETATM    2  C6  UNL     1       1.048  33.271  24.257  1.00  0.00     0.046 A 
HETATM    3  C7  UNL     1      -0.081  33.744  23.668  1.00  0.00     0.045 A 
HETATM    4  C16 UNL     1      -1.333  33.397  24.126  1.00  0.00     0.082 A 
HETATM    5  C17 UNL     1      -1.430  32.533  25.226  1.00  0.00     0.075 A 
HETATM    6  C18 UNL     1      -0.291  32.059  25.816  1.00  0.00     0.091 A 
ENDROOT
BRANCH   3   7
HETATM    7  C8  UNL     1       0.013  34.617  22.502  1.00  0.00     0.144 A 
HETATM    8  N2  UNL     1      -0.466  34.257  21.275  1.00  0.00    -0.280 N 
HETATM    9  N3  UNL     1      -0.230  35.203  20.407  1.00  0.00    -0.249 N 
ATOM     10  H2  UNL     1      -0.938  33.377  21.066  1.00  0.00     0.188 HD
HETATM   11  C9  UNL     1       0.397  36.168  21.073  1.00  0.00     0.347 A 
ATOM     12  H3  UNL     1      -0.478  35.203  19.418  1.00  0.00     0.192 HD
HETATM   13  O3  UNL     1       0.781  37.247  20.555  1.00  0.00    -0.245 OA
HETATM   14  N4  UNL     1       0.564  35.824  22.395  1.00  0.00    -0.243 N 
BRANCH  14  15
HETATM   15  C10 UNL     1       1.222  36.645  23.354  1.00  0.00     0.084 A 
HETATM   16  C11 UNL     1       0.554  37.479  24.245  1.00  0.00     0.033 A 
HETATM   17  C12 UNL     1       1.223  38.243  25.183  1.00  0.00     0.002 A 
HETATM   18  C13 UNL     1       2.597  38.170  25.233  1.00  0.00     0.003 A 
HETATM   19  C14 UNL     1       3.297  37.365  24.380  1.00  0.00     0.044 A 
HETATM   20  C15 UNL     1       2.605  36.610  23.447  1.00  0.00     0.143 A 
HETATM   21  F1  UNL     1       3.265  35.803  22.587  1.00  0.00    -0.204 F 
ENDBRANCH  14  15
ENDBRANCH   3   7
BRANCH   4  22
HETATM   22  O4  UNL     1      -2.545  33.796  23.629  1.00  0.00    -0.360 OA
ATOM     23  H4  UNL     1      -2.711  34.330  22.861  1.00  0.00     0.217 HD
ENDBRANCH   4  22
BRANCH   1  24
HETATM   24  S1  UNL     1       2.397  31.808  26.131  1.00  0.00     0.263 S 
HETATM   25  O1  UNL     1       2.310  30.288  26.137  1.00  0.00    -0.200 OA
HETATM   26  O2  UNL     1       2.415  32.241  27.582  1.00  0.00    -0.200 OA
BRANCH  24  27
HETATM   27  N1  UNL     1       3.811  32.334  25.386  1.00  0.00    -0.311 N 
HETATM   28  C4  UNL     1       4.074  33.705  25.355  1.00  0.00     0.163 C 
BRANCH  27  29
HETATM   29  C3  UNL     1       4.223  31.506  24.322  1.00  0.00     0.134 C 
BRANCH  29  30
HETATM   30  C2  UNL     1       5.543  30.785  24.616  1.00  0.00     0.016 C 
HETATM   31  C1  UNL     1       5.441  29.376  24.045  1.00  0.00     0.006 C 
ENDBRANCH  29  30
ENDBRANCH  27  29
ENDBRANCH  24  27
ENDBRANCH   1  24
BRANCH   6  32
HETATM   32  O5  UNL     1      -0.354  31.200  26.908  1.00  0.00    -0.359 OA
ATOM     33  H5  UNL     1      -0.313  30.266  26.738  1.00  0.00     0.217 HD
ENDBRANCH   6  32
TORSDOF 8
ENDMDL
