MODEL 1
REMARK VINA RESULT: -9.643399699      0.000      0.000
REMARK  8 active torsions:
REMARK  status: ('A' for Active; 'I' for Inactive)
REMARK    1  A    between atoms: C2_2  and  C3_3 
REMARK    2  A    between atoms: C3_3  and  N1_4 
REMARK    3  A    between atoms: N1_4  and  S1_6 
REMARK    4  A    between atoms: S1_6  and  C5_9 
REMARK    5  A    between atoms: C7_11  and  C8_12 
REMARK    6  A    between atoms: N4_19  and  C10_20 
REMARK    7  A    between atoms: C16_27  and  O4_28 
REMARK    8  A    between atoms: C18_31  and  O5_32 
ROOT
HETATM    1  C5  UNL     1       5.079  33.839  25.306  1.00  0.00     0.113 A 
HETATM    2  C6  UNL     1       6.123  33.130  24.709  1.00  0.00     0.046 A 
HETATM    3  C7  UNL     1       7.409  33.490  24.955  1.00  0.00     0.045 A 
HETATM    4  C16 UNL     1       7.717  34.546  25.785  1.00  0.00     0.082 A 
HETATM    5  C17 UNL     1       6.667  35.257  26.384  1.00  0.00     0.075 A 
HETATM    6  C18 UNL     1       5.373  34.892  26.134  1.00  0.00     0.091 A 
ENDROOT
BRANCH   3   7
HETATM    7  C8  UNL     1       8.506  32.776  24.309  1.00  0.00     0.144 A 
HETATM    8  N2  UNL     1       9.771  33.284  24.233  1.00  0.00    -0.280 N 
HETATM    9  N3  UNL     1      10.546  32.458  23.584  1.00  0.00    -0.249 N 
ATOM     10  H2  UNL     1      10.067  34.177  24.627  1.00  0.00     0.188 HD
HETATM   11  C9  UNL     1       9.784  31.425  23.244  1.00  0.00     0.347 A 
ATOM     12  H3  UNL     1      11.538  32.582  23.380  1.00  0.00     0.192 HD
HETATM   13  O3  UNL     1      10.197  30.425  22.602  1.00  0.00    -0.245 OA
HETATM   14  N4  UNL     1       8.493  31.599  23.687  1.00  0.00    -0.243 N 
BRANCH  14  15
HETATM   15  C10 UNL     1       7.439  30.669  23.455  1.00  0.00     0.084 A 
HETATM   16  C11 UNL     1       6.906  29.845  24.440  1.00  0.00     0.033 A 
HETATM   17  C12 UNL     1       5.863  28.974  24.187  1.00  0.00     0.002 A 
HETATM   18  C13 UNL     1       5.338  28.925  22.915  1.00  0.00     0.003 A 
HETATM   19  C14 UNL     1       5.829  29.716  21.915  1.00  0.00     0.044 A 
HETATM   20  C15 UNL     1       6.875  30.581  22.191  1.00  0.00     0.143 A 
HETATM   21  F1  UNL     1       7.385  31.377  21.226  1.00  0.00    -0.204 F 
ENDBRANCH  14  15
ENDBRANCH   3   7
BRANCH   4  22
HETATM   22  O4  UNL     1       8.960  35.015  26.117  1.00  0.00    -0.360 OA
ATOM     23  H4  UNL     1       9.436  35.733  25.716  1.00  0.00     0.217 HD
ENDBRANCH   4  22
BRANCH   1  24
HETATM   24  S1  UNL     1       3.417  33.375  25.011  1.00  0.00     0.263 S 
HETATM   25  O1  UNL     1       2.740  33.224  26.367  1.00  0.00    -0.200 OA
HETATM   26  O2  UNL     1       3.377  32.009  24.359  1.00  0.00    -0.200 OA
BRANCH  24  27
HETATM   27  N1  UNL     1       2.593  34.471  24.036  1.00  0.00    -0.311 N 
HETATM   28  C4  UNL     1       3.334  35.428  23.341  1.00  0.00     0.163 C 
BRANCH  27  29
HETATM   29  C3  UNL     1       1.300  34.776  24.509  1.00  0.00     0.134 C 
BRANCH  29  30
HETATM   30  C2  UNL     1       0.197  34.172  23.634  1.00  0.00     0.016 C 
HETATM   31  C1  UNL     1      -0.790  33.461  24.553  1.00  0.00     0.006 C 
ENDBRANCH  29  30
ENDBRANCH  27  29
ENDBRANCH  24  27
ENDBRANCH   1  24
BRANCH   6  32
HETATM   32  O5  UNL     1       4.310  35.578  26.711  1.00  0.00    -0.359 OA
ATOM     33  H5  UNL     1       4.361  36.526  26.742  1.00  0.00     0.217 HD
ENDBRANCH   6  32
TORSDOF 8
ENDMDL
