MODEL 3
REMARK VINA RESULT: -9.504896262      0.531      1.363
REMARK  8 active torsions:
REMARK  status: ('A' for Active; 'I' for Inactive)
REMARK    1  A    between atoms: C2_2  and  C3_3 
REMARK    2  A    between atoms: C3_3  and  N1_4 
REMARK    3  A    between atoms: N1_4  and  S1_6 
REMARK    4  A    between atoms: S1_6  and  C5_9 
REMARK    5  A    between atoms: C7_11  and  C8_12 
REMARK    6  A    between atoms: N4_19  and  C10_20 
REMARK    7  A    between atoms: C16_27  and  O4_28 
REMARK    8  A    between atoms: C18_31  and  O5_32 
ROOT
HETATM    1  C5  UNL     1       5.211  33.835  25.432  1.00  0.00     0.113 A 
HETATM    2  C6  UNL     1       6.225  33.119  24.794  1.00  0.00     0.046 A 
HETATM    3  C7  UNL     1       7.522  33.469  24.988  1.00  0.00     0.045 A 
HETATM    4  C16 UNL     1       7.871  34.522  25.805  1.00  0.00     0.082 A 
HETATM    5  C17 UNL     1       6.851  35.241  26.445  1.00  0.00     0.075 A 
HETATM    6  C18 UNL     1       5.546  34.885  26.248  1.00  0.00     0.091 A 
ENDROOT
BRANCH   3   7
HETATM    7  C8  UNL     1       8.587  32.747  24.298  1.00  0.00     0.144 A 
HETATM    8  N2  UNL     1       9.858  33.235  24.192  1.00  0.00    -0.280 N 
HETATM    9  N3  UNL     1      10.599  32.407  23.508  1.00  0.00    -0.249 N 
ATOM     10  H2  UNL     1      10.181  34.117  24.590  1.00  0.00     0.188 HD
HETATM   11  C9  UNL     1       9.809  31.391  23.175  1.00  0.00     0.347 A 
ATOM     12  H3  UNL     1      11.586  32.517  23.275  1.00  0.00     0.192 HD
HETATM   13  O3  UNL     1      10.186  30.395  22.507  1.00  0.00    -0.245 OA
HETATM   14  N4  UNL     1       8.535  31.579  23.660  1.00  0.00    -0.243 N 
BRANCH  14  15
HETATM   15  C10 UNL     1       7.459  30.672  23.446  1.00  0.00     0.084 A 
HETATM   16  C11 UNL     1       6.930  29.854  24.438  1.00  0.00     0.033 A 
HETATM   17  C12 UNL     1       5.866  29.004  24.204  1.00  0.00     0.002 A 
HETATM   18  C13 UNL     1       5.315  28.970  22.943  1.00  0.00     0.003 A 
HETATM   19  C14 UNL     1       5.801  29.755  21.935  1.00  0.00     0.044 A 
HETATM   20  C15 UNL     1       6.868  30.598  22.193  1.00  0.00     0.143 A 
HETATM   21  F1  UNL     1       7.374  31.388  21.220  1.00  0.00    -0.204 F 
ENDBRANCH  14  15
ENDBRANCH   3   7
BRANCH   4  22
HETATM   22  O4  UNL     1       9.129  34.982  26.087  1.00  0.00    -0.360 OA
ATOM     23  H4  UNL     1       9.553  35.762  25.747  1.00  0.00     0.217 HD
ENDBRANCH   4  22
BRANCH   1  24
HETATM   24  S1  UNL     1       3.535  33.383  25.204  1.00  0.00     0.263 S 
HETATM   25  O1  UNL     1       2.964  33.048  26.575  1.00  0.00    -0.200 OA
HETATM   26  O2  UNL     1       3.456  32.112  24.385  1.00  0.00    -0.200 OA
BRANCH  24  27
HETATM   27  N1  UNL     1       2.630  34.581  24.444  1.00  0.00    -0.311 N 
HETATM   28  C4  UNL     1       1.247  34.410  24.353  1.00  0.00     0.163 C 
BRANCH  27  29
HETATM   29  C3  UNL     1       3.334  35.248  23.420  1.00  0.00     0.134 C 
BRANCH  29  30
HETATM   30  C2  UNL     1       2.588  36.482  22.902  1.00  0.00     0.016 C 
HETATM   31  C1  UNL     1       2.532  36.389  21.382  1.00  0.00     0.006 C 
ENDBRANCH  29  30
ENDBRANCH  27  29
ENDBRANCH  24  27
ENDBRANCH   1  24
BRANCH   6  32
HETATM   32  O5  UNL     1       4.511  35.579  26.866  1.00  0.00    -0.359 OA
ATOM     33  H5  UNL     1       4.416  35.484  27.807  1.00  0.00     0.217 HD
ENDBRANCH   6  32
TORSDOF 8
ENDMDL
