MODEL 2
REMARK VINA RESULT: -9.524389114      3.889      7.436
REMARK  8 active torsions:
REMARK  status: ('A' for Active; 'I' for Inactive)
REMARK    1  A    between atoms: C2_2  and  C3_3 
REMARK    2  A    between atoms: C3_3  and  N1_4 
REMARK    3  A    between atoms: N1_4  and  S1_6 
REMARK    4  A    between atoms: S1_6  and  C5_9 
REMARK    5  A    between atoms: C7_11  and  C8_12 
REMARK    6  A    between atoms: N4_19  and  C10_20 
REMARK    7  A    between atoms: C16_27  and  O4_28 
REMARK    8  A    between atoms: C18_31  and  O5_32 
ROOT
HETATM    1  C5  UNL     1       3.194  36.592  25.302  1.00  0.00     0.113 A 
HETATM    2  C6  UNL     1       2.575  35.933  24.238  1.00  0.00     0.046 A 
HETATM    3  C7  UNL     1       1.389  36.391  23.761  1.00  0.00     0.045 A 
HETATM    4  C16 UNL     1       0.772  37.497  24.302  1.00  0.00     0.082 A 
HETATM    5  C17 UNL     1       1.396  38.158  25.371  1.00  0.00     0.075 A 
HETATM    6  C18 UNL     1       2.590  37.694  25.848  1.00  0.00     0.091 A 
ENDROOT
BRANCH   3   7
HETATM    7  C8  UNL     1       0.719  35.688  22.671  1.00  0.00     0.144 A 
HETATM    8  N2  UNL     1       0.531  36.249  21.440  1.00  0.00    -0.280 N 
HETATM    9  N3  UNL     1      -0.114  35.421  20.665  1.00  0.00    -0.249 N 
ATOM     10  H2  UNL     1       0.849  37.179  21.166  1.00  0.00     0.188 HD
HETATM   11  C9  UNL     1      -0.341  34.333  21.392  1.00  0.00     0.347 A 
ATOM     12  H3  UNL     1      -0.389  35.578  19.695  1.00  0.00     0.192 HD
HETATM   13  O3  UNL     1      -0.944  33.314  20.969  1.00  0.00    -0.245 OA
HETATM   14  N4  UNL     1       0.173  34.474  22.661  1.00  0.00    -0.243 N 
BRANCH  14  15
HETATM   15  C10 UNL     1       0.067  33.483  23.678  1.00  0.00     0.084 A 
HETATM   16  C11 UNL     1       1.123  32.669  24.076  1.00  0.00     0.033 A 
HETATM   17  C12 UNL     1       0.993  31.736  25.087  1.00  0.00     0.002 A 
HETATM   18  C13 UNL     1      -0.224  31.612  25.718  1.00  0.00     0.003 A 
HETATM   19  C14 UNL     1      -1.290  32.389  25.362  1.00  0.00     0.044 A 
HETATM   20  C15 UNL     1      -1.137  33.317  24.345  1.00  0.00     0.143 A 
HETATM   21  F1  UNL     1      -2.170  34.102  23.967  1.00  0.00    -0.204 F 
ENDBRANCH  14  15
ENDBRANCH   3   7
BRANCH   4  22
HETATM   22  O4  UNL     1      -0.416  38.062  23.923  1.00  0.00    -0.360 OA
ATOM     23  H4  UNL     1      -1.277  37.659  23.923  1.00  0.00     0.217 HD
ENDBRANCH   4  22
BRANCH   1  24
HETATM   24  S1  UNL     1       4.732  36.022  25.915  1.00  0.00     0.263 S 
HETATM   25  O1  UNL     1       4.606  35.915  27.429  1.00  0.00    -0.200 OA
HETATM   26  O2  UNL     1       5.804  37.057  25.647  1.00  0.00    -0.200 OA
BRANCH  24  27
HETATM   27  N1  UNL     1       5.206  34.556  25.238  1.00  0.00    -0.311 N 
HETATM   28  C4  UNL     1       4.540  33.396  25.637  1.00  0.00     0.163 C 
BRANCH  27  29
HETATM   29  C3  UNL     1       6.574  34.512  24.902  1.00  0.00     0.134 C 
BRANCH  29  30
HETATM   30  C2  UNL     1       7.328  33.407  25.652  1.00  0.00     0.016 C 
HETATM   31  C1  UNL     1       8.036  32.542  24.616  1.00  0.00     0.006 C 
ENDBRANCH  29  30
ENDBRANCH  27  29
ENDBRANCH  24  27
ENDBRANCH   1  24
BRANCH   6  32
HETATM   32  O5  UNL     1       3.232  38.325  26.908  1.00  0.00    -0.359 OA
ATOM     33  H5  UNL     1       3.800  39.059  26.706  1.00  0.00     0.217 HD
ENDBRANCH   6  32
TORSDOF 8
ENDMDL
