MODEL 2
REMARK VINA RESULT: -6.447020135      5.696      7.723
REMARK  3 active torsions:
REMARK  status: ('A' for Active; 'I' for Inactive)
REMARK    1  A    between atoms: C6_12  and  O2_13 
REMARK    2  A    between atoms: C8_16  and  O3_17 
REMARK    3  A    between atoms: N3_19  and  C9_20 
ROOT
HETATM    1  O1  UNL     1      -3.397   6.678  32.535  1.00  0.00    -0.245 OA
HETATM    2  C1  UNL     1      -3.312   6.502  31.309  1.00  0.00     0.347 A 
HETATM    3  N1  UNL     1      -3.621   7.346  30.329  1.00  0.00    -0.249 N 
ATOM      4  H1  UNL     1      -3.984   8.293  30.437  1.00  0.00     0.192 HD
HETATM    5  N2  UNL     1      -3.374   6.740  29.213  1.00  0.00    -0.280 N 
ATOM      6  H2  UNL     1      -3.520   7.157  28.294  1.00  0.00     0.188 HD
HETATM    7  C2  UNL     1      -2.896   5.474  29.414  1.00  0.00     0.144 A 
HETATM    8  C3  UNL     1      -2.545   4.592  28.337  1.00  0.00     0.044 A 
HETATM    9  C4  UNL     1      -2.065   3.327  28.468  1.00  0.00     0.040 A 
HETATM   10  C5  UNL     1      -1.738   2.506  27.382  1.00  0.00     0.045 A 
HETATM   11 BR1  UNL     1      -1.072   0.746  27.633  1.00  0.00    -0.048 Br
HETATM   12  C6  UNL     1      -1.900   2.978  26.113  1.00  0.00     0.085 A 
HETATM   13  C7  UNL     1      -2.381   4.247  25.923  1.00  0.00     0.075 A 
HETATM   14  C8  UNL     1      -2.690   5.020  27.013  1.00  0.00     0.082 A 
HETATM   15  N3  UNL     1      -2.864   5.345  30.731  1.00  0.00    -0.243 N 
ENDROOT
BRANCH  15  16
HETATM   16  C9  UNL     1      -2.456   4.246  31.463  1.00  0.00     0.084 A 
HETATM   17  C10 UNL     1      -3.280   3.163  31.633  1.00  0.00     0.033 A 
HETATM   18  C11 UNL     1      -2.895   2.041  32.345  1.00  0.00     0.002 A 
HETATM   19  C12 UNL     1      -1.631   2.007  32.910  1.00  0.00     0.003 A 
HETATM   20  C13 UNL     1      -0.777   3.091  32.753  1.00  0.00     0.044 A 
HETATM   21  C14 UNL     1      -1.203   4.213  32.024  1.00  0.00     0.143 A 
HETATM   22  F1  UNL     1      -0.303   5.221  31.924  1.00  0.00    -0.204 F 
ENDBRANCH  15  16
BRANCH  14  23
HETATM   23  O3  UNL     1      -3.173   6.299  26.779  1.00  0.00    -0.360 OA
ATOM     24  H3  UNL     1      -2.595   7.038  26.935  1.00  0.00     0.217 HD
ENDBRANCH  14  23
BRANCH  12  25
HETATM   25  O2  UNL     1      -1.596   2.218  24.992  1.00  0.00    -0.359 OA
ATOM     26  H2  UNL     1      -2.131   2.231  24.208  1.00  0.00     0.217 HD
ENDBRANCH  12  25
TORSDOF 3
ENDMDL
