MODEL 3
REMARK VINA RESULT: -6.332444666      2.651      3.836
REMARK  3 active torsions:
REMARK  status: ('A' for Active; 'I' for Inactive)
REMARK    1  A    between atoms: C6_12  and  O2_13 
REMARK    2  A    between atoms: C8_16  and  O3_17 
REMARK    3  A    between atoms: N3_19  and  C9_20 
ROOT
HETATM    1  O1  UNL     1       0.183  13.695  25.745  1.00  0.00    -0.245 OA
HETATM    2  C1  UNL     1      -0.514  12.720  26.069  1.00  0.00     0.347 A 
HETATM    3  N1  UNL     1      -1.754  12.714  26.550  1.00  0.00    -0.249 N 
ATOM      4  H1  UNL     1      -2.338  13.530  26.731  1.00  0.00     0.192 HD
HETATM    5  N2  UNL     1      -2.080  11.477  26.745  1.00  0.00    -0.280 N 
ATOM      6  H2  UNL     1      -2.983  11.177  27.111  1.00  0.00     0.188 HD
HETATM    7  C2  UNL     1      -1.068  10.622  26.402  1.00  0.00     0.144 A 
HETATM    8  C3  UNL     1      -1.177   9.195  26.524  1.00  0.00     0.044 A 
HETATM    9  C4  UNL     1      -0.213   8.294  26.202  1.00  0.00     0.040 A 
HETATM   10  C5  UNL     1      -0.369   6.909  26.341  1.00  0.00     0.045 A 
HETATM   11 BR1  UNL     1       1.018   5.700  25.872  1.00  0.00    -0.048 Br
HETATM   12  C6  UNL     1      -1.545   6.413  26.823  1.00  0.00     0.085 A 
HETATM   13  C7  UNL     1      -2.550   7.279  27.164  1.00  0.00     0.075 A 
HETATM   14  C8  UNL     1      -2.358   8.628  27.014  1.00  0.00     0.082 A 
HETATM   15  N3  UNL     1      -0.099  11.419  25.982  1.00  0.00    -0.243 N 
ENDROOT
BRANCH  15  16
HETATM   16  C9  UNL     1       1.152  11.057  25.519  1.00  0.00     0.084 A 
HETATM   17  C10 UNL     1       1.326  10.583  24.244  1.00  0.00     0.033 A 
HETATM   18  C11 UNL     1       2.567  10.230  23.744  1.00  0.00     0.002 A 
HETATM   19  C12 UNL     1       3.679  10.358  24.561  1.00  0.00     0.003 A 
HETATM   20  C13 UNL     1       3.530  10.837  25.856  1.00  0.00     0.044 A 
HETATM   21  C14 UNL     1       2.254  11.184  26.328  1.00  0.00     0.143 A 
HETATM   22  F1  UNL     1       2.207  11.641  27.604  1.00  0.00    -0.204 F 
ENDBRANCH  15  16
BRANCH  14  23
HETATM   23  O3  UNL     1      -3.401   9.470  27.369  1.00  0.00    -0.360 OA
ATOM     24  H3  UNL     1      -3.815   9.347  28.216  1.00  0.00     0.217 HD
ENDBRANCH  14  23
BRANCH  12  25
HETATM   25  O2  UNL     1      -1.767   5.053  26.986  1.00  0.00    -0.359 OA
ATOM     26  H2  UNL     1      -1.252   4.521  27.581  1.00  0.00     0.217 HD
ENDBRANCH  12  25
TORSDOF 3
ENDMDL
