MODEL 1
REMARK VINA RESULT: -6.618063284      0.000      0.000
REMARK  3 active torsions:
REMARK  status: ('A' for Active; 'I' for Inactive)
REMARK    1  A    between atoms: C6_12  and  O2_13 
REMARK    2  A    between atoms: C8_16  and  O3_17 
REMARK    3  A    between atoms: N3_19  and  C9_20 
ROOT
HETATM    1  O1  UNL     1       1.787  10.166  23.684  1.00  0.00    -0.245 OA
HETATM    2  C1  UNL     1       1.155   9.178  24.090  1.00  0.00     0.347 A 
HETATM    3  N1  UNL     1       1.228   7.919  23.668  1.00  0.00    -0.249 N 
ATOM      4  H1  UNL     1       1.831   7.562  22.926  1.00  0.00     0.192 HD
HETATM    5  N2  UNL     1       0.391   7.231  24.375  1.00  0.00    -0.280 N 
ATOM      6  H2  UNL     1       0.240   6.228  24.264  1.00  0.00     0.188 HD
HETATM    7  C2  UNL     1      -0.266   8.009  25.288  1.00  0.00     0.144 A 
HETATM    8  C3  UNL     1      -1.249   7.487  26.196  1.00  0.00     0.044 A 
HETATM    9  C4  UNL     1      -1.936   8.204  27.124  1.00  0.00     0.040 A 
HETATM   10  C5  UNL     1      -2.887   7.645  27.986  1.00  0.00     0.045 A 
HETATM   11 BR1  UNL     1      -3.813   8.701  29.264  1.00  0.00    -0.048 Br
HETATM   12  C6  UNL     1      -3.157   6.310  27.911  1.00  0.00     0.085 A 
HETATM   13  C7  UNL     1      -2.493   5.540  26.992  1.00  0.00     0.075 A 
HETATM   14  C8  UNL     1      -1.569   6.125  26.165  1.00  0.00     0.082 A 
HETATM   15  N3  UNL     1       0.226   9.222  25.095  1.00  0.00    -0.243 N 
ENDROOT
BRANCH  15  16
HETATM   16  C9  UNL     1      -0.104  10.386  25.764  1.00  0.00     0.084 A 
HETATM   17  C10 UNL     1      -1.361  10.925  25.670  1.00  0.00     0.033 A 
HETATM   18  C11 UNL     1      -1.728  12.077  26.342  1.00  0.00     0.002 A 
HETATM   19  C12 UNL     1      -0.792  12.715  27.139  1.00  0.00     0.003 A 
HETATM   20  C13 UNL     1       0.489  12.190  27.250  1.00  0.00     0.044 A 
HETATM   21  C14 UNL     1       0.825  11.018  26.554  1.00  0.00     0.143 A 
HETATM   22  F1  UNL     1       2.097  10.581  26.723  1.00  0.00    -0.204 F 
ENDBRANCH  15  16
BRANCH  14  23
HETATM   23  O3  UNL     1      -0.918   5.312  25.249  1.00  0.00    -0.360 OA
ATOM     24  H3  UNL     1      -1.358   5.106  24.432  1.00  0.00     0.217 HD
ENDBRANCH  14  23
BRANCH  12  25
HETATM   25  O2  UNL     1      -4.086   5.691  28.735  1.00  0.00    -0.359 OA
ATOM     26  H2  UNL     1      -3.887   4.902  29.224  1.00  0.00     0.217 HD
ENDBRANCH  12  25
TORSDOF 3
ENDMDL
