MODEL 1
REMARK VINA RESULT: -7.222938943      0.000      0.000
REMARK  18 active torsions:
REMARK  status: ('A' for Active; 'I' for Inactive)
REMARK    1  A    between atoms: O1_2  and  C2_3 
REMARK    2  A    between atoms: C4_5  and  C5_6 
REMARK    3  A    between atoms: C5_6  and  C6_7 
REMARK    4  A    between atoms: C5_6  and  S1_11 
REMARK    5  A    between atoms: C6_7  and  C7_8 
REMARK    6  A    between atoms: S1_11  and  C8_12 
REMARK    7  A    between atoms: C8_12  and  C9_13 
REMARK    8  A    between atoms: C9_13  and  N1_14 
REMARK    9  A    between atoms: C9_13  and  C15_28 
REMARK       I    between atoms: N1_14  and  C10_16 
REMARK   10  A    between atoms: C10_16  and  C11_18 
REMARK   11  A    between atoms: C11_18  and  C12_19 
REMARK   12  A    between atoms: C12_19  and  C13_20 
REMARK   13  A    between atoms: C13_20  and  N2_21 
REMARK   14  A    between atoms: C13_20  and  C14_25 
REMARK       I    between atoms: C15_28  and  N3_30 
REMARK   15  A    between atoms: N3_30  and  C16_32 
REMARK   16  A    between atoms: C16_32  and  C17_33 
REMARK   17  A    between atoms: C19_37  and  O10_38 
REMARK   18  A    between atoms: C21_40  and  O11_41 
ROOT
HETATM    1  C9  UNL     1       1.229   7.772  93.706  1.00  0.00     0.185 C 
ENDROOT
BRANCH   1   2
HETATM    2  C8  UNL     1       0.269   7.642  92.571  1.00  0.00     0.109 C 
BRANCH   2   3
HETATM    3  S1  UNL     1       0.328   6.121  91.682  1.00  0.00    -0.156 SA
BRANCH   3   4
HETATM    4  C5  UNL     1      -0.546   4.725  92.344  1.00  0.00     0.090 C 
BRANCH   4   5
HETATM    5  C4  UNL     1      -1.841   5.185  92.886  1.00  0.00    -0.038 A 
HETATM    6  C3  UNL     1      -2.816   5.753  92.077  1.00  0.00     0.048 A 
HETATM    7  C2  UNL     1      -3.996   6.155  92.630  1.00  0.00     0.104 A 
HETATM    8  C21 UNL     1      -4.238   6.009  93.973  1.00  0.00     0.135 A 
HETATM    9  C19 UNL     1      -3.284   5.448  94.796  1.00  0.00     0.104 A 
HETATM   10  C18 UNL     1      -2.094   5.045  94.226  1.00  0.00     0.048 A 
BRANCH   7  11
HETATM   11  O1  UNL     1      -4.976   6.727  91.808  1.00  0.00    -0.353 OA
HETATM   12  C1  UNL     1      -4.654   7.212  90.527  1.00  0.00     0.210 C 
ENDBRANCH   7  11
BRANCH   8  13
HETATM   13  O11 UNL     1      -5.430   6.413  94.550  1.00  0.00    -0.351 OA
HETATM   14  C22 UNL     1      -6.514   5.503  94.624  1.00  0.00     0.210 C 
ENDBRANCH   8  13
BRANCH   9  15
HETATM   15  O10 UNL     1      -3.482   5.280  96.158  1.00  0.00    -0.353 OA
HETATM   16  C20 UNL     1      -2.573   4.539  96.920  1.00  0.00     0.210 C 
ENDBRANCH   9  15
ENDBRANCH   4   5
BRANCH   4  17
HETATM   17  C6  UNL     1       0.200   3.818  93.255  1.00  0.00     0.133 C 
BRANCH  17  18
HETATM   18  C7  UNL     1       0.801   2.735  92.379  1.00  0.00     0.173 C 
HETATM   19  O2  UNL     1       1.894   2.955  91.793  1.00  0.00    -0.648 OA
HETATM   20  O3  UNL     1       0.200   1.512  92.194  1.00  0.00    -0.648 OA
ENDBRANCH  17  18
ENDBRANCH   4  17
ENDBRANCH   3   4
ENDBRANCH   2   3
ENDBRANCH   1   2
BRANCH   1  21
HETATM   21  N1  UNL     1       0.480   8.280  94.871  1.00  0.00    -0.347 N 
HETATM   22  C10 UNL     1       0.197   7.475  96.007  1.00  0.00     0.218 C 
HETATM   23  O4  UNL     1       0.646   6.290  95.924  1.00  0.00    -0.274 OA
ATOM     24  H1  UNL     1       0.153   9.246  94.860  1.00  0.00     0.163 HD
BRANCH  22  25
HETATM   25  C11 UNL     1      -0.550   7.969  97.174  1.00  0.00     0.105 C 
BRANCH  25  26
HETATM   26  C12 UNL     1      -1.963   8.329  96.914  1.00  0.00     0.053 C 
BRANCH  26  27
HETATM   27  C13 UNL     1      -2.795   8.537  98.154  1.00  0.00     0.283 C 
BRANCH  27  28
HETATM   28  N2  UNL     1      -3.998   7.713  98.085  1.00  0.00    -0.065 N 
ATOM     29  H23 UNL     1      -3.889   6.927  97.444  1.00  0.00     0.275 HD
ATOM     30  H22 UNL     1      -4.149   7.183  98.944  1.00  0.00     0.275 HD
ATOM     31  H21 UNL     1      -4.801   8.295  97.847  1.00  0.00     0.275 HD
ENDBRANCH  27  28
BRANCH  27  32
HETATM   32  C14 UNL     1      -3.259   9.945  98.308  1.00  0.00     0.204 C 
HETATM   33  O5  UNL     1      -4.169  10.264  99.150  1.00  0.00    -0.646 OA
HETATM   34  O6  UNL     1      -2.758  11.008  97.572  1.00  0.00    -0.646 OA
ENDBRANCH  27  32
ENDBRANCH  26  27
ENDBRANCH  25  26
ENDBRANCH  22  25
ENDBRANCH   1  21
BRANCH   1  35
HETATM   35  C15 UNL     1       2.280   8.792  93.459  1.00  0.00     0.241 C 
HETATM   36  O7  UNL     1       2.610   9.162  92.278  1.00  0.00    -0.271 OA
HETATM   37  N3  UNL     1       3.017   9.454  94.480  1.00  0.00    -0.349 N 
ATOM     38  H3  UNL     1       2.820   9.220  95.452  1.00  0.00     0.163 HD
BRANCH  37  39
HETATM   39  C16 UNL     1       4.033  10.442  94.201  1.00  0.00     0.235 C 
BRANCH  39  40
HETATM   40  C17 UNL     1       5.363   9.838  94.444  1.00  0.00     0.191 C 
HETATM   41  O8  UNL     1       5.957  10.021  95.536  1.00  0.00    -0.647 OA
HETATM   42  O9  UNL     1       6.020   9.053  93.506  1.00  0.00    -0.647 OA
ENDBRANCH  39  40
ENDBRANCH  37  39
ENDBRANCH   1  35
TORSDOF 18
ENDMDL
