MODEL 20
REMARK VINA RESULT: -6.618304597      1.870      6.037
REMARK  18 active torsions:
REMARK  status: ('A' for Active; 'I' for Inactive)
REMARK    1  A    between atoms: O1_2  and  C2_3 
REMARK    2  A    between atoms: C4_5  and  C5_6 
REMARK    3  A    between atoms: C5_6  and  C6_7 
REMARK    4  A    between atoms: C5_6  and  S1_11 
REMARK    5  A    between atoms: C6_7  and  C7_8 
REMARK    6  A    between atoms: S1_11  and  C8_12 
REMARK    7  A    between atoms: C8_12  and  C9_13 
REMARK    8  A    between atoms: C9_13  and  N1_14 
REMARK    9  A    between atoms: C9_13  and  C15_28 
REMARK       I    between atoms: N1_14  and  C10_16 
REMARK   10  A    between atoms: C10_16  and  C11_18 
REMARK   11  A    between atoms: C11_18  and  C12_19 
REMARK   12  A    between atoms: C12_19  and  C13_20 
REMARK   13  A    between atoms: C13_20  and  N2_21 
REMARK   14  A    between atoms: C13_20  and  C14_25 
REMARK       I    between atoms: C15_28  and  N3_30 
REMARK   15  A    between atoms: N3_30  and  C16_32 
REMARK   16  A    between atoms: C16_32  and  C17_33 
REMARK   17  A    between atoms: C19_37  and  O10_38 
REMARK   18  A    between atoms: C21_40  and  O11_41 
ROOT
HETATM    1  C9  UNL     1       0.042   7.601  95.553  1.00  0.00     0.185 C 
ENDROOT
BRANCH   1   2
HETATM    2  C8  UNL     1       0.322   6.140  95.656  1.00  0.00     0.109 C 
BRANCH   2   3
HETATM    3  S1  UNL     1       0.225   5.228  94.151  1.00  0.00    -0.156 SA
BRANCH   3   4
HETATM    4  C5  UNL     1      -0.694   3.709  94.146  1.00  0.00     0.090 C 
BRANCH   4   5
HETATM    5  C4  UNL     1      -1.768   3.796  95.156  1.00  0.00    -0.038 A 
HETATM    6  C3  UNL     1      -1.725   3.070  96.338  1.00  0.00     0.048 A 
HETATM    7  C2  UNL     1      -2.743   3.192  97.239  1.00  0.00     0.104 A 
HETATM    8  C21 UNL     1      -3.811   4.020  96.997  1.00  0.00     0.135 A 
HETATM    9  C19 UNL     1      -3.874   4.751  95.828  1.00  0.00     0.104 A 
HETATM   10  C18 UNL     1      -2.840   4.619  94.926  1.00  0.00     0.048 A 
BRANCH   7  11
HETATM   11  O1  UNL     1      -2.692   2.456  98.430  1.00  0.00    -0.353 OA
HETATM   12  C1  UNL     1      -2.927   1.070  98.436  1.00  0.00     0.210 C 
ENDBRANCH   7  11
BRANCH   8  13
HETATM   13  O11 UNL     1      -4.851   4.154  97.900  1.00  0.00    -0.351 OA
HETATM   14  C22 UNL     1      -4.736   5.082  98.965  1.00  0.00     0.210 C 
ENDBRANCH   8  13
BRANCH   9  15
HETATM   15  O10 UNL     1      -4.932   5.600  95.539  1.00  0.00    -0.353 OA
HETATM   16  C20 UNL     1      -5.405   5.721  94.230  1.00  0.00     0.210 C 
ENDBRANCH   9  15
ENDBRANCH   4   5
BRANCH   4  17
HETATM   17  C6  UNL     1       0.079   2.440  94.197  1.00  0.00     0.133 C 
BRANCH  17  18
HETATM   18  C7  UNL     1       0.706   2.267  92.827  1.00  0.00     0.173 C 
HETATM   19  O2  UNL     1       0.208   1.434  92.024  1.00  0.00    -0.648 OA
HETATM   20  O3  UNL     1       1.804   2.987  92.418  1.00  0.00    -0.648 OA
ENDBRANCH  17  18
ENDBRANCH   4  17
ENDBRANCH   3   4
ENDBRANCH   2   3
ENDBRANCH   1   2
BRANCH   1  21
HETATM   21  N1  UNL     1       1.298   8.273  95.170  1.00  0.00    -0.347 N 
HETATM   22  C10 UNL     1       1.547   8.734  93.848  1.00  0.00     0.218 C 
HETATM   23  O4  UNL     1       0.594   8.514  93.039  1.00  0.00    -0.274 OA
ATOM     24  H1  UNL     1       2.016   8.412  95.881  1.00  0.00     0.163 HD
BRANCH  22  25
HETATM   25  C11 UNL     1       2.795   9.404  93.454  1.00  0.00     0.105 C 
BRANCH  25  26
HETATM   26  C12 UNL     1       3.646   9.865  94.576  1.00  0.00     0.053 C 
BRANCH  26  27
HETATM   27  C13 UNL     1       4.582  10.994  94.229  1.00  0.00     0.283 C 
BRANCH  27  28
HETATM   28  N2  UNL     1       5.675  10.492  93.401  1.00  0.00    -0.065 N 
ATOM     29  H23 UNL     1       6.054  11.215  92.788  1.00  0.00     0.275 HD
ATOM     30  H22 UNL     1       6.516  10.306  93.947  1.00  0.00     0.275 HD
ATOM     31  H21 UNL     1       5.365   9.672  92.881  1.00  0.00     0.275 HD
ENDBRANCH  27  28
BRANCH  27  32
HETATM   32  C14 UNL     1       5.215  11.610  95.430  1.00  0.00     0.204 C 
HETATM   33  O5  UNL     1       5.254  12.878  95.593  1.00  0.00    -0.646 OA
HETATM   34  O6  UNL     1       5.804  10.880  96.451  1.00  0.00    -0.646 OA
ENDBRANCH  27  32
ENDBRANCH  26  27
ENDBRANCH  25  26
ENDBRANCH  22  25
ENDBRANCH   1  21
BRANCH   1  35
HETATM   35  C15 UNL     1      -0.331   8.212  96.855  1.00  0.00     0.241 C 
HETATM   36  O7  UNL     1       0.482   8.267  97.842  1.00  0.00    -0.271 OA
HETATM   37  N3  UNL     1      -1.600   8.788  97.141  1.00  0.00    -0.349 N 
ATOM     38  H3  UNL     1      -2.311   8.786  96.410  1.00  0.00     0.163 HD
BRANCH  37  39
HETATM   39  C16 UNL     1      -1.927   9.373  98.420  1.00  0.00     0.235 C 
BRANCH  39  40
HETATM   40  C17 UNL     1      -3.032  10.340  98.231  1.00  0.00     0.191 C 
HETATM   41  O8  UNL     1      -2.970  11.214  97.330  1.00  0.00    -0.647 OA
HETATM   42  O9  UNL     1      -4.177  10.343  99.016  1.00  0.00    -0.647 OA
ENDBRANCH  39  40
ENDBRANCH  37  39
ENDBRANCH   1  35
TORSDOF 18
ENDMDL
