MODEL 3
REMARK VINA RESULT: -7.021179557      1.134      1.514
REMARK  18 active torsions:
REMARK  status: ('A' for Active; 'I' for Inactive)
REMARK    1  A    between atoms: O1_2  and  C2_3 
REMARK    2  A    between atoms: C4_5  and  C5_6 
REMARK    3  A    between atoms: C5_6  and  C6_7 
REMARK    4  A    between atoms: C5_6  and  S1_11 
REMARK    5  A    between atoms: C6_7  and  C7_8 
REMARK    6  A    between atoms: S1_11  and  C8_12 
REMARK    7  A    between atoms: C8_12  and  C9_13 
REMARK    8  A    between atoms: C9_13  and  N1_14 
REMARK    9  A    between atoms: C9_13  and  C15_28 
REMARK       I    between atoms: N1_14  and  C10_16 
REMARK   10  A    between atoms: C10_16  and  C11_18 
REMARK   11  A    between atoms: C11_18  and  C12_19 
REMARK   12  A    between atoms: C12_19  and  C13_20 
REMARK   13  A    between atoms: C13_20  and  N2_21 
REMARK   14  A    between atoms: C13_20  and  C14_25 
REMARK       I    between atoms: C15_28  and  N3_30 
REMARK   15  A    between atoms: N3_30  and  C16_32 
REMARK   16  A    between atoms: C16_32  and  C17_33 
REMARK   17  A    between atoms: C19_37  and  O10_38 
REMARK   18  A    between atoms: C21_40  and  O11_41 
ROOT
HETATM    1  C9  UNL     1       1.159   7.865  93.965  1.00  0.00     0.185 C 
ENDROOT
BRANCH   1   2
HETATM    2  C8  UNL     1       0.031   7.878  92.988  1.00  0.00     0.109 C 
BRANCH   2   3
HETATM    3  S1  UNL     1      -0.026   6.526  91.858  1.00  0.00    -0.156 SA
BRANCH   3   4
HETATM    4  C5  UNL     1      -0.392   4.911  92.497  1.00  0.00     0.090 C 
BRANCH   4   5
HETATM    5  C4  UNL     1      -1.626   4.985  93.305  1.00  0.00    -0.038 A 
HETATM    6  C3  UNL     1      -2.794   5.553  92.814  1.00  0.00     0.048 A 
HETATM    7  C2  UNL     1      -3.906   5.590  93.603  1.00  0.00     0.104 A 
HETATM    8  C21 UNL     1      -3.893   5.077  94.875  1.00  0.00     0.135 A 
HETATM    9  C19 UNL     1      -2.744   4.507  95.384  1.00  0.00     0.104 A 
HETATM   10  C18 UNL     1      -1.626   4.475  94.578  1.00  0.00     0.048 A 
BRANCH   7  11
HETATM   11  O1  UNL     1      -5.081   6.165  93.099  1.00  0.00    -0.353 OA
HETATM   12  C1  UNL     1      -5.079   6.871  91.883  1.00  0.00     0.210 C 
ENDBRANCH   7  11
BRANCH   8  13
HETATM   13  O11 UNL     1      -5.013   5.107  95.688  1.00  0.00    -0.351 OA
HETATM   14  C22 UNL     1      -5.903   4.004  95.693  1.00  0.00     0.210 C 
ENDBRANCH   8  13
BRANCH   9  15
HETATM   15  O10 UNL     1      -2.681   3.975  96.663  1.00  0.00    -0.353 OA
HETATM   16  C20 UNL     1      -2.413   2.616  96.853  1.00  0.00     0.210 C 
ENDBRANCH   9  15
ENDBRANCH   4   5
BRANCH   4  17
HETATM   17  C6  UNL     1       0.714   4.166  93.154  1.00  0.00     0.133 C 
BRANCH  17  18
HETATM   18  C7  UNL     1       0.994   2.960  92.278  1.00  0.00     0.173 C 
HETATM   19  O2  UNL     1       0.228   1.962  92.344  1.00  0.00    -0.648 OA
HETATM   20  O3  UNL     1       2.057   2.906  91.408  1.00  0.00    -0.648 OA
ENDBRANCH  17  18
ENDBRANCH   4  17
ENDBRANCH   3   4
ENDBRANCH   2   3
ENDBRANCH   1   2
BRANCH   1  21
HETATM   21  N1  UNL     1       0.641   8.360  95.254  1.00  0.00    -0.347 N 
HETATM   22  C10 UNL     1       0.390   7.500  96.358  1.00  0.00     0.218 C 
HETATM   23  O4  UNL     1       0.652   6.279  96.129  1.00  0.00    -0.274 OA
ATOM     24  H1  UNL     1       0.456   9.358  95.358  1.00  0.00     0.163 HD
BRANCH  22  25
HETATM   25  C11 UNL     1      -0.127   7.981  97.648  1.00  0.00     0.105 C 
BRANCH  25  26
HETATM   26  C12 UNL     1      -1.442   8.661  97.587  1.00  0.00     0.053 C 
BRANCH  26  27
HETATM   27  C13 UNL     1      -2.581   7.782  97.137  1.00  0.00     0.283 C 
BRANCH  27  28
HETATM   28  N2  UNL     1      -3.284   8.416  96.025  1.00  0.00    -0.065 N 
ATOM     29  H23 UNL     1      -2.983   9.380  95.880  1.00  0.00     0.275 HD
ATOM     30  H22 UNL     1      -2.997   8.035  95.123  1.00  0.00     0.275 HD
ATOM     31  H21 UNL     1      -4.291   8.345  96.168  1.00  0.00     0.275 HD
ENDBRANCH  27  28
BRANCH  27  32
HETATM   32  C14 UNL     1      -3.599   7.561  98.204  1.00  0.00     0.204 C 
HETATM   33  O5  UNL     1      -3.869   6.390  98.642  1.00  0.00    -0.646 OA
HETATM   34  O6  UNL     1      -4.323   8.582  98.802  1.00  0.00    -0.646 OA
ENDBRANCH  27  32
ENDBRANCH  26  27
ENDBRANCH  25  26
ENDBRANCH  22  25
ENDBRANCH   1  21
BRANCH   1  35
HETATM   35  C15 UNL     1       2.245   8.812  93.605  1.00  0.00     0.241 C 
HETATM   36  O7  UNL     1       2.573   9.048  92.391  1.00  0.00    -0.271 OA
HETATM   37  N3  UNL     1       3.021   9.544  94.547  1.00  0.00    -0.349 N 
ATOM     38  H3  UNL     1       2.828   9.417  95.540  1.00  0.00     0.163 HD
BRANCH  37  39
HETATM   39  C16 UNL     1       4.070  10.458  94.160  1.00  0.00     0.235 C 
BRANCH  39  40
HETATM   40  C17 UNL     1       5.371   9.903  94.598  1.00  0.00     0.191 C 
HETATM   41  O8  UNL     1       6.027   9.141  93.844  1.00  0.00    -0.647 OA
HETATM   42  O9  UNL     1       5.934  10.183  95.836  1.00  0.00    -0.647 OA
ENDBRANCH  39  40
ENDBRANCH  37  39
ENDBRANCH   1  35
TORSDOF 18
ENDMDL
