MODEL 2
REMARK VINA RESULT: -7.194165803      0.451      2.273
REMARK  18 active torsions:
REMARK  status: ('A' for Active; 'I' for Inactive)
REMARK    1  A    between atoms: O1_2  and  C2_3 
REMARK    2  A    between atoms: C4_5  and  C5_6 
REMARK    3  A    between atoms: C5_6  and  C6_7 
REMARK    4  A    between atoms: C5_6  and  S1_11 
REMARK    5  A    between atoms: C6_7  and  C7_8 
REMARK    6  A    between atoms: S1_11  and  C8_12 
REMARK    7  A    between atoms: C8_12  and  C9_13 
REMARK    8  A    between atoms: C9_13  and  N1_14 
REMARK    9  A    between atoms: C9_13  and  C15_28 
REMARK       I    between atoms: N1_14  and  C10_16 
REMARK   10  A    between atoms: C10_16  and  C11_18 
REMARK   11  A    between atoms: C11_18  and  C12_19 
REMARK   12  A    between atoms: C12_19  and  C13_20 
REMARK   13  A    between atoms: C13_20  and  N2_21 
REMARK   14  A    between atoms: C13_20  and  C14_25 
REMARK       I    between atoms: C15_28  and  N3_30 
REMARK   15  A    between atoms: N3_30  and  C16_32 
REMARK   16  A    between atoms: C16_32  and  C17_33 
REMARK   17  A    between atoms: C19_37  and  O10_38 
REMARK   18  A    between atoms: C21_40  and  O11_41 
ROOT
HETATM    1  C9  UNL     1       1.270   7.764  93.617  1.00  0.00     0.185 C 
ENDROOT
BRANCH   1   2
HETATM    2  C8  UNL     1       0.276   7.626  92.513  1.00  0.00     0.109 C 
BRANCH   2   3
HETATM    3  S1  UNL     1       0.312   6.102  91.629  1.00  0.00    -0.156 SA
BRANCH   3   4
HETATM    4  C5  UNL     1      -0.507   4.697  92.341  1.00  0.00     0.090 C 
BRANCH   4   5
HETATM    5  C4  UNL     1      -1.776   5.142  92.951  1.00  0.00    -0.038 A 
HETATM    6  C3  UNL     1      -2.026   5.004  94.310  1.00  0.00     0.048 A 
HETATM    7  C2  UNL     1      -3.214   5.437  94.822  1.00  0.00     0.104 A 
HETATM    8  C21 UNL     1      -4.170   6.005  94.017  1.00  0.00     0.135 A 
HETATM    9  C19 UNL     1      -3.944   6.151  92.664  1.00  0.00     0.104 A 
HETATM   10  C18 UNL     1      -2.739   5.711  92.158  1.00  0.00     0.048 A 
BRANCH   7  11
HETATM   11  O1  UNL     1      -3.459   5.295  96.194  1.00  0.00    -0.353 OA
HETATM   12  C1  UNL     1      -2.694   4.414  96.979  1.00  0.00     0.210 C 
ENDBRANCH   7  11
BRANCH   8  13
HETATM   13  O11 UNL     1      -5.381   6.448  94.521  1.00  0.00    -0.351 OA
HETATM   14  C22 UNL     1      -5.499   7.782  94.984  1.00  0.00     0.210 C 
ENDBRANCH   8  13
BRANCH   9  15
HETATM   15  O10 UNL     1      -4.878   6.719  91.811  1.00  0.00    -0.353 OA
HETATM   16  C20 UNL     1      -4.496   7.181  90.549  1.00  0.00     0.210 C 
ENDBRANCH   9  15
ENDBRANCH   4   5
BRANCH   4  17
HETATM   17  C6  UNL     1       0.300   3.803  93.214  1.00  0.00     0.133 C 
BRANCH  17  18
HETATM   18  C7  UNL     1       0.852   2.715  92.313  1.00  0.00     0.173 C 
HETATM   19  O2  UNL     1       1.932   2.916  91.698  1.00  0.00    -0.648 OA
HETATM   20  O3  UNL     1       0.219   1.507  92.136  1.00  0.00    -0.648 OA
ENDBRANCH  17  18
ENDBRANCH   4  17
ENDBRANCH   3   4
ENDBRANCH   2   3
ENDBRANCH   1   2
BRANCH   1  21
HETATM   21  N1  UNL     1       0.548   8.240  94.812  1.00  0.00    -0.347 N 
HETATM   22  C10 UNL     1       0.303   7.407  95.939  1.00  0.00     0.218 C 
HETATM   23  O4  UNL     1       0.761   6.229  95.818  1.00  0.00    -0.274 OA
ATOM     24  H1  UNL     1       0.212   9.202  94.832  1.00  0.00     0.163 HD
BRANCH  22  25
HETATM   25  C11 UNL     1      -0.415   7.869  97.136  1.00  0.00     0.105 C 
BRANCH  25  26
HETATM   26  C12 UNL     1      -1.829   8.252  96.915  1.00  0.00     0.053 C 
BRANCH  26  27
HETATM   27  C13 UNL     1      -2.604   8.541  98.175  1.00  0.00     0.283 C 
BRANCH  27  28
HETATM   28  N2  UNL     1      -3.734   7.622  98.283  1.00  0.00    -0.065 N 
ATOM     29  H23 UNL     1      -4.498   7.880  97.658  1.00  0.00     0.275 HD
ATOM     30  H22 UNL     1      -3.522   6.707  97.887  1.00  0.00     0.275 HD
ATOM     31  H21 UNL     1      -4.037   7.561  99.254  1.00  0.00     0.275 HD
ENDBRANCH  27  28
BRANCH  27  32
HETATM   32  C14 UNL     1      -3.179   9.917  98.198  1.00  0.00     0.204 C 
HETATM   33  O5  UNL     1      -2.922  10.767  97.278  1.00  0.00    -0.646 OA
HETATM   34  O6  UNL     1      -4.023  10.383  99.195  1.00  0.00    -0.646 OA
ENDBRANCH  27  32
ENDBRANCH  26  27
ENDBRANCH  25  26
ENDBRANCH  22  25
ENDBRANCH   1  21
BRANCH   1  35
HETATM   35  C15 UNL     1       2.289   8.810  93.350  1.00  0.00     0.241 C 
HETATM   36  O7  UNL     1       2.542   9.232  92.168  1.00  0.00    -0.271 OA
HETATM   37  N3  UNL     1       3.076   9.444  94.351  1.00  0.00    -0.349 N 
ATOM     38  H3  UNL     1       2.940   9.169  95.324  1.00  0.00     0.163 HD
BRANCH  37  39
HETATM   39  C16 UNL     1       4.058  10.460  94.053  1.00  0.00     0.235 C 
BRANCH  39  40
HETATM   40  C17 UNL     1       5.404   9.842  94.078  1.00  0.00     0.191 C 
HETATM   41  O8  UNL     1       6.089   9.845  95.131  1.00  0.00    -0.647 OA
HETATM   42  O9  UNL     1       5.978   9.235  92.969  1.00  0.00    -0.647 OA
ENDBRANCH  39  40
ENDBRANCH  37  39
ENDBRANCH   1  35
TORSDOF 18
ENDMDL
