MODEL 9
REMARK VINA RESULT: -7.393833062      3.119      6.049
REMARK  3 active torsions:
REMARK  status: ('A' for Active; 'I' for Inactive)
REMARK    1  A    between atoms: C4_4  and  O1_5 
REMARK    2  A    between atoms: O1_5  and  C5_6 
REMARK    3  A    between atoms: C10_11  and  C11_12 
ROOT
HETATM    1  C5  UNL     1     -39.300   8.325  24.005  1.00  0.00     0.089 A 
HETATM    2  C6  UNL     1     -38.750   7.297  23.275  1.00  0.00     0.038 A 
HETATM    3  C7  UNL     1     -37.700   7.522  22.389  1.00  0.00     0.003 A 
HETATM    4  C8  UNL     1     -37.193   8.800  22.230  1.00  0.00     0.001 A 
HETATM    5  C9  UNL     1     -37.762   9.829  22.979  1.00  0.00     0.017 A 
HETATM    6  C10 UNL     1     -38.796   9.590  23.848  1.00  0.00     0.033 A 
ENDROOT
BRANCH   6   7
HETATM    7  C11 UNL     1     -39.363  10.714  24.615  1.00  0.00     0.105 A 
HETATM    8  N1  UNL     1     -40.120  10.692  25.698  1.00  0.00    -0.283 N 
HETATM    9  N2  UNL     1     -40.521  11.776  26.229  1.00  0.00    -0.226 N 
ATOM     10  H1  UNL     1     -40.384   9.797  26.110  1.00  0.00     0.188 HD
HETATM   11  C12 UNL     1     -41.293  12.115  27.318  1.00  0.00     0.225 A 
HETATM   12  C13 UNL     1     -40.166  12.936  25.675  1.00  0.00     0.188 A 
HETATM   13  N3  UNL     1     -41.368  13.453  27.373  1.00  0.00    -0.292 N 
HETATM   14  N4  UNL     1     -40.688  13.993  26.379  1.00  0.00    -0.277 N 
ATOM     15  H3  UNL     1     -41.879  13.978  28.083  1.00  0.00     0.187 HD
ATOM     16  H4  UNL     1     -40.574  14.986  26.176  1.00  0.00     0.189 HD
HETATM   17  S1  UNL     1     -39.225  12.401  24.350  1.00  0.00    -0.031 SA
ENDBRANCH   6   7
BRANCH   1  18
HETATM   18  O1  UNL     1     -40.328   8.103  24.873  1.00  0.00    -0.310 OA
BRANCH  18  19
HETATM   19  C4  UNL     1     -41.325   7.167  24.701  1.00  0.00     0.076 A 
HETATM   20  C3  UNL     1     -42.464   7.501  24.008  1.00  0.00     0.037 A 
HETATM   21  C2  UNL     1     -43.482   6.558  23.827  1.00  0.00     0.003 A 
HETATM   22  C1  UNL     1     -43.372   5.281  24.333  1.00  0.00     0.000 A 
HETATM   23  C15 UNL     1     -42.222   4.966  25.024  1.00  0.00     0.003 A 
HETATM   24  C14 UNL     1     -41.195   5.898  25.214  1.00  0.00     0.037 A 
ENDBRANCH  18  19
ENDBRANCH   1  18
TORSDOF 3
ENDMDL
