MODEL 3
REMARK VINA RESULT: -7.553430908      1.380      4.268
REMARK  3 active torsions:
REMARK  status: ('A' for Active; 'I' for Inactive)
REMARK    1  A    between atoms: C4_4  and  O1_5 
REMARK    2  A    between atoms: O1_5  and  C5_6 
REMARK    3  A    between atoms: C10_11  and  C11_12 
ROOT
HETATM    1  C5  UNL     1     -40.033   9.870  25.379  1.00  0.00     0.089 A 
HETATM    2  C6  UNL     1     -40.822  10.509  26.308  1.00  0.00     0.038 A 
HETATM    3  C7  UNL     1     -40.947  11.895  26.319  1.00  0.00     0.003 A 
HETATM    4  C8  UNL     1     -40.270  12.657  25.381  1.00  0.00     0.001 A 
HETATM    5  C9  UNL     1     -39.476  11.992  24.447  1.00  0.00     0.017 A 
HETATM    6  C10 UNL     1     -39.364  10.625  24.451  1.00  0.00     0.033 A 
ENDROOT
BRANCH   6   7
HETATM    7  C11 UNL     1     -38.510   9.972  23.442  1.00  0.00     0.105 A 
HETATM    8  N1  UNL     1     -37.194   9.873  23.396  1.00  0.00    -0.283 N 
HETATM    9  N2  UNL     1     -36.623   9.265  22.435  1.00  0.00    -0.226 N 
ATOM     10  H1  UNL     1     -36.630  10.288  24.138  1.00  0.00     0.188 HD
HETATM   11  C12 UNL     1     -35.324   8.981  22.079  1.00  0.00     0.225 A 
HETATM   12  C13 UNL     1     -37.377   8.730  21.473  1.00  0.00     0.188 A 
HETATM   13  N3  UNL     1     -35.350   8.292  20.929  1.00  0.00    -0.292 N 
HETATM   14  N4  UNL     1     -36.594   8.119  20.525  1.00  0.00    -0.277 N 
ATOM     15  H3  UNL     1     -34.524   7.952  20.436  1.00  0.00     0.187 HD
ATOM     16  H4  UNL     1     -36.909   7.633  19.685  1.00  0.00     0.189 HD
HETATM   17  S1  UNL     1     -38.949   9.139  22.011  1.00  0.00    -0.031 SA
ENDBRANCH   6   7
BRANCH   1  18
HETATM   18  O1  UNL     1     -39.911   8.512  25.370  1.00  0.00    -0.310 OA
BRANCH  18  19
HETATM   19  C4  UNL     1     -40.903   7.628  25.003  1.00  0.00     0.076 A 
HETATM   20  C3  UNL     1     -40.730   6.281  25.214  1.00  0.00     0.037 A 
HETATM   21  C2  UNL     1     -41.730   5.374  24.846  1.00  0.00     0.003 A 
HETATM   22  C1  UNL     1     -42.905   5.802  24.267  1.00  0.00     0.000 A 
HETATM   23  C15 UNL     1     -43.060   7.158  24.064  1.00  0.00     0.003 A 
HETATM   24  C14 UNL     1     -42.068   8.076  24.427  1.00  0.00     0.037 A 
ENDBRANCH  18  19
ENDBRANCH   1  18
TORSDOF 3
ENDMDL
