MODEL 4
REMARK VINA RESULT: -7.546647226      3.515      6.388
REMARK  3 active torsions:
REMARK  status: ('A' for Active; 'I' for Inactive)
REMARK    1  A    between atoms: C4_4  and  O1_5 
REMARK    2  A    between atoms: O1_5  and  C5_6 
REMARK    3  A    between atoms: C10_11  and  C11_12 
ROOT
HETATM    1  C5  UNL     1     -39.668   8.962  23.756  1.00  0.00     0.089 A 
HETATM    2  C6  UNL     1     -39.210   8.463  22.559  1.00  0.00     0.038 A 
HETATM    3  C7  UNL     1     -38.796   9.310  21.534  1.00  0.00     0.003 A 
HETATM    4  C8  UNL     1     -38.841  10.681  21.712  1.00  0.00     0.001 A 
HETATM    5  C9  UNL     1     -39.308  11.169  22.932  1.00  0.00     0.017 A 
HETATM    6  C10 UNL     1     -39.712  10.321  23.932  1.00  0.00     0.033 A 
ENDROOT
BRANCH   6   7
HETATM    7  C11 UNL     1     -40.197  10.888  25.202  1.00  0.00     0.105 A 
HETATM    8  N1  UNL     1     -40.146  10.379  26.420  1.00  0.00    -0.283 N 
HETATM    9  N2  UNL     1     -40.622  11.021  27.410  1.00  0.00    -0.226 N 
ATOM     10  H1  UNL     1     -39.721   9.464  26.568  1.00  0.00     0.188 HD
HETATM   11  C12 UNL     1     -40.736  10.803  28.766  1.00  0.00     0.225 A 
HETATM   12  C13 UNL     1     -41.175  12.217  27.199  1.00  0.00     0.188 A 
HETATM   13  N3  UNL     1     -41.347  11.867  29.307  1.00  0.00    -0.292 N 
HETATM   14  N4  UNL     1     -41.633  12.757  28.375  1.00  0.00    -0.277 N 
ATOM     15  H3  UNL     1     -41.561  11.974  30.298  1.00  0.00     0.187 HD
ATOM     16  H4  UNL     1     -42.096  13.657  28.501  1.00  0.00     0.189 HD
HETATM   17  S1  UNL     1     -40.980  12.381  25.506  1.00  0.00    -0.031 SA
ENDBRANCH   6   7
BRANCH   1  18
HETATM   18  O1  UNL     1     -40.073   8.131  24.759  1.00  0.00    -0.310 OA
BRANCH  18  19
HETATM   19  C4  UNL     1     -41.094   7.210  24.663  1.00  0.00     0.076 A 
HETATM   20  C3  UNL     1     -42.300   7.580  24.114  1.00  0.00     0.037 A 
HETATM   21  C2  UNL     1     -43.343   6.654  24.012  1.00  0.00     0.003 A 
HETATM   22  C1  UNL     1     -43.193   5.357  24.453  1.00  0.00     0.000 A 
HETATM   23  C15 UNL     1     -41.977   5.005  24.999  1.00  0.00     0.003 A 
HETATM   24  C14 UNL     1     -40.924   5.921  25.109  1.00  0.00     0.037 A 
ENDBRANCH  18  19
ENDBRANCH   1  18
TORSDOF 3
ENDMDL
