MODEL 2
REMARK VINA RESULT: -7.597868812      3.369      6.161
REMARK  3 active torsions:
REMARK  status: ('A' for Active; 'I' for Inactive)
REMARK    1  A    between atoms: C4_4  and  O1_5 
REMARK    2  A    between atoms: O1_5  and  C5_6 
REMARK    3  A    between atoms: C10_11  and  C11_12 
ROOT
HETATM    1  C5  UNL     1     -39.097   9.397  23.259  1.00  0.00     0.089 A 
HETATM    2  C6  UNL     1     -38.587   8.752  22.156  1.00  0.00     0.038 A 
HETATM    3  C7  UNL     1     -38.409   9.419  20.947  1.00  0.00     0.003 A 
HETATM    4  C8  UNL     1     -38.748  10.756  20.840  1.00  0.00     0.001 A 
HETATM    5  C9  UNL     1     -39.263  11.394  21.968  1.00  0.00     0.017 A 
HETATM    6  C10 UNL     1     -39.432  10.722  23.152  1.00  0.00     0.033 A 
ENDROOT
BRANCH   6   7
HETATM    7  C11 UNL     1     -39.981  11.443  24.315  1.00  0.00     0.105 A 
HETATM    8  N1  UNL     1     -39.618  12.606  24.826  1.00  0.00    -0.283 N 
HETATM    9  N2  UNL     1     -40.214  13.078  25.846  1.00  0.00    -0.226 N 
ATOM     10  H1  UNL     1     -38.854  13.129  24.399  1.00  0.00     0.188 HD
HETATM   11  C12 UNL     1     -40.105  14.216  26.615  1.00  0.00     0.225 A 
HETATM   12  C13 UNL     1     -41.211  12.379  26.392  1.00  0.00     0.188 A 
HETATM   13  N3  UNL     1     -41.032  14.154  27.581  1.00  0.00    -0.292 N 
HETATM   14  N4  UNL     1     -41.732  13.039  27.477  1.00  0.00    -0.277 N 
ATOM     15  H3  UNL     1     -41.176  14.868  28.296  1.00  0.00     0.187 HD
ATOM     16  H4  UNL     1     -42.498  12.733  28.077  1.00  0.00     0.189 HD
HETATM   17  S1  UNL     1     -41.257  11.007  25.371  1.00  0.00    -0.031 SA
ENDBRANCH   6   7
BRANCH   1  18
HETATM   18  O1  UNL     1     -39.270   8.742  24.442  1.00  0.00    -0.310 OA
BRANCH  18  19
HETATM   19  C4  UNL     1     -39.978   7.571  24.606  1.00  0.00     0.076 A 
HETATM   20  C3  UNL     1     -41.321   7.537  24.310  1.00  0.00     0.037 A 
HETATM   21  C2  UNL     1     -42.049   6.354  24.472  1.00  0.00     0.003 A 
HETATM   22  C1  UNL     1     -41.448   5.200  24.927  1.00  0.00     0.000 A 
HETATM   23  C15 UNL     1     -40.101   5.255  25.217  1.00  0.00     0.003 A 
HETATM   24  C14 UNL     1     -39.359   6.431  25.061  1.00  0.00     0.037 A 
ENDBRANCH  18  19
ENDBRANCH   1  18
TORSDOF 3
ENDMDL
