MODEL 1
REMARK VINA RESULT: -7.655570288      0.000      0.000
REMARK  3 active torsions:
REMARK  status: ('A' for Active; 'I' for Inactive)
REMARK    1  A    between atoms: C4_4  and  O1_5 
REMARK    2  A    between atoms: O1_5  and  C5_6 
REMARK    3  A    between atoms: C10_11  and  C11_12 
ROOT
HETATM    1  C5  UNL     1     -40.227   9.453  24.361  1.00  0.00     0.089 A 
HETATM    2  C6  UNL     1     -41.458   9.178  24.910  1.00  0.00     0.038 A 
HETATM    3  C7  UNL     1     -42.167   8.033  24.556  1.00  0.00     0.003 A 
HETATM    4  C8  UNL     1     -41.633   7.147  23.637  1.00  0.00     0.001 A 
HETATM    5  C9  UNL     1     -40.384   7.441  23.092  1.00  0.00     0.017 A 
HETATM    6  C10 UNL     1     -39.699   8.574  23.451  1.00  0.00     0.033 A 
ENDROOT
BRANCH   6   7
HETATM    7  C11 UNL     1     -38.382   8.839  22.844  1.00  0.00     0.105 A 
HETATM    8  N1  UNL     1     -37.341   9.477  23.349  1.00  0.00    -0.283 N 
HETATM    9  N2  UNL     1     -36.273   9.611  22.670  1.00  0.00    -0.226 N 
ATOM     10  H1  UNL     1     -37.394   9.866  24.290  1.00  0.00     0.188 HD
HETATM   11  C12 UNL     1     -35.041  10.194  22.871  1.00  0.00     0.225 A 
HETATM   12  C13 UNL     1     -36.221   9.096  21.440  1.00  0.00     0.188 A 
HETATM   13  N3  UNL     1     -34.308  10.007  21.765  1.00  0.00    -0.292 N 
HETATM   14  N4  UNL     1     -34.999   9.336  20.862  1.00  0.00    -0.277 N 
ATOM     15  H3  UNL     1     -33.351  10.336  21.638  1.00  0.00     0.187 HD
ATOM     16  H4  UNL     1     -34.691   9.054  19.932  1.00  0.00     0.189 HD
HETATM   17  S1  UNL     1     -37.781   8.407  21.299  1.00  0.00    -0.031 SA
ENDBRANCH   6   7
BRANCH   1  18
HETATM   18  O1  UNL     1     -39.534  10.575  24.708  1.00  0.00    -0.310 OA
BRANCH  18  19
HETATM   19  C4  UNL     1     -40.037  11.621  25.452  1.00  0.00     0.076 A 
HETATM   20  C3  UNL     1     -39.726  12.915  25.108  1.00  0.00     0.037 A 
HETATM   21  C2  UNL     1     -40.231  13.985  25.855  1.00  0.00     0.003 A 
HETATM   22  C1  UNL     1     -41.047  13.773  26.945  1.00  0.00     0.000 A 
HETATM   23  C15 UNL     1     -41.349  12.468  27.273  1.00  0.00     0.003 A 
HETATM   24  C14 UNL     1     -40.850  11.388  26.535  1.00  0.00     0.037 A 
ENDBRANCH  18  19
ENDBRANCH   1  18
TORSDOF 3
ENDMDL
