MODEL 10
REMARK VINA RESULT: -7.349387529      3.236      6.165
REMARK  3 active torsions:
REMARK  status: ('A' for Active; 'I' for Inactive)
REMARK    1  A    between atoms: C4_4  and  O1_5 
REMARK    2  A    between atoms: O1_5  and  C5_6 
REMARK    3  A    between atoms: C10_11  and  C11_12 
ROOT
HETATM    1  C5  UNL     1     -39.365   8.679  23.874  1.00  0.00     0.089 A 
HETATM    2  C6  UNL     1     -38.786   7.864  22.928  1.00  0.00     0.038 A 
HETATM    3  C7  UNL     1     -38.015   8.391  21.896  1.00  0.00     0.003 A 
HETATM    4  C8  UNL     1     -37.820   9.759  21.808  1.00  0.00     0.001 A 
HETATM    5  C9  UNL     1     -38.414  10.569  22.775  1.00  0.00     0.017 A 
HETATM    6  C10 UNL     1     -39.171  10.033  23.786  1.00  0.00     0.033 A 
ENDROOT
BRANCH   6   7
HETATM    7  C11 UNL     1     -39.778  10.934  24.783  1.00  0.00     0.105 A 
HETATM    8  N1  UNL     1     -39.620  12.236  24.940  1.00  0.00    -0.283 N 
HETATM    9  N2  UNL     1     -40.232  12.855  25.868  1.00  0.00    -0.226 N 
ATOM     10  H1  UNL     1     -39.002  12.750  24.312  1.00  0.00     0.188 HD
HETATM   11  C12 UNL     1     -40.302  14.158  26.308  1.00  0.00     0.225 A 
HETATM   12  C13 UNL     1     -41.036  12.167  26.681  1.00  0.00     0.188 A 
HETATM   13  N3  UNL     1     -41.137  14.199  27.355  1.00  0.00    -0.292 N 
HETATM   14  N4  UNL     1     -41.608  12.994  27.615  1.00  0.00    -0.277 N 
ATOM     15  H3  UNL     1     -41.374  15.042  27.878  1.00  0.00     0.187 HD
ATOM     16  H4  UNL     1     -42.261  12.732  28.355  1.00  0.00     0.189 HD
HETATM   17  S1  UNL     1     -40.875  10.584  26.051  1.00  0.00    -0.031 SA
ENDBRANCH   6   7
BRANCH   1  18
HETATM   18  O1  UNL     1     -40.119   8.161  24.884  1.00  0.00    -0.310 OA
BRANCH  18  19
HETATM   19  C4  UNL     1     -41.113   7.218  24.731  1.00  0.00     0.076 A 
HETATM   20  C3  UNL     1     -42.296   7.564  24.121  1.00  0.00     0.037 A 
HETATM   21  C2  UNL     1     -43.310   6.614  23.960  1.00  0.00     0.003 A 
HETATM   22  C1  UNL     1     -43.155   5.319  24.403  1.00  0.00     0.000 A 
HETATM   23  C15 UNL     1     -41.961   4.992  25.011  1.00  0.00     0.003 A 
HETATM   24  C14 UNL     1     -40.937   5.931  25.180  1.00  0.00     0.037 A 
ENDBRANCH  18  19
ENDBRANCH   1  18
TORSDOF 3
ENDMDL
