MODEL 5
REMARK VINA RESULT: -7.539914152      3.515      6.421
REMARK  3 active torsions:
REMARK  status: ('A' for Active; 'I' for Inactive)
REMARK    1  A    between atoms: C4_4  and  O1_5 
REMARK    2  A    between atoms: O1_5  and  C5_6 
REMARK    3  A    between atoms: C10_11  and  C11_12 
ROOT
HETATM    1  C5  UNL     1     -39.662   8.985  23.744  1.00  0.00     0.089 A 
HETATM    2  C6  UNL     1     -39.207   8.495  22.541  1.00  0.00     0.038 A 
HETATM    3  C7  UNL     1     -38.801   9.351  21.520  1.00  0.00     0.003 A 
HETATM    4  C8  UNL     1     -38.853  10.721  21.707  1.00  0.00     0.001 A 
HETATM    5  C9  UNL     1     -39.317  11.199  22.932  1.00  0.00     0.017 A 
HETATM    6  C10 UNL     1     -39.712  10.342  23.928  1.00  0.00     0.033 A 
ENDROOT
BRANCH   6   7
HETATM    7  C11 UNL     1     -40.196  10.899  25.204  1.00  0.00     0.105 A 
HETATM    8  N1  UNL     1     -40.140  10.381  26.418  1.00  0.00    -0.283 N 
HETATM    9  N2  UNL     1     -40.615  11.014  27.414  1.00  0.00    -0.226 N 
ATOM     10  H1  UNL     1     -39.714   9.465  26.557  1.00  0.00     0.188 HD
HETATM   11  C12 UNL     1     -40.726  10.786  28.768  1.00  0.00     0.225 A 
HETATM   12  C13 UNL     1     -41.171  12.210  27.213  1.00  0.00     0.188 A 
HETATM   13  N3  UNL     1     -41.337  11.844  29.319  1.00  0.00    -0.292 N 
HETATM   14  N4  UNL     1     -41.627  12.741  28.394  1.00  0.00    -0.277 N 
ATOM     15  H3  UNL     1     -41.549  11.942  30.312  1.00  0.00     0.187 HD
ATOM     16  H4  UNL     1     -42.090  13.640  28.529  1.00  0.00     0.189 HD
HETATM   17  S1  UNL     1     -40.980  12.388  25.522  1.00  0.00    -0.031 SA
ENDBRANCH   6   7
BRANCH   1  18
HETATM   18  O1  UNL     1     -40.059   8.145  24.742  1.00  0.00    -0.310 OA
BRANCH  18  19
HETATM   19  C4  UNL     1     -41.090   7.235  24.652  1.00  0.00     0.076 A 
HETATM   20  C3  UNL     1     -40.912   5.953  25.116  1.00  0.00     0.037 A 
HETATM   21  C2  UNL     1     -41.951   5.020  25.030  1.00  0.00     0.003 A 
HETATM   22  C1  UNL     1     -43.171   5.358  24.484  1.00  0.00     0.000 A 
HETATM   23  C15 UNL     1     -43.330   6.648  24.026  1.00  0.00     0.003 A 
HETATM   24  C14 UNL     1     -42.299   7.592  24.104  1.00  0.00     0.037 A 
ENDBRANCH  18  19
ENDBRANCH   1  18
TORSDOF 3
ENDMDL
