MODEL 6
REMARK VINA RESULT: -7.527955899      1.389      4.213
REMARK  3 active torsions:
REMARK  status: ('A' for Active; 'I' for Inactive)
REMARK    1  A    between atoms: C4_4  and  O1_5 
REMARK    2  A    between atoms: O1_5  and  C5_6 
REMARK    3  A    between atoms: C10_11  and  C11_12 
ROOT
HETATM    1  C5  UNL     1     -40.023   9.843  25.361  1.00  0.00     0.089 A 
HETATM    2  C6  UNL     1     -40.808  10.483  26.291  1.00  0.00     0.038 A 
HETATM    3  C7  UNL     1     -40.933  11.870  26.298  1.00  0.00     0.003 A 
HETATM    4  C8  UNL     1     -40.260  12.629  25.357  1.00  0.00     0.001 A 
HETATM    5  C9  UNL     1     -39.469  11.962  24.421  1.00  0.00     0.017 A 
HETATM    6  C10 UNL     1     -39.356  10.595  24.429  1.00  0.00     0.033 A 
ENDROOT
BRANCH   6   7
HETATM    7  C11 UNL     1     -38.506   9.940  23.418  1.00  0.00     0.105 A 
HETATM    8  N1  UNL     1     -37.192   9.819  23.381  1.00  0.00    -0.283 N 
HETATM    9  N2  UNL     1     -36.624   9.212  22.418  1.00  0.00    -0.226 N 
ATOM     10  H1  UNL     1     -36.627  10.215  24.132  1.00  0.00     0.188 HD
HETATM   11  C12 UNL     1     -35.327   8.910  22.068  1.00  0.00     0.225 A 
HETATM   12  C13 UNL     1     -37.379   8.701  21.443  1.00  0.00     0.188 A 
HETATM   13  N3  UNL     1     -35.356   8.235  20.909  1.00  0.00    -0.292 N 
HETATM   14  N4  UNL     1     -36.600   8.087  20.494  1.00  0.00    -0.277 N 
ATOM     15  H3  UNL     1     -34.532   7.886  20.419  1.00  0.00     0.187 HD
ATOM     16  H4  UNL     1     -36.916   7.616  19.646  1.00  0.00     0.189 HD
HETATM   17  S1  UNL     1     -38.948   9.130  21.975  1.00  0.00    -0.031 SA
ENDBRANCH   6   7
BRANCH   1  18
HETATM   18  O1  UNL     1     -39.901   8.485  25.356  1.00  0.00    -0.310 OA
BRANCH  18  19
HETATM   19  C4  UNL     1     -40.895   7.599  24.999  1.00  0.00     0.076 A 
HETATM   20  C3  UNL     1     -42.047   8.065  24.410  1.00  0.00     0.037 A 
HETATM   21  C2  UNL     1     -43.062   7.176  24.044  1.00  0.00     0.003 A 
HETATM   22  C1  UNL     1     -42.938   5.820  24.261  1.00  0.00     0.000 A 
HETATM   23  C15 UNL     1     -41.776   5.373  24.852  1.00  0.00     0.003 A 
HETATM   24  C14 UNL     1     -40.751   6.251  25.224  1.00  0.00     0.037 A 
ENDBRANCH  18  19
ENDBRANCH   1  18
TORSDOF 3
ENDMDL
