MODEL 8
REMARK VINA RESULT: -7.073882880      2.582      5.187
REMARK  4 active torsions:
REMARK  status: ('A' for Active; 'I' for Inactive)
REMARK    1  A    between atoms: C2_7  and  C3_8 
REMARK    2  A    between atoms: C6_11  and  O2_12 
REMARK    3  A    between atoms: C8_15  and  O3_16 
REMARK    4  A    between atoms: N3_18  and  C9_19 
ROOT
HETATM    1  O1  UNL     1      -2.065  12.393  21.942  1.00  0.00    -0.245 OA
HETATM    2  C1  UNL     1      -2.411  11.657  22.877  1.00  0.00     0.347 A 
HETATM    3  N1  UNL     1      -3.672  11.386  23.226  1.00  0.00    -0.249 N 
ATOM      4  H1  UNL     1      -4.519  11.740  22.779  1.00  0.00     0.192 HD
HETATM    5  N2  UNL     1      -3.608  10.578  24.254  1.00  0.00    -0.280 N 
ATOM      6  H2  UNL     1      -4.414  10.192  24.745  1.00  0.00     0.188 HD
HETATM    7  C2  UNL     1      -2.283  10.324  24.576  1.00  0.00     0.144 A 
HETATM    8  N3  UNL     1      -1.552  11.010  23.697  1.00  0.00    -0.243 N 
ENDROOT
BRANCH   7   9
HETATM    9  C3  UNL     1      -1.940   9.389  25.628  1.00  0.00     0.043 A 
HETATM   10  C4  UNL     1      -0.961   8.429  25.323  1.00  0.00     0.021 A 
HETATM   11  C5  UNL     1      -0.562   7.460  26.209  1.00  0.00     0.037 A 
HETATM   12  C6  UNL     1      -1.182   7.468  27.452  1.00  0.00     0.068 A 
HETATM   13  C7  UNL     1      -2.134   8.378  27.783  1.00  0.00     0.074 A 
HETATM   14  C8  UNL     1      -2.531   9.372  26.846  1.00  0.00     0.082 A 
BRANCH  12  15
HETATM   15  O2  UNL     1      -0.750   6.465  28.335  1.00  0.00    -0.361 OA
ATOM     16  H2  UNL     1      -1.205   6.444  29.169  1.00  0.00     0.217 HD
ENDBRANCH  12  15
BRANCH  14  17
HETATM   17  O3  UNL     1      -3.514  10.226  27.289  1.00  0.00    -0.360 OA
ATOM     18  H3  UNL     1      -3.563  11.162  27.129  1.00  0.00     0.217 HD
ENDBRANCH  14  17
ENDBRANCH   7   9
BRANCH   8  19
HETATM   19  C9  UNL     1      -0.142  11.043  23.547  1.00  0.00     0.084 A 
HETATM   20  C10 UNL     1       0.592   9.929  23.191  1.00  0.00     0.033 A 
HETATM   21  C11 UNL     1       1.959   9.957  23.037  1.00  0.00     0.002 A 
HETATM   22  C12 UNL     1       2.651  11.129  23.241  1.00  0.00     0.003 A 
HETATM   23  C13 UNL     1       1.966  12.255  23.595  1.00  0.00     0.044 A 
HETATM   24  C14 UNL     1       0.595  12.214  23.745  1.00  0.00     0.143 A 
HETATM   25  F1  UNL     1      -0.108  13.331  24.099  1.00  0.00    -0.204 F 
ENDBRANCH   8  19
TORSDOF 4
ENDMDL
