MODEL 2
REMARK VINA RESULT: -8.613382622      2.570      4.860
REMARK  4 active torsions:
REMARK  status: ('A' for Active; 'I' for Inactive)
REMARK    1  A    between atoms: C2_7  and  C3_8 
REMARK    2  A    between atoms: C6_11  and  O2_12 
REMARK    3  A    between atoms: C8_15  and  O3_16 
REMARK    4  A    between atoms: N3_18  and  C9_19 
ROOT
HETATM    1  O1  UNL     1      -2.842  10.571  27.111  1.00  0.00    -0.245 OA
HETATM    2  C1  UNL     1      -2.159   9.609  26.732  1.00  0.00     0.347 A 
HETATM    3  N1  UNL     1      -1.939   8.491  27.431  1.00  0.00    -0.249 N 
ATOM      4  H1  UNL     1      -2.297   8.272  28.361  1.00  0.00     0.192 HD
HETATM    5  N2  UNL     1      -1.174   7.732  26.687  1.00  0.00    -0.280 N 
ATOM      6  H2  UNL     1      -0.835   6.807  26.950  1.00  0.00     0.188 HD
HETATM    7  C2  UNL     1      -0.893   8.372  25.488  1.00  0.00     0.144 A 
HETATM    8  N3  UNL     1      -1.523   9.545  25.540  1.00  0.00    -0.243 N 
ENDROOT
BRANCH   7   9
HETATM    9  C3  UNL     1      -0.132   7.706  24.451  1.00  0.00     0.043 A 
HETATM   10  C4  UNL     1       1.121   8.257  24.137  1.00  0.00     0.021 A 
HETATM   11  C5  UNL     1       1.935   7.753  23.154  1.00  0.00     0.037 A 
HETATM   12  C6  UNL     1       1.456   6.646  22.465  1.00  0.00     0.068 A 
HETATM   13  C7  UNL     1       0.249   6.086  22.737  1.00  0.00     0.074 A 
HETATM   14  C8  UNL     1      -0.577   6.629  23.761  1.00  0.00     0.082 A 
BRANCH  12  15
HETATM   15  O2  UNL     1       2.313   6.154  21.467  1.00  0.00    -0.361 OA
ATOM     16  H2  UNL     1       1.875   5.806  20.699  1.00  0.00     0.217 HD
ENDBRANCH  12  15
BRANCH  14  17
HETATM   17  O3  UNL     1      -1.782   5.989  23.934  1.00  0.00    -0.360 OA
ATOM     18  H3  UNL     1      -1.908   5.090  24.215  1.00  0.00     0.217 HD
ENDBRANCH  14  17
ENDBRANCH   7   9
BRANCH   8  19
HETATM   19  C9  UNL     1      -1.614  10.550  24.544  1.00  0.00     0.084 A 
HETATM   20  C10 UNL     1      -0.574  11.418  24.270  1.00  0.00     0.033 A 
HETATM   21  C11 UNL     1      -0.655  12.391  23.300  1.00  0.00     0.002 A 
HETATM   22  C12 UNL     1      -1.805  12.531  22.557  1.00  0.00     0.003 A 
HETATM   23  C13 UNL     1      -2.858  11.695  22.795  1.00  0.00     0.044 A 
HETATM   24  C14 UNL     1      -2.764  10.722  23.770  1.00  0.00     0.143 A 
HETATM   25  F1  UNL     1      -3.808   9.877  24.021  1.00  0.00    -0.204 F 
ENDBRANCH   8  19
TORSDOF 4
ENDMDL
