MODEL 3
REMARK VINA RESULT: -8.447835328      2.398      5.098
REMARK  4 active torsions:
REMARK  status: ('A' for Active; 'I' for Inactive)
REMARK    1  A    between atoms: C2_7  and  C3_8 
REMARK    2  A    between atoms: C6_11  and  O2_12 
REMARK    3  A    between atoms: C8_15  and  O3_16 
REMARK    4  A    between atoms: N3_18  and  C9_19 
ROOT
HETATM    1  O1  UNL     1      -2.821  10.471  27.089  1.00  0.00    -0.245 OA
HETATM    2  C1  UNL     1      -2.169   9.459  26.792  1.00  0.00     0.347 A 
HETATM    3  N1  UNL     1      -2.080   8.350  27.532  1.00  0.00    -0.249 N 
ATOM      4  H1  UNL     1      -2.529   8.178  28.432  1.00  0.00     0.192 HD
HETATM    5  N2  UNL     1      -1.303   7.526  26.874  1.00  0.00    -0.280 N 
ATOM      6  H2  UNL     1      -1.046   6.590  27.186  1.00  0.00     0.188 HD
HETATM    7  C2  UNL     1      -0.881   8.115  25.691  1.00  0.00     0.144 A 
HETATM    8  N3  UNL     1      -1.440   9.325  25.662  1.00  0.00    -0.243 N 
ENDROOT
BRANCH   7   9
HETATM    9  C3  UNL     1      -0.077   7.377  24.739  1.00  0.00     0.043 A 
HETATM   10  C4  UNL     1      -0.709   6.990  23.546  1.00  0.00     0.021 A 
HETATM   11  C5  UNL     1      -0.081   6.258  22.570  1.00  0.00     0.037 A 
HETATM   12  C6  UNL     1       1.240   5.906  22.818  1.00  0.00     0.068 A 
HETATM   13  C7  UNL     1       1.885   6.258  23.959  1.00  0.00     0.074 A 
HETATM   14  C8  UNL     1       1.211   7.017  24.957  1.00  0.00     0.082 A 
BRANCH  12  15
HETATM   15  O2  UNL     1       1.854   5.158  21.799  1.00  0.00    -0.361 OA
ATOM     16  H2  UNL     1       2.616   4.661  22.072  1.00  0.00     0.217 HD
ENDBRANCH  12  15
BRANCH  14  17
HETATM   17  O3  UNL     1       1.960   7.299  26.075  1.00  0.00    -0.360 OA
ATOM     18  H3  UNL     1       2.905   7.242  26.151  1.00  0.00     0.217 HD
ENDBRANCH  14  17
ENDBRANCH   7   9
BRANCH   8  19
HETATM   19  C9  UNL     1      -1.382  10.307  24.640  1.00  0.00     0.084 A 
HETATM   20  C10 UNL     1      -0.227  11.005  24.347  1.00  0.00     0.033 A 
HETATM   21  C11 UNL     1      -0.163  11.954  23.352  1.00  0.00     0.002 A 
HETATM   22  C12 UNL     1      -1.281  12.241  22.602  1.00  0.00     0.003 A 
HETATM   23  C13 UNL     1      -2.445  11.575  22.857  1.00  0.00     0.044 A 
HETATM   24  C14 UNL     1      -2.495  10.625  23.857  1.00  0.00     0.143 A 
HETATM   25  F1  UNL     1      -3.651   9.948  24.126  1.00  0.00    -0.204 F 
ENDBRANCH   8  19
TORSDOF 4
ENDMDL
