MODEL 1
REMARK VINA RESULT: -8.673806640      0.000      0.000
REMARK  4 active torsions:
REMARK  status: ('A' for Active; 'I' for Inactive)
REMARK    1  A    between atoms: C2_7  and  C3_8 
REMARK    2  A    between atoms: C6_11  and  O2_12 
REMARK    3  A    between atoms: C8_15  and  O3_16 
REMARK    4  A    between atoms: N3_18  and  C9_19 
ROOT
HETATM    1  O1  UNL     1      -1.372   6.638  27.854  1.00  0.00    -0.245 OA
HETATM    2  C1  UNL     1      -1.633   7.711  27.292  1.00  0.00     0.347 A 
HETATM    3  N1  UNL     1      -2.368   8.700  27.811  1.00  0.00    -0.249 N 
ATOM      4  H1  UNL     1      -2.813   8.713  28.729  1.00  0.00     0.192 HD
HETATM    5  N2  UNL     1      -2.406   9.648  26.908  1.00  0.00    -0.280 N 
ATOM      6  H2  UNL     1      -2.894  10.537  27.014  1.00  0.00     0.188 HD
HETATM    7  C2  UNL     1      -1.684   9.264  25.787  1.00  0.00     0.144 A 
HETATM    8  N3  UNL     1      -1.208   8.048  26.054  1.00  0.00    -0.243 N 
ENDROOT
BRANCH   7   9
HETATM    9  C3  UNL     1      -1.500  10.174  24.675  1.00  0.00     0.043 A 
HETATM   10  C4  UNL     1      -0.182  10.570  24.396  1.00  0.00     0.021 A 
HETATM   11  C5  UNL     1       0.138  11.453  23.396  1.00  0.00     0.037 A 
HETATM   12  C6  UNL     1      -0.924  11.951  22.651  1.00  0.00     0.068 A 
HETATM   13  C7  UNL     1      -2.211  11.594  22.891  1.00  0.00     0.074 A 
HETATM   14  C8  UNL     1      -2.517  10.678  23.935  1.00  0.00     0.082 A 
BRANCH  12  15
HETATM   15  O2  UNL     1      -0.562  12.851  21.635  1.00  0.00    -0.361 OA
ATOM     16  H2  UNL     1      -1.095  13.636  21.587  1.00  0.00     0.217 HD
ENDBRANCH  12  15
BRANCH  14  17
HETATM   17  O3  UNL     1      -3.856  10.405  24.094  1.00  0.00    -0.360 OA
ATOM     18  H3  UNL     1      -4.504  10.973  24.495  1.00  0.00     0.217 HD
ENDBRANCH  14  17
ENDBRANCH   7   9
BRANCH   8  19
HETATM   19  C9  UNL     1      -0.353   7.236  25.266  1.00  0.00     0.084 A 
HETATM   20  C10 UNL     1      -0.825   6.441  24.239  1.00  0.00     0.033 A 
HETATM   21  C11 UNL     1       0.001   5.656  23.467  1.00  0.00     0.002 A 
HETATM   22  C12 UNL     1       1.357   5.640  23.705  1.00  0.00     0.003 A 
HETATM   23  C13 UNL     1       1.866   6.410  24.710  1.00  0.00     0.044 A 
HETATM   24  C14 UNL     1       1.027   7.194  25.477  1.00  0.00     0.143 A 
HETATM   25  F1  UNL     1       1.520   7.971  26.487  1.00  0.00    -0.204 F 
ENDBRANCH   8  19
TORSDOF 4
ENDMDL
