MODEL 4
REMARK VINA RESULT: -8.389661406      1.074      1.544
REMARK  4 active torsions:
REMARK  status: ('A' for Active; 'I' for Inactive)
REMARK    1  A    between atoms: C2_7  and  C3_8 
REMARK    2  A    between atoms: C6_11  and  O2_12 
REMARK    3  A    between atoms: C8_15  and  O3_16 
REMARK    4  A    between atoms: N3_18  and  C9_19 
ROOT
HETATM    1  O1  UNL     1      -1.215   6.701  27.551  1.00  0.00    -0.245 OA
HETATM    2  C1  UNL     1      -1.520   7.792  27.047  1.00  0.00     0.347 A 
HETATM    3  N1  UNL     1      -2.248   8.744  27.639  1.00  0.00    -0.249 N 
ATOM      4  H1  UNL     1      -2.651   8.710  28.576  1.00  0.00     0.192 HD
HETATM    5  N2  UNL     1      -2.343   9.727  26.780  1.00  0.00    -0.280 N 
ATOM      6  H2  UNL     1      -2.840  10.602  26.945  1.00  0.00     0.188 HD
HETATM    7  C2  UNL     1      -1.666   9.404  25.613  1.00  0.00     0.144 A 
HETATM    8  N3  UNL     1      -1.157   8.188  25.806  1.00  0.00    -0.243 N 
ENDROOT
BRANCH   7   9
HETATM    9  C3  UNL     1      -1.548  10.363  24.533  1.00  0.00     0.043 A 
HETATM   10  C4  UNL     1      -2.731  10.697  23.855  1.00  0.00     0.021 A 
HETATM   11  C5  UNL     1      -2.765  11.563  22.791  1.00  0.00     0.037 A 
HETATM   12  C6  UNL     1      -1.548  12.110  22.403  1.00  0.00     0.068 A 
HETATM   13  C7  UNL     1      -0.383  11.809  23.030  1.00  0.00     0.074 A 
HETATM   14  C8  UNL     1      -0.374  10.907  24.130  1.00  0.00     0.082 A 
BRANCH  12  15
HETATM   15  O2  UNL     1      -1.618  12.992  21.312  1.00  0.00    -0.361 OA
ATOM     16  H2  UNL     1      -2.489  13.114  20.952  1.00  0.00     0.217 HD
ENDBRANCH  12  15
BRANCH  14  17
HETATM   17  O3  UNL     1       0.866  10.667  24.674  1.00  0.00    -0.360 OA
ATOM     18  H3  UNL     1       1.678  11.102  24.442  1.00  0.00     0.217 HD
ENDBRANCH  14  17
ENDBRANCH   7   9
BRANCH   8  19
HETATM   19  C9  UNL     1      -0.325   7.425  24.948  1.00  0.00     0.084 A 
HETATM   20  C10 UNL     1      -0.794   6.840  23.788  1.00  0.00     0.033 A 
HETATM   21  C11 UNL     1       0.010   6.104  22.947  1.00  0.00     0.002 A 
HETATM   22  C12 UNL     1       1.341   5.926  23.250  1.00  0.00     0.003 A 
HETATM   23  C13 UNL     1       1.848   6.487  24.386  1.00  0.00     0.044 A 
HETATM   24  C14 UNL     1       1.031   7.223  25.220  1.00  0.00     0.143 A 
HETATM   25  F1  UNL     1       1.520   7.791  26.362  1.00  0.00    -0.204 F 
ENDBRANCH   8  19
TORSDOF 4
ENDMDL
