MODEL 2
REMARK VINA RESULT: -7.863851990      1.074      1.163
REMARK  10 active torsions:
REMARK  status: ('A' for Active; 'I' for Inactive)
REMARK    1  A    between atoms: C1_2  and  C2_4 
REMARK    2  A    between atoms: C2_4  and  C3_5 
REMARK    3  A    between atoms: C3_5  and  N2_6 
REMARK    4  A    between atoms: C3_5  and  C4_10 
REMARK       I    between atoms: C4_10  and  N3_12 
REMARK    5  A    between atoms: C7_15  and  N4_16 
REMARK    6  A    between atoms: N4_16  and  C8_18 
REMARK    7  A    between atoms: N5_25  and  S1_26 
REMARK    8  A    between atoms: S1_26  and  C15_29 
REMARK    9  A    between atoms: C18_32  and  O5_33 
REMARK   10  A    between atoms: C20_36  and  O6_37 
ROOT
HETATM    1  C8  UNL     1     -67.503  11.125   8.612  1.00  0.00     0.028 A 
HETATM    2  C9  UNL     1     -67.256  11.227   7.238  1.00  0.00     0.030 A 
HETATM    3  C10 UNL     1     -65.976  11.400   6.767  1.00  0.00     0.011 A 
HETATM    4  C11 UNL     1     -64.879  11.480   7.635  1.00  0.00    -0.036 A 
HETATM    5  C12 UNL     1     -65.144  11.378   8.976  1.00  0.00    -0.034 A 
HETATM    6  C13 UNL     1     -66.423  11.204   9.459  1.00  0.00     0.038 A 
HETATM    7  C14 UNL     1     -63.840  11.487   9.697  1.00  0.00     0.147 C 
HETATM    8  N5  UNL     1     -62.845  11.474   8.686  1.00  0.00    -0.198 NA
HETATM    9  C21 UNL     1     -63.425  11.660   7.403  1.00  0.00     0.147 C 
ENDROOT
BRANCH   1  10
HETATM   10  N4  UNL     1     -68.834  10.942   9.061  1.00  0.00    -0.385 N 
ATOM     11  H4  UNL     1     -69.117  11.376   9.939  1.00  0.00     0.160 HD
BRANCH  10  12
HETATM   12  C7  UNL     1     -69.804  10.168   8.332  1.00  0.00     0.084 C 
HETATM   13  C6  UNL     1     -71.184  10.329   8.992  1.00  0.00     0.045 C 
HETATM   14  C5  UNL     1     -71.142   9.878  10.416  1.00  0.00     0.128 C 
HETATM   15  N3  UNL     1     -70.771   8.454  10.410  1.00  0.00    -0.350 N 
HETATM   16  C4  UNL     1     -70.882   7.723  11.626  1.00  0.00     0.251 C 
HETATM   17  C23 UNL     1     -70.305   7.853   9.209  1.00  0.00     0.128 C 
HETATM   18  O2  UNL     1     -71.274   8.365  12.647  1.00  0.00    -0.271 OA
HETATM   19  C22 UNL     1     -69.405   8.725   8.357  1.00  0.00     0.045 C 
BRANCH  16  20
HETATM   20  C3  UNL     1     -70.568   6.283  11.753  1.00  0.00     0.283 C 
BRANCH  20  21
HETATM   21  C2  UNL     1     -71.845   5.509  11.431  1.00  0.00     0.142 C 
BRANCH  21  22
HETATM   22  C1  UNL     1     -72.142   4.501  12.465  1.00  0.00     0.233 C 
HETATM   23  N1  UNL     1     -71.505   3.238  12.370  1.00  0.00    -0.062 NA
HETATM   24  O1  UNL     1     -72.927   4.695  13.426  1.00  0.00    -0.277 OA
ENDBRANCH  21  22
ENDBRANCH  20  21
BRANCH  20  25
HETATM   25  N2  UNL     1     -70.188   6.024  13.143  1.00  0.00    -0.066 N 
ATOM     26  H23 UNL     1     -70.758   5.295  13.571  1.00  0.00     0.275 HD
ATOM     27  H22 UNL     1     -69.282   5.561  13.218  1.00  0.00     0.275 HD
ATOM     28  H21 UNL     1     -70.221   6.899  13.666  1.00  0.00     0.275 HD
ENDBRANCH  20  25
ENDBRANCH  16  20
ENDBRANCH  10  12
ENDBRANCH   1  10
BRANCH   8  29
HETATM   29  S1  UNL     1     -61.835  10.090   8.672  1.00  0.00     0.246 S 
HETATM   30  O3  UNL     1     -62.361   9.026   9.624  1.00  0.00    -0.206 OA
HETATM   31  O4  UNL     1     -61.715   9.510   7.289  1.00  0.00    -0.206 OA
BRANCH  29  32
HETATM   32  C15 UNL     1     -60.216  10.538   9.170  1.00  0.00     0.107 A 
HETATM   33  C16 UNL     1     -59.158  10.655   8.296  1.00  0.00     0.030 A 
HETATM   34  C17 UNL     1     -57.887  11.004   8.712  1.00  0.00     0.038 A 
HETATM   35  C18 UNL     1     -57.620  11.251  10.028  1.00  0.00     0.068 A 
HETATM   36  C19 UNL     1     -58.666  11.141  10.921  1.00  0.00     0.074 A 
HETATM   37  C20 UNL     1     -59.935  10.794  10.517  1.00  0.00     0.091 A 
BRANCH  35  38
HETATM   38  O5  UNL     1     -56.343  11.606  10.479  1.00  0.00    -0.361 OA
ATOM     39  H5  UNL     1     -56.205  12.285  11.129  1.00  0.00     0.217 HD
ENDBRANCH  35  38
BRANCH  37  40
HETATM   40  O6  UNL     1     -60.991  10.684  11.430  1.00  0.00    -0.359 OA
ATOM     41  H6  UNL     1     -60.832  10.191  12.226  1.00  0.00     0.217 HD
ENDBRANCH  37  40
ENDBRANCH  29  32
ENDBRANCH   8  29
TORSDOF 10
ENDMDL
