MODEL 3
REMARK VINA RESULT: -7.743273991      1.529      1.722
REMARK  10 active torsions:
REMARK  status: ('A' for Active; 'I' for Inactive)
REMARK    1  A    between atoms: C1_2  and  C2_4 
REMARK    2  A    between atoms: C2_4  and  C3_5 
REMARK    3  A    between atoms: C3_5  and  N2_6 
REMARK    4  A    between atoms: C3_5  and  C4_10 
REMARK       I    between atoms: C4_10  and  N3_12 
REMARK    5  A    between atoms: C7_15  and  N4_16 
REMARK    6  A    between atoms: N4_16  and  C8_18 
REMARK    7  A    between atoms: N5_25  and  S1_26 
REMARK    8  A    between atoms: S1_26  and  C15_29 
REMARK    9  A    between atoms: C18_32  and  O5_33 
REMARK   10  A    between atoms: C20_36  and  O6_37 
ROOT
HETATM    1  C8  UNL     1     -68.331  11.974   9.514  1.00  0.00     0.028 A 
HETATM    2  C9  UNL     1     -67.949  12.780   8.435  1.00  0.00     0.030 A 
HETATM    3  C10 UNL     1     -66.620  12.985   8.150  1.00  0.00     0.011 A 
HETATM    4  C11 UNL     1     -65.606  12.401   8.920  1.00  0.00    -0.036 A 
HETATM    5  C12 UNL     1     -66.002  11.616   9.971  1.00  0.00    -0.034 A 
HETATM    6  C13 UNL     1     -67.332  11.404  10.266  1.00  0.00     0.038 A 
HETATM    7  C14 UNL     1     -64.766  11.105  10.637  1.00  0.00     0.147 C 
HETATM    8  N5  UNL     1     -63.692  11.501   9.799  1.00  0.00    -0.198 NA
HETATM    9  C21 UNL     1     -64.125  12.453   8.838  1.00  0.00     0.147 C 
ENDROOT
BRANCH   1  10
HETATM   10  N4  UNL     1     -69.710  11.780   9.775  1.00  0.00    -0.385 N 
ATOM     11  H4  UNL     1     -70.102  12.162  10.636  1.00  0.00     0.160 HD
BRANCH  10  12
HETATM   12  C7  UNL     1     -70.581  11.069   8.878  1.00  0.00     0.084 C 
HETATM   13  C6  UNL     1     -71.953  10.875   9.547  1.00  0.00     0.045 C 
HETATM   14  C5  UNL     1     -71.812  10.115  10.826  1.00  0.00     0.128 C 
HETATM   15  N3  UNL     1     -71.247   8.799  10.490  1.00  0.00    -0.350 N 
HETATM   16  C4  UNL     1     -71.224   7.798  11.500  1.00  0.00     0.251 C 
HETATM   17  C23 UNL     1     -70.733   8.566   9.185  1.00  0.00     0.128 C 
HETATM   18  O2  UNL     1     -71.674   8.122  12.641  1.00  0.00    -0.271 OA
HETATM   19  C22 UNL     1     -69.986   9.730   8.568  1.00  0.00     0.045 C 
BRANCH  16  20
HETATM   20  C3  UNL     1     -70.709   6.426  11.289  1.00  0.00     0.283 C 
BRANCH  20  21
HETATM   21  C2  UNL     1     -71.913   5.525  11.023  1.00  0.00     0.142 C 
BRANCH  21  22
HETATM   22  C1  UNL     1     -72.101   4.539  12.103  1.00  0.00     0.233 C 
HETATM   23  N1  UNL     1     -72.886   4.916  13.221  1.00  0.00    -0.062 NA
HETATM   24  O1  UNL     1     -71.606   3.384  12.090  1.00  0.00    -0.277 OA
ENDBRANCH  21  22
ENDBRANCH  20  21
BRANCH  20  25
HETATM   25  N2  UNL     1     -70.051   5.995  12.525  1.00  0.00    -0.066 N 
ATOM     26  H23 UNL     1     -69.957   4.981  12.580  1.00  0.00     0.275 HD
ATOM     27  H22 UNL     1     -69.059   6.233  12.539  1.00  0.00     0.275 HD
ATOM     28  H21 UNL     1     -70.555   6.383  13.323  1.00  0.00     0.275 HD
ENDBRANCH  20  25
ENDBRANCH  16  20
ENDBRANCH  10  12
ENDBRANCH   1  10
BRANCH   8  29
HETATM   29  S1  UNL     1     -62.865  10.220   9.017  1.00  0.00     0.246 S 
HETATM   30  O3  UNL     1     -63.166   8.890   9.692  1.00  0.00    -0.206 OA
HETATM   31  O4  UNL     1     -63.231  10.137   7.560  1.00  0.00    -0.206 OA
BRANCH  29  32
HETATM   32  C15 UNL     1     -61.138  10.508   9.085  1.00  0.00     0.107 A 
HETATM   33  C16 UNL     1     -60.354  10.688   7.967  1.00  0.00     0.030 A 
HETATM   34  C17 UNL     1     -58.992  10.907   8.043  1.00  0.00     0.038 A 
HETATM   35  C18 UNL     1     -58.353  10.954   9.250  1.00  0.00     0.068 A 
HETATM   36  C19 UNL     1     -59.119  10.776  10.383  1.00  0.00     0.074 A 
HETATM   37  C20 UNL     1     -60.477  10.558  10.317  1.00  0.00     0.091 A 
BRANCH  35  38
HETATM   38  O5  UNL     1     -56.975  11.174   9.359  1.00  0.00    -0.361 OA
ATOM     39  H5  UNL     1     -56.343  10.713   8.821  1.00  0.00     0.217 HD
ENDBRANCH  35  38
BRANCH  37  40
HETATM   40  O6  UNL     1     -61.247  10.378  11.472  1.00  0.00    -0.359 OA
ATOM     41  H6  UNL     1     -60.992   9.682  12.065  1.00  0.00     0.217 HD
ENDBRANCH  37  40
ENDBRANCH  29  32
ENDBRANCH   8  29
TORSDOF 10
ENDMDL
