MODEL 1
REMARK VINA RESULT: -8.334472081      0.000      0.000
REMARK  10 active torsions:
REMARK  status: ('A' for Active; 'I' for Inactive)
REMARK    1  A    between atoms: C1_2  and  C2_4 
REMARK    2  A    between atoms: C2_4  and  C3_5 
REMARK    3  A    between atoms: C3_5  and  N2_6 
REMARK    4  A    between atoms: C3_5  and  C4_10 
REMARK       I    between atoms: C4_10  and  N3_12 
REMARK    5  A    between atoms: C7_15  and  N4_16 
REMARK    6  A    between atoms: N4_16  and  C8_18 
REMARK    7  A    between atoms: N5_25  and  S1_26 
REMARK    8  A    between atoms: S1_26  and  C15_29 
REMARK    9  A    between atoms: C18_32  and  O5_33 
REMARK   10  A    between atoms: C20_36  and  O6_37 
ROOT
HETATM    1  C8  UNL     1     -67.366  11.105   7.497  1.00  0.00     0.028 A 
HETATM    2  C9  UNL     1     -66.836  11.224   6.207  1.00  0.00     0.030 A 
HETATM    3  C10 UNL     1     -65.483  11.387   6.018  1.00  0.00     0.011 A 
HETATM    4  C11 UNL     1     -64.593  11.440   7.098  1.00  0.00    -0.036 A 
HETATM    5  C12 UNL     1     -65.134  11.320   8.352  1.00  0.00    -0.034 A 
HETATM    6  C13 UNL     1     -66.487  11.157   8.552  1.00  0.00     0.038 A 
HETATM    7  C14 UNL     1     -64.009  11.401   9.332  1.00  0.00     0.147 C 
HETATM    8  N5  UNL     1     -62.824  11.390   8.552  1.00  0.00    -0.198 NA
HETATM    9  C21 UNL     1     -63.120  11.604   7.179  1.00  0.00     0.147 C 
ENDROOT
BRANCH   1  10
HETATM   10  N4  UNL     1     -68.764  10.933   7.654  1.00  0.00    -0.385 N 
ATOM     11  H4  UNL     1     -69.242  11.461   8.384  1.00  0.00     0.160 HD
BRANCH  10  12
HETATM   12  C7  UNL     1     -69.538  10.045   6.827  1.00  0.00     0.084 C 
HETATM   13  C6  UNL     1     -71.021  10.146   7.222  1.00  0.00     0.045 C 
HETATM   14  C5  UNL     1     -71.208   9.791   8.661  1.00  0.00     0.128 C 
HETATM   15  N3  UNL     1     -70.756   8.401   8.828  1.00  0.00    -0.350 N 
HETATM   16  C4  UNL     1     -71.039   7.743  10.057  1.00  0.00     0.251 C 
HETATM   17  C23 UNL     1     -70.046   7.760   7.775  1.00  0.00     0.128 C 
HETATM   18  O2  UNL     1     -71.646   8.418  10.943  1.00  0.00    -0.271 OA
HETATM   19  C22 UNL     1     -69.063   8.640   7.031  1.00  0.00     0.045 C 
BRANCH  16  20
HETATM   20  C3  UNL     1     -70.665   6.341  10.346  1.00  0.00     0.283 C 
BRANCH  20  21
HETATM   21  C2  UNL     1     -71.871   5.676  11.007  1.00  0.00     0.142 C 
BRANCH  21  22
HETATM   22  C1  UNL     1     -71.469   4.846  12.157  1.00  0.00     0.233 C 
HETATM   23  N1  UNL     1     -71.564   5.411  13.453  1.00  0.00    -0.062 NA
HETATM   24  O1  UNL     1     -71.049   3.667  12.056  1.00  0.00    -0.277 OA
ENDBRANCH  21  22
ENDBRANCH  20  21
BRANCH  20  25
HETATM   25  N2  UNL     1     -69.548   6.356  11.293  1.00  0.00    -0.066 N 
ATOM     26  H23 UNL     1     -68.715   6.797  10.902  1.00  0.00     0.275 HD
ATOM     27  H22 UNL     1     -69.704   7.003  12.066  1.00  0.00     0.275 HD
ATOM     28  H21 UNL     1     -69.369   5.404  11.612  1.00  0.00     0.275 HD
ENDBRANCH  20  25
ENDBRANCH  16  20
ENDBRANCH  10  12
ENDBRANCH   1  10
BRANCH   8  29
HETATM   29  S1  UNL     1     -61.848   9.993   8.726  1.00  0.00     0.246 S 
HETATM   30  O3  UNL     1     -62.423   9.058   9.780  1.00  0.00    -0.206 OA
HETATM   31  O4  UNL     1     -61.707   9.253   7.423  1.00  0.00    -0.206 OA
BRANCH  29  32
HETATM   32  C15 UNL     1     -60.232  10.462   9.213  1.00  0.00     0.107 A 
HETATM   33  C16 UNL     1     -59.152  10.467   8.358  1.00  0.00     0.030 A 
HETATM   34  C17 UNL     1     -57.884  10.835   8.765  1.00  0.00     0.038 A 
HETATM   35  C18 UNL     1     -57.641  11.214  10.054  1.00  0.00     0.068 A 
HETATM   36  C19 UNL     1     -58.708  11.217  10.929  1.00  0.00     0.074 A 
HETATM   37  C20 UNL     1     -59.975  10.853  10.532  1.00  0.00     0.091 A 
BRANCH  35  38
HETATM   38  O5  UNL     1     -56.368  11.592  10.497  1.00  0.00    -0.361 OA
ATOM     39  H5  UNL     1     -55.805  12.168   9.993  1.00  0.00     0.217 HD
ENDBRANCH  35  38
BRANCH  37  40
HETATM   40  O6  UNL     1     -61.053  10.858  11.426  1.00  0.00    -0.359 OA
ATOM     41  H6  UNL     1     -60.859  11.001  12.345  1.00  0.00     0.217 HD
ENDBRANCH  37  40
ENDBRANCH  29  32
ENDBRANCH   8  29
TORSDOF 10
ENDMDL
