MODEL 4
REMARK VINA RESULT: -8.393200837      2.573      5.934
REMARK  10 active torsions:
REMARK  status: ('A' for Active; 'I' for Inactive)
REMARK    1  A    between atoms: C2_2  and  C3_3 
REMARK    2  A    between atoms: C3_3  and  C4_4 
REMARK    3  A    between atoms: C4_4  and  N1_5 
REMARK    4  A    between atoms: N1_5  and  C6_7 
REMARK    5  A    between atoms: C6_7  and  O1_8 
REMARK    6  A    between atoms: C6_7  and  C7_10 
REMARK    7  A    between atoms: C9_12  and  C10_13 
REMARK    8  A    between atoms: N4_20  and  C12_21 
REMARK    9  A    between atoms: C18_28  and  O3_29 
REMARK   10  A    between atoms: C20_32  and  O4_33 
ROOT
HETATM    1  C7  UNL     1     -33.967  -9.849  25.995  1.00  0.00     0.049 A 
HETATM    2  C8  UNL     1     -35.155 -10.063  25.318  1.00  0.00     0.037 A 
HETATM    3  C9  UNL     1     -36.270  -9.252  25.431  1.00  0.00     0.044 A 
HETATM    4  C18 UNL     1     -36.199  -8.174  26.257  1.00  0.00     0.082 A 
HETATM    5  C19 UNL     1     -35.011  -7.914  26.966  1.00  0.00     0.075 A 
HETATM    6  C20 UNL     1     -33.934  -8.719  26.842  1.00  0.00     0.082 A 
ENDROOT
BRANCH   3   7
HETATM    7  C10 UNL     1     -37.481  -9.541  24.678  1.00  0.00     0.144 A 
HETATM    8  N2  UNL     1     -38.202  -8.552  24.050  1.00  0.00    -0.280 N 
HETATM    9  N3  UNL     1     -39.215  -9.068  23.437  1.00  0.00    -0.249 N 
ATOM     10  H2  UNL     1     -37.971  -7.558  24.066  1.00  0.00     0.188 HD
HETATM   11  C11 UNL     1     -39.183 -10.366  23.641  1.00  0.00     0.347 A 
ATOM     12  H3  UNL     1     -39.912  -8.560  22.892  1.00  0.00     0.192 HD
HETATM   13  O2  UNL     1     -40.012 -11.212  23.200  1.00  0.00    -0.245 OA
HETATM   14  N4  UNL     1     -38.087 -10.692  24.429  1.00  0.00    -0.243 N 
BRANCH  14  15
HETATM   15  C12 UNL     1     -37.782 -12.021  24.791  1.00  0.00     0.084 A 
HETATM   16  C13 UNL     1     -38.413 -12.609  25.853  1.00  0.00     0.033 A 
HETATM   17  C14 UNL     1     -38.167 -13.947  26.188  1.00  0.00     0.002 A 
HETATM   18  C15 UNL     1     -37.275 -14.669  25.430  1.00  0.00     0.003 A 
HETATM   19  C16 UNL     1     -36.633 -14.101  24.365  1.00  0.00     0.044 A 
HETATM   20  C17 UNL     1     -36.897 -12.757  24.050  1.00  0.00     0.143 A 
HETATM   21  F1  UNL     1     -36.277 -12.187  23.013  1.00  0.00    -0.204 F 
ENDBRANCH  14  15
ENDBRANCH   3   7
BRANCH   4  22
HETATM   22  O3  UNL     1     -37.219  -7.279  26.468  1.00  0.00    -0.360 OA
ATOM     23  H3  UNL     1     -37.721  -7.209  27.271  1.00  0.00     0.217 HD
ENDBRANCH   4  22
BRANCH   1  24
HETATM   24  C6  UNL     1     -32.788 -10.664  25.949  1.00  0.00     0.150 C 
BRANCH  24  25
HETATM   25  N1  UNL     1     -32.008 -11.138  24.896  1.00  0.00    -0.366 N 
HETATM   26  C5  UNL     1     -30.674 -10.738  24.601  1.00  0.00     0.151 C 
BRANCH  25  27
HETATM   27  C4  UNL     1     -32.607 -12.148  24.016  1.00  0.00     0.124 C 
BRANCH  27  28
HETATM   28  C3  UNL     1     -31.606 -12.731  23.081  1.00  0.00     0.019 C 
BRANCH  28  29
HETATM   29  C2  UNL     1     -32.058 -12.821  21.662  1.00  0.00    -0.003 C 
HETATM   30  C1  UNL     1     -33.586 -12.931  21.573  1.00  0.00     0.005 C 
ENDBRANCH  28  29
ENDBRANCH  27  28
ENDBRANCH  25  27
ENDBRANCH  24  25
BRANCH  24  31
HETATM   31  O1  UNL     1     -32.330 -11.058  27.125  1.00  0.00    -0.345 OA
ATOM     32  H1  UNL     1     -32.824 -11.790  27.473  1.00  0.00     0.219 HD
ENDBRANCH  24  31
ENDBRANCH   1  24
BRANCH   6  33
HETATM   33  O4  UNL     1     -32.750  -8.430  27.571  1.00  0.00    -0.360 OA
ATOM     34  H4  UNL     1     -32.673  -7.598  28.024  1.00  0.00     0.217 HD
ENDBRANCH   6  33
TORSDOF 10
ENDMDL
