MODEL 2
REMARK VINA RESULT: -8.646715147      2.564      4.686
REMARK  10 active torsions:
REMARK  status: ('A' for Active; 'I' for Inactive)
REMARK    1  A    between atoms: C2_2  and  C3_3 
REMARK    2  A    between atoms: C3_3  and  C4_4 
REMARK    3  A    between atoms: C4_4  and  N1_5 
REMARK    4  A    between atoms: N1_5  and  C6_7 
REMARK    5  A    between atoms: C6_7  and  O1_8 
REMARK    6  A    between atoms: C6_7  and  C7_10 
REMARK    7  A    between atoms: C9_12  and  C10_13 
REMARK    8  A    between atoms: N4_20  and  C12_21 
REMARK    9  A    between atoms: C18_28  and  O3_29 
REMARK   10  A    between atoms: C20_32  and  O4_33 
ROOT
HETATM    1  C7  UNL     1     -34.818 -11.789  24.010  1.00  0.00     0.049 A 
HETATM    2  C8  UNL     1     -34.511 -10.932  25.052  1.00  0.00     0.037 A 
HETATM    3  C9  UNL     1     -33.224 -10.657  25.477  1.00  0.00     0.044 A 
HETATM    4  C18 UNL     1     -32.191 -11.262  24.832  1.00  0.00     0.082 A 
HETATM    5  C19 UNL     1     -32.453 -12.143  23.766  1.00  0.00     0.075 A 
HETATM    6  C20 UNL     1     -33.718 -12.398  23.367  1.00  0.00     0.082 A 
ENDROOT
BRANCH   3   7
HETATM    7  C10 UNL     1     -32.983  -9.734  26.577  1.00  0.00     0.144 A 
HETATM    8  N2  UNL     1     -32.196 -10.073  27.653  1.00  0.00    -0.280 N 
HETATM    9  N3  UNL     1     -32.124  -9.080  28.475  1.00  0.00    -0.249 N 
ATOM     10  H2  UNL     1     -31.738 -10.975  27.783  1.00  0.00     0.188 HD
HETATM   11  C11 UNL     1     -32.839  -8.096  27.974  1.00  0.00     0.347 A 
ATOM     12  H3  UNL     1     -31.606  -9.061  29.354  1.00  0.00     0.192 HD
HETATM   13  O2  UNL     1     -33.010  -6.957  28.492  1.00  0.00    -0.245 OA
HETATM   14  N4  UNL     1     -33.396  -8.489  26.763  1.00  0.00    -0.243 N 
BRANCH  14  15
HETATM   15  C12 UNL     1     -34.194  -7.628  25.981  1.00  0.00     0.084 A 
HETATM   16  C13 UNL     1     -33.629  -6.879  24.986  1.00  0.00     0.033 A 
HETATM   17  C14 UNL     1     -34.415  -6.065  24.160  1.00  0.00     0.002 A 
HETATM   18  C15 UNL     1     -35.774  -6.029  24.364  1.00  0.00     0.003 A 
HETATM   19  C16 UNL     1     -36.360  -6.769  25.353  1.00  0.00     0.044 A 
HETATM   20  C17 UNL     1     -35.549  -7.576  26.168  1.00  0.00     0.143 A 
HETATM   21  F1  UNL     1     -36.105  -8.306  27.140  1.00  0.00    -0.204 F 
ENDBRANCH  14  15
ENDBRANCH   3   7
BRANCH   4  22
HETATM   22  O3  UNL     1     -30.864 -11.085  25.137  1.00  0.00    -0.360 OA
ATOM     23  H3  UNL     1     -30.265 -11.782  25.380  1.00  0.00     0.217 HD
ENDBRANCH   4  22
BRANCH   1  24
HETATM   24  C6  UNL     1     -36.126 -12.144  23.540  1.00  0.00     0.150 C 
BRANCH  24  25
HETATM   25  N1  UNL     1     -37.164 -12.883  24.105  1.00  0.00    -0.366 N 
HETATM   26  C5  UNL     1     -38.546 -12.548  24.060  1.00  0.00     0.151 C 
BRANCH  25  27
HETATM   27  C4  UNL     1     -36.804 -14.124  24.802  1.00  0.00     0.124 C 
BRANCH  27  28
HETATM   28  C3  UNL     1     -37.909 -15.120  24.764  1.00  0.00     0.019 C 
BRANCH  28  29
HETATM   29  C2  UNL     1     -38.350 -15.613  26.101  1.00  0.00    -0.003 C 
HETATM   30  C1  UNL     1     -39.616 -14.884  26.571  1.00  0.00     0.005 C 
ENDBRANCH  28  29
ENDBRANCH  27  28
ENDBRANCH  25  27
ENDBRANCH  24  25
BRANCH  24  31
HETATM   31  O1  UNL     1     -36.433 -11.694  22.336  1.00  0.00    -0.345 OA
ATOM     32  H1  UNL     1     -35.686 -11.306  21.898  1.00  0.00     0.219 HD
ENDBRANCH  24  31
ENDBRANCH   1  24
BRANCH   6  33
HETATM   33  O4  UNL     1     -33.949 -13.291  22.287  1.00  0.00    -0.360 OA
ATOM     34  H4  UNL     1     -33.301 -13.955  22.084  1.00  0.00     0.217 HD
ENDBRANCH   6  33
TORSDOF 10
ENDMDL
