MODEL 3
REMARK VINA RESULT: -8.401890055      2.106      5.676
REMARK  10 active torsions:
REMARK  status: ('A' for Active; 'I' for Inactive)
REMARK    1  A    between atoms: C2_2  and  C3_3 
REMARK    2  A    between atoms: C3_3  and  C4_4 
REMARK    3  A    between atoms: C4_4  and  N1_5 
REMARK    4  A    between atoms: N1_5  and  C6_7 
REMARK    5  A    between atoms: C6_7  and  O1_8 
REMARK    6  A    between atoms: C6_7  and  C7_10 
REMARK    7  A    between atoms: C9_12  and  C10_13 
REMARK    8  A    between atoms: N4_20  and  C12_21 
REMARK    9  A    between atoms: C18_28  and  O3_29 
REMARK   10  A    between atoms: C20_32  and  O4_33 
ROOT
HETATM    1  C7  UNL     1     -34.352  -8.580  25.563  1.00  0.00     0.049 A 
HETATM    2  C8  UNL     1     -35.577  -9.152  25.270  1.00  0.00     0.037 A 
HETATM    3  C9  UNL     1     -36.398  -8.741  24.236  1.00  0.00     0.044 A 
HETATM    4  C18 UNL     1     -35.979  -7.710  23.454  1.00  0.00     0.082 A 
HETATM    5  C19 UNL     1     -34.740  -7.095  23.714  1.00  0.00     0.075 A 
HETATM    6  C20 UNL     1     -33.954  -7.512  24.729  1.00  0.00     0.082 A 
ENDROOT
BRANCH   3   7
HETATM    7  C10 UNL     1     -37.671  -9.402  23.986  1.00  0.00     0.144 A 
HETATM    8  N2  UNL     1     -38.828  -8.694  23.761  1.00  0.00    -0.280 N 
HETATM    9  N3  UNL     1     -39.807  -9.508  23.546  1.00  0.00    -0.249 N 
ATOM     10  H2  UNL     1     -38.903  -7.677  23.764  1.00  0.00     0.188 HD
HETATM   11  C11 UNL     1     -39.330 -10.732  23.621  1.00  0.00     0.347 A 
ATOM     12  H3  UNL     1     -40.775  -9.249  23.352  1.00  0.00     0.192 HD
HETATM   13  O2  UNL     1     -39.986 -11.800  23.468  1.00  0.00    -0.245 OA
HETATM   14  N4  UNL     1     -37.970 -10.690  23.900  1.00  0.00    -0.243 N 
BRANCH  14  15
HETATM   15  C12 UNL     1     -37.183 -11.855  24.013  1.00  0.00     0.084 A 
HETATM   16  C13 UNL     1     -36.114 -12.048  23.183  1.00  0.00     0.033 A 
HETATM   17  C14 UNL     1     -35.286 -13.170  23.321  1.00  0.00     0.002 A 
HETATM   18  C15 UNL     1     -35.563 -14.083  24.310  1.00  0.00     0.003 A 
HETATM   19  C16 UNL     1     -36.628 -13.910  25.151  1.00  0.00     0.044 A 
HETATM   20  C17 UNL     1     -37.443 -12.777  24.991  1.00  0.00     0.143 A 
HETATM   21  F1  UNL     1     -38.489 -12.593  25.804  1.00  0.00    -0.204 F 
ENDBRANCH  14  15
ENDBRANCH   3   7
BRANCH   4  22
HETATM   22  O3  UNL     1     -36.681  -7.195  22.392  1.00  0.00    -0.360 OA
ATOM     23  H3  UNL     1     -36.784  -7.623  21.551  1.00  0.00     0.217 HD
ENDBRANCH   4  22
BRANCH   1  24
HETATM   24  C6  UNL     1     -33.468  -8.934  26.636  1.00  0.00     0.150 C 
BRANCH  24  25
HETATM   25  N1  UNL     1     -32.605 -10.011  26.832  1.00  0.00    -0.366 N 
HETATM   26  C5  UNL     1     -31.664 -10.142  27.892  1.00  0.00     0.151 C 
BRANCH  25  27
HETATM   27  C4  UNL     1     -32.675 -11.114  25.867  1.00  0.00     0.124 C 
BRANCH  27  28
HETATM   28  C3  UNL     1     -31.597 -11.023  24.845  1.00  0.00     0.019 C 
BRANCH  28  29
HETATM   29  C2  UNL     1     -32.019 -11.393  23.462  1.00  0.00    -0.003 C 
HETATM   30  C1  UNL     1     -31.565 -12.815  23.106  1.00  0.00     0.005 C 
ENDBRANCH  28  29
ENDBRANCH  27  28
ENDBRANCH  25  27
ENDBRANCH  24  25
BRANCH  24  31
HETATM   31  O1  UNL     1     -33.449  -8.089  27.652  1.00  0.00    -0.345 OA
ATOM     32  H1  UNL     1     -34.245  -7.575  27.704  1.00  0.00     0.219 HD
ENDBRANCH  24  31
ENDBRANCH   1  24
BRANCH   6  33
HETATM   33  O4  UNL     1     -32.708  -6.872  24.964  1.00  0.00    -0.360 OA
ATOM     34  H4  UNL     1     -31.902  -7.348  24.804  1.00  0.00     0.217 HD
ENDBRANCH   6  33
TORSDOF 10
ENDMDL
