MODEL 1
REMARK VINA RESULT: -8.661534017      0.000      0.000
REMARK  10 active torsions:
REMARK  status: ('A' for Active; 'I' for Inactive)
REMARK    1  A    between atoms: C2_2  and  C3_3 
REMARK    2  A    between atoms: C3_3  and  C4_4 
REMARK    3  A    between atoms: C4_4  and  N1_5 
REMARK    4  A    between atoms: N1_5  and  C6_7 
REMARK    5  A    between atoms: C6_7  and  O1_8 
REMARK    6  A    between atoms: C6_7  and  C7_10 
REMARK    7  A    between atoms: C9_12  and  C10_13 
REMARK    8  A    between atoms: N4_20  and  C12_21 
REMARK    9  A    between atoms: C18_28  and  O3_29 
REMARK   10  A    between atoms: C20_32  and  O4_33 
ROOT
HETATM    1  C7  UNL     1     -36.806  -7.890  23.730  1.00  0.00     0.049 A 
HETATM    2  C8  UNL     1     -35.970  -8.437  24.688  1.00  0.00     0.037 A 
HETATM    3  C9  UNL     1     -34.659  -8.043  24.889  1.00  0.00     0.044 A 
HETATM    4  C18 UNL     1     -34.156  -7.056  24.100  1.00  0.00     0.082 A 
HETATM    5  C19 UNL     1     -34.968  -6.470  23.111  1.00  0.00     0.075 A 
HETATM    6  C20 UNL     1     -36.245  -6.870  22.931  1.00  0.00     0.082 A 
ENDROOT
BRANCH   3   7
HETATM    7  C10 UNL     1     -33.845  -8.662  25.926  1.00  0.00     0.144 A 
HETATM    8  N2  UNL     1     -33.644  -8.064  27.148  1.00  0.00    -0.280 N 
HETATM    9  N3  UNL     1     -32.908  -8.821  27.891  1.00  0.00    -0.249 N 
ATOM     10  H2  UNL     1     -34.019  -7.157  27.426  1.00  0.00     0.188 HD
HETATM   11  C11 UNL     1     -32.619  -9.900  27.196  1.00  0.00     0.347 A 
ATOM     12  H3  UNL     1     -32.606  -8.619  28.845  1.00  0.00     0.192 HD
HETATM   13  O2  UNL     1     -31.916 -10.874  27.587  1.00  0.00    -0.245 OA
HETATM   14  N4  UNL     1     -33.206  -9.822  25.940  1.00  0.00    -0.243 N 
BRANCH  14  15
HETATM   15  C12 UNL     1     -33.088 -10.852  24.983  1.00  0.00     0.084 A 
HETATM   16  C13 UNL     1     -34.155 -11.663  24.710  1.00  0.00     0.033 A 
HETATM   17  C14 UNL     1     -34.075 -12.651  23.720  1.00  0.00     0.002 A 
HETATM   18  C15 UNL     1     -32.901 -12.797  23.020  1.00  0.00     0.003 A 
HETATM   19  C16 UNL     1     -31.823 -11.997  23.277  1.00  0.00     0.044 A 
HETATM   20  C17 UNL     1     -31.928 -11.014  24.275  1.00  0.00     0.143 A 
HETATM   21  F1  UNL     1     -30.883 -10.224  24.540  1.00  0.00    -0.204 F 
ENDBRANCH  14  15
ENDBRANCH   3   7
BRANCH   4  22
HETATM   22  O3  UNL     1     -32.879  -6.559  24.183  1.00  0.00    -0.360 OA
ATOM     23  H3  UNL     1     -32.467  -6.007  23.529  1.00  0.00     0.217 HD
ENDBRANCH   4  22
BRANCH   1  24
HETATM   24  C6  UNL     1     -38.159  -8.271  23.446  1.00  0.00     0.150 C 
BRANCH  24  25
HETATM   25  N1  UNL     1     -38.724  -9.436  22.929  1.00  0.00    -0.366 N 
HETATM   26  C5  UNL     1     -39.042  -9.672  21.562  1.00  0.00     0.151 C 
BRANCH  25  27
HETATM   27  C4  UNL     1     -39.008 -10.523  23.874  1.00  0.00     0.124 C 
BRANCH  27  28
HETATM   28  C3  UNL     1     -38.046 -11.649  23.727  1.00  0.00     0.019 C 
BRANCH  28  29
HETATM   29  C2  UNL     1     -38.563 -12.972  24.183  1.00  0.00    -0.003 C 
HETATM   30  C1  UNL     1     -37.412 -13.937  24.499  1.00  0.00     0.005 C 
ENDBRANCH  28  29
ENDBRANCH  27  28
ENDBRANCH  25  27
ENDBRANCH  24  25
BRANCH  24  31
HETATM   31  O1  UNL     1     -39.072  -7.355  23.719  1.00  0.00    -0.345 OA
ATOM     32  H1  UNL     1     -39.179  -7.226  24.654  1.00  0.00     0.219 HD
ENDBRANCH  24  31
ENDBRANCH   1  24
BRANCH   6  33
HETATM   33  O4  UNL     1     -37.040  -6.257  21.925  1.00  0.00    -0.360 OA
ATOM     34  H4  UNL     1     -37.080  -5.309  21.876  1.00  0.00     0.217 HD
ENDBRANCH   6  33
TORSDOF 10
ENDMDL
