MODEL 5
REMARK VINA RESULT: -8.353287666      2.504      4.700
REMARK  10 active torsions:
REMARK  status: ('A' for Active; 'I' for Inactive)
REMARK    1  A    between atoms: C2_2  and  C3_3 
REMARK    2  A    between atoms: C3_3  and  C4_4 
REMARK    3  A    between atoms: C4_4  and  N1_5 
REMARK    4  A    between atoms: N1_5  and  C6_7 
REMARK    5  A    between atoms: C6_7  and  O1_8 
REMARK    6  A    between atoms: C6_7  and  C7_10 
REMARK    7  A    between atoms: C9_12  and  C10_13 
REMARK    8  A    between atoms: N4_20  and  C12_21 
REMARK    9  A    between atoms: C18_28  and  O3_29 
REMARK   10  A    between atoms: C20_32  and  O4_33 
ROOT
HETATM    1  C7  UNL     1     -34.749 -11.895  24.098  1.00  0.00     0.049 A 
HETATM    2  C8  UNL     1     -34.430 -11.039  25.138  1.00  0.00     0.037 A 
HETATM    3  C9  UNL     1     -33.138 -10.689  25.486  1.00  0.00     0.044 A 
HETATM    4  C18 UNL     1     -32.113 -11.214  24.764  1.00  0.00     0.082 A 
HETATM    5  C19 UNL     1     -32.387 -12.090  23.696  1.00  0.00     0.075 A 
HETATM    6  C20 UNL     1     -33.656 -12.419  23.373  1.00  0.00     0.082 A 
ENDROOT
BRANCH   3   7
HETATM    7  C10 UNL     1     -32.886  -9.773  26.590  1.00  0.00     0.144 A 
HETATM    8  N2  UNL     1     -32.091 -10.119  27.657  1.00  0.00    -0.280 N 
HETATM    9  N3  UNL     1     -32.009  -9.131  28.484  1.00  0.00    -0.249 N 
ATOM     10  H2  UNL     1     -31.633 -11.023  27.778  1.00  0.00     0.188 HD
HETATM   11  C11 UNL     1     -32.726  -8.143  27.994  1.00  0.00     0.347 A 
ATOM     12  H3  UNL     1     -31.484  -9.119  29.359  1.00  0.00     0.192 HD
HETATM   13  O2  UNL     1     -32.890  -7.007  28.520  1.00  0.00    -0.245 OA
HETATM   14  N4  UNL     1     -33.294  -8.528  26.786  1.00  0.00    -0.243 N 
BRANCH  14  15
HETATM   15  C12 UNL     1     -34.097  -7.661  26.016  1.00  0.00     0.084 A 
HETATM   16  C13 UNL     1     -33.536  -6.895  25.032  1.00  0.00     0.033 A 
HETATM   17  C14 UNL     1     -34.327  -6.074  24.217  1.00  0.00     0.002 A 
HETATM   18  C15 UNL     1     -35.686  -6.048  24.420  1.00  0.00     0.003 A 
HETATM   19  C16 UNL     1     -36.268  -6.806  25.399  1.00  0.00     0.044 A 
HETATM   20  C17 UNL     1     -35.452  -7.620  26.202  1.00  0.00     0.143 A 
HETATM   21  F1  UNL     1     -36.005  -8.366  27.164  1.00  0.00    -0.204 F 
ENDBRANCH  14  15
ENDBRANCH   3   7
BRANCH   4  22
HETATM   22  O3  UNL     1     -30.782 -10.957  24.988  1.00  0.00    -0.360 OA
ATOM     23  H3  UNL     1     -30.404 -10.090  25.074  1.00  0.00     0.217 HD
ENDBRANCH   4  22
BRANCH   1  24
HETATM   24  C6  UNL     1     -36.059 -12.325  23.704  1.00  0.00     0.150 C 
BRANCH  24  25
HETATM   25  N1  UNL     1     -37.019 -13.120  24.328  1.00  0.00    -0.366 N 
HETATM   26  C5  UNL     1     -36.938 -14.529  24.518  1.00  0.00     0.151 C 
BRANCH  25  27
HETATM   27  C4  UNL     1     -38.217 -12.449  24.844  1.00  0.00     0.124 C 
BRANCH  27  28
HETATM   28  C3  UNL     1     -39.443 -12.864  24.110  1.00  0.00     0.019 C 
BRANCH  28  29
HETATM   29  C2  UNL     1     -40.134 -11.762  23.378  1.00  0.00    -0.003 C 
HETATM   30  C1  UNL     1     -39.422 -10.420  23.597  1.00  0.00     0.005 C 
ENDBRANCH  28  29
ENDBRANCH  27  28
ENDBRANCH  25  27
ENDBRANCH  24  25
BRANCH  24  31
HETATM   31  O1  UNL     1     -36.460 -11.898  22.520  1.00  0.00    -0.345 OA
ATOM     32  H1  UNL     1     -36.888 -12.582  22.019  1.00  0.00     0.219 HD
ENDBRANCH  24  31
ENDBRANCH   1  24
BRANCH   6  33
HETATM   33  O4  UNL     1     -33.899 -13.305  22.289  1.00  0.00    -0.360 OA
ATOM     34  H4  UNL     1     -33.190 -13.521  21.697  1.00  0.00     0.217 HD
ENDBRANCH   6  33
TORSDOF 10
ENDMDL
