MODEL 3
REMARK VINA RESULT: -9.120243127      2.577      6.124
REMARK  9 active torsions:
REMARK  status: ('A' for Active; 'I' for Inactive)
REMARK    1  A    between atoms: N1_2  and  C2_3 
REMARK    2  A    between atoms: N1_2  and  C7_9 
REMARK    3  A    between atoms: C2_3  and  C3_4 
REMARK    4  A    between atoms: C7_9  and  O2_10 
REMARK    5  A    between atoms: C7_9  and  C8_12 
REMARK    6  A    between atoms: C10_14  and  C11_15 
REMARK    7  A    between atoms: N4_22  and  C13_23 
REMARK    8  A    between atoms: C19_30  and  O4_31 
REMARK    9  A    between atoms: C21_34  and  O5_35 
ROOT
HETATM    1  C8  UNL     1       0.328  35.581  22.647  1.00  0.00     0.049 A 
HETATM    2  C9  UNL     1       0.113  34.878  23.799  1.00  0.00     0.037 A 
HETATM    3  C10 UNL     1      -1.024  34.069  24.051  1.00  0.00     0.044 A 
HETATM    4  C19 UNL     1      -1.968  33.988  23.070  1.00  0.00     0.082 A 
HETATM    5  C20 UNL     1      -1.762  34.691  21.912  1.00  0.00     0.075 A 
HETATM    6  C21 UNL     1      -0.662  35.481  21.656  1.00  0.00     0.082 A 
ENDROOT
BRANCH   3   7
HETATM    7  C11 UNL     1      -1.086  33.333  25.300  1.00  0.00     0.144 A 
HETATM    8  N2  UNL     1      -2.257  33.272  26.028  1.00  0.00    -0.280 N 
HETATM    9  N3  UNL     1      -2.121  32.515  27.078  1.00  0.00    -0.249 N 
ATOM     10  H2  UNL     1      -3.118  33.757  25.775  1.00  0.00     0.188 HD
HETATM   11  C12 UNL     1      -0.853  32.075  27.038  1.00  0.00     0.347 A 
ATOM     12  H3  UNL     1      -2.827  32.301  27.782  1.00  0.00     0.192 HD
HETATM   13  O3  UNL     1      -0.270  31.312  27.854  1.00  0.00    -0.245 OA
HETATM   14  N4  UNL     1      -0.216  32.591  25.922  1.00  0.00    -0.243 N 
BRANCH  14  15
HETATM   15  C13 UNL     1       1.112  32.242  25.610  1.00  0.00     0.084 A 
HETATM   16  C14 UNL     1       2.156  33.076  25.974  1.00  0.00     0.033 A 
HETATM   17  C15 UNL     1       3.470  32.807  25.752  1.00  0.00     0.002 A 
HETATM   18  C16 UNL     1       3.820  31.637  25.127  1.00  0.00     0.003 A 
HETATM   19  C17 UNL     1       2.822  30.763  24.740  1.00  0.00     0.044 A 
HETATM   20  C18 UNL     1       1.477  31.052  24.974  1.00  0.00     0.143 A 
HETATM   21  F1  UNL     1       0.507  30.207  24.600  1.00  0.00    -0.204 F 
ENDBRANCH  14  15
ENDBRANCH   3   7
BRANCH   4  22
HETATM   22  O4  UNL     1      -3.127  33.208  23.213  1.00  0.00    -0.360 OA
ATOM     23  H4  UNL     1      -3.094  32.258  23.242  1.00  0.00     0.217 HD
ENDBRANCH   4  22
BRANCH   1  24
HETATM   24  C7  UNL     1       1.453  36.463  22.460  1.00  0.00     0.151 C 
BRANCH  24  25
HETATM   25  N1  UNL     1       1.815  37.538  23.249  1.00  0.00    -0.359 N 
HETATM   26  C1  UNL     1       0.990  38.278  24.140  1.00  0.00     0.152 C 
BRANCH  25  27
HETATM   27  C2  UNL     1       3.232  38.012  23.182  1.00  0.00     0.189 C 
BRANCH  27  28
HETATM   28  C3  UNL     1       3.855  37.596  24.460  1.00  0.00     0.070 A 
HETATM   29  C4  UNL     1       4.122  36.302  24.842  1.00  0.00     0.036 A 
HETATM   30  C5  UNL     1       4.698  36.358  26.088  1.00  0.00     0.027 A 
HETATM   31  C6  UNL     1       4.758  37.696  26.415  1.00  0.00     0.142 A 
HETATM   32  O1  UNL     1       4.249  38.387  25.422  1.00  0.00    -0.325 OA
ENDBRANCH  27  28
ENDBRANCH  25  27
ENDBRANCH  24  25
BRANCH  24  33
HETATM   33  O2  UNL     1       2.203  36.195  21.426  1.00  0.00    -0.345 OA
ATOM     34  H2  UNL     1       1.781  36.164  20.576  1.00  0.00     0.219 HD
ENDBRANCH  24  33
ENDBRANCH   1  24
BRANCH   6  35
HETATM   35  O5  UNL     1      -0.557  36.131  20.465  1.00  0.00    -0.360 OA
ATOM     36  H5  UNL     1      -0.507  35.664  19.640  1.00  0.00     0.217 HD
ENDBRANCH   6  35
TORSDOF 9
ENDMDL
