MODEL 2
REMARK VINA RESULT: -9.148872668      2.591      6.134
REMARK  9 active torsions:
REMARK  status: ('A' for Active; 'I' for Inactive)
REMARK    1  A    between atoms: N1_2  and  C2_3 
REMARK    2  A    between atoms: N1_2  and  C7_9 
REMARK    3  A    between atoms: C2_3  and  C3_4 
REMARK    4  A    between atoms: C7_9  and  O2_10 
REMARK    5  A    between atoms: C7_9  and  C8_12 
REMARK    6  A    between atoms: C10_14  and  C11_15 
REMARK    7  A    between atoms: N4_22  and  C13_23 
REMARK    8  A    between atoms: C19_30  and  O4_31 
REMARK    9  A    between atoms: C21_34  and  O5_35 
ROOT
HETATM    1  C8  UNL     1       0.232  35.636  22.657  1.00  0.00     0.049 A 
HETATM    2  C9  UNL     1       0.025  34.934  23.811  1.00  0.00     0.037 A 
HETATM    3  C10 UNL     1      -1.077  34.075  24.047  1.00  0.00     0.044 A 
HETATM    4  C19 UNL     1      -1.996  33.941  23.048  1.00  0.00     0.082 A 
HETATM    5  C20 UNL     1      -1.798  34.641  21.887  1.00  0.00     0.075 A 
HETATM    6  C21 UNL     1      -0.731  35.480  21.646  1.00  0.00     0.082 A 
ENDROOT
BRANCH   3   7
HETATM    7  C11 UNL     1      -1.131  33.347  25.302  1.00  0.00     0.144 A 
HETATM    8  N2  UNL     1      -2.302  33.277  26.029  1.00  0.00    -0.280 N 
HETATM    9  N3  UNL     1      -2.157  32.531  27.085  1.00  0.00    -0.249 N 
ATOM     10  H2  UNL     1      -3.169  33.749  25.772  1.00  0.00     0.188 HD
HETATM   11  C12 UNL     1      -0.883  32.107  27.050  1.00  0.00     0.347 A 
ATOM     12  H3  UNL     1      -2.861  32.313  27.790  1.00  0.00     0.192 HD
HETATM   13  O3  UNL     1      -0.291  31.358  27.873  1.00  0.00    -0.245 OA
HETATM   14  N4  UNL     1      -0.252  32.622  25.931  1.00  0.00    -0.243 N 
BRANCH  14  15
HETATM   15  C13 UNL     1       1.081  32.289  25.623  1.00  0.00     0.084 A 
HETATM   16  C14 UNL     1       2.115  33.129  25.999  1.00  0.00     0.033 A 
HETATM   17  C15 UNL     1       3.432  32.875  25.782  1.00  0.00     0.002 A 
HETATM   18  C16 UNL     1       3.797  31.713  25.149  1.00  0.00     0.003 A 
HETATM   19  C17 UNL     1       2.809  30.832  24.750  1.00  0.00     0.044 A 
HETATM   20  C18 UNL     1       1.460  31.107  24.980  1.00  0.00     0.143 A 
HETATM   21  F1  UNL     1       0.500  30.256  24.594  1.00  0.00    -0.204 F 
ENDBRANCH  14  15
ENDBRANCH   3   7
BRANCH   4  22
HETATM   22  O4  UNL     1      -3.119  33.107  23.175  1.00  0.00    -0.360 OA
ATOM     23  H4  UNL     1      -3.989  33.391  22.917  1.00  0.00     0.217 HD
ENDBRANCH   4  22
BRANCH   1  24
HETATM   24  C7  UNL     1       1.318  36.569  22.484  1.00  0.00     0.151 C 
BRANCH  24  25
HETATM   25  N1  UNL     1       2.665  36.278  22.390  1.00  0.00    -0.359 N 
HETATM   26  C1  UNL     1       3.493  36.364  21.238  1.00  0.00     0.152 C 
BRANCH  25  27
HETATM   27  C2  UNL     1       3.369  35.811  23.624  1.00  0.00     0.189 C 
BRANCH  27  28
HETATM   28  C3  UNL     1       3.355  36.964  24.555  1.00  0.00     0.070 A 
HETATM   29  C4  UNL     1       4.098  38.114  24.424  1.00  0.00     0.036 A 
HETATM   30  C5  UNL     1       3.789  38.919  25.493  1.00  0.00     0.027 A 
HETATM   31  C6  UNL     1       2.862  38.220  26.236  1.00  0.00     0.142 A 
HETATM   32  O1  UNL     1       2.638  37.071  25.641  1.00  0.00    -0.325 OA
ENDBRANCH  27  28
ENDBRANCH  25  27
ENDBRANCH  24  25
BRANCH  24  33
HETATM   33  O2  UNL     1       0.965  37.823  22.407  1.00  0.00    -0.345 OA
ATOM     34  H2  UNL     1       0.571  38.215  23.177  1.00  0.00     0.219 HD
ENDBRANCH  24  33
ENDBRANCH   1  24
BRANCH   6  35
HETATM   35  O5  UNL     1      -0.633  36.124  20.452  1.00  0.00    -0.360 OA
ATOM     36  H5  UNL     1      -1.375  36.214  19.866  1.00  0.00     0.217 HD
ENDBRANCH   6  35
TORSDOF 9
ENDMDL
