MODEL 4
REMARK VINA RESULT: -9.068165415      2.781      6.025
REMARK  9 active torsions:
REMARK  status: ('A' for Active; 'I' for Inactive)
REMARK    1  A    between atoms: N1_2  and  C2_3 
REMARK    2  A    between atoms: N1_2  and  C7_9 
REMARK    3  A    between atoms: C2_3  and  C3_4 
REMARK    4  A    between atoms: C7_9  and  O2_10 
REMARK    5  A    between atoms: C7_9  and  C8_12 
REMARK    6  A    between atoms: C10_14  and  C11_15 
REMARK    7  A    between atoms: N4_22  and  C13_23 
REMARK    8  A    between atoms: C19_30  and  O4_31 
REMARK    9  A    between atoms: C21_34  and  O5_35 
ROOT
HETATM    1  C8  UNL     1       0.908  36.660  23.043  1.00  0.00     0.049 A 
HETATM    2  C9  UNL     1       0.437  35.774  23.971  1.00  0.00     0.037 A 
HETATM    3  C10 UNL     1      -0.531  34.771  23.712  1.00  0.00     0.044 A 
HETATM    4  C19 UNL     1      -1.026  34.687  22.444  1.00  0.00     0.082 A 
HETATM    5  C20 UNL     1      -0.561  35.572  21.507  1.00  0.00     0.075 A 
HETATM    6  C21 UNL     1       0.379  36.551  21.746  1.00  0.00     0.082 A 
ENDROOT
BRANCH   3   7
HETATM    7  C11 UNL     1      -0.890  33.863  24.785  1.00  0.00     0.144 A 
HETATM    8  N2  UNL     1      -2.188  33.791  25.247  1.00  0.00    -0.280 N 
HETATM    9  N3  UNL     1      -2.313  32.875  26.164  1.00  0.00    -0.249 N 
ATOM     10  H2  UNL     1      -2.952  34.379  24.913  1.00  0.00     0.188 HD
HETATM   11  C12 UNL     1      -1.088  32.342  26.303  1.00  0.00     0.347 A 
ATOM     12  H3  UNL     1      -3.160  32.617  26.669  1.00  0.00     0.192 HD
HETATM   13  O3  UNL     1      -0.728  31.418  27.082  1.00  0.00    -0.245 OA
HETATM   14  N4  UNL     1      -0.207  32.965  25.437  1.00  0.00    -0.243 N 
BRANCH  14  15
HETATM   15  C13 UNL     1       1.137  32.558  25.340  1.00  0.00     0.084 A 
HETATM   16  C14 UNL     1       2.151  33.386  25.793  1.00  0.00     0.033 A 
HETATM   17  C15 UNL     1       3.472  33.066  25.778  1.00  0.00     0.002 A 
HETATM   18  C16 UNL     1       3.861  31.844  25.288  1.00  0.00     0.003 A 
HETATM   19  C17 UNL     1       2.894  30.973  24.823  1.00  0.00     0.044 A 
HETATM   20  C18 UNL     1       1.542  31.316  24.843  1.00  0.00     0.143 A 
HETATM   21  F1  UNL     1       0.602  30.473  24.392  1.00  0.00    -0.204 F 
ENDBRANCH  14  15
ENDBRANCH   3   7
BRANCH   4  22
HETATM   22  O4  UNL     1      -1.981  33.724  22.079  1.00  0.00    -0.360 OA
ATOM     23  H4  UNL     1      -2.548  33.838  21.325  1.00  0.00     0.217 HD
ENDBRANCH   4  22
BRANCH   1  24
HETATM   24  C7  UNL     1       1.828  37.723  23.363  1.00  0.00     0.151 C 
BRANCH  24  25
HETATM   25  N1  UNL     1       3.208  37.665  23.362  1.00  0.00    -0.359 N 
HETATM   26  C1  UNL     1       4.045  36.881  24.203  1.00  0.00     0.152 C 
BRANCH  25  27
HETATM   27  C2  UNL     1       3.945  38.514  22.376  1.00  0.00     0.189 C 
BRANCH  27  28
HETATM   28  C3  UNL     1       4.412  37.588  21.318  1.00  0.00     0.070 A 
HETATM   29  C4  UNL     1       5.686  37.529  20.804  1.00  0.00     0.036 A 
HETATM   30  C5  UNL     1       5.693  36.540  19.851  1.00  0.00     0.027 A 
HETATM   31  C6  UNL     1       4.411  36.033  19.825  1.00  0.00     0.142 A 
HETATM   32  O1  UNL     1       3.692  36.684  20.709  1.00  0.00    -0.325 OA
ENDBRANCH  27  28
ENDBRANCH  25  27
ENDBRANCH  24  25
BRANCH  24  33
HETATM   33  O2  UNL     1       1.273  38.860  23.682  1.00  0.00    -0.345 OA
ATOM     34  H2  UNL     1       1.846  39.563  23.966  1.00  0.00     0.219 HD
ENDBRANCH  24  33
ENDBRANCH   1  24
BRANCH   6  35
HETATM   35  O5  UNL     1       0.772  37.374  20.737  1.00  0.00    -0.360 OA
ATOM     36  H5  UNL     1       1.227  37.047  19.969  1.00  0.00     0.217 HD
ENDBRANCH   6  35
TORSDOF 9
ENDMDL
