MODEL 1
REMARK VINA RESULT: -9.402943893      0.000      0.000
REMARK  9 active torsions:
REMARK  status: ('A' for Active; 'I' for Inactive)
REMARK    1  A    between atoms: N1_2  and  C2_3 
REMARK    2  A    between atoms: N1_2  and  C7_9 
REMARK    3  A    between atoms: C2_3  and  C3_4 
REMARK    4  A    between atoms: C7_9  and  O2_10 
REMARK    5  A    between atoms: C7_9  and  C8_12 
REMARK    6  A    between atoms: C10_14  and  C11_15 
REMARK    7  A    between atoms: N4_22  and  C13_23 
REMARK    8  A    between atoms: C19_30  and  O4_31 
REMARK    9  A    between atoms: C21_34  and  O5_35 
ROOT
HETATM    1  C8  UNL     1       0.314  32.929  25.574  1.00  0.00     0.049 A 
HETATM    2  C9  UNL     1       0.285  33.726  24.463  1.00  0.00     0.037 A 
HETATM    3  C10 UNL     1      -0.888  34.061  23.740  1.00  0.00     0.044 A 
HETATM    4  C19 UNL     1      -2.071  33.550  24.188  1.00  0.00     0.082 A 
HETATM    5  C20 UNL     1      -2.052  32.750  25.300  1.00  0.00     0.075 A 
HETATM    6  C21 UNL     1      -0.919  32.417  26.011  1.00  0.00     0.082 A 
ENDROOT
BRANCH   3   7
HETATM    7  C11 UNL     1      -0.770  34.967  22.613  1.00  0.00     0.144 A 
HETATM    8  N2  UNL     1      -1.397  34.692  21.415  1.00  0.00    -0.280 N 
HETATM    9  N3  UNL     1      -1.219  35.655  20.558  1.00  0.00    -0.249 N 
ATOM     10  H2  UNL     1      -1.930  33.844  21.226  1.00  0.00     0.188 HD
HETATM   11  C12 UNL     1      -0.472  36.569  21.198  1.00  0.00     0.347 A 
ATOM     12  H3  UNL     1      -1.572  35.705  19.602  1.00  0.00     0.192 HD
HETATM   13  O3  UNL     1      -0.051  37.673  20.759  1.00  0.00    -0.245 OA
HETATM   14  N4  UNL     1      -0.198  36.130  22.482  1.00  0.00    -0.243 N 
BRANCH  14  15
HETATM   15  C13 UNL     1       0.525  36.926  23.390  1.00  0.00     0.084 A 
HETATM   16  C14 UNL     1      -0.142  37.711  24.315  1.00  0.00     0.033 A 
HETATM   17  C15 UNL     1       0.468  38.481  25.254  1.00  0.00     0.002 A 
HETATM   18  C16 UNL     1       1.838  38.504  25.318  1.00  0.00     0.003 A 
HETATM   19  C17 UNL     1       2.561  37.741  24.421  1.00  0.00     0.044 A 
HETATM   20  C18 UNL     1       1.921  36.955  23.461  1.00  0.00     0.143 A 
HETATM   21  F1  UNL     1       2.619  36.214  22.590  1.00  0.00    -0.204 F 
ENDBRANCH  14  15
ENDBRANCH   3   7
BRANCH   4  22
HETATM   22  O4  UNL     1      -3.291  33.828  23.551  1.00  0.00    -0.360 OA
ATOM     23  H4  UNL     1      -3.588  33.335  22.795  1.00  0.00     0.217 HD
ENDBRANCH   4  22
BRANCH   1  24
HETATM   24  C7  UNL     1       1.535  32.538  26.233  1.00  0.00     0.151 C 
BRANCH  24  25
HETATM   25  N1  UNL     1       2.652  31.966  25.656  1.00  0.00    -0.359 N 
HETATM   26  C1  UNL     1       3.934  32.555  25.476  1.00  0.00     0.152 C 
BRANCH  25  27
HETATM   27  C2  UNL     1       2.539  30.565  25.146  1.00  0.00     0.189 C 
BRANCH  27  28
HETATM   28  C3  UNL     1       3.676  30.384  24.214  1.00  0.00     0.070 A 
HETATM   29  C4  UNL     1       4.814  29.653  24.464  1.00  0.00     0.036 A 
HETATM   30  C5  UNL     1       5.607  29.743  23.346  1.00  0.00     0.027 A 
HETATM   31  C6  UNL     1       4.912  30.532  22.454  1.00  0.00     0.142 A 
HETATM   32  O1  UNL     1       3.778  30.885  23.012  1.00  0.00    -0.325 OA
ENDBRANCH  27  28
ENDBRANCH  25  27
ENDBRANCH  24  25
BRANCH  24  33
HETATM   33  O2  UNL     1       1.568  32.763  27.518  1.00  0.00    -0.345 OA
ATOM     34  H2  UNL     1       1.877  32.060  28.077  1.00  0.00     0.219 HD
ENDBRANCH  24  33
ENDBRANCH   1  24
BRANCH   6  35
HETATM   35  O5  UNL     1      -1.018  31.616  27.107  1.00  0.00    -0.360 OA
ATOM     36  H5  UNL     1      -1.166  31.969  27.976  1.00  0.00     0.217 HD
ENDBRANCH   6  35
TORSDOF 9
ENDMDL
