MODEL 2
REMARK VINA RESULT: -9.049129671      2.805      5.725
REMARK  8 active torsions:
REMARK  status: ('A' for Active; 'I' for Inactive)
REMARK    1  A    between atoms: C2_2  and  C3_3 
REMARK    2  A    between atoms: C3_3  and  N1_4 
REMARK    3  A    between atoms: N1_4  and  S1_6 
REMARK    4  A    between atoms: S1_6  and  C5_9 
REMARK    5  A    between atoms: C7_11  and  C8_12 
REMARK    6  A    between atoms: N4_19  and  C10_20 
REMARK    7  A    between atoms: C16_27  and  O4_28 
REMARK    8  A    between atoms: C18_31  and  O5_32 
ROOT
HETATM    1  C5  UNL     1       0.350  35.083  22.952  1.00  0.00     0.113 A 
HETATM    2  C6  UNL     1       0.132  34.301  24.088  1.00  0.00     0.046 A 
HETATM    3  C7  UNL     1      -1.024  33.598  24.210  1.00  0.00     0.045 A 
HETATM    4  C16 UNL     1      -1.998  33.636  23.236  1.00  0.00     0.082 A 
HETATM    5  C17 UNL     1      -1.777  34.423  22.096  1.00  0.00     0.075 A 
HETATM    6  C18 UNL     1      -0.612  35.129  21.977  1.00  0.00     0.091 A 
ENDROOT
BRANCH   3   7
HETATM    7  C8  UNL     1      -1.274  32.804  25.408  1.00  0.00     0.144 A 
HETATM    8  N2  UNL     1      -2.491  32.772  26.028  1.00  0.00    -0.280 N 
HETATM    9  N3  UNL     1      -2.434  32.010  27.086  1.00  0.00    -0.249 N 
ATOM     10  H2  UNL     1      -3.322  33.271  25.712  1.00  0.00     0.188 HD
HETATM   11  C9  UNL     1      -1.187  31.553  27.146  1.00  0.00     0.347 A 
ATOM     12  H3  UNL     1      -3.193  31.805  27.735  1.00  0.00     0.192 HD
HETATM   13  O3  UNL     1      -0.763  30.780  28.042  1.00  0.00    -0.245 OA
HETATM   14  N4  UNL     1      -0.435  32.038  26.101  1.00  0.00    -0.243 N 
BRANCH  14  15
HETATM   15  C10 UNL     1       0.945  31.742  25.909  1.00  0.00     0.084 A 
HETATM   16  C11 UNL     1       1.977  32.588  26.300  1.00  0.00     0.033 A 
HETATM   17  C12 UNL     1       3.308  32.258  26.124  1.00  0.00     0.002 A 
HETATM   18  C13 UNL     1       3.615  31.048  25.543  1.00  0.00     0.003 A 
HETATM   19  C14 UNL     1       2.636  30.184  25.143  1.00  0.00     0.044 A 
HETATM   20  C15 UNL     1       1.309  30.537  25.328  1.00  0.00     0.143 A 
HETATM   21  F1  UNL     1       0.314  29.706  24.945  1.00  0.00    -0.204 F 
ENDBRANCH  14  15
ENDBRANCH   3   7
BRANCH   4  22
HETATM   22  O4  UNL     1      -3.201  32.984  23.231  1.00  0.00    -0.360 OA
ATOM     23  H4  UNL     1      -3.899  33.047  23.872  1.00  0.00     0.217 HD
ENDBRANCH   4  22
BRANCH   1  24
HETATM   24  S1  UNL     1       1.843  35.981  22.775  1.00  0.00     0.263 S 
HETATM   25  O1  UNL     1       1.535  37.440  23.084  1.00  0.00    -0.200 OA
HETATM   26  O2  UNL     1       2.297  35.936  21.331  1.00  0.00    -0.200 OA
BRANCH  24  27
HETATM   27  N1  UNL     1       3.079  35.398  23.756  1.00  0.00    -0.311 N 
HETATM   28  C4  UNL     1       3.301  36.024  24.984  1.00  0.00     0.163 C 
BRANCH  27  29
HETATM   29  C3  UNL     1       4.156  34.848  23.031  1.00  0.00     0.134 C 
BRANCH  29  30
HETATM   30  C2  UNL     1       5.390  35.758  23.032  1.00  0.00     0.016 C 
HETATM   31  C1  UNL     1       5.882  35.876  21.595  1.00  0.00     0.006 C 
ENDBRANCH  29  30
ENDBRANCH  27  29
ENDBRANCH  24  27
ENDBRANCH   1  24
BRANCH   6  32
HETATM   32  O5  UNL     1      -0.364  35.920  20.860  1.00  0.00    -0.359 OA
ATOM     33  H5  UNL     1      -0.830  36.745  20.791  1.00  0.00     0.217 HD
ENDBRANCH   6  32
TORSDOF 8
ENDMDL
