MODEL 1
REMARK VINA RESULT: -9.123062715      0.000      0.000
REMARK  8 active torsions:
REMARK  status: ('A' for Active; 'I' for Inactive)
REMARK    1  A    between atoms: C2_2  and  C3_3 
REMARK    2  A    between atoms: C3_3  and  N1_4 
REMARK    3  A    between atoms: N1_4  and  S1_6 
REMARK    4  A    between atoms: S1_6  and  C5_9 
REMARK    5  A    between atoms: C7_11  and  C8_12 
REMARK    6  A    between atoms: N4_19  and  C10_20 
REMARK    7  A    between atoms: C16_27  and  O4_28 
REMARK    8  A    between atoms: C18_31  and  O5_32 
ROOT
HETATM    1  C5  UNL     1       0.116  32.118  26.090  1.00  0.00     0.113 A 
HETATM    2  C6  UNL     1       0.212  32.977  24.993  1.00  0.00     0.046 A 
HETATM    3  C7  UNL     1      -0.907  33.569  24.501  1.00  0.00     0.045 A 
HETATM    4  C16 UNL     1      -2.147  33.344  25.059  1.00  0.00     0.082 A 
HETATM    5  C17 UNL     1      -2.241  32.481  26.160  1.00  0.00     0.075 A 
HETATM    6  C18 UNL     1      -1.112  31.887  26.653  1.00  0.00     0.091 A 
ENDROOT
BRANCH   3   7
HETATM    7  C8  UNL     1      -0.820  34.441  23.334  1.00  0.00     0.144 A 
HETATM    8  N2  UNL     1      -1.382  34.118  22.132  1.00  0.00    -0.280 N 
HETATM    9  N3  UNL     1      -1.134  35.054  21.257  1.00  0.00    -0.249 N 
ATOM     10  H2  UNL     1      -1.916  33.269  21.945  1.00  0.00     0.188 HD
HETATM   11  C9  UNL     1      -0.418  35.975  21.893  1.00  0.00     0.347 A 
ATOM     12  H3  UNL     1      -1.432  35.075  20.281  1.00  0.00     0.192 HD
HETATM   13  O3  UNL     1       0.004  37.033  21.359  1.00  0.00    -0.245 OA
HETATM   14  N4  UNL     1      -0.205  35.614  23.203  1.00  0.00    -0.243 N 
BRANCH  14  15
HETATM   15  C10 UNL     1       0.549  36.388  24.130  1.00  0.00     0.084 A 
HETATM   16  C11 UNL     1      -0.013  37.326  24.990  1.00  0.00     0.033 A 
HETATM   17  C12 UNL     1       0.745  38.041  25.898  1.00  0.00     0.002 A 
HETATM   18  C13 UNL     1       2.101  37.813  25.949  1.00  0.00     0.003 A 
HETATM   19  C14 UNL     1       2.699  36.901  25.125  1.00  0.00     0.044 A 
HETATM   20  C15 UNL     1       1.920  36.197  24.222  1.00  0.00     0.143 A 
HETATM   21  F1  UNL     1       2.478  35.288  23.392  1.00  0.00    -0.204 F 
ENDBRANCH  14  15
ENDBRANCH   3   7
BRANCH   4  22
HETATM   22  O4  UNL     1      -3.348  33.870  24.666  1.00  0.00    -0.360 OA
ATOM     23  H4  UNL     1      -4.177  33.835  25.129  1.00  0.00     0.217 HD
ENDBRANCH   4  22
BRANCH   1  24
HETATM   24  S1  UNL     1       1.553  31.362  26.745  1.00  0.00     0.263 S 
HETATM   25  O1  UNL     1       1.319  29.858  26.736  1.00  0.00    -0.200 OA
HETATM   26  O2  UNL     1       1.724  31.760  28.196  1.00  0.00    -0.200 OA
BRANCH  24  27
HETATM   27  N1  UNL     1       2.950  31.766  25.898  1.00  0.00    -0.311 N 
HETATM   28  C4  UNL     1       3.328  33.109  25.846  1.00  0.00     0.163 C 
BRANCH  27  29
HETATM   29  C3  UNL     1       3.211  30.910  24.809  1.00  0.00     0.134 C 
BRANCH  29  30
HETATM   30  C2  UNL     1       4.347  29.922  25.098  1.00  0.00     0.016 C 
HETATM   31  C1  UNL     1       4.362  28.890  23.977  1.00  0.00     0.006 C 
ENDBRANCH  29  30
ENDBRANCH  27  29
ENDBRANCH  24  27
ENDBRANCH   1  24
BRANCH   6  32
HETATM   32  O5  UNL     1      -1.172  31.026  27.743  1.00  0.00    -0.359 OA
ATOM     33  H5  UNL     1      -1.987  30.986  28.230  1.00  0.00     0.217 HD
ENDBRANCH   6  32
TORSDOF 8
ENDMDL
