MODEL 4
REMARK VINA RESULT: -8.462836980      2.608      5.767
REMARK  8 active torsions:
REMARK  status: ('A' for Active; 'I' for Inactive)
REMARK    1  A    between atoms: C2_2  and  C3_3 
REMARK    2  A    between atoms: C3_3  and  N1_4 
REMARK    3  A    between atoms: N1_4  and  S1_6 
REMARK    4  A    between atoms: S1_6  and  C5_9 
REMARK    5  A    between atoms: C7_11  and  C8_12 
REMARK    6  A    between atoms: N4_19  and  C10_20 
REMARK    7  A    between atoms: C16_27  and  O4_28 
REMARK    8  A    between atoms: C18_31  and  O5_32 
ROOT
HETATM    1  C5  UNL     1       1.168  35.874  23.511  1.00  0.00     0.113 A 
HETATM    2  C6  UNL     1       0.616  34.955  24.406  1.00  0.00     0.046 A 
HETATM    3  C7  UNL     1      -0.422  34.173  24.013  1.00  0.00     0.045 A 
HETATM    4  C16 UNL     1      -0.952  34.260  22.745  1.00  0.00     0.082 A 
HETATM    5  C17 UNL     1      -0.396  35.183  21.847  1.00  0.00     0.075 A 
HETATM    6  C18 UNL     1       0.649  35.969  22.246  1.00  0.00     0.091 A 
ENDROOT
BRANCH   3   7
HETATM    7  C8  UNL     1      -1.027  33.234  24.953  1.00  0.00     0.144 A 
HETATM    8  N2  UNL     1      -2.319  33.350  25.379  1.00  0.00    -0.280 N 
HETATM    9  N3  UNL     1      -2.596  32.401  26.232  1.00  0.00    -0.249 N 
ATOM     10  H2  UNL     1      -2.972  34.072  25.076  1.00  0.00     0.188 HD
HETATM   11  C9  UNL     1      -1.488  31.678  26.354  1.00  0.00     0.347 A 
ATOM     12  H3  UNL     1      -3.484  32.246  26.708  1.00  0.00     0.192 HD
HETATM   13  O3  UNL     1      -1.382  30.670  27.098  1.00  0.00    -0.245 OA
HETATM   14  N4  UNL     1      -0.482  32.181  25.560  1.00  0.00    -0.243 N 
BRANCH  14  15
HETATM   15  C10 UNL     1       0.830  31.632  25.493  1.00  0.00     0.084 A 
HETATM   16  C11 UNL     1       1.129  30.417  24.888  1.00  0.00     0.033 A 
HETATM   17  C12 UNL     1       2.420  29.927  24.816  1.00  0.00     0.002 A 
HETATM   18  C13 UNL     1       3.439  30.672  25.364  1.00  0.00     0.003 A 
HETATM   19  C14 UNL     1       3.194  31.872  25.970  1.00  0.00     0.044 A 
HETATM   20  C15 UNL     1       1.893  32.343  26.030  1.00  0.00     0.143 A 
HETATM   21  F1  UNL     1       1.615  33.526  26.622  1.00  0.00    -0.204 F 
ENDBRANCH  14  15
ENDBRANCH   3   7
BRANCH   4  22
HETATM   22  O4  UNL     1      -1.991  33.538  22.221  1.00  0.00    -0.360 OA
ATOM     23  H4  UNL     1      -2.467  33.707  21.416  1.00  0.00     0.217 HD
ENDBRANCH   4  22
BRANCH   1  24
HETATM   24  S1  UNL     1       2.518  36.876  23.999  1.00  0.00     0.263 S 
HETATM   25  O1  UNL     1       2.078  38.328  23.862  1.00  0.00    -0.200 OA
HETATM   26  O2  UNL     1       3.671  36.686  23.036  1.00  0.00    -0.200 OA
BRANCH  24  27
HETATM   27  N1  UNL     1       3.049  36.546  25.561  1.00  0.00    -0.311 N 
HETATM   28  C4  UNL     1       2.828  37.503  26.553  1.00  0.00     0.163 C 
BRANCH  27  29
HETATM   29  C3  UNL     1       4.201  35.733  25.599  1.00  0.00     0.134 C 
BRANCH  29  30
HETATM   30  C2  UNL     1       5.144  36.105  26.749  1.00  0.00     0.016 C 
HETATM   31  C1  UNL     1       5.132  34.955  27.750  1.00  0.00     0.006 C 
ENDBRANCH  29  30
ENDBRANCH  27  29
ENDBRANCH  24  27
ENDBRANCH   1  24
BRANCH   6  32
HETATM   32  O5  UNL     1       1.221  36.895  21.381  1.00  0.00    -0.359 OA
ATOM     33  H5  UNL     1       2.129  36.766  21.133  1.00  0.00     0.217 HD
ENDBRANCH   6  32
TORSDOF 8
ENDMDL
