MODEL 3
REMARK VINA RESULT: -8.604877777      2.676      5.762
REMARK  8 active torsions:
REMARK  status: ('A' for Active; 'I' for Inactive)
REMARK    1  A    between atoms: C2_2  and  C3_3 
REMARK    2  A    between atoms: C3_3  and  N1_4 
REMARK    3  A    between atoms: N1_4  and  S1_6 
REMARK    4  A    between atoms: S1_6  and  C5_9 
REMARK    5  A    between atoms: C7_11  and  C8_12 
REMARK    6  A    between atoms: N4_19  and  C10_20 
REMARK    7  A    between atoms: C16_27  and  O4_28 
REMARK    8  A    between atoms: C18_31  and  O5_32 
ROOT
HETATM    1  C5  UNL     1       0.873  35.935  23.163  1.00  0.00     0.113 A 
HETATM    2  C6  UNL     1       0.445  35.055  24.158  1.00  0.00     0.046 A 
HETATM    3  C7  UNL     1      -0.597  34.218  23.914  1.00  0.00     0.045 A 
HETATM    4  C16 UNL     1      -1.251  34.213  22.701  1.00  0.00     0.082 A 
HETATM    5  C17 UNL     1      -0.819  35.099  21.703  1.00  0.00     0.075 A 
HETATM    6  C18 UNL     1       0.230  35.940  21.952  1.00  0.00     0.091 A 
ENDROOT
BRANCH   3   7
HETATM    7  C8  UNL     1      -1.073  33.318  24.960  1.00  0.00     0.144 A 
HETATM    8  N2  UNL     1      -2.371  33.303  25.383  1.00  0.00    -0.280 N 
HETATM    9  N3  UNL     1      -2.519  32.428  26.340  1.00  0.00    -0.249 N 
ATOM     10  H2  UNL     1      -3.115  33.890  25.007  1.00  0.00     0.188 HD
HETATM   11  C9  UNL     1      -1.323  31.882  26.532  1.00  0.00     0.347 A 
ATOM     12  H3  UNL     1      -3.381  32.208  26.840  1.00  0.00     0.192 HD
HETATM   13  O3  UNL     1      -1.085  30.989  27.383  1.00  0.00    -0.245 OA
HETATM   14  N4  UNL     1      -0.392  32.425  25.675  1.00  0.00    -0.243 N 
BRANCH  14  15
HETATM   15  C10 UNL     1       0.983  32.057  25.658  1.00  0.00     0.084 A 
HETATM   16  C11 UNL     1       2.009  32.881  26.107  1.00  0.00     0.033 A 
HETATM   17  C12 UNL     1       3.332  32.482  26.102  1.00  0.00     0.002 A 
HETATM   18  C13 UNL     1       3.638  31.223  25.637  1.00  0.00     0.003 A 
HETATM   19  C14 UNL     1       2.665  30.377  25.186  1.00  0.00     0.044 A 
HETATM   20  C15 UNL     1       1.346  30.799  25.199  1.00  0.00     0.143 A 
HETATM   21  F1  UNL     1       0.358  29.988  24.760  1.00  0.00    -0.204 F 
ENDBRANCH  14  15
ENDBRANCH   3   7
BRANCH   4  22
HETATM   22  O4  UNL     1      -2.308  33.430  22.324  1.00  0.00    -0.360 OA
ATOM     23  H4  UNL     1      -2.306  32.712  21.702  1.00  0.00     0.217 HD
ENDBRANCH   4  22
BRANCH   1  24
HETATM   24  S1  UNL     1       2.225  37.007  23.458  1.00  0.00     0.263 S 
HETATM   25  O1  UNL     1       1.726  38.133  24.354  1.00  0.00    -0.200 OA
HETATM   26  O2  UNL     1       2.658  37.654  22.159  1.00  0.00    -0.200 OA
BRANCH  24  27
HETATM   27  N1  UNL     1       3.546  36.223  24.146  1.00  0.00    -0.311 N 
HETATM   28  C4  UNL     1       4.076  35.114  23.484  1.00  0.00     0.163 C 
BRANCH  27  29
HETATM   29  C3  UNL     1       3.562  36.287  25.554  1.00  0.00     0.134 C 
BRANCH  29  30
HETATM   30  C2  UNL     1       4.963  36.064  26.135  1.00  0.00     0.016 C 
HETATM   31  C1  UNL     1       4.800  35.591  27.575  1.00  0.00     0.006 C 
ENDBRANCH  29  30
ENDBRANCH  27  29
ENDBRANCH  24  27
ENDBRANCH   1  24
BRANCH   6  32
HETATM   32  O5  UNL     1       0.681  36.831  20.984  1.00  0.00    -0.359 OA
ATOM     33  H5  UNL     1       0.029  37.325  20.501  1.00  0.00     0.217 HD
ENDBRANCH   6  32
TORSDOF 8
ENDMDL
