MODEL 8
REMARK VINA RESULT: -8.274902833      0.647      1.717
REMARK  8 active torsions:
REMARK  status: ('A' for Active; 'I' for Inactive)
REMARK    1  A    between atoms: C2_2  and  C3_3 
REMARK    2  A    between atoms: C3_3  and  N1_4 
REMARK    3  A    between atoms: N1_4  and  S1_6 
REMARK    4  A    between atoms: S1_6  and  C5_9 
REMARK    5  A    between atoms: C7_11  and  C8_12 
REMARK    6  A    between atoms: N4_19  and  C10_20 
REMARK    7  A    between atoms: C16_27  and  O4_28 
REMARK    8  A    between atoms: C18_31  and  O5_32 
ROOT
HETATM    1  C5  UNL     1       0.146  32.225  25.926  1.00  0.00     0.113 A 
HETATM    2  C6  UNL     1       0.190  33.068  24.814  1.00  0.00     0.046 A 
HETATM    3  C7  UNL     1      -0.952  33.646  24.361  1.00  0.00     0.045 A 
HETATM    4  C16 UNL     1      -2.166  33.423  24.974  1.00  0.00     0.082 A 
HETATM    5  C17 UNL     1      -2.208  32.576  26.091  1.00  0.00     0.075 A 
HETATM    6  C18 UNL     1      -1.056  31.996  26.544  1.00  0.00     0.091 A 
ENDROOT
BRANCH   3   7
HETATM    7  C8  UNL     1      -0.920  34.502  23.179  1.00  0.00     0.144 A 
HETATM    8  N2  UNL     1      -1.497  34.141  21.995  1.00  0.00    -0.280 N 
HETATM    9  N3  UNL     1      -1.300  35.070  21.100  1.00  0.00    -0.249 N 
ATOM     10  H2  UNL     1      -2.007  33.272  21.833  1.00  0.00     0.188 HD
HETATM   11  C9  UNL     1      -0.601  36.024  21.705  1.00  0.00     0.347 A 
ATOM     12  H3  UNL     1      -1.620  35.065  20.131  1.00  0.00     0.192 HD
HETATM   13  O3  UNL     1      -0.226  37.086  21.146  1.00  0.00    -0.245 OA
HETATM   14  N4  UNL     1      -0.347  35.692  23.016  1.00  0.00    -0.243 N 
BRANCH  14  15
HETATM   15  C10 UNL     1       0.401  36.506  23.913  1.00  0.00     0.084 A 
HETATM   16  C11 UNL     1      -0.159  37.184  24.990  1.00  0.00     0.033 A 
HETATM   17  C12 UNL     1       0.602  37.943  25.860  1.00  0.00     0.002 A 
HETATM   18  C13 UNL     1       1.959  38.027  25.647  1.00  0.00     0.003 A 
HETATM   19  C14 UNL     1       2.555  37.378  24.603  1.00  0.00     0.044 A 
HETATM   20  C15 UNL     1       1.773  36.624  23.744  1.00  0.00     0.143 A 
HETATM   21  F1  UNL     1       2.329  35.969  22.701  1.00  0.00    -0.204 F 
ENDBRANCH  14  15
ENDBRANCH   3   7
BRANCH   4  22
HETATM   22  O4  UNL     1      -3.386  33.935  24.624  1.00  0.00    -0.360 OA
ATOM     23  H4  UNL     1      -4.120  34.129  25.195  1.00  0.00     0.217 HD
ENDBRANCH   4  22
BRANCH   1  24
HETATM   24  S1  UNL     1       1.614  31.487  26.531  1.00  0.00     0.263 S 
HETATM   25  O1  UNL     1       1.428  29.978  26.456  1.00  0.00    -0.200 OA
HETATM   26  O2  UNL     1       1.790  31.824  27.996  1.00  0.00    -0.200 OA
BRANCH  24  27
HETATM   27  N1  UNL     1       2.987  31.974  25.689  1.00  0.00    -0.311 N 
HETATM   28  C4  UNL     1       3.575  31.071  24.801  1.00  0.00     0.163 C 
BRANCH  27  29
HETATM   29  C3  UNL     1       3.784  32.892  26.403  1.00  0.00     0.134 C 
BRANCH  29  30
HETATM   30  C2  UNL     1       3.409  34.349  26.107  1.00  0.00     0.016 C 
HETATM   31  C1  UNL     1       4.370  35.243  26.882  1.00  0.00     0.006 C 
ENDBRANCH  29  30
ENDBRANCH  27  29
ENDBRANCH  24  27
ENDBRANCH   1  24
BRANCH   6  32
HETATM   32  O5  UNL     1      -1.065  31.150  27.648  1.00  0.00    -0.359 OA
ATOM     33  H5  UNL     1      -0.603  31.436  28.427  1.00  0.00     0.217 HD
ENDBRANCH   6  32
TORSDOF 8
ENDMDL
