MODEL 1
REMARK VINA RESULT: -7.801303957      0.000      0.000
REMARK  3 active torsions:
REMARK  status: ('A' for Active; 'I' for Inactive)
REMARK    1  A    between atoms: O1_1  and  C1_3 
REMARK    2  A    between atoms: C4_6  and  C5_7 
REMARK    3  A    between atoms: C13_18  and  O2_19 
ROOT
HETATM    1  C1  UNL     1     -19.377   0.519 -20.507  1.00  0.00     0.098 A 
HETATM    2  C2  UNL     1     -19.666  -0.821 -20.656  1.00  0.00     0.040 A 
HETATM    3  C3  UNL     1     -19.267  -1.445 -21.838  1.00  0.00     0.017 A 
HETATM    4  C4  UNL     1     -18.608  -0.763 -22.834  1.00  0.00    -0.005 A 
HETATM    5  C12 UNL     1     -18.347   0.574 -22.630  1.00  0.00     0.053 A 
HETATM    6  C13 UNL     1     -18.720   1.238 -21.479  1.00  0.00     0.099 A 
ENDROOT
BRANCH   4   7
HETATM    7  C5  UNL     1     -18.192  -1.429 -24.076  1.00  0.00     0.060 A 
HETATM    8  C6  UNL     1     -18.315  -0.895 -25.338  1.00  0.00     0.128 A 
HETATM    9  N1  UNL     1     -17.826  -1.793 -26.246  1.00  0.00    -0.317 N 
HETATM   10  C7  UNL     1     -17.724  -1.740 -27.596  1.00  0.00     0.098 A 
HETATM   11  C11 UNL     1     -17.408  -2.862 -25.553  1.00  0.00     0.111 A 
HETATM   12  C8  UNL     1     -17.181  -2.810 -28.241  1.00  0.00     0.018 A 
HETATM   13  C9  UNL     1     -16.730  -3.945 -27.590  1.00  0.00     0.005 A 
HETATM   14  C10 UNL     1     -16.856  -3.951 -26.217  1.00  0.00     0.049 A 
HETATM   15  N2  UNL     1     -17.634  -2.638 -24.224  1.00  0.00    -0.340 N 
ATOM     16  H2  UNL     1     -17.415  -3.286 -23.467  1.00  0.00     0.167 HD
ENDBRANCH   4   7
BRANCH   6  17
HETATM   17  O2  UNL     1     -18.436   2.587 -21.313  1.00  0.00    -0.358 OA
ATOM     18  H2  UNL     1     -17.563   2.885 -21.086  1.00  0.00     0.217 HD
ENDBRANCH   6  17
BRANCH   1  19
HETATM   19  O1  UNL     1     -19.759   1.173 -19.344  1.00  0.00    -0.358 OA
ATOM     20  H1  UNL     1     -20.607   1.599 -19.305  1.00  0.00     0.217 HD
ENDBRANCH   1  19
TORSDOF 3
ENDMDL
