MODEL 8
REMARK VINA RESULT: -7.280115953      3.413      6.449
REMARK  3 active torsions:
REMARK  status: ('A' for Active; 'I' for Inactive)
REMARK    1  A    between atoms: O1_1  and  C1_3 
REMARK    2  A    between atoms: C4_6  and  C5_7 
REMARK    3  A    between atoms: C13_18  and  O2_19 
ROOT
HETATM    1  C1  UNL     1     -17.915  -2.206 -28.391  1.00  0.00     0.098 A 
HETATM    2  C2  UNL     1     -18.357  -3.121 -27.459  1.00  0.00     0.040 A 
HETATM    3  C3  UNL     1     -18.553  -2.675 -26.152  1.00  0.00     0.017 A 
HETATM    4  C4  UNL     1     -18.319  -1.371 -25.786  1.00  0.00    -0.005 A 
HETATM    5  C12 UNL     1     -17.878  -0.501 -26.760  1.00  0.00     0.053 A 
HETATM    6  C13 UNL     1     -17.669  -0.892 -28.067  1.00  0.00     0.099 A 
ENDROOT
BRANCH   4   7
HETATM    7  C5  UNL     1     -18.528  -0.910 -24.406  1.00  0.00     0.060 A 
HETATM    8  C6  UNL     1     -18.287   0.367 -23.954  1.00  0.00     0.128 A 
HETATM    9  N1  UNL     1     -18.594   0.429 -22.623  1.00  0.00    -0.317 N 
HETATM   10  C7  UNL     1     -18.530   1.449 -21.733  1.00  0.00     0.098 A 
HETATM   11  C11 UNL     1     -19.018  -0.792 -22.263  1.00  0.00     0.111 A 
HETATM   12  C8  UNL     1     -18.911   1.203 -20.448  1.00  0.00     0.018 A 
HETATM   13  C9  UNL     1     -19.358  -0.030 -20.007  1.00  0.00     0.005 A 
HETATM   14  C10 UNL     1     -19.404  -1.036 -20.950  1.00  0.00     0.049 A 
HETATM   15  N2  UNL     1     -18.976  -1.611 -23.356  1.00  0.00    -0.340 N 
ATOM     16  H2  UNL     1     -19.241  -2.596 -23.369  1.00  0.00     0.167 HD
ENDBRANCH   4   7
BRANCH   6  17
HETATM   17  O2  UNL     1     -17.225   0.017 -29.017  1.00  0.00    -0.358 OA
ATOM     18  H2  UNL     1     -16.298   0.171 -29.160  1.00  0.00     0.217 HD
ENDBRANCH   6  17
BRANCH   1  19
HETATM   19  O1  UNL     1     -17.709  -2.615 -29.702  1.00  0.00    -0.358 OA
ATOM     20  H1  UNL     1     -18.457  -2.787 -30.261  1.00  0.00     0.217 HD
ENDBRANCH   1  19
TORSDOF 3
ENDMDL
