MODEL 2
REMARK VINA RESULT: -7.686110375      3.581      6.602
REMARK  3 active torsions:
REMARK  status: ('A' for Active; 'I' for Inactive)
REMARK    1  A    between atoms: O1_1  and  C1_3 
REMARK    2  A    between atoms: C4_6  and  C5_7 
REMARK    3  A    between atoms: C13_18  and  O2_19 
ROOT
HETATM    1  C1  UNL     1     -17.132  -3.285 -27.796  1.00  0.00     0.098 A 
HETATM    2  C2  UNL     1     -16.150  -3.020 -26.865  1.00  0.00     0.040 A 
HETATM    3  C3  UNL     1     -16.530  -2.392 -25.679  1.00  0.00     0.017 A 
HETATM    4  C4  UNL     1     -17.835  -2.040 -25.428  1.00  0.00    -0.005 A 
HETATM    5  C12 UNL     1     -18.773  -2.329 -26.395  1.00  0.00     0.053 A 
HETATM    6  C13 UNL     1     -18.450  -2.949 -27.584  1.00  0.00     0.099 A 
ENDROOT
BRANCH   4   7
HETATM    7  C5  UNL     1     -18.225  -1.378 -24.175  1.00  0.00     0.060 A 
HETATM    8  C6  UNL     1     -17.953  -0.068 -23.855  1.00  0.00     0.128 A 
HETATM    9  N1  UNL     1     -18.465   0.199 -22.616  1.00  0.00    -0.317 N 
HETATM   10  C7  UNL     1     -18.460   1.327 -21.866  1.00  0.00     0.098 A 
HETATM   11  C11 UNL     1     -19.046  -0.930 -22.182  1.00  0.00     0.111 A 
HETATM   12  C8  UNL     1     -19.064   1.289 -20.646  1.00  0.00     0.018 A 
HETATM   13  C9  UNL     1     -19.682   0.160 -20.135  1.00  0.00     0.005 A 
HETATM   14  C10 UNL     1     -19.660  -0.962 -20.935  1.00  0.00     0.049 A 
HETATM   15  N2  UNL     1     -18.896  -1.895 -23.137  1.00  0.00    -0.340 N 
ATOM     16  H2  UNL     1     -19.240  -2.853 -23.071  1.00  0.00     0.167 HD
ENDBRANCH   4   7
BRANCH   6  17
HETATM   17  O2  UNL     1     -19.427  -3.223 -28.532  1.00  0.00    -0.358 OA
ATOM     18  H2  UNL     1     -19.914  -2.526 -28.956  1.00  0.00     0.217 HD
ENDBRANCH   6  17
BRANCH   1  19
HETATM   19  O1  UNL     1     -16.790  -3.909 -28.988  1.00  0.00    -0.358 OA
ATOM     20  H1  UNL     1     -16.772  -3.402 -29.791  1.00  0.00     0.217 HD
ENDBRANCH   1  19
TORSDOF 3
ENDMDL
