MODEL 5
REMARK VINA RESULT: -7.604082856      0.680      1.617
REMARK  3 active torsions:
REMARK  status: ('A' for Active; 'I' for Inactive)
REMARK    1  A    between atoms: O1_1  and  C1_3 
REMARK    2  A    between atoms: C4_6  and  C5_7 
REMARK    3  A    between atoms: C13_18  and  O2_19 
ROOT
HETATM    1  C1  UNL     1     -19.185   0.779 -20.535  1.00  0.00     0.098 A 
HETATM    2  C2  UNL     1     -18.417   1.438 -21.471  1.00  0.00     0.040 A 
HETATM    3  C3  UNL     1     -18.034   0.734 -22.612  1.00  0.00     0.017 A 
HETATM    4  C4  UNL     1     -18.401  -0.575 -22.815  1.00  0.00    -0.005 A 
HETATM    5  C12 UNL     1     -19.168  -1.184 -21.846  1.00  0.00     0.053 A 
HETATM    6  C13 UNL     1     -19.573  -0.531 -20.700  1.00  0.00     0.099 A 
ENDROOT
BRANCH   4   7
HETATM    7  C5  UNL     1     -17.992  -1.309 -24.021  1.00  0.00     0.060 A 
HETATM    8  C6  UNL     1     -17.914  -0.772 -25.286  1.00  0.00     0.128 A 
HETATM    9  N1  UNL     1     -17.502  -1.744 -26.154  1.00  0.00    -0.317 N 
HETATM   10  C7  UNL     1     -17.274  -1.718 -27.489  1.00  0.00     0.098 A 
HETATM   11  C11 UNL     1     -17.328  -2.863 -25.434  1.00  0.00     0.111 A 
HETATM   12  C8  UNL     1     -16.860  -2.868 -28.091  1.00  0.00     0.018 A 
HETATM   13  C9  UNL     1     -16.661  -4.057 -27.411  1.00  0.00     0.005 A 
HETATM   14  C10 UNL     1     -16.906  -4.032 -26.055  1.00  0.00     0.049 A 
HETATM   15  N2  UNL     1     -17.630  -2.594 -24.128  1.00  0.00    -0.340 N 
ATOM     16  H2  UNL     1     -17.587  -3.264 -23.360  1.00  0.00     0.167 HD
ENDBRANCH   4   7
BRANCH   6  17
HETATM   17  O2  UNL     1     -20.348  -1.182 -19.748  1.00  0.00    -0.358 OA
ATOM     18  H2  UNL     1     -21.291  -1.073 -19.720  1.00  0.00     0.217 HD
ENDBRANCH   6  17
BRANCH   1  19
HETATM   19  O1  UNL     1     -19.584   1.448 -19.386  1.00  0.00    -0.358 OA
ATOM     20  H1  UNL     1     -19.118   1.297 -18.572  1.00  0.00     0.217 HD
ENDBRANCH   1  19
TORSDOF 3
ENDMDL
