MODEL 4
REMARK VINA RESULT: -7.658538700      0.969      1.607
REMARK  3 active torsions:
REMARK  status: ('A' for Active; 'I' for Inactive)
REMARK    1  A    between atoms: O1_1  and  C1_3 
REMARK    2  A    between atoms: C4_6  and  C5_7 
REMARK    3  A    between atoms: C13_18  and  O2_19 
ROOT
HETATM    1  C1  UNL     1     -19.340   0.272 -20.380  1.00  0.00     0.098 A 
HETATM    2  C2  UNL     1     -19.742  -0.973 -20.815  1.00  0.00     0.040 A 
HETATM    3  C3  UNL     1     -19.455  -1.327 -22.133  1.00  0.00     0.017 A 
HETATM    4  C4  UNL     1     -18.793  -0.476 -22.986  1.00  0.00    -0.005 A 
HETATM    5  C12 UNL     1     -18.416   0.756 -22.498  1.00  0.00     0.053 A 
HETATM    6  C13 UNL     1     -18.676   1.154 -21.202  1.00  0.00     0.099 A 
ENDROOT
BRANCH   4   7
HETATM    7  C5  UNL     1     -18.495  -0.858 -24.374  1.00  0.00     0.060 A 
HETATM    8  C6  UNL     1     -18.401  -2.151 -24.836  1.00  0.00     0.128 A 
HETATM    9  N1  UNL     1     -18.112  -2.122 -26.172  1.00  0.00    -0.317 N 
HETATM   10  C7  UNL     1     -17.922  -3.117 -27.071  1.00  0.00     0.098 A 
HETATM   11  C11 UNL     1     -18.029  -0.831 -26.526  1.00  0.00     0.111 A 
HETATM   12  C8  UNL     1     -17.642  -2.773 -28.359  1.00  0.00     0.018 A 
HETATM   13  C9  UNL     1     -17.542  -1.463 -28.795  1.00  0.00     0.005 A 
HETATM   14  C10 UNL     1     -17.742  -0.486 -27.842  1.00  0.00     0.049 A 
HETATM   15  N2  UNL     1     -18.263  -0.058 -25.423  1.00  0.00    -0.340 N 
ATOM     16  H2  UNL     1     -18.260   0.962 -25.403  1.00  0.00     0.167 HD
ENDBRANCH   4   7
BRANCH   6  17
HETATM   17  O2  UNL     1     -18.277   2.404 -20.750  1.00  0.00    -0.358 OA
ATOM     18  H2  UNL     1     -18.904   3.028 -20.404  1.00  0.00     0.217 HD
ENDBRANCH   6  17
BRANCH   1  19
HETATM   19  O1  UNL     1     -19.610   0.658 -19.075  1.00  0.00    -0.358 OA
ATOM     20  H1  UNL     1     -18.905   0.675 -18.438  1.00  0.00     0.217 HD
ENDBRANCH   1  19
TORSDOF 3
ENDMDL
