MODEL 6
REMARK VINA RESULT: -9.719624661      4.618     10.378
REMARK  9 active torsions:
REMARK  status: ('A' for Active; 'I' for Inactive)
REMARK    1  A    between atoms: N1_2  and  C2_3 
REMARK    2  A    between atoms: N1_2  and  C9_20 
REMARK    3  A    between atoms: C2_3  and  C3_4 
REMARK    4  A    between atoms: C12_23  and  C13_24 
REMARK       I    between atoms: C13_24  and  N8_26 
REMARK    5  A    between atoms: N8_26  and  C14_28 
REMARK    6  A    between atoms: C14_28  and  C15_29 
REMARK    7  A    between atoms: C14_28  and  C18_34 
REMARK    8  A    between atoms: C15_29  and  C16_30 
REMARK    9  A    between atoms: C16_30  and  C17_31 
ROOT
HETATM    1  C9  UNL     1     -19.681  18.585  24.986  1.00  0.00     0.030 A 
HETATM    2  C10 UNL     1     -18.807  19.144  24.083  1.00  0.00     0.030 A 
HETATM    3  C11 UNL     1     -17.750  19.936  24.514  1.00  0.00     0.019 A 
HETATM    4  C12 UNL     1     -17.516  20.203  25.842  1.00  0.00     0.032 A 
HETATM    5  C19 UNL     1     -18.395  19.639  26.742  1.00  0.00     0.019 A 
HETATM    6  C20 UNL     1     -19.453  18.850  26.348  1.00  0.00     0.030 A 
ENDROOT
BRANCH   1   7
HETATM    7  N1  UNL     1     -20.772  17.775  24.591  1.00  0.00    -0.380 N 
HETATM    8  C1  UNL     1     -20.952  16.496  25.292  1.00  0.00     0.150 C 
BRANCH   7   9
HETATM    9  C2  UNL     1     -21.714  18.079  23.574  1.00  0.00     0.181 C 
BRANCH   9  10
HETATM   10  C3  UNL     1     -21.395  17.451  22.256  1.00  0.00     0.043 A 
HETATM   11  C4  UNL     1     -21.044  18.253  21.191  1.00  0.00     0.116 A 
HETATM   12  N2  UNL     1     -20.745  17.716  19.978  1.00  0.00    -0.348 N 
HETATM   13  C5  UNL     1     -20.783  16.388  19.776  1.00  0.00     0.138 A 
ATOM     14  H2  UNL     1     -20.488  18.333  19.207  1.00  0.00     0.167 HD
HETATM   15  N3  UNL     1     -20.491  15.822  18.576  1.00  0.00    -0.315 N 
HETATM   16  C8  UNL     1     -21.132  15.583  20.830  1.00  0.00     0.119 A 
HETATM   17  C6  UNL     1     -20.529  14.492  18.373  1.00  0.00     0.195 A 
ATOM     18  H3  UNL     1     -20.232  16.429  17.799  1.00  0.00     0.170 HD
HETATM   19  N4  UNL     1     -20.212  13.954  17.087  1.00  0.00    -0.063 NA
HETATM   20  N5  UNL     1     -20.871  13.717  19.409  1.00  0.00    -0.317 N 
HETATM   21  C7  UNL     1     -21.170  14.219  20.622  1.00  0.00     0.149 A 
ATOM     22  H5  UNL     1     -20.906  12.705  19.274  1.00  0.00     0.169 HD
HETATM   23  N6  UNL     1     -21.530  13.401  21.725  1.00  0.00    -0.080 NA
HETATM   24  N7  UNL     1     -21.428  16.125  22.038  1.00  0.00    -0.351 N 
ATOM     25  H7  UNL     1     -21.684  15.506  22.807  1.00  0.00     0.166 HD
ENDBRANCH   9  10
ENDBRANCH   7   9
ENDBRANCH   1   7
BRANCH   4  26
HETATM   26  C13 UNL     1     -16.401  21.015  26.308  1.00  0.00     0.252 C 
HETATM   27  O1  UNL     1     -16.599  22.135  26.895  1.00  0.00    -0.268 OA
HETATM   28  N8  UNL     1     -15.040  20.654  26.160  1.00  0.00    -0.342 N 
ATOM     29  H8  UNL     1     -14.824  19.766  25.707  1.00  0.00     0.163 HD
BRANCH  28  30
HETATM   30  C14 UNL     1     -13.943  21.469  26.615  1.00  0.00     0.186 C 
BRANCH  30  31
HETATM   31  C15 UNL     1     -12.835  20.698  27.264  1.00  0.00     0.046 C 
BRANCH  31  32
HETATM   32  C16 UNL     1     -12.296  19.552  26.483  1.00  0.00     0.116 C 
BRANCH  32  33
HETATM   33  C17 UNL     1     -10.873  19.723  26.106  1.00  0.00     0.172 C 
HETATM   34  O2  UNL     1     -10.328  20.853  26.166  1.00  0.00    -0.648 OA
HETATM   35  O3  UNL     1     -10.059  18.665  25.670  1.00  0.00    -0.648 OA
ENDBRANCH  32  33
ENDBRANCH  31  32
ENDBRANCH  30  31
BRANCH  30  36
HETATM   36  C18 UNL     1     -13.460  22.405  25.584  1.00  0.00     0.196 C 
HETATM   37  O4  UNL     1     -13.741  22.279  24.356  1.00  0.00    -0.646 OA
HETATM   38  O5  UNL     1     -12.662  23.488  25.919  1.00  0.00    -0.646 OA
ENDBRANCH  30  36
ENDBRANCH  28  30
ENDBRANCH   4  26
TORSDOF 9
ENDMDL
