MODEL 9
REMARK VINA RESULT: -9.608650645      5.392     10.635
REMARK  9 active torsions:
REMARK  status: ('A' for Active; 'I' for Inactive)
REMARK    1  A    between atoms: N1_2  and  C2_3 
REMARK    2  A    between atoms: N1_2  and  C9_20 
REMARK    3  A    between atoms: C2_3  and  C3_4 
REMARK    4  A    between atoms: C12_23  and  C13_24 
REMARK       I    between atoms: C13_24  and  N8_26 
REMARK    5  A    between atoms: N8_26  and  C14_28 
REMARK    6  A    between atoms: C14_28  and  C15_29 
REMARK    7  A    between atoms: C14_28  and  C18_34 
REMARK    8  A    between atoms: C15_29  and  C16_30 
REMARK    9  A    between atoms: C16_30  and  C17_31 
ROOT
HETATM    1  C9  UNL     1     -18.163  18.660  24.219  1.00  0.00     0.030 A 
HETATM    2  C10 UNL     1     -17.996  19.987  23.901  1.00  0.00     0.030 A 
HETATM    3  C11 UNL     1     -16.774  20.618  24.101  1.00  0.00     0.019 A 
HETATM    4  C12 UNL     1     -15.679  19.967  24.616  1.00  0.00     0.032 A 
HETATM    5  C19 UNL     1     -15.852  18.637  24.932  1.00  0.00     0.019 A 
HETATM    6  C20 UNL     1     -17.050  17.982  24.747  1.00  0.00     0.030 A 
ENDROOT
BRANCH   1   7
HETATM    7  N1  UNL     1     -19.390  17.979  24.035  1.00  0.00    -0.380 N 
HETATM    8  C1  UNL     1     -20.178  18.319  22.842  1.00  0.00     0.150 C 
BRANCH   7   9
HETATM    9  C2  UNL     1     -19.938  16.995  24.897  1.00  0.00     0.181 C 
BRANCH   9  10
HETATM   10  C3  UNL     1     -21.109  17.478  25.689  1.00  0.00     0.043 A 
HETATM   11  C4  UNL     1     -20.905  18.349  26.739  1.00  0.00     0.116 A 
HETATM   12  N2  UNL     1     -21.947  18.811  27.479  1.00  0.00    -0.348 N 
HETATM   13  C5  UNL     1     -23.210  18.434  27.214  1.00  0.00     0.138 A 
ATOM     14  H2  UNL     1     -21.768  19.455  28.249  1.00  0.00     0.167 HD
HETATM   15  N3  UNL     1     -24.272  18.878  27.936  1.00  0.00    -0.315 N 
HETATM   16  C8  UNL     1     -23.423  17.569  26.172  1.00  0.00     0.119 A 
HETATM   17  C6  UNL     1     -25.537  18.502  27.672  1.00  0.00     0.195 A 
ATOM     18  H3  UNL     1     -24.104  19.522  28.709  1.00  0.00     0.170 HD
HETATM   19  N4  UNL     1     -26.615  19.001  28.468  1.00  0.00    -0.063 NA
HETATM   20  N5  UNL     1     -25.732  17.657  26.653  1.00  0.00    -0.317 N 
HETATM   21  C7  UNL     1     -24.719  17.183  25.901  1.00  0.00     0.149 A 
ATOM     22  H5  UNL     1     -26.684  17.359  26.437  1.00  0.00     0.169 HD
HETATM   23  N6  UNL     1     -24.920  16.290  24.817  1.00  0.00    -0.080 NA
HETATM   24  N7  UNL     1     -22.378  17.112  25.437  1.00  0.00    -0.351 N 
ATOM     25  H7  UNL     1     -22.561  16.469  24.667  1.00  0.00     0.166 HD
ENDBRANCH   9  10
ENDBRANCH   7   9
ENDBRANCH   1   7
BRANCH   4  26
HETATM   26  C13 UNL     1     -14.388  20.612  24.811  1.00  0.00     0.252 C 
HETATM   27  O1  UNL     1     -13.904  21.400  23.927  1.00  0.00    -0.268 OA
HETATM   28  N8  UNL     1     -13.577  20.435  25.958  1.00  0.00    -0.342 N 
ATOM     29  H8  UNL     1     -13.918  19.824  26.699  1.00  0.00     0.163 HD
BRANCH  28  30
HETATM   30  C14 UNL     1     -12.297  21.070  26.136  1.00  0.00     0.186 C 
BRANCH  30  31
HETATM   31  C15 UNL     1     -12.353  22.360  26.896  1.00  0.00     0.046 C 
BRANCH  31  32
HETATM   32  C16 UNL     1     -13.428  22.466  27.919  1.00  0.00     0.116 C 
BRANCH  32  33
HETATM   33  C17 UNL     1     -12.947  22.212  29.297  1.00  0.00     0.172 C 
HETATM   34  O2  UNL     1     -13.227  21.137  29.883  1.00  0.00    -0.648 OA
HETATM   35  O3  UNL     1     -12.168  23.128  30.022  1.00  0.00    -0.648 OA
ENDBRANCH  32  33
ENDBRANCH  31  32
ENDBRANCH  30  31
BRANCH  30  36
HETATM   36  C18 UNL     1     -11.269  20.148  26.652  1.00  0.00     0.196 C 
HETATM   37  O4  UNL     1     -11.469  19.374  27.633  1.00  0.00    -0.646 OA
HETATM   38  O5  UNL     1     -10.010  20.085  26.074  1.00  0.00    -0.646 OA
ENDBRANCH  30  36
ENDBRANCH  28  30
ENDBRANCH   4  26
TORSDOF 9
ENDMDL
