MODEL 3
REMARK VINA RESULT: -9.810382761      5.652     10.847
REMARK  9 active torsions:
REMARK  status: ('A' for Active; 'I' for Inactive)
REMARK    1  A    between atoms: N1_2  and  C2_3 
REMARK    2  A    between atoms: N1_2  and  C9_20 
REMARK    3  A    between atoms: C2_3  and  C3_4 
REMARK    4  A    between atoms: C12_23  and  C13_24 
REMARK       I    between atoms: C13_24  and  N8_26 
REMARK    5  A    between atoms: N8_26  and  C14_28 
REMARK    6  A    between atoms: C14_28  and  C15_29 
REMARK    7  A    between atoms: C14_28  and  C18_34 
REMARK    8  A    between atoms: C15_29  and  C16_30 
REMARK    9  A    between atoms: C16_30  and  C17_31 
ROOT
HETATM    1  C9  UNL     1     -17.768  18.577  25.333  1.00  0.00     0.030 A 
HETATM    2  C10 UNL     1     -17.641  19.561  26.286  1.00  0.00     0.030 A 
HETATM    3  C11 UNL     1     -16.402  19.855  26.843  1.00  0.00     0.019 A 
HETATM    4  C12 UNL     1     -15.251  19.195  26.484  1.00  0.00     0.032 A 
HETATM    5  C19 UNL     1     -15.386  18.210  25.529  1.00  0.00     0.019 A 
HETATM    6  C20 UNL     1     -16.598  17.894  24.956  1.00  0.00     0.030 A 
ENDROOT
BRANCH   1   7
HETATM    7  N1  UNL     1     -19.009  18.244  24.742  1.00  0.00    -0.380 N 
HETATM    8  C1  UNL     1     -19.468  19.076  23.621  1.00  0.00     0.150 C 
BRANCH   7   9
HETATM    9  C2  UNL     1     -19.862  17.178  25.130  1.00  0.00     0.181 C 
BRANCH   9  10
HETATM   10  C3  UNL     1     -21.091  17.627  25.853  1.00  0.00     0.043 A 
HETATM   11  C4  UNL     1     -20.965  18.419  26.974  1.00  0.00     0.116 A 
HETATM   12  N2  UNL     1     -22.061  18.848  27.656  1.00  0.00    -0.348 N 
HETATM   13  C5  UNL     1     -23.301  18.514  27.259  1.00  0.00     0.138 A 
ATOM     14  H2  UNL     1     -21.939  19.433  28.481  1.00  0.00     0.167 HD
HETATM   15  N3  UNL     1     -24.415  18.926  27.919  1.00  0.00    -0.315 N 
HETATM   16  C8  UNL     1     -23.435  17.726  26.145  1.00  0.00     0.119 A 
HETATM   17  C6  UNL     1     -25.657  18.592  27.524  1.00  0.00     0.195 A 
ATOM     18  H3  UNL     1     -24.305  19.512  28.747  1.00  0.00     0.170 HD
HETATM   19  N4  UNL     1     -26.793  19.055  28.260  1.00  0.00    -0.063 NA
HETATM   20  N5  UNL     1     -25.775  17.823  26.435  1.00  0.00    -0.317 N 
HETATM   21  C7  UNL     1     -24.709  17.384  25.740  1.00  0.00     0.149 A 
ATOM     22  H5  UNL     1     -26.709  17.558  26.120  1.00  0.00     0.169 HD
HETATM   23  N6  UNL     1     -24.828  16.571  24.582  1.00  0.00    -0.080 NA
HETATM   24  N7  UNL     1     -22.337  17.302  25.470  1.00  0.00    -0.351 N 
ATOM     25  H7  UNL     1     -22.462  16.718  24.644  1.00  0.00     0.166 HD
ENDBRANCH   9  10
ENDBRANCH   7   9
ENDBRANCH   1   7
BRANCH   4  26
HETATM   26  C13 UNL     1     -13.945  19.507  27.047  1.00  0.00     0.252 C 
HETATM   27  O1  UNL     1     -13.742  20.604  27.672  1.00  0.00    -0.268 OA
HETATM   28  N8  UNL     1     -12.818  18.655  26.959  1.00  0.00    -0.342 N 
ATOM     29  H8  UNL     1     -12.927  17.762  26.477  1.00  0.00     0.163 HD
BRANCH  28  30
HETATM   30  C14 UNL     1     -11.528  18.977  27.510  1.00  0.00     0.186 C 
BRANCH  30  31
HETATM   31  C15 UNL     1     -10.962  17.919  28.407  1.00  0.00     0.046 C 
BRANCH  31  32
HETATM   32  C16 UNL     1     -11.797  17.548  29.582  1.00  0.00     0.116 C 
BRANCH  32  33
HETATM   33  C17 UNL     1     -11.052  16.777  30.604  1.00  0.00     0.172 C 
HETATM   34  O2  UNL     1      -9.828  16.535  30.454  1.00  0.00    -0.648 OA
HETATM   35  O3  UNL     1     -11.643  16.280  31.776  1.00  0.00    -0.648 OA
ENDBRANCH  32  33
ENDBRANCH  31  32
ENDBRANCH  30  31
BRANCH  30  36
HETATM   36  C18 UNL     1     -10.568  19.432  26.488  1.00  0.00     0.196 C 
HETATM   37  O4  UNL     1     -10.436  20.648  26.161  1.00  0.00    -0.646 OA
HETATM   38  O5  UNL     1      -9.746  18.531  25.828  1.00  0.00    -0.646 OA
ENDBRANCH  30  36
ENDBRANCH  28  30
ENDBRANCH   4  26
TORSDOF 9
ENDMDL
