MODEL 3
REMARK VINA RESULT: -8.488898655      0.877      1.545
REMARK  7 active torsions:
REMARK  status: ('A' for Active; 'I' for Inactive)
REMARK    1  A    between atoms: C2_2  and  N1_4 
REMARK    2  A    between atoms: N1_4  and  S1_6 
REMARK    3  A    between atoms: S1_6  and  C5_9 
REMARK    4  A    between atoms: C7_11  and  C8_12 
REMARK    5  A    between atoms: N4_19  and  C10_20 
REMARK    6  A    between atoms: C16_27  and  O4_28 
REMARK    7  A    between atoms: C18_31  and  O5_32 
ROOT
HETATM    1  C5  UNL     1       0.694  33.605 -23.568  1.00  0.00     0.113 A 
HETATM    2  C6  UNL     1       0.557  34.414 -24.698  1.00  0.00     0.046 A 
HETATM    3  C7  UNL     1      -0.631  34.677 -25.317  1.00  0.00     0.045 A 
HETATM    4  C16 UNL     1      -1.755  34.080 -24.751  1.00  0.00     0.082 A 
HETATM    5  C17 UNL     1      -1.622  33.264 -23.612  1.00  0.00     0.075 A 
HETATM    6  C18 UNL     1      -0.416  33.025 -23.023  1.00  0.00     0.091 A 
ENDROOT
BRANCH   3   7
HETATM    7  C8  UNL     1      -0.811  35.512 -26.492  1.00  0.00     0.144 A 
HETATM    8  N2  UNL     1      -1.515  35.153 -27.582  1.00  0.00    -0.280 N 
HETATM    9  N3  UNL     1      -1.523  36.074 -28.488  1.00  0.00    -0.249 N 
ATOM     10  H2  UNL     1      -1.990  34.255 -27.681  1.00  0.00     0.188 HD
HETATM   11  C9  UNL     1      -0.811  37.084 -28.007  1.00  0.00     0.347 A 
ATOM     12  H3  UNL     1      -1.986  36.031 -29.396  1.00  0.00     0.192 HD
HETATM   13  O3  UNL     1      -0.576  38.185 -28.594  1.00  0.00    -0.245 OA
HETATM   14  N4  UNL     1      -0.362  36.741 -26.760  1.00  0.00    -0.243 N 
BRANCH  14  15
HETATM   15  C10 UNL     1       0.430  37.610 -25.982  1.00  0.00     0.084 A 
HETATM   16  C11 UNL     1      -0.133  38.469 -25.062  1.00  0.00     0.033 A 
HETATM   17  C12 UNL     1       0.669  39.303 -24.279  1.00  0.00     0.002 A 
HETATM   18  C13 UNL     1       2.040  39.284 -24.409  1.00  0.00     0.003 A 
HETATM   19  C14 UNL     1       2.598  38.429 -25.324  1.00  0.00     0.044 A 
HETATM   20  C15 UNL     1       1.802  37.590 -26.112  1.00  0.00     0.143 A 
HETATM   21  F1  UNL     1       2.374  36.753 -27.011  1.00  0.00    -0.204 F 
ENDBRANCH  14  15
ENDBRANCH   3   7
BRANCH   4  22
HETATM   22  O4  UNL     1      -3.021  34.215 -25.212  1.00  0.00    -0.360 OA
ATOM     23  H4  UNL     1      -3.648  33.506 -25.298  1.00  0.00     0.217 HD
ENDBRANCH   4  22
BRANCH   1  24
HETATM   24  S1  UNL     1       2.273  33.366 -22.897  1.00  0.00     0.263 S 
HETATM   25  O1  UNL     1       2.165  32.953 -21.437  1.00  0.00    -0.200 OA
HETATM   26  O2  UNL     1       3.054  34.673 -22.870  1.00  0.00    -0.200 OA
BRANCH  24  27
HETATM   27  N1  UNL     1       3.211  32.220 -23.697  1.00  0.00    -0.307 N 
HETATM   28  C4  UNL     1       4.547  32.575 -24.002  1.00  0.00     0.163 C 
BRANCH  27  29
HETATM   29  C2  UNL     1       2.545  31.363 -24.603  1.00  0.00     0.087 C 
HETATM   30  C1  UNL     1       3.467  30.646 -25.572  1.00  0.00     0.032 C 
HETATM   31  C3  UNL     1       1.824  30.284 -23.810  1.00  0.00     0.032 C 
ENDBRANCH  27  29
ENDBRANCH  24  27
ENDBRANCH   1  24
BRANCH   6  32
HETATM   32  O5  UNL     1      -0.316  32.198 -21.877  1.00  0.00    -0.359 OA
ATOM     33  H5  UNL     1      -1.092  31.936 -21.396  1.00  0.00     0.217 HD
ENDBRANCH   6  32
TORSDOF 7
ENDMDL
