MODEL 1
REMARK VINA RESULT: -8.979725157      0.000      0.000
REMARK  7 active torsions:
REMARK  status: ('A' for Active; 'I' for Inactive)
REMARK    1  A    between atoms: C2_2  and  N1_4 
REMARK    2  A    between atoms: N1_4  and  S1_6 
REMARK    3  A    between atoms: S1_6  and  C5_9 
REMARK    4  A    between atoms: C7_11  and  C8_12 
REMARK    5  A    between atoms: N4_19  and  C10_20 
REMARK    6  A    between atoms: C16_27  and  O4_28 
REMARK    7  A    between atoms: C18_31  and  O5_32 
ROOT
HETATM    1  C5  UNL     1       0.196  33.100 -23.588  1.00  0.00     0.113 A 
HETATM    2  C6  UNL     1       0.188  33.900 -24.733  1.00  0.00     0.046 A 
HETATM    3  C7  UNL     1      -0.920  34.521 -25.231  1.00  0.00     0.045 A 
HETATM    4  C16 UNL     1      -2.101  34.318 -24.520  1.00  0.00     0.082 A 
HETATM    5  C17 UNL     1      -2.098  33.513 -23.365  1.00  0.00     0.075 A 
HETATM    6  C18 UNL     1      -0.968  32.909 -22.900  1.00  0.00     0.091 A 
ENDROOT
BRANCH   3   7
HETATM    7  C8  UNL     1      -0.965  35.358 -26.417  1.00  0.00     0.144 A 
HETATM    8  N2  UNL     1      -1.606  35.034 -27.556  1.00  0.00    -0.280 N 
HETATM    9  N3  UNL     1      -1.494  35.949 -28.462  1.00  0.00    -0.249 N 
ATOM     10  H2  UNL     1      -2.122  34.164 -27.689  1.00  0.00     0.188 HD
HETATM   11  C9  UNL     1      -0.764  36.920 -27.930  1.00  0.00     0.347 A 
ATOM     12  H3  UNL     1      -1.890  35.928 -29.401  1.00  0.00     0.192 HD
HETATM   13  O3  UNL     1      -0.425  38.003 -28.499  1.00  0.00    -0.245 OA
HETATM   14  N4  UNL     1      -0.430  36.559 -26.652  1.00  0.00    -0.243 N 
BRANCH  14  15
HETATM   15  C10 UNL     1       0.350  37.386 -25.819  1.00  0.00     0.084 A 
HETATM   16  C11 UNL     1      -0.230  38.235 -24.899  1.00  0.00     0.033 A 
HETATM   17  C12 UNL     1       0.558  39.027 -24.061  1.00  0.00     0.002 A 
HETATM   18  C13 UNL     1       1.933  38.976 -24.134  1.00  0.00     0.003 A 
HETATM   19  C14 UNL     1       2.508  38.132 -25.049  1.00  0.00     0.044 A 
HETATM   20  C15 UNL     1       1.725  37.335 -25.893  1.00  0.00     0.143 A 
HETATM   21  F1  UNL     1       2.315  36.508 -26.790  1.00  0.00    -0.204 F 
ENDBRANCH  14  15
ENDBRANCH   3   7
BRANCH   4  22
HETATM   22  O4  UNL     1      -3.305  34.843 -24.847  1.00  0.00    -0.360 OA
ATOM     23  H4  UNL     1      -4.080  34.814 -24.298  1.00  0.00     0.217 HD
ENDBRANCH   4  22
BRANCH   1  24
HETATM   24  S1  UNL     1       1.686  32.379 -23.081  1.00  0.00     0.263 S 
HETATM   25  O1  UNL     1       1.542  30.865 -23.021  1.00  0.00    -0.200 OA
HETATM   26  O2  UNL     1       2.029  32.788 -21.654  1.00  0.00    -0.200 OA
BRANCH  24  27
HETATM   27  N1  UNL     1       3.010  32.740 -24.055  1.00  0.00    -0.307 N 
HETATM   28  C4  UNL     1       3.385  31.777 -25.022  1.00  0.00     0.163 C 
BRANCH  27  29
HETATM   29  C2  UNL     1       4.043  33.512 -23.474  1.00  0.00     0.087 C 
HETATM   30  C1  UNL     1       5.440  33.103 -23.902  1.00  0.00     0.032 C 
HETATM   31  C3  UNL     1       3.865  34.961 -23.901  1.00  0.00     0.032 C 
ENDBRANCH  27  29
ENDBRANCH  24  27
ENDBRANCH   1  24
BRANCH   6  32
HETATM   32  O5  UNL     1      -1.000  32.104 -21.734  1.00  0.00    -0.359 OA
ATOM     33  H5  UNL     1      -1.582  31.356 -21.674  1.00  0.00     0.217 HD
ENDBRANCH   6  32
TORSDOF 7
ENDMDL
