MODEL 4
REMARK VINA RESULT: -8.351264341      2.797      5.873
REMARK  7 active torsions:
REMARK  status: ('A' for Active; 'I' for Inactive)
REMARK    1  A    between atoms: C2_2  and  N1_4 
REMARK    2  A    between atoms: N1_4  and  S1_6 
REMARK    3  A    between atoms: S1_6  and  C5_9 
REMARK    4  A    between atoms: C7_11  and  C8_12 
REMARK    5  A    between atoms: N4_19  and  C10_20 
REMARK    6  A    between atoms: C16_27  and  O4_28 
REMARK    7  A    between atoms: C18_31  and  O5_32 
ROOT
HETATM    1  C5  UNL     1       0.596  37.448 -25.914  1.00  0.00     0.113 A 
HETATM    2  C6  UNL     1       0.193  36.493 -24.978  1.00  0.00     0.046 A 
HETATM    3  C7  UNL     1      -0.599  35.420 -25.266  1.00  0.00     0.045 A 
HETATM    4  C16 UNL     1      -1.009  35.307 -26.593  1.00  0.00     0.082 A 
HETATM    5  C17 UNL     1      -0.605  36.266 -27.539  1.00  0.00     0.075 A 
HETATM    6  C18 UNL     1       0.187  37.326 -27.211  1.00  0.00     0.091 A 
ENDROOT
BRANCH   3   7
HETATM    7  C8  UNL     1      -1.039  34.409 -24.320  1.00  0.00     0.144 A 
HETATM    8  N2  UNL     1      -2.310  34.252 -23.906  1.00  0.00    -0.280 N 
HETATM    9  N3  UNL     1      -2.438  33.281 -23.063  1.00  0.00    -0.249 N 
ATOM     10  H2  UNL     1      -3.086  34.834 -24.222  1.00  0.00     0.188 HD
HETATM   11  C9  UNL     1      -1.228  32.762 -22.899  1.00  0.00     0.347 A 
ATOM     12  H3  UNL     1      -3.300  32.975 -22.612  1.00  0.00     0.192 HD
HETATM   13  O3  UNL     1      -0.925  31.785 -22.147  1.00  0.00    -0.245 OA
HETATM   14  N4  UNL     1      -0.348  33.461 -23.681  1.00  0.00    -0.243 N 
BRANCH  14  15
HETATM   15  C10 UNL     1       1.026  33.149 -23.726  1.00  0.00     0.084 A 
HETATM   16  C11 UNL     1       1.976  34.001 -23.205  1.00  0.00     0.033 A 
HETATM   17  C12 UNL     1       3.331  33.663 -23.231  1.00  0.00     0.002 A 
HETATM   18  C13 UNL     1       3.748  32.470 -23.780  1.00  0.00     0.003 A 
HETATM   19  C14 UNL     1       2.801  31.623 -24.299  1.00  0.00     0.044 A 
HETATM   20  C15 UNL     1       1.442  31.955 -24.275  1.00  0.00     0.143 A 
HETATM   21  F1  UNL     1       0.523  31.104 -24.794  1.00  0.00    -0.204 F 
ENDBRANCH  14  15
ENDBRANCH   3   7
BRANCH   4  22
HETATM   22  O4  UNL     1      -1.795  34.318 -27.081  1.00  0.00    -0.360 OA
ATOM     23  H4  UNL     1      -2.420  34.419 -27.790  1.00  0.00     0.217 HD
ENDBRANCH   4  22
BRANCH   1  24
HETATM   24  S1  UNL     1       1.604  38.756 -25.393  1.00  0.00     0.263 S 
HETATM   25  O1  UNL     1       0.800  40.047 -25.337  1.00  0.00    -0.200 OA
HETATM   26  O2  UNL     1       2.704  39.032 -26.411  1.00  0.00    -0.200 OA
BRANCH  24  27
HETATM   27  N1  UNL     1       2.334  38.528 -23.894  1.00  0.00    -0.307 N 
HETATM   28  C4  UNL     1       1.833  39.286 -22.808  1.00  0.00     0.163 C 
BRANCH  27  29
HETATM   29  C2  UNL     1       3.715  38.226 -23.891  1.00  0.00     0.087 C 
HETATM   30  C1  UNL     1       4.611  39.417 -23.606  1.00  0.00     0.032 C 
HETATM   31  C3  UNL     1       3.986  37.207 -22.795  1.00  0.00     0.032 C 
ENDBRANCH  27  29
ENDBRANCH  24  27
ENDBRANCH   1  24
BRANCH   6  32
HETATM   32  O5  UNL     1       0.576  38.275 -28.188  1.00  0.00    -0.359 OA
ATOM     33  H5  UNL     1       0.934  37.996 -29.024  1.00  0.00     0.217 HD
ENDBRANCH   6  32
TORSDOF 7
ENDMDL
