MODEL 2
REMARK VINA RESULT: -8.728838781      0.849      1.217
REMARK  7 active torsions:
REMARK  status: ('A' for Active; 'I' for Inactive)
REMARK    1  A    between atoms: C2_2  and  N1_4 
REMARK    2  A    between atoms: N1_4  and  S1_6 
REMARK    3  A    between atoms: S1_6  and  C5_9 
REMARK    4  A    between atoms: C7_11  and  C8_12 
REMARK    5  A    between atoms: N4_19  and  C10_20 
REMARK    6  A    between atoms: C16_27  and  O4_28 
REMARK    7  A    between atoms: C18_31  and  O5_32 
ROOT
HETATM    1  C5  UNL     1       0.232  33.113 -23.594  1.00  0.00     0.113 A 
HETATM    2  C6  UNL     1       0.225  33.901 -24.747  1.00  0.00     0.046 A 
HETATM    3  C7  UNL     1      -0.882  34.521 -25.249  1.00  0.00     0.045 A 
HETATM    4  C16 UNL     1      -2.061  34.331 -24.532  1.00  0.00     0.082 A 
HETATM    5  C17 UNL     1      -2.059  33.538 -23.369  1.00  0.00     0.075 A 
HETATM    6  C18 UNL     1      -0.931  32.934 -22.900  1.00  0.00     0.091 A 
ENDROOT
BRANCH   3   7
HETATM    7  C8  UNL     1      -0.927  35.346 -26.444  1.00  0.00     0.144 A 
HETATM    8  N2  UNL     1      -1.643  35.055 -27.546  1.00  0.00    -0.280 N 
HETATM    9  N3  UNL     1      -1.513  35.949 -28.469  1.00  0.00    -0.249 N 
ATOM     10  H2  UNL     1      -2.225  34.222 -27.641  1.00  0.00     0.188 HD
HETATM   11  C9  UNL     1      -0.691  36.872 -27.987  1.00  0.00     0.347 A 
ATOM     12  H3  UNL     1      -1.955  35.945 -29.388  1.00  0.00     0.192 HD
HETATM   13  O3  UNL     1      -0.305  37.922 -28.588  1.00  0.00    -0.245 OA
HETATM   14  N4  UNL     1      -0.320  36.503 -26.722  1.00  0.00    -0.243 N 
BRANCH  14  15
HETATM   15  C10 UNL     1       0.555  37.282 -25.940  1.00  0.00     0.084 A 
HETATM   16  C11 UNL     1       1.918  37.070 -25.953  1.00  0.00     0.033 A 
HETATM   17  C12 UNL     1       2.775  37.870 -25.194  1.00  0.00     0.002 A 
HETATM   18  C13 UNL     1       2.276  38.891 -24.416  1.00  0.00     0.003 A 
HETATM   19  C14 UNL     1       0.921  39.102 -24.403  1.00  0.00     0.044 A 
HETATM   20  C15 UNL     1       0.056  38.304 -25.161  1.00  0.00     0.143 A 
HETATM   21  F1  UNL     1      -1.280  38.530 -25.133  1.00  0.00    -0.204 F 
ENDBRANCH  14  15
ENDBRANCH   3   7
BRANCH   4  22
HETATM   22  O4  UNL     1      -3.264  34.859 -24.862  1.00  0.00    -0.360 OA
ATOM     23  H4  UNL     1      -3.393  35.705 -25.274  1.00  0.00     0.217 HD
ENDBRANCH   4  22
BRANCH   1  24
HETATM   24  S1  UNL     1       1.720  32.390 -23.084  1.00  0.00     0.263 S 
HETATM   25  O1  UNL     1       1.576  30.876 -23.028  1.00  0.00    -0.200 OA
HETATM   26  O2  UNL     1       2.059  32.796 -21.655  1.00  0.00    -0.200 OA
BRANCH  24  27
HETATM   27  N1  UNL     1       3.048  32.753 -24.052  1.00  0.00    -0.307 N 
HETATM   28  C4  UNL     1       3.362  31.842 -25.090  1.00  0.00     0.163 C 
BRANCH  27  29
HETATM   29  C2  UNL     1       4.125  33.431 -23.437  1.00  0.00     0.087 C 
HETATM   30  C1  UNL     1       5.493  33.013 -23.943  1.00  0.00     0.032 C 
HETATM   31  C3  UNL     1       3.991  34.919 -23.726  1.00  0.00     0.032 C 
ENDBRANCH  27  29
ENDBRANCH  24  27
ENDBRANCH   1  24
BRANCH   6  32
HETATM   32  O5  UNL     1      -0.963  32.142 -21.727  1.00  0.00    -0.359 OA
ATOM     33  H5  UNL     1      -0.737  32.513 -20.881  1.00  0.00     0.217 HD
ENDBRANCH   6  32
TORSDOF 7
ENDMDL
