MODEL 6
REMARK VINA RESULT: -8.148243507      2.616      5.893
REMARK  7 active torsions:
REMARK  status: ('A' for Active; 'I' for Inactive)
REMARK    1  A    between atoms: C2_2  and  N1_4 
REMARK    2  A    between atoms: N1_4  and  S1_6 
REMARK    3  A    between atoms: S1_6  and  C5_9 
REMARK    4  A    between atoms: C7_11  and  C8_12 
REMARK    5  A    between atoms: N4_19  and  C10_20 
REMARK    6  A    between atoms: C16_27  and  O4_28 
REMARK    7  A    between atoms: C18_31  and  O5_32 
ROOT
HETATM    1  C5  UNL     1       0.093  36.349 -26.579  1.00  0.00     0.113 A 
HETATM    2  C6  UNL     1      -0.055  35.608 -25.404  1.00  0.00     0.046 A 
HETATM    3  C7  UNL     1      -1.082  34.742 -25.165  1.00  0.00     0.045 A 
HETATM    4  C16 UNL     1      -2.022  34.618 -26.186  1.00  0.00     0.082 A 
HETATM    5  C17 UNL     1      -1.877  35.362 -27.371  1.00  0.00     0.075 A 
HETATM    6  C18 UNL     1      -0.835  36.219 -27.572  1.00  0.00     0.091 A 
ENDROOT
BRANCH   3   7
HETATM    7  C8  UNL     1      -1.268  33.956 -23.957  1.00  0.00     0.144 A 
HETATM    8  N2  UNL     1      -2.428  33.859 -23.282  1.00  0.00    -0.280 N 
HETATM    9  N3  UNL     1      -2.330  33.098 -22.242  1.00  0.00    -0.249 N 
ATOM     10  H2  UNL     1      -3.289  34.331 -23.560  1.00  0.00     0.188 HD
HETATM   11  C9  UNL     1      -1.077  32.666 -22.206  1.00  0.00     0.347 A 
ATOM     12  H3  UNL     1      -3.072  32.875 -21.578  1.00  0.00     0.192 HD
HETATM   13  O3  UNL     1      -0.573  31.892 -21.335  1.00  0.00    -0.245 OA
HETATM   14  N4  UNL     1      -0.406  33.197 -23.275  1.00  0.00    -0.243 N 
BRANCH  14  15
HETATM   15  C10 UNL     1       0.955  32.924 -23.517  1.00  0.00     0.084 A 
HETATM   16  C11 UNL     1       1.949  33.779 -23.088  1.00  0.00     0.033 A 
HETATM   17  C12 UNL     1       3.295  33.479 -23.310  1.00  0.00     0.002 A 
HETATM   18  C13 UNL     1       3.659  32.322 -23.962  1.00  0.00     0.003 A 
HETATM   19  C14 UNL     1       2.670  31.472 -24.388  1.00  0.00     0.044 A 
HETATM   20  C15 UNL     1       1.319  31.766 -24.169  1.00  0.00     0.143 A 
HETATM   21  F1  UNL     1       0.357  30.912 -24.598  1.00  0.00    -0.204 F 
ENDBRANCH  14  15
ENDBRANCH   3   7
BRANCH   4  22
HETATM   22  O4  UNL     1      -3.111  33.814 -26.145  1.00  0.00    -0.360 OA
ATOM     23  H4  UNL     1      -3.349  33.186 -26.816  1.00  0.00     0.217 HD
ENDBRANCH   4  22
BRANCH   1  24
HETATM   24  S1  UNL     1       1.454  37.409 -26.733  1.00  0.00     0.263 S 
HETATM   25  O1  UNL     1       1.119  38.558 -27.674  1.00  0.00    -0.200 OA
HETATM   26  O2  UNL     1       2.624  36.696 -27.400  1.00  0.00    -0.200 OA
BRANCH  24  27
HETATM   27  N1  UNL     1       2.005  38.063 -25.284  1.00  0.00    -0.307 N 
HETATM   28  C4  UNL     1       2.725  37.204 -24.418  1.00  0.00     0.163 C 
BRANCH  27  29
HETATM   29  C2  UNL     1       1.206  39.064 -24.686  1.00  0.00     0.087 C 
HETATM   30  C1  UNL     1       0.616  38.671 -23.345  1.00  0.00     0.032 C 
HETATM   31  C3  UNL     1       2.070  40.291 -24.438  1.00  0.00     0.032 C 
ENDBRANCH  27  29
ENDBRANCH  24  27
ENDBRANCH   1  24
BRANCH   6  32
HETATM   32  O5  UNL     1      -0.719  36.954 -28.777  1.00  0.00    -0.359 OA
ATOM     33  H5  UNL     1      -1.239  36.727 -29.539  1.00  0.00     0.217 HD
ENDBRANCH   6  32
TORSDOF 7
ENDMDL
