MODEL 5
REMARK VINA RESULT: -8.219348339      2.823      4.728
REMARK  7 active torsions:
REMARK  status: ('A' for Active; 'I' for Inactive)
REMARK    1  A    between atoms: C2_2  and  N1_4 
REMARK    2  A    between atoms: N1_4  and  S1_6 
REMARK    3  A    between atoms: S1_6  and  C5_9 
REMARK    4  A    between atoms: C7_11  and  C8_12 
REMARK    5  A    between atoms: N4_19  and  C10_20 
REMARK    6  A    between atoms: C16_27  and  O4_28 
REMARK    7  A    between atoms: C18_31  and  O5_32 
ROOT
HETATM    1  C5  UNL     1       2.716  37.446 -23.437  1.00  0.00     0.113 A 
HETATM    2  C6  UNL     1       2.015  36.812 -24.466  1.00  0.00     0.046 A 
HETATM    3  C7  UNL     1       0.813  37.237 -24.953  1.00  0.00     0.045 A 
HETATM    4  C16 UNL     1       0.287  38.382 -24.359  1.00  0.00     0.082 A 
HETATM    5  C17 UNL     1       0.990  39.024 -23.322  1.00  0.00     0.075 A 
HETATM    6  C18 UNL     1       2.189  38.567 -22.862  1.00  0.00     0.091 A 
ENDROOT
BRANCH   3   7
HETATM    7  C8  UNL     1       0.057  36.604 -26.020  1.00  0.00     0.144 A 
HETATM    8  N2  UNL     1      -0.161  37.152 -27.230  1.00  0.00    -0.280 N 
HETATM    9  N3  UNL     1      -0.863  36.387 -27.999  1.00  0.00    -0.249 N 
ATOM     10  H2  UNL     1       0.189  38.069 -27.510  1.00  0.00     0.188 HD
HETATM   11  C9  UNL     1      -1.129  35.291 -27.299  1.00  0.00     0.347 A 
ATOM     12  H3  UNL     1      -1.155  36.586 -28.955  1.00  0.00     0.192 HD
HETATM   13  O3  UNL     1      -1.800  34.289 -27.698  1.00  0.00    -0.245 OA
HETATM   14  N4  UNL     1      -0.558  35.419 -26.062  1.00  0.00    -0.243 N 
BRANCH  14  15
HETATM   15  C10 UNL     1      -0.664  34.414 -25.080  1.00  0.00     0.084 A 
HETATM   16  C11 UNL     1       0.410  33.618 -24.743  1.00  0.00     0.033 A 
HETATM   17  C12 UNL     1       0.297  32.645 -23.747  1.00  0.00     0.002 A 
HETATM   18  C13 UNL     1      -0.893  32.462 -23.077  1.00  0.00     0.003 A 
HETATM   19  C14 UNL     1      -1.962  33.254 -23.412  1.00  0.00     0.044 A 
HETATM   20  C15 UNL     1      -1.855  34.231 -24.410  1.00  0.00     0.143 A 
HETATM   21  F1  UNL     1      -2.923  35.003 -24.725  1.00  0.00    -0.204 F 
ENDBRANCH  14  15
ENDBRANCH   3   7
BRANCH   4  22
HETATM   22  O4  UNL     1      -0.889  38.962 -24.697  1.00  0.00    -0.360 OA
ATOM     23  H4  UNL     1      -1.658  38.998 -24.141  1.00  0.00     0.217 HD
ENDBRANCH   4  22
BRANCH   1  24
HETATM   24  S1  UNL     1       4.232  36.784 -22.927  1.00  0.00     0.263 S 
HETATM   25  O1  UNL     1       4.321  36.787 -21.408  1.00  0.00    -0.200 OA
HETATM   26  O2  UNL     1       5.389  37.666 -23.381  1.00  0.00    -0.200 OA
BRANCH  24  27
HETATM   27  N1  UNL     1       4.534  35.219 -23.466  1.00  0.00    -0.307 N 
HETATM   28  C4  UNL     1       3.649  34.202 -23.032  1.00  0.00     0.163 C 
BRANCH  27  29
HETATM   29  C2  UNL     1       5.886  34.858 -23.668  1.00  0.00     0.087 C 
HETATM   30  C1  UNL     1       6.705  34.777 -22.392  1.00  0.00     0.032 C 
HETATM   31  C3  UNL     1       5.931  33.476 -24.301  1.00  0.00     0.032 C 
ENDBRANCH  27  29
ENDBRANCH  24  27
ENDBRANCH   1  24
BRANCH   6  32
HETATM   32  O5  UNL     1       2.871  39.237 -21.817  1.00  0.00    -0.359 OA
ATOM     33  H5  UNL     1       2.507  39.269 -20.939  1.00  0.00     0.217 HD
ENDBRANCH   6  32
TORSDOF 7
ENDMDL
