MODEL 2
REMARK VINA RESULT: -9.072118732      0.499      1.294
REMARK  9 active torsions:
REMARK  status: ('A' for Active; 'I' for Inactive)
REMARK    1  A    between atoms: C7_7  and  N1_8 
REMARK    2  A    between atoms: C8_9  and  C9_10 
REMARK    3  A    between atoms: C11_12  and  C12_13 
REMARK    4  A    between atoms: C12_13  and  O1_14 
REMARK    5  A    between atoms: C12_13  and  N2_16 
REMARK    6  A    between atoms: N2_16  and  C14_18 
REMARK    7  A    between atoms: C14_18  and  C15_19 
REMARK    8  A    between atoms: C19_24  and  O2_25 
REMARK    9  A    between atoms: C21_28  and  O3_29 
ROOT
HETATM    1  C9  UNL     1     -32.676 -10.862  25.177  1.00  0.00     0.044 A 
HETATM    2  C10 UNL     1     -33.914 -11.433  24.826  1.00  0.00     0.037 A 
HETATM    3  C11 UNL     1     -34.137 -12.244  23.743  1.00  0.00     0.049 A 
HETATM    4  C19 UNL     1     -33.034 -12.517  22.928  1.00  0.00     0.082 A 
HETATM    5  C20 UNL     1     -31.818 -11.949  23.279  1.00  0.00     0.075 A 
HETATM    6  C21 UNL     1     -31.619 -11.144  24.368  1.00  0.00     0.082 A 
ENDROOT
BRANCH   1   7
HETATM    7  C8  UNL     1     -32.597 -10.064  26.386  1.00  0.00     0.144 A 
HETATM    8  N1  UNL     1     -33.302  -9.050  26.849  1.00  0.00    -0.246 N 
HETATM    9  C22 UNL     1     -32.841  -8.707  28.102  1.00  0.00     0.347 A 
HETATM   10  N4  UNL     1     -31.853  -9.520  28.398  1.00  0.00    -0.249 N 
HETATM   11  O4  UNL     1     -33.280  -7.777  28.849  1.00  0.00    -0.245 OA
HETATM   12  N3  UNL     1     -31.693 -10.338  27.383  1.00  0.00    -0.280 N 
ATOM     13  H4  UNL     1     -31.308  -9.517  29.260  1.00  0.00     0.192 HD
ATOM     14  H3  UNL     1     -30.992 -11.078  27.341  1.00  0.00     0.188 HD
BRANCH   8  15
HETATM   15  C7  UNL     1     -34.415  -8.362  26.299  1.00  0.00     0.051 A 
HETATM   16  C2  UNL     1     -34.195  -7.281  25.465  1.00  0.00    -0.035 A 
HETATM   17  C1  UNL     1     -32.810  -6.874  25.112  1.00  0.00     0.050 C 
HETATM   18  C3  UNL     1     -35.233  -6.545  24.930  1.00  0.00     0.009 A 
HETATM   19  C4  UNL     1     -36.535  -6.887  25.229  1.00  0.00     0.001 A 
HETATM   20  C5  UNL     1     -36.747  -7.962  26.060  1.00  0.00     0.002 A 
HETATM   21  C6  UNL     1     -35.709  -8.719  26.609  1.00  0.00     0.031 A 
ENDBRANCH   8  15
ENDBRANCH   1   7
BRANCH   6  22
HETATM   22  O3  UNL     1     -30.335 -10.649  24.604  1.00  0.00    -0.360 OA
ATOM     23  H3  UNL     1     -29.755 -11.019  25.259  1.00  0.00     0.217 HD
ENDBRANCH   6  22
BRANCH   3  24
HETATM   24  C12 UNL     1     -35.455 -12.701  23.367  1.00  0.00     0.151 C 
BRANCH  24  25
HETATM   25  O1  UNL     1     -35.957 -12.046  22.358  1.00  0.00    -0.345 OA
ATOM     26  H1  UNL     1     -35.615 -12.332  21.519  1.00  0.00     0.219 HD
ENDBRANCH  24  25
BRANCH  24  27
HETATM   27  N2  UNL     1     -36.267 -13.711  23.890  1.00  0.00    -0.361 N 
HETATM   28  C13 UNL     1     -35.549 -14.805  24.635  1.00  0.00     0.152 C 
BRANCH  27  29
HETATM   29  C14 UNL     1     -37.692 -13.797  23.892  1.00  0.00     0.170 C 
BRANCH  29  30
HETATM   30  C15 UNL     1     -38.167 -13.252  25.232  1.00  0.00     0.000 A 
HETATM   31  C16 UNL     1     -38.111 -11.964  25.681  1.00  0.00     0.017 A 
HETATM   32  C17 UNL     1     -38.592 -11.717  26.904  1.00  0.00     0.008 A 
HETATM   33  C18 UNL     1     -39.101 -12.776  27.608  1.00  0.00     0.050 A 
HETATM   34  S1  UNL     1     -38.887 -14.083  26.528  1.00  0.00    -0.105 SA
ENDBRANCH  29  30
ENDBRANCH  27  29
ENDBRANCH  24  27
ENDBRANCH   3  24
BRANCH   4  35
HETATM   35  O2  UNL     1     -33.113 -13.319  21.815  1.00  0.00    -0.360 OA
ATOM     36  H2  UNL     1     -32.462 -13.304  21.123  1.00  0.00     0.217 HD
ENDBRANCH   4  35
TORSDOF 9
ENDMDL
