MODEL 5
REMARK VINA RESULT: -8.162077034      2.873      6.350
REMARK  9 active torsions:
REMARK  status: ('A' for Active; 'I' for Inactive)
REMARK    1  A    between atoms: C7_7  and  N1_8 
REMARK    2  A    between atoms: C8_9  and  C9_10 
REMARK    3  A    between atoms: C11_12  and  C12_13 
REMARK    4  A    between atoms: C12_13  and  O1_14 
REMARK    5  A    between atoms: C12_13  and  N2_16 
REMARK    6  A    between atoms: N2_16  and  C14_18 
REMARK    7  A    between atoms: C14_18  and  C15_19 
REMARK    8  A    between atoms: C19_24  and  O2_25 
REMARK    9  A    between atoms: C21_28  and  O3_29 
ROOT
HETATM    1  C9  UNL     1     -33.020 -10.456  25.334  1.00  0.00     0.044 A 
HETATM    2  C10 UNL     1     -34.104  -9.558  25.325  1.00  0.00     0.037 A 
HETATM    3  C11 UNL     1     -34.397  -8.656  26.315  1.00  0.00     0.049 A 
HETATM    4  C19 UNL     1     -33.539  -8.639  27.420  1.00  0.00     0.082 A 
HETATM    5  C20 UNL     1     -32.475  -9.529  27.422  1.00  0.00     0.075 A 
HETATM    6  C21 UNL     1     -32.201 -10.420  26.420  1.00  0.00     0.082 A 
ENDROOT
BRANCH   1   7
HETATM    7  C8  UNL     1     -32.820 -11.316  24.182  1.00  0.00     0.144 A 
HETATM    8  N1  UNL     1     -33.619 -12.112  23.497  1.00  0.00    -0.246 N 
HETATM    9  C22 UNL     1     -32.927 -12.647  22.432  1.00  0.00     0.347 A 
HETATM   10  N4  UNL     1     -31.703 -12.170  22.473  1.00  0.00    -0.249 N 
HETATM   11  O4  UNL     1     -33.374 -13.456  21.559  1.00  0.00    -0.245 OA
HETATM   12  N3  UNL     1     -31.622 -11.372  23.513  1.00  0.00    -0.280 N 
ATOM     13  H4  UNL     1     -30.952 -12.381  21.816  1.00  0.00     0.192 HD
ATOM     14  H3  UNL     1     -30.782 -10.863  23.788  1.00  0.00     0.188 HD
BRANCH   8  15
HETATM   15  C7  UNL     1     -34.995 -12.417  23.663  1.00  0.00     0.051 A 
HETATM   16  C2  UNL     1     -35.354 -13.646  24.184  1.00  0.00    -0.035 A 
HETATM   17  C1  UNL     1     -34.311 -14.617  24.608  1.00  0.00     0.050 C 
HETATM   18  C3  UNL     1     -36.674 -14.021  24.334  1.00  0.00     0.009 A 
HETATM   19  C4  UNL     1     -37.675 -13.153  23.955  1.00  0.00     0.001 A 
HETATM   20  C5  UNL     1     -37.311 -11.932  23.436  1.00  0.00     0.002 A 
HETATM   21  C6  UNL     1     -35.981 -11.535  23.279  1.00  0.00     0.031 A 
ENDBRANCH   8  15
ENDBRANCH   1   7
BRANCH   6  22
HETATM   22  O3  UNL     1     -31.087 -11.250  26.554  1.00  0.00    -0.360 OA
ATOM     23  H3  UNL     1     -30.368 -11.250  25.932  1.00  0.00     0.217 HD
ENDBRANCH   6  22
BRANCH   3  24
HETATM   24  C12 UNL     1     -35.591  -7.845  26.305  1.00  0.00     0.151 C 
BRANCH  24  25
HETATM   25  O1  UNL     1     -36.169  -7.766  27.472  1.00  0.00    -0.345 OA
ATOM     26  H1  UNL     1     -35.808  -8.371  28.109  1.00  0.00     0.219 HD
ENDBRANCH  24  25
BRANCH  24  27
HETATM   27  N2  UNL     1     -36.221  -7.139  25.276  1.00  0.00    -0.361 N 
HETATM   28  C13 UNL     1     -35.344  -6.185  24.510  1.00  0.00     0.152 C 
BRANCH  27  29
HETATM   29  C14 UNL     1     -37.559  -7.269  24.796  1.00  0.00     0.170 C 
BRANCH  29  30
HETATM   30  C15 UNL     1     -38.262  -5.949  25.078  1.00  0.00     0.000 A 
HETATM   31  C16 UNL     1     -38.504  -5.370  26.290  1.00  0.00     0.017 A 
HETATM   32  C17 UNL     1     -39.145  -4.196  26.295  1.00  0.00     0.008 A 
HETATM   33  C18 UNL     1     -39.509  -3.671  25.084  1.00  0.00     0.050 A 
HETATM   34  S1  UNL     1     -38.937  -4.842  23.978  1.00  0.00    -0.105 SA
ENDBRANCH  29  30
ENDBRANCH  27  29
ENDBRANCH  24  27
ENDBRANCH   3  24
BRANCH   4  35
HETATM   35  O2  UNL     1     -33.710  -7.783  28.481  1.00  0.00    -0.360 OA
ATOM     36  H2  UNL     1     -34.545  -7.669  28.921  1.00  0.00     0.217 HD
ENDBRANCH   4  35
TORSDOF 9
ENDMDL
