MODEL 3
REMARK VINA RESULT: -8.398351303      2.708      6.276
REMARK  9 active torsions:
REMARK  status: ('A' for Active; 'I' for Inactive)
REMARK    1  A    between atoms: C7_7  and  N1_8 
REMARK    2  A    between atoms: C8_9  and  C9_10 
REMARK    3  A    between atoms: C11_12  and  C12_13 
REMARK    4  A    between atoms: C12_13  and  O1_14 
REMARK    5  A    between atoms: C12_13  and  N2_16 
REMARK    6  A    between atoms: N2_16  and  C14_18 
REMARK    7  A    between atoms: C14_18  and  C15_19 
REMARK    8  A    between atoms: C19_24  and  O2_25 
REMARK    9  A    between atoms: C21_28  and  O3_29 
ROOT
HETATM    1  C9  UNL     1     -32.628 -10.720  25.472  1.00  0.00     0.044 A 
HETATM    2  C10 UNL     1     -33.825 -10.012  25.695  1.00  0.00     0.037 A 
HETATM    3  C11 UNL     1     -34.094  -9.233  26.792  1.00  0.00     0.049 A 
HETATM    4  C19 UNL     1     -33.089  -9.146  27.760  1.00  0.00     0.082 A 
HETATM    5  C20 UNL     1     -31.914  -9.848  27.533  1.00  0.00     0.075 A 
HETATM    6  C21 UNL     1     -31.666 -10.618  26.429  1.00  0.00     0.082 A 
ENDROOT
BRANCH   1   7
HETATM    7  C8  UNL     1     -32.481 -11.461  24.233  1.00  0.00     0.144 A 
HETATM    8  N1  UNL     1     -33.324 -12.136  23.476  1.00  0.00    -0.246 N 
HETATM    9  C22 UNL     1     -32.667 -12.591  22.353  1.00  0.00     0.347 A 
HETATM   10  N4  UNL     1     -31.420 -12.185  22.432  1.00  0.00    -0.249 N 
HETATM   11  O4  UNL     1     -33.161 -13.278  21.404  1.00  0.00    -0.245 OA
HETATM   12  N3  UNL     1     -31.291 -11.509  23.549  1.00  0.00    -0.280 N 
ATOM     13  H4  UNL     1     -30.685 -12.365  21.748  1.00  0.00     0.192 HD
ATOM     14  H3  UNL     1     -30.423 -11.076  23.867  1.00  0.00     0.188 HD
BRANCH   8  15
HETATM   15  C7  UNL     1     -34.714 -12.385  23.625  1.00  0.00     0.051 A 
HETATM   16  C2  UNL     1     -35.130 -13.607  24.121  1.00  0.00    -0.035 A 
HETATM   17  C1  UNL     1     -34.134 -14.628  24.538  1.00  0.00     0.050 C 
HETATM   18  C3  UNL     1     -36.467 -13.927  24.252  1.00  0.00     0.009 A 
HETATM   19  C4  UNL     1     -37.426 -13.010  23.878  1.00  0.00     0.001 A 
HETATM   20  C5  UNL     1     -37.005 -11.798  23.384  1.00  0.00     0.002 A 
HETATM   21  C6  UNL     1     -35.658 -11.456  23.246  1.00  0.00     0.031 A 
ENDBRANCH   8  15
ENDBRANCH   1   7
BRANCH   6  22
HETATM   22  O3  UNL     1     -30.432 -11.262  26.330  1.00  0.00    -0.360 OA
ATOM     23  H3  UNL     1     -29.627 -10.884  26.666  1.00  0.00     0.217 HD
ENDBRANCH   6  22
BRANCH   3  24
HETATM   24  C12 UNL     1     -35.386  -8.629  27.022  1.00  0.00     0.151 C 
BRANCH  24  25
HETATM   25  O1  UNL     1     -35.793  -8.744  28.256  1.00  0.00    -0.345 OA
ATOM     26  H1  UNL     1     -36.703  -8.496  28.374  1.00  0.00     0.219 HD
ENDBRANCH  24  25
BRANCH  24  27
HETATM   27  N2  UNL     1     -36.256  -7.951  26.164  1.00  0.00    -0.361 N 
HETATM   28  C13 UNL     1     -37.220  -8.816  25.398  1.00  0.00     0.152 C 
BRANCH  27  29
HETATM   29  C14 UNL     1     -36.415  -6.543  25.987  1.00  0.00     0.170 C 
BRANCH  29  30
HETATM   30  C15 UNL     1     -35.962  -6.221  24.570  1.00  0.00     0.000 A 
HETATM   31  C16 UNL     1     -34.737  -6.441  24.011  1.00  0.00     0.017 A 
HETATM   32  C17 UNL     1     -34.567  -6.071  22.736  1.00  0.00     0.008 A 
HETATM   33  C18 UNL     1     -35.635  -5.500  22.097  1.00  0.00     0.050 A 
HETATM   34  S1  UNL     1     -36.843  -5.502  23.306  1.00  0.00    -0.105 SA
ENDBRANCH  29  30
ENDBRANCH  27  29
ENDBRANCH  24  27
ENDBRANCH   3  24
BRANCH   4  35
HETATM   35  O2  UNL     1     -33.222  -8.397  28.904  1.00  0.00    -0.360 OA
ATOM     36  H2  UNL     1     -33.225  -8.782  29.773  1.00  0.00     0.217 HD
ENDBRANCH   4  35
TORSDOF 9
ENDMDL
