MODEL 4
REMARK VINA RESULT: -8.285416624      2.760      6.214
REMARK  9 active torsions:
REMARK  status: ('A' for Active; 'I' for Inactive)
REMARK    1  A    between atoms: C7_7  and  N1_8 
REMARK    2  A    between atoms: C8_9  and  C9_10 
REMARK    3  A    between atoms: C11_12  and  C12_13 
REMARK    4  A    between atoms: C12_13  and  O1_14 
REMARK    5  A    between atoms: C12_13  and  N2_16 
REMARK    6  A    between atoms: N2_16  and  C14_18 
REMARK    7  A    between atoms: C14_18  and  C15_19 
REMARK    8  A    between atoms: C19_24  and  O2_25 
REMARK    9  A    between atoms: C21_28  and  O3_29 
ROOT
HETATM    1  C9  UNL     1     -32.730 -10.513  25.442  1.00  0.00     0.044 A 
HETATM    2  C10 UNL     1     -33.855  -9.667  25.483  1.00  0.00     0.037 A 
HETATM    3  C11 UNL     1     -34.168  -8.811  26.508  1.00  0.00     0.049 A 
HETATM    4  C19 UNL     1     -33.288  -8.787  27.595  1.00  0.00     0.082 A 
HETATM    5  C20 UNL     1     -32.184  -9.625  27.547  1.00  0.00     0.075 A 
HETATM    6  C21 UNL     1     -31.890 -10.471  26.512  1.00  0.00     0.082 A 
ENDROOT
BRANCH   1   7
HETATM    7  C8  UNL     1     -32.516 -11.326  24.260  1.00  0.00     0.144 A 
HETATM    8  N1  UNL     1     -33.314 -12.059  23.508  1.00  0.00    -0.246 N 
HETATM    9  C22 UNL     1     -32.600 -12.571  22.446  1.00  0.00     0.347 A 
HETATM   10  N4  UNL     1     -31.363 -12.143  22.556  1.00  0.00    -0.249 N 
HETATM   11  O4  UNL     1     -33.041 -13.322  21.520  1.00  0.00    -0.245 OA
HETATM   12  N3  UNL     1     -31.295 -11.397  23.635  1.00  0.00    -0.280 N 
ATOM     13  H4  UNL     1     -30.594 -12.352  21.919  1.00  0.00     0.192 HD
ATOM     14  H3  UNL     1     -30.448 -10.933  23.965  1.00  0.00     0.188 HD
BRANCH   8  15
HETATM   15  C7  UNL     1     -34.706 -12.320  23.607  1.00  0.00     0.051 A 
HETATM   16  C2  UNL     1     -35.129 -13.545  24.090  1.00  0.00    -0.035 A 
HETATM   17  C1  UNL     1     -34.140 -14.557  24.541  1.00  0.00     0.050 C 
HETATM   18  C3  UNL     1     -36.467 -13.877  24.173  1.00  0.00     0.009 A 
HETATM   19  C4  UNL     1     -37.420 -12.968  23.766  1.00  0.00     0.001 A 
HETATM   20  C5  UNL     1     -36.992 -11.752  23.287  1.00  0.00     0.002 A 
HETATM   21  C6  UNL     1     -35.644 -11.399  23.196  1.00  0.00     0.031 A 
ENDBRANCH   8  15
ENDBRANCH   1   7
BRANCH   6  22
HETATM   22  O3  UNL     1     -30.736 -11.251  26.596  1.00  0.00    -0.360 OA
ATOM     23  H3  UNL     1     -30.464 -11.682  27.398  1.00  0.00     0.217 HD
ENDBRANCH   6  22
BRANCH   3  24
HETATM   24  C12 UNL     1     -35.399  -8.057  26.548  1.00  0.00     0.151 C 
BRANCH  24  25
HETATM   25  O1  UNL     1     -36.236  -8.488  27.451  1.00  0.00    -0.345 OA
ATOM     26  H1  UNL     1     -37.040  -7.984  27.486  1.00  0.00     0.219 HD
ENDBRANCH  24  25
BRANCH  24  27
HETATM   27  N2  UNL     1     -35.837  -6.962  25.799  1.00  0.00    -0.361 N 
HETATM   28  C13 UNL     1     -37.020  -6.219  26.362  1.00  0.00     0.152 C 
BRANCH  27  29
HETATM   29  C14 UNL     1     -35.258  -6.398  24.623  1.00  0.00     0.170 C 
BRANCH  29  30
HETATM   30  C15 UNL     1     -36.178  -6.749  23.462  1.00  0.00     0.000 A 
HETATM   31  C16 UNL     1     -36.961  -7.857  23.320  1.00  0.00     0.017 A 
HETATM   32  C17 UNL     1     -37.693  -7.954  22.204  1.00  0.00     0.008 A 
HETATM   33  C18 UNL     1     -37.596  -6.935  21.295  1.00  0.00     0.050 A 
HETATM   34  S1  UNL     1     -36.481  -5.874  22.037  1.00  0.00    -0.105 SA
ENDBRANCH  29  30
ENDBRANCH  27  29
ENDBRANCH  24  27
ENDBRANCH   3  24
BRANCH   4  35
HETATM   35  O2  UNL     1     -33.476  -7.973  28.686  1.00  0.00    -0.360 OA
ATOM     36  H2  UNL     1     -33.797  -8.296  29.520  1.00  0.00     0.217 HD
ENDBRANCH   4  35
TORSDOF 9
ENDMDL
