MODEL 1
REMARK VINA RESULT: -9.130684388      0.000      0.000
REMARK  9 active torsions:
REMARK  status: ('A' for Active; 'I' for Inactive)
REMARK    1  A    between atoms: C7_7  and  N1_8 
REMARK    2  A    between atoms: C8_9  and  C9_10 
REMARK    3  A    between atoms: C11_12  and  C12_13 
REMARK    4  A    between atoms: C12_13  and  O1_14 
REMARK    5  A    between atoms: C12_13  and  N2_16 
REMARK    6  A    between atoms: N2_16  and  C14_18 
REMARK    7  A    between atoms: C14_18  and  C15_19 
REMARK    8  A    between atoms: C19_24  and  O2_25 
REMARK    9  A    between atoms: C21_28  and  O3_29 
ROOT
HETATM    1  C9  UNL     1     -32.701 -10.684  25.139  1.00  0.00     0.044 A 
HETATM    2  C10 UNL     1     -33.940 -11.264  24.810  1.00  0.00     0.037 A 
HETATM    3  C11 UNL     1     -34.155 -12.151  23.786  1.00  0.00     0.049 A 
HETATM    4  C19 UNL     1     -33.042 -12.497  23.014  1.00  0.00     0.082 A 
HETATM    5  C20 UNL     1     -31.825 -11.919  23.344  1.00  0.00     0.075 A 
HETATM    6  C21 UNL     1     -31.633 -11.037  24.373  1.00  0.00     0.082 A 
ENDROOT
BRANCH   1   7
HETATM    7  C8  UNL     1     -32.632  -9.798  26.287  1.00  0.00     0.144 A 
HETATM    8  N1  UNL     1     -33.098  -8.587  26.525  1.00  0.00    -0.246 N 
HETATM    9  C22 UNL     1     -32.807  -8.233  27.825  1.00  0.00     0.347 A 
HETATM   10  N4  UNL     1     -32.163  -9.237  28.375  1.00  0.00    -0.249 N 
HETATM   11  O4  UNL     1     -33.100  -7.139  28.403  1.00  0.00    -0.245 OA
HETATM   12  N3  UNL     1     -32.050 -10.181  27.470  1.00  0.00    -0.280 N 
ATOM     13  H4  UNL     1     -31.815  -9.276  29.333  1.00  0.00     0.192 HD
ATOM     14  H3  UNL     1     -31.591 -11.079  27.625  1.00  0.00     0.188 HD
BRANCH   8  15
HETATM   15  C7  UNL     1     -33.847  -7.700  25.707  1.00  0.00     0.051 A 
HETATM   16  C2  UNL     1     -35.227  -7.771  25.726  1.00  0.00    -0.035 A 
HETATM   17  C1  UNL     1     -35.919  -8.730  26.626  1.00  0.00     0.050 C 
HETATM   18  C3  UNL     1     -36.013  -6.965  24.925  1.00  0.00     0.009 A 
HETATM   19  C4  UNL     1     -35.414  -6.060  24.075  1.00  0.00     0.001 A 
HETATM   20  C5  UNL     1     -34.040  -5.996  24.061  1.00  0.00     0.002 A 
HETATM   21  C6  UNL     1     -33.230  -6.802  24.865  1.00  0.00     0.031 A 
ENDBRANCH   8  15
ENDBRANCH   1   7
BRANCH   6  22
HETATM   22  O3  UNL     1     -30.348 -10.542  24.595  1.00  0.00    -0.360 OA
ATOM     23  H3  UNL     1     -29.572 -11.088  24.548  1.00  0.00     0.217 HD
ENDBRANCH   6  22
BRANCH   3  24
HETATM   24  C12 UNL     1     -35.472 -12.620  23.422  1.00  0.00     0.151 C 
BRANCH  24  25
HETATM   25  O1  UNL     1     -36.012 -11.932  22.454  1.00  0.00    -0.345 OA
ATOM     26  H1  UNL     1     -36.905 -11.666  22.637  1.00  0.00     0.219 HD
ENDBRANCH  24  25
BRANCH  24  27
HETATM   27  N2  UNL     1     -36.251 -13.669  23.918  1.00  0.00    -0.361 N 
HETATM   28  C13 UNL     1     -35.496 -14.760  24.630  1.00  0.00     0.152 C 
BRANCH  27  29
HETATM   29  C14 UNL     1     -37.672 -13.797  23.923  1.00  0.00     0.170 C 
BRANCH  29  30
HETATM   30  C15 UNL     1     -38.163 -13.251  25.256  1.00  0.00     0.000 A 
HETATM   31  C16 UNL     1     -38.132 -11.959  25.695  1.00  0.00     0.017 A 
HETATM   32  C17 UNL     1     -38.623 -11.711  26.914  1.00  0.00     0.008 A 
HETATM   33  C18 UNL     1     -39.117 -12.774  27.624  1.00  0.00     0.050 A 
HETATM   34  S1  UNL     1     -38.875 -14.085  26.555  1.00  0.00    -0.105 SA
ENDBRANCH  29  30
ENDBRANCH  27  29
ENDBRANCH  24  27
ENDBRANCH   3  24
BRANCH   4  35
HETATM   35  O2  UNL     1     -33.112 -13.379  21.962  1.00  0.00    -0.360 OA
ATOM     36  H2  UNL     1     -33.445 -13.134  21.107  1.00  0.00     0.217 HD
ENDBRANCH   4  35
TORSDOF 9
ENDMDL
