MODEL 1
REMARK VINA RESULT: -8.192017439      0.000      0.000
REMARK  3 active torsions:
REMARK  status: ('A' for Active; 'I' for Inactive)
REMARK    1  A    between atoms: C6_12  and  O2_13 
REMARK    2  A    between atoms: C8_16  and  O3_17 
REMARK    3  A    between atoms: N3_19  and  C9_20 
ROOT
HETATM    1  O1  UNL     1     -46.733   4.401  17.306  1.00  0.00    -0.245 OA
HETATM    2  C1  UNL     1     -45.496   4.357  17.396  1.00  0.00     0.347 A 
HETATM    3  N1  UNL     1     -44.752   4.192  18.486  1.00  0.00    -0.249 N 
ATOM      4  H1  UNL     1     -45.092   4.075  19.441  1.00  0.00     0.192 HD
HETATM    5  N2  UNL     1     -43.515   4.210  18.109  1.00  0.00    -0.280 N 
ATOM      6  H2  UNL     1     -42.723   4.105  18.743  1.00  0.00     0.188 HD
HETATM    7  C2  UNL     1     -43.396   4.388  16.757  1.00  0.00     0.144 A 
HETATM    8  C3  UNL     1     -42.128   4.444  16.085  1.00  0.00     0.044 A 
HETATM    9  C4  UNL     1     -41.941   4.618  14.751  1.00  0.00     0.040 A 
HETATM   10  C5  UNL     1     -40.680   4.666  14.145  1.00  0.00     0.045 A 
HETATM   11 BR1  UNL     1     -40.486   4.911  12.272  1.00  0.00    -0.048 Br
HETATM   12  C6  UNL     1     -39.561   4.534  14.914  1.00  0.00     0.085 A 
HETATM   13  C7  UNL     1     -39.693   4.358  16.266  1.00  0.00     0.075 A 
HETATM   14  C8  UNL     1     -40.945   4.316  16.822  1.00  0.00     0.082 A 
HETATM   15  N3  UNL     1     -44.645   4.476  16.331  1.00  0.00    -0.243 N 
ENDROOT
BRANCH  15  16
HETATM   16  C9  UNL     1     -45.086   4.661  15.034  1.00  0.00     0.084 A 
HETATM   17  C10 UNL     1     -45.437   3.595  14.246  1.00  0.00     0.033 A 
HETATM   18  C11 UNL     1     -45.898   3.748  12.951  1.00  0.00     0.002 A 
HETATM   19  C12 UNL     1     -46.009   5.025  12.425  1.00  0.00     0.003 A 
HETATM   20  C13 UNL     1     -45.660   6.122  13.203  1.00  0.00     0.044 A 
HETATM   21  C14 UNL     1     -45.196   5.927  14.513  1.00  0.00     0.143 A 
HETATM   22  F1  UNL     1     -44.879   7.056  15.194  1.00  0.00    -0.204 F 
ENDBRANCH  15  16
BRANCH  14  23
HETATM   23  O3  UNL     1     -41.035   4.135  18.194  1.00  0.00    -0.360 OA
ATOM     24  H3  UNL     1     -41.363   3.305  18.522  1.00  0.00     0.217 HD
ENDBRANCH  14  23
BRANCH  12  25
HETATM   25  O2  UNL     1     -38.282   4.573  14.379  1.00  0.00    -0.359 OA
ATOM     26  H2  UNL     1     -37.865   3.808  14.000  1.00  0.00     0.217 HD
ENDBRANCH  12  25
TORSDOF 3
ENDMDL
