MODEL 2
REMARK VINA RESULT: -8.118320519      1.041      1.450
REMARK  3 active torsions:
REMARK  status: ('A' for Active; 'I' for Inactive)
REMARK    1  A    between atoms: C6_12  and  O2_13 
REMARK    2  A    between atoms: C8_16  and  O3_17 
REMARK    3  A    between atoms: N3_19  and  C9_20 
ROOT
HETATM    1  O1  UNL     1     -46.696   4.310  17.504  1.00  0.00    -0.245 OA
HETATM    2  C1  UNL     1     -45.457   4.277  17.561  1.00  0.00     0.347 A 
HETATM    3  N1  UNL     1     -44.683   4.108  18.629  1.00  0.00    -0.249 N 
ATOM      4  H1  UNL     1     -44.996   3.975  19.590  1.00  0.00     0.192 HD
HETATM    5  N2  UNL     1     -43.456   4.142  18.219  1.00  0.00    -0.280 N 
ATOM      6  H2  UNL     1     -42.647   4.037  18.831  1.00  0.00     0.188 HD
HETATM    7  C2  UNL     1     -43.375   4.337  16.867  1.00  0.00     0.144 A 
HETATM    8  C3  UNL     1     -42.126   4.414  16.163  1.00  0.00     0.044 A 
HETATM    9  C4  UNL     1     -41.976   4.605  14.826  1.00  0.00     0.040 A 
HETATM   10  C5  UNL     1     -40.732   4.673  14.188  1.00  0.00     0.045 A 
HETATM   11 BR1  UNL     1     -40.590   4.942  12.313  1.00  0.00    -0.048 Br
HETATM   12  C6  UNL     1     -39.592   4.543  14.926  1.00  0.00     0.085 A 
HETATM   13  C7  UNL     1     -39.686   4.350  16.279  1.00  0.00     0.075 A 
HETATM   14  C8  UNL     1     -40.923   4.289  16.867  1.00  0.00     0.082 A 
HETATM   15  N3  UNL     1     -44.636   4.418  16.475  1.00  0.00    -0.243 N 
ENDROOT
BRANCH  15  16
HETATM   16  C9  UNL     1     -45.112   4.613  15.192  1.00  0.00     0.084 A 
HETATM   17  C10 UNL     1     -45.389   5.872  14.723  1.00  0.00     0.033 A 
HETATM   18  C11 UNL     1     -45.849   6.102  13.439  1.00  0.00     0.002 A 
HETATM   19  C12 UNL     1     -46.039   5.023  12.591  1.00  0.00     0.003 A 
HETATM   20  C13 UNL     1     -45.766   3.738  13.042  1.00  0.00     0.044 A 
HETATM   21  C14 UNL     1     -45.301   3.543  14.352  1.00  0.00     0.143 A 
HETATM   22  F1  UNL     1     -45.062   2.255  14.702  1.00  0.00    -0.204 F 
ENDBRANCH  15  16
BRANCH  14  23
HETATM   23  O3  UNL     1     -40.975   4.091  18.239  1.00  0.00    -0.360 OA
ATOM     24  H3  UNL     1     -40.277   3.596  18.652  1.00  0.00     0.217 HD
ENDBRANCH  14  23
BRANCH  12  25
HETATM   25  O2  UNL     1     -38.327   4.601  14.358  1.00  0.00    -0.359 OA
ATOM     26  H2  UNL     1     -37.533   4.552  14.877  1.00  0.00     0.217 HD
ENDBRANCH  12  25
TORSDOF 3
ENDMDL
