MODEL 3
REMARK VINA RESULT: -7.725938690      3.898      5.074
REMARK  3 active torsions:
REMARK  status: ('A' for Active; 'I' for Inactive)
REMARK    1  A    between atoms: C6_12  and  O2_13 
REMARK    2  A    between atoms: C8_16  and  O3_17 
REMARK    3  A    between atoms: N3_19  and  C9_20 
ROOT
HETATM    1  O1  UNL     1     -41.839   4.128  16.430  1.00  0.00    -0.245 OA
HETATM    2  C1  UNL     1     -41.886   3.356  15.460  1.00  0.00     0.347 A 
HETATM    3  N1  UNL     1     -41.201   2.233  15.263  1.00  0.00    -0.249 N 
ATOM      4  H1  UNL     1     -40.514   1.823  15.897  1.00  0.00     0.192 HD
HETATM    5  N2  UNL     1     -41.569   1.758  14.118  1.00  0.00    -0.280 N 
ATOM      6  H2  UNL     1     -41.202   0.897  13.713  1.00  0.00     0.188 HD
HETATM    7  C2  UNL     1     -42.509   2.549  13.515  1.00  0.00     0.144 A 
HETATM    8  C3  UNL     1     -43.082   2.243  12.234  1.00  0.00     0.044 A 
HETATM    9  C4  UNL     1     -44.016   2.985  11.583  1.00  0.00     0.040 A 
HETATM   10  C5  UNL     1     -44.543   2.642  10.332  1.00  0.00     0.045 A 
HETATM   11 BR1  UNL     1     -45.848   3.721   9.473  1.00  0.00    -0.048 Br
HETATM   12  C6  UNL     1     -44.112   1.505   9.712  1.00  0.00     0.085 A 
HETATM   13  C7  UNL     1     -43.170   0.721  10.325  1.00  0.00     0.075 A 
HETATM   14  C8  UNL     1     -42.678   1.092  11.550  1.00  0.00     0.082 A 
HETATM   15  N3  UNL     1     -42.693   3.542  14.370  1.00  0.00    -0.243 N 
ENDROOT
BRANCH  15  16
HETATM   16  C9  UNL     1     -43.546   4.622  14.242  1.00  0.00     0.084 A 
HETATM   17  C10 UNL     1     -44.800   4.605  14.798  1.00  0.00     0.033 A 
HETATM   18  C11 UNL     1     -45.670   5.676  14.702  1.00  0.00     0.002 A 
HETATM   19  C12 UNL     1     -45.264   6.810  14.019  1.00  0.00     0.003 A 
HETATM   20  C13 UNL     1     -43.999   6.853  13.446  1.00  0.00     0.044 A 
HETATM   21  C14 UNL     1     -43.144   5.747  13.564  1.00  0.00     0.143 A 
HETATM   22  F1  UNL     1     -41.931   5.880  12.973  1.00  0.00    -0.204 F 
ENDBRANCH  15  16
BRANCH  14  23
HETATM   23  O3  UNL     1     -41.727   0.270  12.137  1.00  0.00    -0.360 OA
ATOM     24  H3  UNL     1     -40.846   0.608  12.255  1.00  0.00     0.217 HD
ENDBRANCH  14  23
BRANCH  12  25
HETATM   25  O2  UNL     1     -44.591   1.107   8.473  1.00  0.00    -0.359 OA
ATOM     26  H2  UNL     1     -44.015   0.864   7.758  1.00  0.00     0.217 HD
ENDBRANCH  12  25
TORSDOF 3
ENDMDL
