MODEL 2
REMARK VINA RESULT: -8.853974844      1.064      1.539
REMARK  4 active torsions:
REMARK  status: ('A' for Active; 'I' for Inactive)
REMARK    1  A    between atoms: C2_7  and  C3_8 
REMARK    2  A    between atoms: C6_11  and  O2_12 
REMARK    3  A    between atoms: C8_15  and  O3_16 
REMARK    4  A    between atoms: N3_18  and  C9_19 
ROOT
HETATM    1  O1  UNL     1      42.202  -1.210  -7.059  1.00  0.00    -0.245 OA
HETATM    2  C1  UNL     1      42.599  -0.580  -8.049  1.00  0.00     0.347 A 
HETATM    3  N1  UNL     1      43.878  -0.397  -8.391  1.00  0.00    -0.249 N 
ATOM      4  H1  UNL     1      44.699  -0.746  -7.894  1.00  0.00     0.192 HD
HETATM    5  N2  UNL     1      43.872   0.317  -9.488  1.00  0.00    -0.280 N 
ATOM      6  H2  UNL     1      44.704   0.619  -9.995  1.00  0.00     0.188 HD
HETATM    7  C2  UNL     1      42.566   0.603  -9.860  1.00  0.00     0.144 A 
HETATM    8  N3  UNL     1      41.787   0.028  -8.944  1.00  0.00    -0.243 N 
ENDROOT
BRANCH   7   9
HETATM    9  C3  UNL     1      42.282   1.312 -11.091  1.00  0.00     0.043 A 
HETATM   10  C4  UNL     1      41.684   2.577 -10.966  1.00  0.00     0.021 A 
HETATM   11  C5  UNL     1      41.328   3.345 -12.046  1.00  0.00     0.037 A 
HETATM   12  C6  UNL     1      41.591   2.807 -13.299  1.00  0.00     0.068 A 
HETATM   13  C7  UNL     1      42.165   1.588 -13.461  1.00  0.00     0.074 A 
HETATM   14  C8  UNL     1      42.523   0.809 -12.325  1.00  0.00     0.082 A 
BRANCH  12  15
HETATM   15  O2  UNL     1      41.216   3.620 -14.382  1.00  0.00    -0.361 OA
ATOM     16  H2  UNL     1      40.388   3.390 -14.786  1.00  0.00     0.217 HD
ENDBRANCH  12  15
BRANCH  14  17
HETATM   17  O3  UNL     1      43.081  -0.415 -12.614  1.00  0.00    -0.360 OA
ATOM     18  H3  UNL     1      42.889  -0.959 -13.369  1.00  0.00     0.217 HD
ENDBRANCH  14  17
ENDBRANCH   7   9
BRANCH   8  19
HETATM   19  C9  UNL     1      40.371  -0.036  -8.894  1.00  0.00     0.084 A 
HETATM   20  C10 UNL     1      39.593   1.043  -8.524  1.00  0.00     0.033 A 
HETATM   21  C11 UNL     1      38.218   0.988  -8.480  1.00  0.00     0.002 A 
HETATM   22  C12 UNL     1      37.564  -0.177  -8.812  1.00  0.00     0.003 A 
HETATM   23  C13 UNL     1      38.294  -1.269  -9.183  1.00  0.00     0.044 A 
HETATM   24  C14 UNL     1      39.672  -1.200  -9.224  1.00  0.00     0.143 A 
HETATM   25  F1  UNL     1      40.419  -2.283  -9.593  1.00  0.00    -0.204 F 
ENDBRANCH   8  19
TORSDOF 4
ENDMDL
