MODEL 1
REMARK VINA RESULT: -8.979627256      0.000      0.000
REMARK  4 active torsions:
REMARK  status: ('A' for Active; 'I' for Inactive)
REMARK    1  A    between atoms: C2_7  and  C3_8 
REMARK    2  A    between atoms: C6_11  and  O2_12 
REMARK    3  A    between atoms: C8_15  and  O3_16 
REMARK    4  A    between atoms: N3_18  and  C9_19 
ROOT
HETATM    1  O1  UNL     1      42.071  -1.210  -7.220  1.00  0.00    -0.245 OA
HETATM    2  C1  UNL     1      42.446  -0.513  -8.174  1.00  0.00     0.347 A 
HETATM    3  N1  UNL     1      43.718  -0.292  -8.519  1.00  0.00    -0.249 N 
ATOM      4  H1  UNL     1      44.549  -0.659  -8.056  1.00  0.00     0.192 HD
HETATM    5  N2  UNL     1      43.687   0.490  -9.569  1.00  0.00    -0.280 N 
ATOM      6  H2  UNL     1      44.508   0.834 -10.067  1.00  0.00     0.188 HD
HETATM    7  C2  UNL     1      42.372   0.780  -9.906  1.00  0.00     0.144 A 
HETATM    8  N3  UNL     1      41.614   0.138  -9.018  1.00  0.00    -0.243 N 
ENDROOT
BRANCH   7   9
HETATM    9  C3  UNL     1      42.063   1.561 -11.087  1.00  0.00     0.043 A 
HETATM   10  C4  UNL     1      42.178   0.906 -12.323  1.00  0.00     0.021 A 
HETATM   11  C5  UNL     1      41.950   1.530 -13.524  1.00  0.00     0.037 A 
HETATM   12  C6  UNL     1      41.591   2.870 -13.464  1.00  0.00     0.068 A 
HETATM   13  C7  UNL     1      41.472   3.539 -12.289  1.00  0.00     0.074 A 
HETATM   14  C8  UNL     1      41.715   2.870 -11.057  1.00  0.00     0.082 A 
BRANCH  12  15
HETATM   15  O2  UNL     1      41.364   3.478 -14.710  1.00  0.00    -0.361 OA
ATOM     16  H2  UNL     1      42.113   3.483 -15.295  1.00  0.00     0.217 HD
ENDBRANCH  12  15
BRANCH  14  17
HETATM   17  O3  UNL     1      41.580   3.654  -9.934  1.00  0.00    -0.360 OA
ATOM     18  H3  UNL     1      41.614   4.602  -9.901  1.00  0.00     0.217 HD
ENDBRANCH  14  17
ENDBRANCH   7   9
BRANCH   8  19
HETATM   19  C9  UNL     1      40.200   0.051  -8.954  1.00  0.00     0.084 A 
HETATM   20  C10 UNL     1      39.407   1.120  -8.585  1.00  0.00     0.033 A 
HETATM   21  C11 UNL     1      38.034   1.043  -8.528  1.00  0.00     0.002 A 
HETATM   22  C12 UNL     1      37.397  -0.135  -8.845  1.00  0.00     0.003 A 
HETATM   23  C13 UNL     1      38.141  -1.218  -9.215  1.00  0.00     0.044 A 
HETATM   24  C14 UNL     1      39.517  -1.127  -9.269  1.00  0.00     0.143 A 
HETATM   25  F1  UNL     1      40.279  -2.200  -9.637  1.00  0.00    -0.204 F 
ENDBRANCH   8  19
TORSDOF 4
ENDMDL
