MODEL 4
REMARK VINA RESULT: -8.436645241      2.293      4.846
REMARK  4 active torsions:
REMARK  status: ('A' for Active; 'I' for Inactive)
REMARK    1  A    between atoms: C2_7  and  C3_8 
REMARK    2  A    between atoms: C6_11  and  O2_12 
REMARK    3  A    between atoms: C8_15  and  O3_16 
REMARK    4  A    between atoms: N3_18  and  C9_19 
ROOT
HETATM    1  O1  UNL     1      44.718   0.315  -9.311  1.00  0.00    -0.245 OA
HETATM    2  C1  UNL     1      43.600  -0.043  -8.914  1.00  0.00     0.347 A 
HETATM    3  N1  UNL     1      43.360  -0.757  -7.810  1.00  0.00    -0.249 N 
ATOM      4  H1  UNL     1      44.052  -1.104  -7.145  1.00  0.00     0.192 HD
HETATM    5  N2  UNL     1      42.063  -0.924  -7.750  1.00  0.00    -0.280 N 
ATOM      6  H2  UNL     1      41.572  -1.431  -7.014  1.00  0.00     0.188 HD
HETATM    7  C2  UNL     1      41.455  -0.309  -8.835  1.00  0.00     0.144 A 
HETATM    8  N3  UNL     1      42.439   0.238  -9.548  1.00  0.00    -0.243 N 
ENDROOT
BRANCH   7   9
HETATM    9  C3  UNL     1      40.012  -0.276  -8.957  1.00  0.00     0.043 A 
HETATM   10  C4  UNL     1      39.378  -1.490  -9.270  1.00  0.00     0.021 A 
HETATM   11  C5  UNL     1      38.023  -1.601  -9.450  1.00  0.00     0.037 A 
HETATM   12  C6  UNL     1      37.283  -0.434  -9.307  1.00  0.00     0.068 A 
HETATM   13  C7  UNL     1      37.859   0.759  -9.008  1.00  0.00     0.074 A 
HETATM   14  C8  UNL     1      39.268   0.848  -8.827  1.00  0.00     0.082 A 
BRANCH  12  15
HETATM   15  O2  UNL     1      35.900  -0.583  -9.497  1.00  0.00    -0.361 OA
ATOM     16  H2  UNL     1      35.645  -0.886 -10.361  1.00  0.00     0.217 HD
ENDBRANCH  12  15
BRANCH  14  17
HETATM   17  O3  UNL     1      39.737   2.110  -8.545  1.00  0.00    -0.360 OA
ATOM     18  H3  UNL     1      40.404   2.334  -7.906  1.00  0.00     0.217 HD
ENDBRANCH  14  17
ENDBRANCH   7   9
BRANCH   8  19
HETATM   19  C9  UNL     1      42.352   1.036 -10.717  1.00  0.00     0.084 A 
HETATM   20  C10 UNL     1      42.207   0.490 -11.978  1.00  0.00     0.033 A 
HETATM   21  C11 UNL     1      42.116   1.261 -13.116  1.00  0.00     0.002 A 
HETATM   22  C12 UNL     1      42.169   2.633 -13.024  1.00  0.00     0.003 A 
HETATM   23  C13 UNL     1      42.312   3.215 -11.798  1.00  0.00     0.044 A 
HETATM   24  C14 UNL     1      42.401   2.431 -10.665  1.00  0.00     0.143 A 
HETATM   25  F1  UNL     1      42.544   2.996  -9.429  1.00  0.00    -0.204 F 
ENDBRANCH   8  19
TORSDOF 4
ENDMDL
