MODEL 5
REMARK VINA RESULT: -8.014568254      4.197      7.452
REMARK  4 active torsions:
REMARK  status: ('A' for Active; 'I' for Inactive)
REMARK    1  A    between atoms: C2_7  and  C3_8 
REMARK    2  A    between atoms: C6_11  and  O2_12 
REMARK    3  A    between atoms: C8_15  and  O3_16 
REMARK    4  A    between atoms: N3_18  and  C9_19 
ROOT
HETATM    1  O1  UNL     1      43.310   4.401 -17.129  1.00  0.00    -0.245 OA
HETATM    2  C1  UNL     1      42.633   3.816 -16.272  1.00  0.00     0.347 A 
HETATM    3  N1  UNL     1      41.728   2.863 -16.516  1.00  0.00    -0.249 N 
ATOM      4  H1  UNL     1      41.469   2.486 -17.428  1.00  0.00     0.192 HD
HETATM    5  N2  UNL     1      41.238   2.509 -15.354  1.00  0.00    -0.280 N 
ATOM      6  H2  UNL     1      40.523   1.796 -15.213  1.00  0.00     0.188 HD
HETATM    7  C2  UNL     1      41.836   3.248 -14.343  1.00  0.00     0.144 A 
HETATM    8  N3  UNL     1      42.707   4.058 -14.943  1.00  0.00    -0.243 N 
ENDROOT
BRANCH   7   9
HETATM    9  C3  UNL     1      41.528   2.988 -12.951  1.00  0.00     0.043 A 
HETATM   10  C4  UNL     1      41.058   4.074 -12.196  1.00  0.00     0.021 A 
HETATM   11  C5  UNL     1      40.761   3.983 -10.860  1.00  0.00     0.037 A 
HETATM   12  C6  UNL     1      40.947   2.739 -10.270  1.00  0.00     0.068 A 
HETATM   13  C7  UNL     1      41.402   1.666 -10.966  1.00  0.00     0.074 A 
HETATM   14  C8  UNL     1      41.705   1.787 -12.350  1.00  0.00     0.082 A 
BRANCH  12  15
HETATM   15  O2  UNL     1      40.632   2.679  -8.902  1.00  0.00    -0.361 OA
ATOM     16  H2  UNL     1      39.807   2.253  -8.700  1.00  0.00     0.217 HD
ENDBRANCH  12  15
BRANCH  14  17
HETATM   17  O3  UNL     1      42.174   0.637 -12.944  1.00  0.00    -0.360 OA
ATOM     18  H3  UNL     1      41.829  -0.240 -12.825  1.00  0.00     0.217 HD
ENDBRANCH  14  17
ENDBRANCH   7   9
BRANCH   8  19
HETATM   19  C9  UNL     1      43.621   4.971 -14.359  1.00  0.00     0.084 A 
HETATM   20  C10 UNL     1      43.327   6.310 -14.191  1.00  0.00     0.033 A 
HETATM   21  C11 UNL     1      44.208   7.200 -13.619  1.00  0.00     0.002 A 
HETATM   22  C12 UNL     1      45.440   6.766 -13.186  1.00  0.00     0.003 A 
HETATM   23  C13 UNL     1      45.774   5.451 -13.332  1.00  0.00     0.044 A 
HETATM   24  C14 UNL     1      44.881   4.569 -13.907  1.00  0.00     0.143 A 
HETATM   25  F1  UNL     1      45.198   3.249 -14.061  1.00  0.00    -0.204 F 
ENDBRANCH   8  19
TORSDOF 4
ENDMDL
