MODEL 2
REMARK VINA RESULT: -9.077087956      3.145      3.832
REMARK  6 active torsions:
REMARK  status: ('A' for Active; 'I' for Inactive)
REMARK    1  A    between atoms: C2_2  and  S1_3 
REMARK    2  A    between atoms: C2_2  and  C14_22 
REMARK    3  A    between atoms: S1_3  and  C3_4 
REMARK       I    between atoms: C14_22  and  N4_24 
REMARK    4  A    between atoms: N4_24  and  C15_26 
REMARK    5  A    between atoms: C18_29  and  S2_30 
REMARK    6  A    between atoms: S2_30  and  N5_31 
ROOT
HETATM    1  C3  UNL     1      -2.031   6.544  11.001  1.00  0.00     0.148 A 
HETATM    2  N1  UNL     1      -3.239   7.021  10.668  1.00  0.00    -0.335 N 
ATOM      3  H1  UNL     1      -3.680   7.706  11.281  1.00  0.00     0.168 HD
HETATM    4  C4  UNL     1      -3.895   6.632   9.555  1.00  0.00     0.071 A 
HETATM    5  C5  UNL     1      -5.195   7.135   9.188  1.00  0.00    -0.008 A 
HETATM    6  C6  UNL     1      -6.197   7.223  10.125  1.00  0.00     0.015 A 
HETATM    7  C7  UNL     1      -7.460   7.713   9.785  1.00  0.00     0.024 A 
HETATM    8  C8  UNL     1      -7.683   8.111   8.488  1.00  0.00     0.034 A 
HETATM    9 CL1  UNL     1      -9.247   8.733   8.010  1.00  0.00    -0.084 Cl
HETATM   10  C9  UNL     1      -6.697   8.033   7.535  1.00  0.00     0.024 A 
HETATM   11  C10 UNL     1      -5.462   7.544   7.904  1.00  0.00     0.015 A 
HETATM   12  C11 UNL     1      -3.291   5.704   8.732  1.00  0.00     0.140 A 
HETATM   13  C12 UNL     1      -3.902   5.208   7.514  1.00  0.00     0.107 C 
HETATM   14  N2  UNL     1      -4.384   4.792   6.549  1.00  0.00    -0.191 NA
HETATM   15  C13 UNL     1      -2.051   5.204   9.059  1.00  0.00     0.270 A 
HETATM   16  O1  UNL     1      -1.456   4.355   8.342  1.00  0.00    -0.266 OA
HETATM   17  N3  UNL     1      -1.450   5.641  10.195  1.00  0.00    -0.302 N 
ATOM     18  H3  UNL     1      -0.532   5.273  10.443  1.00  0.00     0.171 HD
ENDROOT
BRANCH   1  19
HETATM   19  S1  UNL     1      -1.205   7.103  12.504  1.00  0.00    -0.080 SA
BRANCH  19  20
HETATM   20  C2  UNL     1      -2.475   7.844  13.554  1.00  0.00     0.143 C 
HETATM   21  C1  UNL     1      -1.879   8.922  14.432  1.00  0.00     0.031 C 
BRANCH  20  22
HETATM   22  C14 UNL     1      -3.182   6.815  14.383  1.00  0.00     0.236 C 
HETATM   23  O2  UNL     1      -3.601   7.147  15.509  1.00  0.00    -0.272 OA
HETATM   24  N4  UNL     1      -3.389   5.499  13.941  1.00  0.00    -0.326 N 
ATOM     25  H4  UNL     1      -3.026   5.282  13.013  1.00  0.00     0.169 HD
BRANCH  24  26
HETATM   26  C15 UNL     1      -4.030   4.442  14.609  1.00  0.00     0.034 A 
HETATM   27  C16 UNL     1      -5.380   4.320  14.802  1.00  0.00     0.031 A 
HETATM   28  C17 UNL     1      -5.972   3.244  15.476  1.00  0.00     0.027 A 
HETATM   29  C18 UNL     1      -5.158   2.258  15.971  1.00  0.00     0.079 A 
HETATM   30  C19 UNL     1      -3.796   2.348  15.797  1.00  0.00     0.027 A 
HETATM   31  C20 UNL     1      -3.245   3.410  15.135  1.00  0.00     0.031 A 
BRANCH  29  32
HETATM   32  S2  UNL     1      -5.895   0.911  16.814  1.00  0.00     0.256 S 
HETATM   33  O3  UNL     1      -5.405   0.921  18.221  1.00  0.00    -0.201 OA
HETATM   34  O4  UNL     1      -5.553  -0.396  16.168  1.00  0.00    -0.201 OA
BRANCH  32  35
HETATM   35  N5  UNL     1      -7.615   1.081  16.806  1.00  0.00    -0.324 N 
ATOM     36  H52 UNL     1      -8.103   1.966  16.669  1.00  0.00     0.169 HD
ATOM     37  H51 UNL     1      -8.054   0.173  16.956  1.00  0.00     0.169 HD
ENDBRANCH  32  35
ENDBRANCH  29  32
ENDBRANCH  24  26
ENDBRANCH  20  22
ENDBRANCH  19  20
ENDBRANCH   1  19
TORSDOF 6
ENDMDL
