MODEL 1
REMARK VINA RESULT: -9.134643037      0.000      0.000
REMARK  6 active torsions:
REMARK  status: ('A' for Active; 'I' for Inactive)
REMARK    1  A    between atoms: C2_2  and  S1_3 
REMARK    2  A    between atoms: C2_2  and  C14_22 
REMARK    3  A    between atoms: S1_3  and  C3_4 
REMARK       I    between atoms: C14_22  and  N4_24 
REMARK    4  A    between atoms: N4_24  and  C15_26 
REMARK    5  A    between atoms: C18_29  and  S2_30 
REMARK    6  A    between atoms: S2_30  and  N5_31 
ROOT
HETATM    1  C3  UNL     1      -5.033   7.627   9.420  1.00  0.00     0.148 A 
HETATM    2  N1  UNL     1      -5.365   8.927   9.426  1.00  0.00    -0.335 N 
ATOM      3  H1  UNL     1      -4.691   9.601   9.789  1.00  0.00     0.168 HD
HETATM    4  C4  UNL     1      -6.552   9.378   8.972  1.00  0.00     0.071 A 
HETATM    5  C5  UNL     1      -6.920  10.772   8.976  1.00  0.00    -0.008 A 
HETATM    6  C6  UNL     1      -6.699  11.547  10.089  1.00  0.00     0.015 A 
HETATM    7  C7  UNL     1      -7.046  12.900  10.106  1.00  0.00     0.024 A 
HETATM    8  C8  UNL     1      -7.616  13.445   8.980  1.00  0.00     0.034 A 
HETATM    9 CL1  UNL     1      -8.070  15.135   8.948  1.00  0.00    -0.084 Cl
HETATM   10  C9  UNL     1      -7.847  12.691   7.856  1.00  0.00     0.024 A 
HETATM   11  C10 UNL     1      -7.492  11.359   7.873  1.00  0.00     0.015 A 
HETATM   12  C11 UNL     1      -7.457   8.459   8.483  1.00  0.00     0.140 A 
HETATM   13  C12 UNL     1      -8.764   8.826   7.974  1.00  0.00     0.107 C 
HETATM   14  N2  UNL     1      -9.815   9.102   7.580  1.00  0.00    -0.191 NA
HETATM   15  C13 UNL     1      -7.133   7.121   8.470  1.00  0.00     0.270 A 
HETATM   16  O1  UNL     1      -7.923   6.240   8.035  1.00  0.00    -0.266 OA
HETATM   17  N3  UNL     1      -5.920   6.738   8.944  1.00  0.00    -0.302 N 
ATOM     18  H3  UNL     1      -5.675   5.749   8.937  1.00  0.00     0.171 HD
ENDROOT
BRANCH   1  19
HETATM   19  S1  UNL     1      -3.430   7.086  10.043  1.00  0.00    -0.080 SA
BRANCH  19  20
HETATM   20  C2  UNL     1      -3.492   7.228  11.843  1.00  0.00     0.143 C 
HETATM   21  C1  UNL     1      -2.110   7.473  12.407  1.00  0.00     0.031 C 
BRANCH  20  22
HETATM   22  C14 UNL     1      -4.117   6.022  12.476  1.00  0.00     0.236 C 
HETATM   23  O2  UNL     1      -4.808   5.268  11.762  1.00  0.00    -0.272 OA
HETATM   24  N4  UNL     1      -3.956   5.711  13.835  1.00  0.00    -0.326 N 
ATOM     25  H4  UNL     1      -3.382   6.361  14.372  1.00  0.00     0.169 HD
BRANCH  24  26
HETATM   26  C15 UNL     1      -4.481   4.623  14.552  1.00  0.00     0.034 A 
HETATM   27  C16 UNL     1      -5.781   4.484  14.957  1.00  0.00     0.031 A 
HETATM   28  C17 UNL     1      -6.257   3.376  15.672  1.00  0.00     0.027 A 
HETATM   29  C18 UNL     1      -5.374   2.376  15.985  1.00  0.00     0.079 A 
HETATM   30  C19 UNL     1      -4.058   2.482  15.595  1.00  0.00     0.027 A 
HETATM   31  C20 UNL     1      -3.621   3.574  14.899  1.00  0.00     0.031 A 
BRANCH  29  32
HETATM   32  S2  UNL     1      -5.963   0.990  16.879  1.00  0.00     0.256 S 
HETATM   33  O3  UNL     1      -5.429   1.070  18.266  1.00  0.00    -0.201 OA
HETATM   34  O4  UNL     1      -5.534  -0.297  16.245  1.00  0.00    -0.201 OA
BRANCH  32  35
HETATM   35  N5  UNL     1      -7.691   1.015  16.929  1.00  0.00    -0.324 N 
ATOM     36  H52 UNL     1      -8.238   1.436  17.680  1.00  0.00     0.169 HD
ATOM     37  H51 UNL     1      -8.069   0.550  16.104  1.00  0.00     0.169 HD
ENDBRANCH  32  35
ENDBRANCH  29  32
ENDBRANCH  24  26
ENDBRANCH  20  22
ENDBRANCH  19  20
ENDBRANCH   1  19
TORSDOF 6
ENDMDL
