MODEL 3
REMARK VINA RESULT: -8.935769084      5.558      7.986
REMARK  6 active torsions:
REMARK  status: ('A' for Active; 'I' for Inactive)
REMARK    1  A    between atoms: C2_2  and  S1_3 
REMARK    2  A    between atoms: C2_2  and  C14_22 
REMARK    3  A    between atoms: S1_3  and  C3_4 
REMARK       I    between atoms: C14_22  and  N4_24 
REMARK    4  A    between atoms: N4_24  and  C15_26 
REMARK    5  A    between atoms: C18_29  and  S2_30 
REMARK    6  A    between atoms: S2_30  and  N5_31 
ROOT
HETATM    1  C3  UNL     1      -0.536   5.572  10.558  1.00  0.00     0.148 A 
HETATM    2  N1  UNL     1      -0.339   5.453   9.237  1.00  0.00    -0.335 N 
ATOM      3  H1  UNL     1      -1.057   5.803   8.602  1.00  0.00     0.168 HD
HETATM    4  C4  UNL     1       0.769   4.889   8.713  1.00  0.00     0.071 A 
HETATM    5  C5  UNL     1       0.990   4.752   7.295  1.00  0.00    -0.008 A 
HETATM    6  C6  UNL     1      -0.012   4.289   6.476  1.00  0.00     0.015 A 
HETATM    7  C7  UNL     1       0.186   4.156   5.099  1.00  0.00     0.024 A 
HETATM    8  C8  UNL     1       1.411   4.501   4.577  1.00  0.00     0.034 A 
HETATM    9 CL1  UNL     1       1.712   4.354   2.859  1.00  0.00    -0.084 Cl
HETATM   10  C9  UNL     1       2.426   4.967   5.375  1.00  0.00     0.024 A 
HETATM   11  C10 UNL     1       2.197   5.086   6.729  1.00  0.00     0.015 A 
HETATM   12  C11 UNL     1       1.733   4.417   9.579  1.00  0.00     0.140 A 
HETATM   13  C12 UNL     1       2.960   3.788   9.133  1.00  0.00     0.107 C 
HETATM   14  N2  UNL     1       3.936   3.269   8.791  1.00  0.00    -0.191 NA
HETATM   15  C13 UNL     1       1.546   4.531  10.939  1.00  0.00     0.270 A 
HETATM   16  O1  UNL     1       2.396   4.116  11.773  1.00  0.00    -0.266 OA
HETATM   17  N3  UNL     1       0.407   5.110  11.395  1.00  0.00    -0.302 N 
ATOM     18  H3  UNL     1       0.263   5.197  12.400  1.00  0.00     0.171 HD
ENDROOT
BRANCH   1  19
HETATM   19  S1  UNL     1      -2.040   6.336  11.197  1.00  0.00    -0.080 SA
BRANCH  19  20
HETATM   20  C2  UNL     1      -3.431   5.489  10.414  1.00  0.00     0.143 C 
HETATM   21  C1  UNL     1      -4.391   6.489   9.807  1.00  0.00     0.031 C 
BRANCH  20  22
HETATM   22  C14 UNL     1      -4.142   4.584  11.372  1.00  0.00     0.236 C 
HETATM   23  O2  UNL     1      -4.970   3.770  10.916  1.00  0.00    -0.272 OA
HETATM   24  N4  UNL     1      -3.915   4.617  12.756  1.00  0.00    -0.326 N 
ATOM     25  H4  UNL     1      -3.228   5.300  13.075  1.00  0.00     0.169 HD
BRANCH  24  26
HETATM   26  C15 UNL     1      -4.506   3.831  13.760  1.00  0.00     0.034 A 
HETATM   27  C16 UNL     1      -5.611   4.171  14.494  1.00  0.00     0.031 A 
HETATM   28  C17 UNL     1      -6.164   3.351  15.486  1.00  0.00     0.027 A 
HETATM   29  C18 UNL     1      -5.569   2.143  15.739  1.00  0.00     0.079 A 
HETATM   30  C19 UNL     1      -4.455   1.768  15.021  1.00  0.00     0.027 A 
HETATM   31  C20 UNL     1      -3.936   2.588  14.059  1.00  0.00     0.031 A 
BRANCH  29  32
HETATM   32  S2  UNL     1      -6.257   1.114  16.979  1.00  0.00     0.256 S 
HETATM   33  O3  UNL     1      -5.455  -0.139  17.041  1.00  0.00    -0.201 OA
HETATM   34  O4  UNL     1      -7.688   0.785  16.689  1.00  0.00    -0.201 OA
BRANCH  32  35
HETATM   35  N5  UNL     1      -6.188   1.914  18.510  1.00  0.00    -0.324 N 
ATOM     36  H52 UNL     1      -5.479   2.600  18.768  1.00  0.00     0.169 HD
ATOM     37  H51 UNL     1      -6.956   1.597  19.102  1.00  0.00     0.169 HD
ENDBRANCH  32  35
ENDBRANCH  29  32
ENDBRANCH  24  26
ENDBRANCH  20  22
ENDBRANCH  19  20
ENDBRANCH   1  19
TORSDOF 6
ENDMDL
