MODEL 3
REMARK VINA RESULT: -8.536280389      1.614      2.315
REMARK  11 active torsions:
REMARK  status: ('A' for Active; 'I' for Inactive)
REMARK    1  A    between atoms: C4_4  and  C5_5 
REMARK    2  A    between atoms: C5_5  and  C6_6 
REMARK    3  A    between atoms: C6_6  and  C7_7 
REMARK    4  A    between atoms: C9_9  and  C10_10 
REMARK    5  A    between atoms: C10_10  and  C11_11 
REMARK    6  A    between atoms: C11_11  and  C12_12 
REMARK    7  A    between atoms: C14_14  and  C15_15 
REMARK    8  A    between atoms: C15_15  and  O1_16 
REMARK    9  A    between atoms: O1_16  and  P1_17 
REMARK   10  A    between atoms: P1_17  and  O4_20 
REMARK   11  A    between atoms: O4_20  and  P2_21 
ROOT
HETATM    1  C12 UNL     1       2.104  77.779  28.749  1.00  0.00    -0.085 C 
HETATM    2  C13 UNL     1       2.445  79.198  28.356  1.00  0.00     0.043 C 
HETATM    3  C14 UNL     1       3.073  76.980  29.055  1.00  0.00     0.002 C 
ENDROOT
BRANCH   1   4
HETATM    4  C11 UNL     1       0.695  77.405  28.741  1.00  0.00     0.037 C 
BRANCH   4   5
HETATM    5  C10 UNL     1       0.191  76.845  27.423  1.00  0.00     0.031 C 
BRANCH   5   6
HETATM    6  C9  UNL     1      -0.758  77.809  26.847  1.00  0.00    -0.024 C 
HETATM    7  C7  UNL     1      -1.685  77.390  26.002  1.00  0.00    -0.087 C 
HETATM    8  C8  UNL     1      -1.770  75.970  25.658  1.00  0.00     0.043 C 
BRANCH   7   9
HETATM    9  C6  UNL     1      -2.668  78.359  25.396  1.00  0.00     0.037 C 
BRANCH   9  10
HETATM   10  C5  UNL     1      -3.633  78.757  26.461  1.00  0.00     0.031 C 
BRANCH  10  11
HETATM   11  C4  UNL     1      -3.471  80.220  26.704  1.00  0.00    -0.024 C 
HETATM   12  C2  UNL     1      -4.200  80.830  27.634  1.00  0.00    -0.091 C 
HETATM   13  C1  UNL     1      -5.193  80.056  28.449  1.00  0.00     0.042 C 
HETATM   14  C3  UNL     1      -4.000  82.286  27.838  1.00  0.00     0.042 C 
ENDBRANCH  10  11
ENDBRANCH   9  10
ENDBRANCH   7   9
ENDBRANCH   5   6
ENDBRANCH   4   5
ENDBRANCH   1   4
BRANCH   3  15
HETATM   15  C15 UNL     1       2.894  75.573  29.442  1.00  0.00     0.209 C 
BRANCH  15  16
HETATM   16  O1  UNL     1       2.990  74.837  28.257  1.00  0.00    -0.286 OA
BRANCH  16  17
HETATM   17  P1  UNL     1       4.263  73.778  28.443  1.00  0.00     0.418 P 
HETATM   18  O2  UNL     1       4.414  73.037  29.964  1.00  0.00    -0.624 OA
HETATM   19  O3  UNL     1       3.414  72.616  27.965  1.00  0.00    -0.624 OA
BRANCH  17  20
HETATM   20  O4  UNL     1       5.446  73.674  27.373  1.00  0.00    -0.173 OA
BRANCH  20  21
HETATM   21  P2  UNL     1       6.532  74.919  27.266  1.00  0.00     0.431 P 
HETATM   22  O5  UNL     1       6.272  76.310  28.036  1.00  0.00    -0.616 OA
HETATM   23  O6  UNL     1       8.011  74.619  26.515  1.00  0.00    -0.616 OA
HETATM   24  O7  UNL     1       5.945  75.310  25.905  1.00  0.00    -0.616 OA
ENDBRANCH  20  21
ENDBRANCH  17  20
ENDBRANCH  16  17
ENDBRANCH  15  16
ENDBRANCH   3  15
TORSDOF 11
ENDMDL
