MODEL 11
REMARK VINA RESULT: -8.028905624      2.545      4.603
REMARK  11 active torsions:
REMARK  status: ('A' for Active; 'I' for Inactive)
REMARK    1  A    between atoms: C4_4  and  C5_5 
REMARK    2  A    between atoms: C5_5  and  C6_6 
REMARK    3  A    between atoms: C6_6  and  C7_7 
REMARK    4  A    between atoms: C9_9  and  C10_10 
REMARK    5  A    between atoms: C10_10  and  C11_11 
REMARK    6  A    between atoms: C11_11  and  C12_12 
REMARK    7  A    between atoms: C14_14  and  C15_15 
REMARK    8  A    between atoms: C15_15  and  O1_16 
REMARK    9  A    between atoms: O1_16  and  P1_17 
REMARK   10  A    between atoms: P1_17  and  O4_20 
REMARK   11  A    between atoms: O4_20  and  P2_21 
ROOT
HETATM    1  C12 UNL     1       6.185  74.235  27.824  1.00  0.00    -0.085 C 
HETATM    2  C13 UNL     1       5.014  73.353  28.195  1.00  0.00     0.043 C 
HETATM    3  C14 UNL     1       7.377  73.750  27.944  1.00  0.00     0.002 C 
ENDROOT
BRANCH   1   4
HETATM    4  C11 UNL     1       5.884  75.586  27.368  1.00  0.00     0.037 C 
BRANCH   4   5
HETATM    5  C10 UNL     1       5.625  76.591  28.476  1.00  0.00     0.031 C 
BRANCH   5   6
HETATM    6  C9  UNL     1       4.535  77.479  28.046  1.00  0.00    -0.024 C 
HETATM    7  C7  UNL     1       3.342  77.368  28.606  1.00  0.00    -0.087 C 
HETATM    8  C8  UNL     1       3.119  76.376  29.658  1.00  0.00     0.043 C 
BRANCH   7   9
HETATM    9  C6  UNL     1       2.207  78.265  28.181  1.00  0.00     0.037 C 
BRANCH   9  10
HETATM   10  C5  UNL     1       0.929  77.589  28.544  1.00  0.00     0.031 C 
BRANCH  10  11
HETATM   11  C4  UNL     1       0.343  77.015  27.298  1.00  0.00    -0.024 C 
HETATM   12  C2  UNL     1      -0.976  76.971  27.135  1.00  0.00    -0.091 C 
HETATM   13  C1  UNL     1      -1.891  77.497  28.200  1.00  0.00     0.042 C 
HETATM   14  C3  UNL     1      -1.508  76.391  25.877  1.00  0.00     0.042 C 
ENDBRANCH  10  11
ENDBRANCH   9  10
ENDBRANCH   7   9
ENDBRANCH   5   6
ENDBRANCH   4   5
ENDBRANCH   1   4
BRANCH   3  15
HETATM   15  C15 UNL     1       8.607  74.493  27.636  1.00  0.00     0.209 C 
BRANCH  15  16
HETATM   16  O1  UNL     1       9.372  73.646  26.828  1.00  0.00    -0.286 OA
BRANCH  16  17
HETATM   17  P1  UNL     1      10.197  74.615  25.751  1.00  0.00     0.418 P 
HETATM   18  O2  UNL     1      11.867  74.780  26.010  1.00  0.00    -0.624 OA
HETATM   19  O3  UNL     1      10.457  73.436  24.834  1.00  0.00    -0.624 OA
BRANCH  17  20
HETATM   20  O4  UNL     1       9.442  75.570  24.716  1.00  0.00    -0.173 OA
BRANCH  20  21
HETATM   21  P2  UNL     1       9.251  75.057  23.154  1.00  0.00     0.431 P 
HETATM   22  O5  UNL     1      10.428  75.253  22.071  1.00  0.00    -0.616 OA
HETATM   23  O6  UNL     1       7.891  74.134  22.782  1.00  0.00    -0.616 OA
HETATM   24  O7  UNL     1       8.451  76.324  22.837  1.00  0.00    -0.616 OA
ENDBRANCH  20  21
ENDBRANCH  17  20
ENDBRANCH  16  17
ENDBRANCH  15  16
ENDBRANCH   3  15
TORSDOF 11
ENDMDL
