MODEL 18
REMARK VINA RESULT: -7.573808582      6.561      9.684
REMARK  11 active torsions:
REMARK  status: ('A' for Active; 'I' for Inactive)
REMARK    1  A    between atoms: C4_4  and  C5_5 
REMARK    2  A    between atoms: C5_5  and  C6_6 
REMARK    3  A    between atoms: C6_6  and  C7_7 
REMARK    4  A    between atoms: C9_9  and  C10_10 
REMARK    5  A    between atoms: C10_10  and  C11_11 
REMARK    6  A    between atoms: C11_11  and  C12_12 
REMARK    7  A    between atoms: C14_14  and  C15_15 
REMARK    8  A    between atoms: C15_15  and  O1_16 
REMARK    9  A    between atoms: O1_16  and  P1_17 
REMARK   10  A    between atoms: P1_17  and  O4_20 
REMARK   11  A    between atoms: O4_20  and  P2_21 
ROOT
HETATM    1  C12 UNL     1       2.406  77.872  28.303  1.00  0.00    -0.085 C 
HETATM    2  C13 UNL     1       3.617  78.630  27.810  1.00  0.00     0.043 C 
HETATM    3  C14 UNL     1       1.286  78.035  27.678  1.00  0.00     0.002 C 
ENDROOT
BRANCH   1   4
HETATM    4  C11 UNL     1       2.584  77.015  29.469  1.00  0.00     0.037 C 
BRANCH   4   5
HETATM    5  C10 UNL     1       3.562  75.869  29.275  1.00  0.00     0.031 C 
BRANCH   5   6
HETATM    6  C9  UNL     1       3.140  74.755  30.136  1.00  0.00    -0.024 C 
HETATM    7  C7  UNL     1       3.618  73.541  29.917  1.00  0.00    -0.087 C 
HETATM    8  C8  UNL     1       4.573  73.319  28.832  1.00  0.00     0.043 C 
BRANCH   7   9
HETATM    9  C6  UNL     1       3.200  72.382  30.786  1.00  0.00     0.037 C 
BRANCH   9  10
HETATM   10  C5  UNL     1       4.288  71.363  30.745  1.00  0.00     0.031 C 
BRANCH  10  11
HETATM   11  C4  UNL     1       5.057  71.460  32.019  1.00  0.00    -0.024 C 
HETATM   12  C2  UNL     1       6.384  71.382  32.009  1.00  0.00    -0.091 C 
HETATM   13  C1  UNL     1       7.124  71.195  30.718  1.00  0.00     0.042 C 
HETATM   14  C3  UNL     1       7.103  71.485  33.303  1.00  0.00     0.042 C 
ENDBRANCH  10  11
ENDBRANCH   9  10
ENDBRANCH   7   9
ENDBRANCH   5   6
ENDBRANCH   4   5
ENDBRANCH   1   4
BRANCH   3  15
HETATM   15  C15 UNL     1       0.026  77.377  28.052  1.00  0.00     0.209 C 
BRANCH  15  16
HETATM   16  O1  UNL     1      -0.357  76.627  26.936  1.00  0.00    -0.286 OA
BRANCH  16  17
HETATM   17  P1  UNL     1      -1.704  77.366  26.291  1.00  0.00     0.418 P 
HETATM   18  O2  UNL     1      -1.446  78.363  24.940  1.00  0.00    -0.624 OA
HETATM   19  O3  UNL     1      -1.956  76.188  25.371  1.00  0.00    -0.624 OA
BRANCH  17  20
HETATM   20  O4  UNL     1      -3.109  77.388  27.053  1.00  0.00    -0.173 OA
BRANCH  20  21
HETATM   21  P2  UNL     1      -3.930  78.821  27.168  1.00  0.00     0.431 P 
HETATM   22  O5  UNL     1      -3.207  80.216  26.812  1.00  0.00    -0.616 OA
HETATM   23  O6  UNL     1      -5.590  78.764  27.452  1.00  0.00    -0.616 OA
HETATM   24  O7  UNL     1      -3.693  78.833  28.681  1.00  0.00    -0.616 OA
ENDBRANCH  20  21
ENDBRANCH  17  20
ENDBRANCH  16  17
ENDBRANCH  15  16
ENDBRANCH   3  15
TORSDOF 11
ENDMDL
