MODEL 2
REMARK VINA RESULT: -8.552027535      1.600      2.472
REMARK  11 active torsions:
REMARK  status: ('A' for Active; 'I' for Inactive)
REMARK    1  A    between atoms: C4_4  and  C5_5 
REMARK    2  A    between atoms: C5_5  and  C6_6 
REMARK    3  A    between atoms: C6_6  and  C7_7 
REMARK    4  A    between atoms: C9_9  and  C10_10 
REMARK    5  A    between atoms: C10_10  and  C11_11 
REMARK    6  A    between atoms: C11_11  and  C12_12 
REMARK    7  A    between atoms: C14_14  and  C15_15 
REMARK    8  A    between atoms: C15_15  and  O1_16 
REMARK    9  A    between atoms: O1_16  and  P1_17 
REMARK   10  A    between atoms: P1_17  and  O4_20 
REMARK   11  A    between atoms: O4_20  and  P2_21 
ROOT
HETATM    1  C12 UNL     1       2.235  77.734  28.548  1.00  0.00    -0.085 C 
HETATM    2  C13 UNL     1       2.615  79.102  28.028  1.00  0.00     0.043 C 
HETATM    3  C14 UNL     1       3.183  76.932  28.908  1.00  0.00     0.002 C 
ENDROOT
BRANCH   1   4
HETATM    4  C11 UNL     1       0.814  77.408  28.592  1.00  0.00     0.037 C 
BRANCH   4   5
HETATM    5  C10 UNL     1       0.256  76.812  27.312  1.00  0.00     0.031 C 
BRANCH   5   6
HETATM    6  C9  UNL     1      -0.669  77.787  26.717  1.00  0.00    -0.024 C 
HETATM    7  C7  UNL     1      -1.664  77.364  25.955  1.00  0.00    -0.087 C 
HETATM    8  C8  UNL     1      -1.847  75.931  25.724  1.00  0.00     0.043 C 
BRANCH   7   9
HETATM    9  C6  UNL     1      -2.626  78.344  25.332  1.00  0.00     0.037 C 
BRANCH   9  10
HETATM   10  C5  UNL     1      -3.620  78.734  26.372  1.00  0.00     0.031 C 
BRANCH  10  11
HETATM   11  C4  UNL     1      -3.430  80.184  26.668  1.00  0.00    -0.024 C 
HETATM   12  C2  UNL     1      -4.157  80.778  27.609  1.00  0.00    -0.091 C 
HETATM   13  C1  UNL     1      -5.176  79.998  28.386  1.00  0.00     0.042 C 
HETATM   14  C3  UNL     1      -3.928  82.222  27.866  1.00  0.00     0.042 C 
ENDBRANCH  10  11
ENDBRANCH   9  10
ENDBRANCH   7   9
ENDBRANCH   5   6
ENDBRANCH   4   5
ENDBRANCH   1   4
BRANCH   3  15
HETATM   15  C15 UNL     1       2.966  75.571  29.418  1.00  0.00     0.209 C 
BRANCH  15  16
HETATM   16  O1  UNL     1       3.124  74.723  28.317  1.00  0.00    -0.286 OA
BRANCH  16  17
HETATM   17  P1  UNL     1       4.168  73.511  28.783  1.00  0.00     0.418 P 
HETATM   18  O2  UNL     1       3.741  72.639  30.177  1.00  0.00    -0.624 OA
HETATM   19  O3  UNL     1       3.433  72.498  27.927  1.00  0.00    -0.624 OA
BRANCH  17  20
HETATM   20  O4  UNL     1       5.628  73.355  28.149  1.00  0.00    -0.173 OA
BRANCH  20  21
HETATM   21  P2  UNL     1       6.194  74.550  27.154  1.00  0.00     0.431 P 
HETATM   22  O5  UNL     1       6.081  74.412  25.553  1.00  0.00    -0.616 OA
HETATM   23  O6  UNL     1       6.688  76.000  27.856  1.00  0.00    -0.616 OA
HETATM   24  O7  UNL     1       7.618  74.010  27.319  1.00  0.00    -0.616 OA
ENDBRANCH  20  21
ENDBRANCH  17  20
ENDBRANCH  16  17
ENDBRANCH  15  16
ENDBRANCH   3  15
TORSDOF 11
ENDMDL
