MODEL 14
REMARK VINA RESULT: -7.836666278      2.827      5.015
REMARK  11 active torsions:
REMARK  status: ('A' for Active; 'I' for Inactive)
REMARK    1  A    between atoms: C4_4  and  C5_5 
REMARK    2  A    between atoms: C5_5  and  C6_6 
REMARK    3  A    between atoms: C6_6  and  C7_7 
REMARK    4  A    between atoms: C9_9  and  C10_10 
REMARK    5  A    between atoms: C10_10  and  C11_11 
REMARK    6  A    between atoms: C11_11  and  C12_12 
REMARK    7  A    between atoms: C14_14  and  C15_15 
REMARK    8  A    between atoms: C15_15  and  O1_16 
REMARK    9  A    between atoms: O1_16  and  P1_17 
REMARK   10  A    between atoms: P1_17  and  O4_20 
REMARK   11  A    between atoms: O4_20  and  P2_21 
ROOT
HETATM    1  C12 UNL     1       5.886  74.450  27.868  1.00  0.00    -0.085 C 
HETATM    2  C13 UNL     1       4.723  73.605  28.332  1.00  0.00     0.043 C 
HETATM    3  C14 UNL     1       7.067  73.923  27.878  1.00  0.00     0.002 C 
ENDROOT
BRANCH   1   4
HETATM    4  C11 UNL     1       5.595  75.817  27.453  1.00  0.00     0.037 C 
BRANCH   4   5
HETATM    5  C10 UNL     1       5.395  76.801  28.591  1.00  0.00     0.031 C 
BRANCH   5   6
HETATM    6  C9  UNL     1       4.262  77.673  28.252  1.00  0.00    -0.024 C 
HETATM    7  C7  UNL     1       3.082  77.459  28.810  1.00  0.00    -0.087 C 
HETATM    8  C8  UNL     1       2.917  76.369  29.772  1.00  0.00     0.043 C 
BRANCH   7   9
HETATM    9  C6  UNL     1       1.902  78.337  28.477  1.00  0.00     0.037 C 
BRANCH   9  10
HETATM   10  C5  UNL     1       0.663  77.533  28.671  1.00  0.00     0.031 C 
BRANCH  10  11
HETATM   11  C4  UNL     1       0.202  77.067  27.331  1.00  0.00    -0.024 C 
HETATM   12  C2  UNL     1      -1.096  77.013  27.049  1.00  0.00    -0.091 C 
HETATM   13  C1  UNL     1      -2.113  77.421  28.073  1.00  0.00     0.042 C 
HETATM   14  C3  UNL     1      -1.501  76.544  25.700  1.00  0.00     0.042 C 
ENDBRANCH  10  11
ENDBRANCH   9  10
ENDBRANCH   7   9
ENDBRANCH   5   6
ENDBRANCH   4   5
ENDBRANCH   1   4
BRANCH   3  15
HETATM   15  C15 UNL     1       8.291  74.628  27.470  1.00  0.00     0.209 C 
BRANCH  15  16
HETATM   16  O1  UNL     1       8.329  74.547  26.075  1.00  0.00    -0.286 OA
BRANCH  16  17
HETATM   17  P1  UNL     1       9.906  74.827  25.614  1.00  0.00     0.418 P 
HETATM   18  O2  UNL     1      10.721  73.531  24.878  1.00  0.00    -0.624 OA
HETATM   19  O3  UNL     1       9.459  75.318  24.251  1.00  0.00    -0.624 OA
BRANCH  17  20
HETATM   20  O4  UNL     1      10.714  76.122  26.089  1.00  0.00    -0.173 OA
BRANCH  20  21
HETATM   21  P2  UNL     1      12.180  75.918  26.831  1.00  0.00     0.431 P 
HETATM   22  O5  UNL     1      12.340  76.146  28.418  1.00  0.00    -0.616 OA
HETATM   23  O6  UNL     1      13.440  75.259  25.928  1.00  0.00    -0.616 OA
HETATM   24  O7  UNL     1      12.606  77.315  26.367  1.00  0.00    -0.616 OA
ENDBRANCH  20  21
ENDBRANCH  17  20
ENDBRANCH  16  17
ENDBRANCH  15  16
ENDBRANCH   3  15
TORSDOF 11
ENDMDL
