MODEL 6
REMARK VINA RESULT: -8.290805827      1.491      2.163
REMARK  11 active torsions:
REMARK  status: ('A' for Active; 'I' for Inactive)
REMARK    1  A    between atoms: C4_4  and  C5_5 
REMARK    2  A    between atoms: C5_5  and  C6_6 
REMARK    3  A    between atoms: C6_6  and  C7_7 
REMARK    4  A    between atoms: C9_9  and  C10_10 
REMARK    5  A    between atoms: C10_10  and  C11_11 
REMARK    6  A    between atoms: C11_11  and  C12_12 
REMARK    7  A    between atoms: C14_14  and  C15_15 
REMARK    8  A    between atoms: C15_15  and  O1_16 
REMARK    9  A    between atoms: O1_16  and  P1_17 
REMARK   10  A    between atoms: P1_17  and  O4_20 
REMARK   11  A    between atoms: O4_20  and  P2_21 
ROOT
HETATM    1  C12 UNL     1       3.213  77.839  28.375  1.00  0.00    -0.085 C 
HETATM    2  C13 UNL     1       2.831  79.301  28.370  1.00  0.00     0.043 C 
HETATM    3  C14 UNL     1       4.465  77.534  28.273  1.00  0.00     0.002 C 
ENDROOT
BRANCH   1   4
HETATM    4  C11 UNL     1       2.131  76.867  28.479  1.00  0.00     0.037 C 
BRANCH   4   5
HETATM    5  C10 UNL     1       0.742  77.468  28.599  1.00  0.00     0.031 C 
BRANCH   5   6
HETATM    6  C9  UNL     1       0.083  77.366  27.289  1.00  0.00    -0.024 C 
HETATM    7  C7  UNL     1      -1.233  77.246  27.226  1.00  0.00    -0.087 C 
HETATM    8  C8  UNL     1      -2.023  77.231  28.457  1.00  0.00     0.043 C 
BRANCH   7   9
HETATM    9  C6  UNL     1      -1.932  77.138  25.895  1.00  0.00     0.037 C 
BRANCH   9  10
HETATM   10  C5  UNL     1      -3.293  77.729  26.043  1.00  0.00     0.031 C 
BRANCH  10  11
HETATM   11  C4  UNL     1      -3.143  79.211  26.133  1.00  0.00    -0.024 C 
HETATM   12  C2  UNL     1      -3.931  79.918  26.936  1.00  0.00    -0.091 C 
HETATM   13  C1  UNL     1      -4.980  79.236  27.763  1.00  0.00     0.042 C 
HETATM   14  C3  UNL     1      -3.740  81.389  26.989  1.00  0.00     0.042 C 
ENDBRANCH  10  11
ENDBRANCH   9  10
ENDBRANCH   7   9
ENDBRANCH   5   6
ENDBRANCH   4   5
ENDBRANCH   1   4
BRANCH   3  15
HETATM   15  C15 UNL     1       4.983  76.159  28.249  1.00  0.00     0.209 C 
BRANCH  15  16
HETATM   16  O1  UNL     1       6.360  76.273  28.037  1.00  0.00    -0.286 OA
BRANCH  16  17
HETATM   17  P1  UNL     1       6.871  74.835  27.368  1.00  0.00     0.418 P 
HETATM   18  O2  UNL     1       6.301  73.414  28.102  1.00  0.00    -0.624 OA
HETATM   19  O3  UNL     1       5.690  74.815  26.417  1.00  0.00    -0.624 OA
BRANCH  17  20
HETATM   20  O4  UNL     1       8.053  74.770  26.293  1.00  0.00    -0.173 OA
BRANCH  20  21
HETATM   21  P2  UNL     1       9.607  74.576  26.830  1.00  0.00     0.431 P 
HETATM   22  O5  UNL     1      10.114  75.313  28.170  1.00  0.00    -0.616 OA
HETATM   23  O6  UNL     1      10.572  73.425  26.067  1.00  0.00    -0.616 OA
HETATM   24  O7  UNL     1      10.085  75.619  25.814  1.00  0.00    -0.616 OA
ENDBRANCH  20  21
ENDBRANCH  17  20
ENDBRANCH  16  17
ENDBRANCH  15  16
ENDBRANCH   3  15
TORSDOF 11
ENDMDL
