MODEL 4
REMARK VINA RESULT: -9.427969590      2.059      7.758
REMARK  13 active torsions:
REMARK  status: ('A' for Active; 'I' for Inactive)
REMARK    1  A    between atoms: O1_2  and  C2_3 
REMARK    2  A    between atoms: C5_6  and  S1_7 
REMARK    3  A    between atoms: S1_7  and  N1_10 
REMARK    4  A    between atoms: N1_10  and  C6_11 
REMARK    5  A    between atoms: N1_10  and  C10_15 
REMARK    6  A    between atoms: C6_11  and  C7_12 
REMARK    7  A    between atoms: C10_15  and  C11_16 
REMARK    8  A    between atoms: C11_16  and  O4_17 
REMARK    9  A    between atoms: C11_16  and  C12_19 
REMARK   10  A    between atoms: C12_19  and  N2_31 
REMARK   11  A    between atoms: C13_20  and  C14_21 
REMARK       I    between atoms: N2_31  and  C24_33 
REMARK   12  A    between atoms: C24_33  and  O6_35 
REMARK   13  A    between atoms: O6_35  and  C25_36 
ROOT
HETATM    1  C12 UNL     1      15.679  24.260  15.984  1.00  0.00     0.041 C 
HETATM    2  C13 UNL     1      14.650  23.980  15.006  1.00  0.00     0.011 C 
ENDROOT
BRANCH   1   3
HETATM    3  C11 UNL     1      15.627  23.652  17.348  1.00  0.00     0.186 C 
BRANCH   3   4
HETATM    4  C10 UNL     1      16.793  24.222  18.137  1.00  0.00     0.178 C 
BRANCH   4   5
HETATM    5  N1  UNL     1      17.828  23.219  18.203  1.00  0.00    -0.283 N 
BRANCH   5   6
HETATM    6  S1  UNL     1      17.489  21.998  19.314  1.00  0.00     0.264 S 
HETATM    7  O2  UNL     1      17.200  22.614  20.672  1.00  0.00    -0.200 OA
HETATM    8  O3  UNL     1      18.748  21.145  19.434  1.00  0.00    -0.200 OA
BRANCH   6   9
HETATM    9  C5  UNL     1      16.163  20.980  18.899  1.00  0.00     0.080 A 
HETATM   10  C4  UNL     1      16.301  20.110  17.846  1.00  0.00     0.028 A 
HETATM   11  C3  UNL     1      15.265  19.281  17.496  1.00  0.00     0.038 A 
HETATM   12  C2  UNL     1      14.083  19.305  18.183  1.00  0.00     0.068 A 
HETATM   13  C32 UNL     1      13.956  20.186  19.242  1.00  0.00     0.038 A 
HETATM   14  C31 UNL     1      14.985  21.016  19.598  1.00  0.00     0.028 A 
BRANCH  12  15
HETATM   15  O1  UNL     1      13.076  18.451  17.788  1.00  0.00    -0.356 OA
HETATM   16  C1  UNL     1      12.814  17.240  18.479  1.00  0.00     0.210 C 
ENDBRANCH  12  15
ENDBRANCH   6   9
ENDBRANCH   5   6
BRANCH   5  17
HETATM   17  C6  UNL     1      19.140  23.726  18.130  1.00  0.00     0.080 C 
BRANCH  17  18
HETATM   18  C7  UNL     1      19.614  24.680  19.154  1.00  0.00     0.017 C 
HETATM   19  C8  UNL     1      20.394  25.864  18.608  1.00  0.00     0.015 C 
HETATM   20  C9  UNL     1      20.393  24.060  20.281  1.00  0.00     0.015 C 
ENDBRANCH  17  18
ENDBRANCH   5  17
ENDBRANCH   4   5
ENDBRANCH   3   4
BRANCH   3  21
HETATM   21  O4  UNL     1      14.451  24.060  17.949  1.00  0.00    -0.388 OA
ATOM     22  H4  UNL     1      13.777  23.419  17.756  1.00  0.00     0.210 HD
ENDBRANCH   3  21
ENDBRANCH   1   3
BRANCH   1  23
HETATM   23  N2  UNL     1      17.050  24.237  15.436  1.00  0.00    -0.304 N 
HETATM   24  C24 UNL     1      17.644  25.365  14.809  1.00  0.00     0.365 C 
HETATM   25  O5  UNL     1      16.955  26.413  14.729  1.00  0.00    -0.238 OA
ATOM     26  H2  UNL     1      17.593  23.376  15.510  1.00  0.00     0.171 HD
BRANCH  24  27
HETATM   27  O6  UNL     1      18.913  25.392  14.285  1.00  0.00    -0.296 OA
BRANCH  27  28
HETATM   28  C25 UNL     1      20.059  25.658  15.045  1.00  0.00     0.166 C 
HETATM   29  C26 UNL     1      21.316  25.059  14.510  1.00  0.00     0.204 C 
HETATM   30  O7  UNL     1      22.351  25.956  14.718  1.00  0.00    -0.358 OA
HETATM   31  C27 UNL     1      21.903  26.968  15.528  1.00  0.00     0.266 C 
HETATM   32  O8  UNL     1      22.394  28.216  15.211  1.00  0.00    -0.361 OA
HETATM   33  C30 UNL     1      20.425  27.110  15.132  1.00  0.00     0.075 C 
HETATM   34  C28 UNL     1      21.822  28.629  14.037  1.00  0.00     0.171 C 
HETATM   35  C29 UNL     1      20.576  27.785  13.811  1.00  0.00     0.038 C 
ENDBRANCH  27  28
ENDBRANCH  24  27
ENDBRANCH   1  23
BRANCH   2  36
HETATM   36  C14 UNL     1      14.303  22.677  14.453  1.00  0.00    -0.020 C 
HETATM   37  C15 UNL     1      13.281  23.011  13.322  1.00  0.00     0.018 C 
HETATM   38  C16 UNL     1      12.670  21.801  12.727  1.00  0.00    -0.013 C 
HETATM   39  C17 UNL     1      13.751  20.961  12.066  1.00  0.00     0.009 C 
HETATM   40  C21 UNL     1      11.931  20.970  13.759  1.00  0.00     0.009 C 
HETATM   41  C18 UNL     1      14.763  20.665  13.122  1.00  0.00    -0.013 C 
HETATM   42  C19 UNL     1      14.083  19.803  14.172  1.00  0.00     0.009 C 
HETATM   43  C23 UNL     1      15.377  21.921  13.739  1.00  0.00     0.018 C 
HETATM   44  C20 UNL     1      12.948  20.569  14.783  1.00  0.00    -0.013 C 
HETATM   45  C22 UNL     1      13.512  21.835  15.410  1.00  0.00     0.018 C 
ENDBRANCH   2  36
TORSDOF 13
ENDMDL
