MODEL 1
REMARK VINA RESULT: -9.910919487      0.000      0.000
REMARK  13 active torsions:
REMARK  status: ('A' for Active; 'I' for Inactive)
REMARK    1  A    between atoms: O1_2  and  C2_3 
REMARK    2  A    between atoms: C5_6  and  S1_7 
REMARK    3  A    between atoms: S1_7  and  N1_10 
REMARK    4  A    between atoms: N1_10  and  C6_11 
REMARK    5  A    between atoms: N1_10  and  C10_15 
REMARK    6  A    between atoms: C6_11  and  C7_12 
REMARK    7  A    between atoms: C10_15  and  C11_16 
REMARK    8  A    between atoms: C11_16  and  O4_17 
REMARK    9  A    between atoms: C11_16  and  C12_19 
REMARK   10  A    between atoms: C12_19  and  N2_31 
REMARK   11  A    between atoms: C13_20  and  C14_21 
REMARK       I    between atoms: N2_31  and  C24_33 
REMARK   12  A    between atoms: C24_33  and  O6_35 
REMARK   13  A    between atoms: O6_35  and  C25_36 
ROOT
HETATM    1  C12 UNL     1      15.623  21.528  17.758  1.00  0.00     0.041 C 
HETATM    2  C13 UNL     1      14.570  21.167  18.683  1.00  0.00     0.011 C 
ENDROOT
BRANCH   1   3
HETATM    3  C11 UNL     1      16.995  20.954  17.896  1.00  0.00     0.186 C 
BRANCH   3   4
HETATM    4  C10 UNL     1      17.913  21.768  17.000  1.00  0.00     0.178 C 
BRANCH   4   5
HETATM    5  N1  UNL     1      18.042  23.089  17.566  1.00  0.00    -0.283 N 
BRANCH   5   6
HETATM    6  S1  UNL     1      17.796  24.314  16.435  1.00  0.00     0.264 S 
HETATM    7  O2  UNL     1      16.782  25.308  16.978  1.00  0.00    -0.200 OA
HETATM    8  O3  UNL     1      17.203  23.658  15.192  1.00  0.00    -0.200 OA
BRANCH   6   9
HETATM    9  C5  UNL     1      19.210  25.189  15.985  1.00  0.00     0.080 A 
HETATM   10  C4  UNL     1      19.471  26.386  16.604  1.00  0.00     0.028 A 
HETATM   11  C3  UNL     1      20.593  27.104  16.272  1.00  0.00     0.038 A 
HETATM   12  C2  UNL     1      21.466  26.644  15.326  1.00  0.00     0.068 A 
HETATM   13  C32 UNL     1      21.192  25.437  14.710  1.00  0.00     0.038 A 
HETATM   14  C31 UNL     1      20.074  24.715  15.035  1.00  0.00     0.028 A 
BRANCH  12  15
HETATM   15  O1  UNL     1      22.577  27.405  15.032  1.00  0.00    -0.356 OA
HETATM   16  C1  UNL     1      22.469  28.780  14.702  1.00  0.00     0.210 C 
ENDBRANCH  12  15
ENDBRANCH   6   9
ENDBRANCH   5   6
BRANCH   5  17
HETATM   17  C6  UNL     1      19.087  23.225  18.500  1.00  0.00     0.080 C 
BRANCH  17  18
HETATM   18  C7  UNL     1      19.064  24.343  19.466  1.00  0.00     0.017 C 
HETATM   19  C8  UNL     1      20.432  24.818  19.923  1.00  0.00     0.015 C 
HETATM   20  C9  UNL     1      18.198  24.116  20.674  1.00  0.00     0.015 C 
ENDBRANCH  17  18
ENDBRANCH   5  17
ENDBRANCH   4   5
ENDBRANCH   3   4
BRANCH   3  21
HETATM   21  O4  UNL     1      17.397  21.127  19.207  1.00  0.00    -0.388 OA
ATOM     22  H4  UNL     1      17.384  20.281  19.639  1.00  0.00     0.210 HD
ENDBRANCH   3  21
ENDBRANCH   1   3
BRANCH   1  23
HETATM   23  N2  UNL     1      15.195  21.568  16.346  1.00  0.00    -0.304 N 
HETATM   24  C24 UNL     1      14.337  22.578  15.832  1.00  0.00     0.365 C 
HETATM   25  O5  UNL     1      13.941  23.462  16.631  1.00  0.00    -0.238 OA
ATOM     26  H2  UNL     1      15.528  20.840  15.713  1.00  0.00     0.171 HD
BRANCH  24  27
HETATM   27  O6  UNL     1      13.913  22.655  14.529  1.00  0.00    -0.296 OA
BRANCH  27  28
HETATM   28  C25 UNL     1      12.577  22.491  14.138  1.00  0.00     0.166 C 
HETATM   29  C26 UNL     1      12.367  22.379  12.666  1.00  0.00     0.204 C 
HETATM   30  O7  UNL     1      11.362  21.455  12.437  1.00  0.00    -0.358 OA
HETATM   31  C27 UNL     1      10.772  21.137  13.633  1.00  0.00     0.266 C 
HETATM   32  O8  UNL     1      10.407  19.814  13.760  1.00  0.00    -0.361 OA
HETATM   33  C30 UNL     1      11.933  21.232  14.636  1.00  0.00     0.075 C 
HETATM   34  C28 UNL     1      11.540  19.054  13.885  1.00  0.00     0.171 C 
HETATM   35  C29 UNL     1      12.674  19.985  14.290  1.00  0.00     0.038 C 
ENDBRANCH  27  28
ENDBRANCH  24  27
ENDBRANCH   1  23
BRANCH   2  36
HETATM   36  C14 UNL     1      14.029  19.833  18.911  1.00  0.00    -0.020 C 
HETATM   37  C15 UNL     1      12.615  19.886  18.254  1.00  0.00     0.018 C 
HETATM   38  C16 UNL     1      11.817  18.667  18.513  1.00  0.00    -0.013 C 
HETATM   39  C17 UNL     1      12.512  17.465  17.893  1.00  0.00     0.009 C 
HETATM   40  C21 UNL     1      11.606  18.430  19.997  1.00  0.00     0.009 C 
HETATM   41  C18 UNL     1      13.884  17.421  18.477  1.00  0.00    -0.013 C 
HETATM   42  C19 UNL     1      13.734  17.153  19.965  1.00  0.00     0.009 C 
HETATM   43  C23 UNL     1      14.694  18.689  18.214  1.00  0.00     0.018 C 
HETATM   44  C20 UNL     1      12.969  18.277  20.597  1.00  0.00    -0.013 C 
HETATM   45  C22 UNL     1      13.739  19.567  20.358  1.00  0.00     0.018 C 
ENDBRANCH   2  36
TORSDOF 13
ENDMDL
