MODEL 5
REMARK VINA RESULT: -9.416591941      2.057      4.875
REMARK  13 active torsions:
REMARK  status: ('A' for Active; 'I' for Inactive)
REMARK    1  A    between atoms: O1_2  and  C2_3 
REMARK    2  A    between atoms: C5_6  and  S1_7 
REMARK    3  A    between atoms: S1_7  and  N1_10 
REMARK    4  A    between atoms: N1_10  and  C6_11 
REMARK    5  A    between atoms: N1_10  and  C10_15 
REMARK    6  A    between atoms: C6_11  and  C7_12 
REMARK    7  A    between atoms: C10_15  and  C11_16 
REMARK    8  A    between atoms: C11_16  and  O4_17 
REMARK    9  A    between atoms: C11_16  and  C12_19 
REMARK   10  A    between atoms: C12_19  and  N2_31 
REMARK   11  A    between atoms: C13_20  and  C14_21 
REMARK       I    between atoms: N2_31  and  C24_33 
REMARK   12  A    between atoms: C24_33  and  O6_35 
REMARK   13  A    between atoms: O6_35  and  C25_36 
ROOT
HETATM    1  C12 UNL     1      15.488  21.760  16.354  1.00  0.00     0.041 C 
HETATM    2  C13 UNL     1      15.159  21.088  15.115  1.00  0.00     0.011 C 
ENDROOT
BRANCH   1   3
HETATM    3  C11 UNL     1      15.876  23.203  16.365  1.00  0.00     0.186 C 
BRANCH   3   4
HETATM    4  C10 UNL     1      16.995  23.373  15.351  1.00  0.00     0.178 C 
BRANCH   4   5
HETATM    5  N1  UNL     1      18.075  24.089  15.985  1.00  0.00    -0.283 N 
BRANCH   5   6
HETATM    6  S1  UNL     1      18.774  25.247  14.980  1.00  0.00     0.264 S 
HETATM    7  O2  UNL     1      17.749  26.320  14.653  1.00  0.00    -0.200 OA
HETATM    8  O3  UNL     1      19.155  24.538  13.684  1.00  0.00    -0.200 OA
BRANCH   6   9
HETATM    9  C5  UNL     1      20.171  26.025  15.622  1.00  0.00     0.080 A 
HETATM   10  C4  UNL     1      21.371  25.870  14.973  1.00  0.00     0.028 A 
HETATM   11  C3  UNL     1      22.500  26.482  15.455  1.00  0.00     0.038 A 
HETATM   12  C2  UNL     1      22.453  27.253  16.583  1.00  0.00     0.068 A 
HETATM   13  C32 UNL     1      21.239  27.401  17.229  1.00  0.00     0.038 A 
HETATM   14  C31 UNL     1      20.108  26.793  16.754  1.00  0.00     0.028 A 
BRANCH  12  15
HETATM   15  O1  UNL     1      23.618  27.844  17.024  1.00  0.00    -0.356 OA
HETATM   16  C1  UNL     1      24.699  28.103  16.143  1.00  0.00     0.210 C 
ENDBRANCH  12  15
ENDBRANCH   6   9
ENDBRANCH   5   6
BRANCH   5  17
HETATM   17  C6  UNL     1      18.911  23.293  16.791  1.00  0.00     0.080 C 
BRANCH  17  18
HETATM   18  C7  UNL     1      18.827  23.398  18.262  1.00  0.00     0.017 C 
HETATM   19  C8  UNL     1      20.098  23.882  18.940  1.00  0.00     0.015 C 
HETATM   20  C9  UNL     1      18.346  22.154  18.958  1.00  0.00     0.015 C 
ENDBRANCH  17  18
ENDBRANCH   5  17
ENDBRANCH   4   5
ENDBRANCH   3   4
BRANCH   3  21
HETATM   21  O4  UNL     1      14.786  23.938  15.940  1.00  0.00    -0.388 OA
ATOM     22  H4  UNL     1      14.193  24.049  16.675  1.00  0.00     0.210 HD
ENDBRANCH   3  21
ENDBRANCH   1   3
BRANCH   1  23
HETATM   23  N2  UNL     1      14.579  21.438  17.472  1.00  0.00    -0.304 N 
HETATM   24  C24 UNL     1      14.787  20.330  18.336  1.00  0.00     0.365 C 
HETATM   25  O5  UNL     1      15.793  19.609  18.120  1.00  0.00    -0.238 OA
ATOM     26  H2  UNL     1      13.767  22.036  17.630  1.00  0.00     0.171 HD
BRANCH  24  27
HETATM   27  O6  UNL     1      13.970  19.991  19.385  1.00  0.00    -0.296 OA
BRANCH  27  28
HETATM   28  C25 UNL     1      13.254  18.789  19.454  1.00  0.00     0.166 C 
HETATM   29  C26 UNL     1      12.165  18.768  20.473  1.00  0.00     0.204 C 
HETATM   30  O7  UNL     1      11.095  18.059  19.955  1.00  0.00    -0.358 OA
HETATM   31  C27 UNL     1      11.490  17.448  18.793  1.00  0.00     0.266 C 
HETATM   32  O8  UNL     1      10.530  17.419  17.804  1.00  0.00    -0.361 OA
HETATM   33  C30 UNL     1      12.508  18.437  18.202  1.00  0.00     0.075 C 
HETATM   34  C28 UNL     1      10.359  18.689  17.318  1.00  0.00     0.171 C 
HETATM   35  C29 UNL     1      11.582  19.501  17.719  1.00  0.00     0.038 C 
ENDBRANCH  27  28
ENDBRANCH  24  27
ENDBRANCH   1  23
BRANCH   2  36
HETATM   36  C14 UNL     1      14.075  21.425  14.202  1.00  0.00    -0.020 C 
HETATM   37  C15 UNL     1      13.651  20.048  13.602  1.00  0.00     0.018 C 
HETATM   38  C16 UNL     1      12.655  20.180  12.515  1.00  0.00    -0.013 C 
HETATM   39  C17 UNL     1      11.380  20.797  13.067  1.00  0.00     0.009 C 
HETATM   40  C21 UNL     1      13.177  21.021  11.364  1.00  0.00     0.009 C 
HETATM   41  C18 UNL     1      11.771  22.098  13.684  1.00  0.00    -0.013 C 
HETATM   42  C19 UNL     1      12.274  22.996  12.567  1.00  0.00     0.009 C 
HETATM   43  C23 UNL     1      12.808  21.951  14.797  1.00  0.00     0.018 C 
HETATM   44  C20 UNL     1      13.481  22.372  11.935  1.00  0.00    -0.013 C 
HETATM   45  C22 UNL     1      14.546  22.203  13.009  1.00  0.00     0.018 C 
ENDBRANCH   2  36
TORSDOF 13
ENDMDL
