MODEL 6
REMARK VINA RESULT: -9.413120495      2.925      9.270
REMARK  13 active torsions:
REMARK  status: ('A' for Active; 'I' for Inactive)
REMARK    1  A    between atoms: O1_2  and  C2_3 
REMARK    2  A    between atoms: C5_6  and  S1_7 
REMARK    3  A    between atoms: S1_7  and  N1_10 
REMARK    4  A    between atoms: N1_10  and  C6_11 
REMARK    5  A    between atoms: N1_10  and  C10_15 
REMARK    6  A    between atoms: C6_11  and  C7_12 
REMARK    7  A    between atoms: C10_15  and  C11_16 
REMARK    8  A    between atoms: C11_16  and  O4_17 
REMARK    9  A    between atoms: C11_16  and  C12_19 
REMARK   10  A    between atoms: C12_19  and  N2_31 
REMARK   11  A    between atoms: C13_20  and  C14_21 
REMARK       I    between atoms: N2_31  and  C24_33 
REMARK   12  A    between atoms: C24_33  and  O6_35 
REMARK   13  A    between atoms: O6_35  and  C25_36 
ROOT
HETATM    1  C12 UNL     1      14.474  22.148  16.763  1.00  0.00     0.041 C 
HETATM    2  C13 UNL     1      13.742  22.428  15.546  1.00  0.00     0.011 C 
ENDROOT
BRANCH   1   3
HETATM    3  C11 UNL     1      14.260  20.873  17.511  1.00  0.00     0.186 C 
BRANCH   3   4
HETATM    4  C10 UNL     1      12.768  20.586  17.487  1.00  0.00     0.178 C 
BRANCH   4   5
HETATM    5  N1  UNL     1      12.541  19.318  18.137  1.00  0.00    -0.283 N 
BRANCH   5   6
HETATM    6  S1  UNL     1      10.973  18.739  17.920  1.00  0.00     0.264 S 
HETATM    7  O2  UNL     1      10.097  19.849  17.364  1.00  0.00    -0.200 OA
HETATM    8  O3  UNL     1      10.446  18.360  19.300  1.00  0.00    -0.200 OA
BRANCH   6   9
HETATM    9  C5  UNL     1      10.834  17.377  16.876  1.00  0.00     0.080 A 
HETATM   10  C4  UNL     1      10.795  16.121  17.429  1.00  0.00     0.028 A 
HETATM   11  C3  UNL     1      10.677  15.016  16.623  1.00  0.00     0.038 A 
HETATM   12  C2  UNL     1      10.598  15.143  15.265  1.00  0.00     0.068 A 
HETATM   13  C32 UNL     1      10.639  16.413  14.719  1.00  0.00     0.038 A 
HETATM   14  C31 UNL     1      10.756  17.521  15.516  1.00  0.00     0.028 A 
BRANCH  12  15
HETATM   15  O1  UNL     1      10.481  13.999  14.504  1.00  0.00    -0.356 OA
HETATM   16  C1  UNL     1      10.440  12.712  15.098  1.00  0.00     0.210 C 
ENDBRANCH  12  15
ENDBRANCH   6   9
ENDBRANCH   5   6
BRANCH   5  17
HETATM   17  C6  UNL     1      13.142  19.195  19.404  1.00  0.00     0.080 C 
BRANCH  17  18
HETATM   18  C7  UNL     1      13.759  17.911  19.801  1.00  0.00     0.017 C 
HETATM   19  C8  UNL     1      14.273  17.069  18.646  1.00  0.00     0.015 C 
HETATM   20  C9  UNL     1      12.907  17.050  20.692  1.00  0.00     0.015 C 
ENDBRANCH  17  18
ENDBRANCH   5  17
ENDBRANCH   4   5
ENDBRANCH   3   4
BRANCH   3  21
HETATM   21  O4  UNL     1      14.910  19.865  16.825  1.00  0.00    -0.388 OA
ATOM     22  H4  UNL     1      15.834  19.899  17.045  1.00  0.00     0.210 HD
ENDBRANCH   3  21
ENDBRANCH   1   3
BRANCH   1  23
HETATM   23  N2  UNL     1      15.906  22.500  16.695  1.00  0.00    -0.304 N 
HETATM   24  C24 UNL     1      16.461  23.598  17.406  1.00  0.00     0.365 C 
HETATM   25  O5  UNL     1      15.681  24.282  18.114  1.00  0.00    -0.238 OA
ATOM     26  H2  UNL     1      16.523  21.931  16.114  1.00  0.00     0.171 HD
BRANCH  24  27
HETATM   27  O6  UNL     1      17.784  23.962  17.374  1.00  0.00    -0.296 OA
BRANCH  27  28
HETATM   28  C25 UNL     1      18.237  25.193  16.882  1.00  0.00     0.166 C 
HETATM   29  C26 UNL     1      19.718  25.363  16.894  1.00  0.00     0.204 C 
HETATM   30  O7  UNL     1      20.088  26.059  15.755  1.00  0.00    -0.358 OA
HETATM   31  C27 UNL     1      18.957  26.531  15.139  1.00  0.00     0.266 C 
HETATM   32  O8  UNL     1      18.998  26.497  13.761  1.00  0.00    -0.361 OA
HETATM   33  C30 UNL     1      17.911  25.445  15.441  1.00  0.00     0.075 C 
HETATM   34  C28 UNL     1      18.923  25.192  13.350  1.00  0.00     0.171 C 
HETATM   35  C29 UNL     1      18.374  24.376  14.511  1.00  0.00     0.038 C 
ENDBRANCH  27  28
ENDBRANCH  24  27
ENDBRANCH   1  23
BRANCH   2  36
HETATM   36  C14 UNL     1      13.774  21.654  14.311  1.00  0.00    -0.020 C 
HETATM   37  C15 UNL     1      13.258  22.654  13.230  1.00  0.00     0.018 C 
HETATM   38  C16 UNL     1      13.057  22.016  11.910  1.00  0.00    -0.013 C 
HETATM   39  C17 UNL     1      14.388  21.500  11.388  1.00  0.00     0.009 C 
HETATM   40  C21 UNL     1      12.054  20.879  11.974  1.00  0.00     0.009 C 
HETATM   41  C18 UNL     1      14.921  20.572  12.429  1.00  0.00    -0.013 C 
HETATM   42  C19 UNL     1      13.968  19.392  12.514  1.00  0.00     0.009 C 
HETATM   43  C23 UNL     1      15.112  21.238  13.791  1.00  0.00     0.018 C 
HETATM   44  C20 UNL     1      12.614  19.878  12.937  1.00  0.00    -0.013 C 
HETATM   45  C22 UNL     1      12.755  20.553  14.293  1.00  0.00     0.018 C 
ENDBRANCH   2  36
TORSDOF 13
ENDMDL
