MODEL 14
REMARK VINA RESULT: -9.980832845      2.231      3.486
REMARK  13 active torsions:
REMARK  status: ('A' for Active; 'I' for Inactive)
REMARK    1  A    between atoms: O1_2  and  C2_3 
REMARK    2  A    between atoms: C5_6  and  S1_7 
REMARK    3  A    between atoms: S1_7  and  N1_10 
REMARK    4  A    between atoms: N1_10  and  C6_11 
REMARK    5  A    between atoms: N1_10  and  C13_18 
REMARK    6  A    between atoms: C6_11  and  C7_12 
REMARK    7  A    between atoms: C13_18  and  C14_19 
REMARK    8  A    between atoms: C14_19  and  O4_20 
REMARK    9  A    between atoms: C14_19  and  C15_22 
REMARK   10  A    between atoms: C15_22  and  N2_34 
REMARK   11  A    between atoms: C16_23  and  C17_24 
REMARK       I    between atoms: N2_34  and  C27_36 
REMARK   12  A    between atoms: C27_36  and  O6_38 
REMARK   13  A    between atoms: O6_38  and  C28_39 
ROOT
HETATM    1  C15 UNL     1      15.975  21.894  16.378  1.00  0.00     0.041 C 
HETATM    2  C16 UNL     1      15.609  21.198  15.172  1.00  0.00     0.011 C 
ENDROOT
BRANCH   1   3
HETATM    3  C14 UNL     1      16.370  23.304  16.481  1.00  0.00     0.186 C 
BRANCH   3   4
HETATM    4  C13 UNL     1      17.349  23.835  15.500  1.00  0.00     0.179 C 
BRANCH   4   5
HETATM    5  N1  UNL     1      18.536  24.409  16.095  1.00  0.00    -0.279 N 
BRANCH   5   6
HETATM    6  S1  UNL     1      19.228  25.628  15.129  1.00  0.00     0.264 S 
HETATM    7  O2  UNL     1      18.275  26.773  14.929  1.00  0.00    -0.200 OA
HETATM    8  O3  UNL     1      19.606  25.096  13.755  1.00  0.00    -0.200 OA
BRANCH   6   9
HETATM    9  C5  UNL     1      20.698  26.243  15.825  1.00  0.00     0.080 A 
HETATM   10  C4  UNL     1      20.712  26.888  17.044  1.00  0.00     0.028 A 
HETATM   11  C3  UNL     1      21.861  27.360  17.616  1.00  0.00     0.038 A 
HETATM   12  C2  UNL     1      23.090  27.190  16.942  1.00  0.00     0.068 A 
HETATM   13  C35 UNL     1      23.080  26.556  15.739  1.00  0.00     0.038 A 
HETATM   14  C34 UNL     1      21.912  26.070  15.148  1.00  0.00     0.028 A 
BRANCH  12  15
HETATM   15  O1  UNL     1      24.228  27.677  17.542  1.00  0.00    -0.356 OA
HETATM   16  C1  UNL     1      25.235  26.918  18.133  1.00  0.00     0.210 C 
ENDBRANCH  12  15
ENDBRANCH   6   9
ENDBRANCH   5   6
BRANCH   5  17
HETATM   17  C6  UNL     1      19.391  23.516  16.735  1.00  0.00     0.114 C 
BRANCH  17  18
HETATM   18  C7  UNL     1      19.135  23.339  18.203  1.00  0.00    -0.020 A 
HETATM   19  C8  UNL     1      19.143  24.423  19.089  1.00  0.00     0.013 A 
HETATM   20  C9  UNL     1      18.925  24.145  20.416  1.00  0.00     0.001 A 
HETATM   21  C10 UNL     1      18.702  22.867  20.894  1.00  0.00     0.000 A 
HETATM   22  C11 UNL     1      18.695  21.823  20.016  1.00  0.00     0.001 A 
HETATM   23  C12 UNL     1      18.915  22.082  18.666  1.00  0.00     0.013 A 
ENDBRANCH  17  18
ENDBRANCH   5  17
ENDBRANCH   4   5
ENDBRANCH   3   4
BRANCH   3  24
HETATM   24  O4  UNL     1      15.186  24.085  16.482  1.00  0.00    -0.388 OA
ATOM     25  H4  UNL     1      14.916  24.286  15.593  1.00  0.00     0.210 HD
ENDBRANCH   3  24
ENDBRANCH   1   3
BRANCH   1  26
HETATM   26  N2  UNL     1      15.045  21.630  17.508  1.00  0.00    -0.304 N 
HETATM   27  C27 UNL     1      15.235  20.555  18.397  1.00  0.00     0.365 C 
HETATM   28  O5  UNL     1      16.241  19.758  18.244  1.00  0.00    -0.238 OA
ATOM     29  H2  UNL     1      14.244  22.246  17.642  1.00  0.00     0.171 HD
BRANCH  27  30
HETATM   30  O6  UNL     1      14.434  20.233  19.471  1.00  0.00    -0.296 OA
BRANCH  30  31
HETATM   31  C28 UNL     1      13.967  18.925  19.726  1.00  0.00     0.166 C 
HETATM   32  C29 UNL     1      13.117  18.834  20.969  1.00  0.00     0.204 C 
HETATM   33  O7  UNL     1      12.344  17.719  20.751  1.00  0.00    -0.358 OA
HETATM   34  C30 UNL     1      12.094  17.569  19.409  1.00  0.00     0.266 C 
HETATM   35  O8  UNL     1      10.791  17.965  19.148  1.00  0.00    -0.361 OA
HETATM   36  C33 UNL     1      13.023  18.478  18.664  1.00  0.00     0.075 C 
HETATM   37  C31 UNL     1      10.807  18.740  18.010  1.00  0.00     0.171 C 
HETATM   38  C32 UNL     1      12.073  19.549  18.174  1.00  0.00     0.038 C 
ENDBRANCH  30  31
ENDBRANCH  27  30
ENDBRANCH   1  26
BRANCH   2  39
HETATM   39  C17 UNL     1      14.520  21.517  14.249  1.00  0.00    -0.020 C 
HETATM   40  C18 UNL     1      13.172  21.730  14.814  1.00  0.00     0.018 C 
HETATM   41  C19 UNL     1      12.141  21.934  13.706  1.00  0.00    -0.013 C 
HETATM   42  C20 UNL     1      12.501  23.113  12.872  1.00  0.00     0.009 C 
HETATM   43  C24 UNL     1      11.994  20.706  12.851  1.00  0.00     0.009 C 
HETATM   44  C21 UNL     1      13.824  22.810  12.196  1.00  0.00    -0.013 C 
HETATM   45  C22 UNL     1      13.722  21.589  11.327  1.00  0.00     0.009 C 
HETATM   46  C26 UNL     1      14.886  22.547  13.247  1.00  0.00     0.018 C 
HETATM   47  C23 UNL     1      13.366  20.445  12.256  1.00  0.00    -0.013 C 
HETATM   48  C25 UNL     1      14.323  20.221  13.354  1.00  0.00     0.018 C 
ENDBRANCH   2  39
TORSDOF 13
ENDMDL
