MODEL 9
REMARK VINA RESULT: -10.079342077      2.614     10.262
REMARK  13 active torsions:
REMARK  status: ('A' for Active; 'I' for Inactive)
REMARK    1  A    between atoms: O1_2  and  C2_3 
REMARK    2  A    between atoms: C5_6  and  S1_7 
REMARK    3  A    between atoms: S1_7  and  N1_10 
REMARK    4  A    between atoms: N1_10  and  C6_11 
REMARK    5  A    between atoms: N1_10  and  C13_18 
REMARK    6  A    between atoms: C6_11  and  C7_12 
REMARK    7  A    between atoms: C13_18  and  C14_19 
REMARK    8  A    between atoms: C14_19  and  O4_20 
REMARK    9  A    between atoms: C14_19  and  C15_22 
REMARK   10  A    between atoms: C15_22  and  N2_34 
REMARK   11  A    between atoms: C16_23  and  C17_24 
REMARK       I    between atoms: N2_34  and  C27_36 
REMARK   12  A    between atoms: C27_36  and  O6_38 
REMARK   13  A    between atoms: O6_38  and  C28_39 
ROOT
HETATM    1  C15 UNL     1      17.579  23.486  17.714  1.00  0.00     0.041 C 
HETATM    2  C16 UNL     1      18.765  22.871  18.250  1.00  0.00     0.011 C 
ENDROOT
BRANCH   1   3
HETATM    3  C14 UNL     1      16.265  23.554  18.366  1.00  0.00     0.186 C 
BRANCH   3   4
HETATM    4  C13 UNL     1      15.052  23.519  17.511  1.00  0.00     0.179 C 
BRANCH   4   5
HETATM    5  N1  UNL     1      14.748  22.216  16.963  1.00  0.00    -0.279 N 
BRANCH   5   6
HETATM    6  S1  UNL     1      14.983  22.143  15.278  1.00  0.00     0.264 S 
HETATM    7  O2  UNL     1      16.236  21.390  14.934  1.00  0.00    -0.200 OA
HETATM    8  O3  UNL     1      15.100  23.535  14.677  1.00  0.00    -0.200 OA
BRANCH   6   9
HETATM    9  C5  UNL     1      13.640  21.386  14.474  1.00  0.00     0.080 A 
HETATM   10  C4  UNL     1      12.555  22.112  14.028  1.00  0.00     0.028 A 
HETATM   11  C3  UNL     1      11.500  21.537  13.377  1.00  0.00     0.038 A 
HETATM   12  C2  UNL     1      11.505  20.144  13.146  1.00  0.00     0.068 A 
HETATM   13  C35 UNL     1      12.571  19.425  13.587  1.00  0.00     0.038 A 
HETATM   14  C34 UNL     1      13.653  20.003  14.251  1.00  0.00     0.028 A 
BRANCH  12  15
HETATM   15  O1  UNL     1      10.428  19.595  12.489  1.00  0.00    -0.356 OA
HETATM   16  C1  UNL     1      10.455  18.479  11.656  1.00  0.00     0.210 C 
ENDBRANCH  12  15
ENDBRANCH   6   9
ENDBRANCH   5   6
BRANCH   5  17
HETATM   17  C6  UNL     1      13.634  21.573  17.497  1.00  0.00     0.114 C 
BRANCH  17  18
HETATM   18  C7  UNL     1      13.904  20.210  18.065  1.00  0.00    -0.020 A 
HETATM   19  C8  UNL     1      15.174  19.624  18.003  1.00  0.00     0.013 A 
HETATM   20  C9  UNL     1      15.304  18.361  18.528  1.00  0.00     0.001 A 
HETATM   21  C10 UNL     1      14.254  17.670  19.101  1.00  0.00     0.000 A 
HETATM   22  C11 UNL     1      13.024  18.257  19.156  1.00  0.00     0.001 A 
HETATM   23  C12 UNL     1      12.869  19.536  18.628  1.00  0.00     0.013 A 
ENDBRANCH  17  18
ENDBRANCH   5  17
ENDBRANCH   4   5
ENDBRANCH   3   4
BRANCH   3  24
HETATM   24  O4  UNL     1      16.216  22.530  19.346  1.00  0.00    -0.388 OA
ATOM     25  H4  UNL     1      15.713  21.788  19.032  1.00  0.00     0.210 HD
ENDBRANCH   3  24
ENDBRANCH   1   3
BRANCH   1  26
HETATM   26  N2  UNL     1      17.833  24.831  17.132  1.00  0.00    -0.304 N 
HETATM   27  C27 UNL     1      18.258  25.001  15.800  1.00  0.00     0.365 C 
HETATM   28  O5  UNL     1      18.443  23.970  15.043  1.00  0.00    -0.238 OA
ATOM     29  H2  UNL     1      17.696  25.656  17.715  1.00  0.00     0.171 HD
BRANCH  27  30
HETATM   30  O6  UNL     1      18.515  26.199  15.172  1.00  0.00    -0.296 OA
BRANCH  30  31
HETATM   31  C28 UNL     1      19.736  26.492  14.527  1.00  0.00     0.166 C 
HETATM   32  C29 UNL     1      19.830  27.924  14.063  1.00  0.00     0.204 C 
HETATM   33  O7  UNL     1      21.184  28.154  13.996  1.00  0.00    -0.358 OA
HETATM   34  C30 UNL     1      21.840  27.411  14.946  1.00  0.00     0.266 C 
HETATM   35  O8  UNL     1      22.212  28.246  15.989  1.00  0.00    -0.361 OA
HETATM   36  C33 UNL     1      20.880  26.390  15.475  1.00  0.00     0.075 C 
HETATM   37  C31 UNL     1      21.916  27.601  17.169  1.00  0.00     0.171 C 
HETATM   38  C32 UNL     1      20.597  26.928  16.862  1.00  0.00     0.038 C 
ENDBRANCH  30  31
ENDBRANCH  27  30
ENDBRANCH   1  26
BRANCH   2  39
HETATM   39  C17 UNL     1      19.458  23.195  19.497  1.00  0.00    -0.020 C 
HETATM   40  C18 UNL     1      18.784  24.101  20.450  1.00  0.00     0.018 C 
HETATM   41  C19 UNL     1      19.693  24.424  21.633  1.00  0.00    -0.013 C 
HETATM   42  C20 UNL     1      20.075  23.177  22.350  1.00  0.00     0.009 C 
HETATM   43  C24 UNL     1      20.916  25.183  21.203  1.00  0.00     0.009 C 
HETATM   44  C21 UNL     1      20.883  22.325  21.390  1.00  0.00    -0.013 C 
HETATM   45  C22 UNL     1      22.120  23.046  20.936  1.00  0.00     0.009 C 
HETATM   46  C26 UNL     1      20.049  22.009  20.163  1.00  0.00     0.018 C 
HETATM   47  C23 UNL     1      21.637  24.287  20.212  1.00  0.00    -0.013 C 
HETATM   48  C25 UNL     1      20.740  24.027  19.072  1.00  0.00     0.018 C 
ENDBRANCH   2  39
TORSDOF 13
ENDMDL
