MODEL 6
REMARK VINA RESULT: -10.332370932      2.179      6.968
REMARK  13 active torsions:
REMARK  status: ('A' for Active; 'I' for Inactive)
REMARK    1  A    between atoms: O1_2  and  C2_3 
REMARK    2  A    between atoms: C5_6  and  S1_7 
REMARK    3  A    between atoms: S1_7  and  N1_10 
REMARK    4  A    between atoms: N1_10  and  C6_11 
REMARK    5  A    between atoms: N1_10  and  C13_18 
REMARK    6  A    between atoms: C6_11  and  C7_12 
REMARK    7  A    between atoms: C13_18  and  C14_19 
REMARK    8  A    between atoms: C14_19  and  O4_20 
REMARK    9  A    between atoms: C14_19  and  C15_22 
REMARK   10  A    between atoms: C15_22  and  N2_34 
REMARK   11  A    between atoms: C16_23  and  C17_24 
REMARK       I    between atoms: N2_34  and  C27_36 
REMARK   12  A    between atoms: C27_36  and  O6_38 
REMARK   13  A    between atoms: O6_38  and  C28_39 
ROOT
HETATM    1  C15 UNL     1      15.173  24.106  16.111  1.00  0.00     0.041 C 
HETATM    2  C16 UNL     1      14.559  23.897  14.826  1.00  0.00     0.011 C 
ENDROOT
BRANCH   1   3
HETATM    3  C14 UNL     1      14.788  23.459  17.373  1.00  0.00     0.186 C 
BRANCH   3   4
HETATM    4  C13 UNL     1      15.862  22.914  18.240  1.00  0.00     0.179 C 
BRANCH   4   5
HETATM    5  N1  UNL     1      16.099  21.497  18.072  1.00  0.00    -0.279 N 
BRANCH   5   6
HETATM    6  S1  UNL     1      17.733  21.139  17.757  1.00  0.00     0.264 S 
HETATM    7  O2  UNL     1      18.135  21.592  16.383  1.00  0.00    -0.200 OA
HETATM    8  O3  UNL     1      17.998  19.644  17.847  1.00  0.00    -0.200 OA
BRANCH   6   9
HETATM    9  C5  UNL     1      18.789  21.882  18.920  1.00  0.00     0.080 A 
HETATM   10  C4  UNL     1      19.599  22.949  18.591  1.00  0.00     0.028 A 
HETATM   11  C3  UNL     1      20.422  23.559  19.497  1.00  0.00     0.038 A 
HETATM   12  C2  UNL     1      20.456  23.087  20.828  1.00  0.00     0.068 A 
HETATM   13  C35 UNL     1      19.661  22.034  21.155  1.00  0.00     0.038 A 
HETATM   14  C34 UNL     1      18.818  21.406  20.238  1.00  0.00     0.028 A 
BRANCH  12  15
HETATM   15  O1  UNL     1      21.295  23.720  21.715  1.00  0.00    -0.356 OA
HETATM   16  C1  UNL     1      21.495  25.094  21.820  1.00  0.00     0.210 C 
ENDBRANCH  12  15
ENDBRANCH   6   9
ENDBRANCH   5   6
BRANCH   5  17
HETATM   17  C6  UNL     1      15.126  20.794  17.364  1.00  0.00     0.114 C 
BRANCH  17  18
HETATM   18  C7  UNL     1      14.153  20.032  18.215  1.00  0.00    -0.020 A 
HETATM   19  C8  UNL     1      12.817  19.859  17.831  1.00  0.00     0.013 A 
HETATM   20  C9  UNL     1      12.005  19.169  18.698  1.00  0.00     0.001 A 
HETATM   21  C10 UNL     1      12.448  18.654  19.901  1.00  0.00     0.000 A 
HETATM   22  C11 UNL     1      13.754  18.831  20.258  1.00  0.00     0.001 A 
HETATM   23  C12 UNL     1      14.595  19.528  19.395  1.00  0.00     0.013 A 
ENDBRANCH  17  18
ENDBRANCH   5  17
ENDBRANCH   4   5
ENDBRANCH   3   4
BRANCH   3  24
HETATM   24  O4  UNL     1      13.975  24.370  18.094  1.00  0.00    -0.388 OA
ATOM     25  H4  UNL     1      13.191  23.940  18.415  1.00  0.00     0.210 HD
ENDBRANCH   3  24
ENDBRANCH   1   3
BRANCH   1  26
HETATM   26  N2  UNL     1      16.659  24.080  16.058  1.00  0.00    -0.304 N 
HETATM   27  C27 UNL     1      17.445  25.101  16.626  1.00  0.00     0.365 C 
HETATM   28  O5  UNL     1      16.879  26.103  17.214  1.00  0.00    -0.238 OA
ATOM     29  H2  UNL     1      17.124  23.299  15.595  1.00  0.00     0.171 HD
BRANCH  27  30
HETATM   30  O6  UNL     1      18.821  25.164  16.632  1.00  0.00    -0.296 OA
BRANCH  30  31
HETATM   31  C28 UNL     1      19.593  25.387  15.470  1.00  0.00     0.166 C 
HETATM   32  C29 UNL     1      19.056  26.505  14.611  1.00  0.00     0.204 C 
HETATM   33  O7  UNL     1      20.158  26.927  13.905  1.00  0.00    -0.358 OA
HETATM   34  C30 UNL     1      21.297  26.758  14.654  1.00  0.00     0.266 C 
HETATM   35  O8  UNL     1      21.701  27.992  15.138  1.00  0.00    -0.361 OA
HETATM   36  C33 UNL     1      20.954  25.881  15.818  1.00  0.00     0.075 C 
HETATM   37  C31 UNL     1      22.042  27.832  16.463  1.00  0.00     0.171 C 
HETATM   38  C32 UNL     1      20.991  26.868  16.965  1.00  0.00     0.038 C 
ENDBRANCH  30  31
ENDBRANCH  27  30
ENDBRANCH   1  26
BRANCH   2  39
HETATM   39  C17 UNL     1      14.435  22.642  14.085  1.00  0.00    -0.020 C 
HETATM   40  C18 UNL     1      15.645  21.810  13.920  1.00  0.00     0.018 C 
HETATM   41  C19 UNL     1      15.362  20.605  13.027  1.00  0.00    -0.013 C 
HETATM   42  C20 UNL     1      14.283  19.765  13.614  1.00  0.00     0.009 C 
HETATM   43  C24 UNL     1      15.006  21.022  11.627  1.00  0.00     0.009 C 
HETATM   44  C21 UNL     1      13.017  20.600  13.644  1.00  0.00    -0.013 C 
HETATM   45  C22 UNL     1      12.622  21.037  12.262  1.00  0.00     0.009 C 
HETATM   46  C26 UNL     1      13.248  21.845  14.480  1.00  0.00     0.018 C 
HETATM   47  C23 UNL     1      13.767  21.890  11.753  1.00  0.00    -0.013 C 
HETATM   48  C25 UNL     1      14.090  23.056  12.592  1.00  0.00     0.018 C 
ENDBRANCH   2  39
TORSDOF 13
ENDMDL
