MODEL 8
REMARK VINA RESULT: -10.145084887      1.736      3.503
REMARK  13 active torsions:
REMARK  status: ('A' for Active; 'I' for Inactive)
REMARK    1  A    between atoms: O1_2  and  C2_3 
REMARK    2  A    between atoms: C5_6  and  S1_7 
REMARK    3  A    between atoms: S1_7  and  N1_10 
REMARK    4  A    between atoms: N1_10  and  C6_11 
REMARK    5  A    between atoms: N1_10  and  C13_18 
REMARK    6  A    between atoms: C6_11  and  C7_12 
REMARK    7  A    between atoms: C13_18  and  C14_19 
REMARK    8  A    between atoms: C14_19  and  O4_20 
REMARK    9  A    between atoms: C14_19  and  C15_22 
REMARK   10  A    between atoms: C15_22  and  N2_34 
REMARK   11  A    between atoms: C16_23  and  C17_24 
REMARK       I    between atoms: N2_34  and  C27_36 
REMARK   12  A    between atoms: C27_36  and  O6_38 
REMARK   13  A    between atoms: O6_38  and  C28_39 
ROOT
HETATM    1  C15 UNL     1      15.085  22.113  17.156  1.00  0.00     0.041 C 
HETATM    2  C16 UNL     1      15.249  21.551  15.840  1.00  0.00     0.011 C 
ENDROOT
BRANCH   1   3
HETATM    3  C14 UNL     1      14.978  23.540  17.484  1.00  0.00     0.186 C 
BRANCH   3   4
HETATM    4  C13 UNL     1      16.159  24.408  17.248  1.00  0.00     0.179 C 
BRANCH   4   5
HETATM    5  N1  UNL     1      17.397  23.883  17.781  1.00  0.00    -0.279 N 
BRANCH   5   6
HETATM    6  S1  UNL     1      18.586  23.667  16.582  1.00  0.00     0.264 S 
HETATM    7  O2  UNL     1      17.986  23.158  15.303  1.00  0.00    -0.200 OA
HETATM    8  O3  UNL     1      19.643  22.668  17.026  1.00  0.00    -0.200 OA
BRANCH   6   9
HETATM    9  C5  UNL     1      19.437  25.146  16.248  1.00  0.00     0.080 A 
HETATM   10  C4  UNL     1      19.602  25.616  14.962  1.00  0.00     0.028 A 
HETATM   11  C3  UNL     1      20.251  26.786  14.682  1.00  0.00     0.038 A 
HETATM   12  C2  UNL     1      20.782  27.555  15.741  1.00  0.00     0.068 A 
HETATM   13  C35 UNL     1      20.623  27.093  17.010  1.00  0.00     0.038 A 
HETATM   14  C34 UNL     1      19.961  25.901  17.306  1.00  0.00     0.028 A 
BRANCH  12  15
HETATM   15  O1  UNL     1      21.430  28.727  15.427  1.00  0.00    -0.356 OA
HETATM   16  C1  UNL     1      22.796  28.875  15.204  1.00  0.00     0.210 C 
ENDBRANCH  12  15
ENDBRANCH   6   9
ENDBRANCH   5   6
BRANCH   5  17
HETATM   17  C6  UNL     1      17.273  22.903  18.764  1.00  0.00     0.114 C 
BRANCH  17  18
HETATM   18  C7  UNL     1      18.276  22.994  19.876  1.00  0.00    -0.020 A 
HETATM   19  C8  UNL     1      18.678  24.226  20.406  1.00  0.00     0.013 A 
HETATM   20  C9  UNL     1      19.623  24.196  21.403  1.00  0.00     0.001 A 
HETATM   21  C10 UNL     1      20.174  23.025  21.888  1.00  0.00     0.000 A 
HETATM   22  C11 UNL     1      19.768  21.834  21.361  1.00  0.00     0.001 A 
HETATM   23  C12 UNL     1      18.812  21.840  20.349  1.00  0.00     0.013 A 
ENDBRANCH  17  18
ENDBRANCH   5  17
ENDBRANCH   4   5
ENDBRANCH   3   4
BRANCH   3  24
HETATM   24  O4  UNL     1      13.838  24.052  16.814  1.00  0.00    -0.388 OA
ATOM     25  H4  UNL     1      13.091  23.477  16.933  1.00  0.00     0.210 HD
ENDBRANCH   3  24
ENDBRANCH   1   3
BRANCH   1  26
HETATM   26  N2  UNL     1      14.050  21.413  17.963  1.00  0.00    -0.304 N 
HETATM   27  C27 UNL     1      14.382  20.421  18.906  1.00  0.00     0.365 C 
HETATM   28  O5  UNL     1      15.618  20.090  19.089  1.00  0.00    -0.238 OA
ATOM     29  H2  UNL     1      13.070  21.659  17.829  1.00  0.00     0.171 HD
BRANCH  27  30
HETATM   30  O6  UNL     1      13.500  19.723  19.700  1.00  0.00    -0.296 OA
BRANCH  30  31
HETATM   31  C28 UNL     1      13.360  18.318  19.657  1.00  0.00     0.166 C 
HETATM   32  C29 UNL     1      12.422  17.786  20.711  1.00  0.00     0.204 C 
HETATM   33  O7  UNL     1      11.995  16.588  20.188  1.00  0.00    -0.358 OA
HETATM   34  C30 UNL     1      11.955  16.655  18.817  1.00  0.00     0.266 C 
HETATM   35  O8  UNL     1      10.634  16.780  18.414  1.00  0.00    -0.361 OA
HETATM   36  C33 UNL     1      12.698  17.885  18.395  1.00  0.00     0.075 C 
HETATM   37  C31 UNL     1      10.584  17.749  17.436  1.00  0.00     0.171 C 
HETATM   38  C32 UNL     1      11.568  18.782  17.937  1.00  0.00     0.038 C 
ENDBRANCH  30  31
ENDBRANCH  27  30
ENDBRANCH   1  26
BRANCH   2  39
HETATM   39  C17 UNL     1      14.361  21.696  14.687  1.00  0.00    -0.020 C 
HETATM   40  C18 UNL     1      12.905  21.608  14.917  1.00  0.00     0.018 C 
HETATM   41  C19 UNL     1      12.139  21.662  13.597  1.00  0.00    -0.013 C 
HETATM   42  C20 UNL     1      12.431  22.932  12.878  1.00  0.00     0.009 C 
HETATM   43  C24 UNL     1      12.449  20.477  12.726  1.00  0.00     0.009 C 
HETATM   44  C21 UNL     1      13.909  22.933  12.534  1.00  0.00    -0.013 C 
HETATM   45  C22 UNL     1      14.262  21.764  11.659  1.00  0.00     0.009 C 
HETATM   46  C26 UNL     1      14.729  22.831  13.806  1.00  0.00     0.018 C 
HETATM   47  C23 UNL     1      13.945  20.525  12.472  1.00  0.00    -0.013 C 
HETATM   48  C25 UNL     1      14.646  20.437  13.764  1.00  0.00     0.018 C 
ENDBRANCH   2  39
TORSDOF 13
ENDMDL
