MODEL 4
REMARK VINA RESULT: -10.466211219      2.038      6.045
REMARK  13 active torsions:
REMARK  status: ('A' for Active; 'I' for Inactive)
REMARK    1  A    between atoms: O1_2  and  C2_3 
REMARK    2  A    between atoms: C5_6  and  S1_7 
REMARK    3  A    between atoms: S1_7  and  N1_10 
REMARK    4  A    between atoms: N1_10  and  C6_11 
REMARK    5  A    between atoms: N1_10  and  C13_18 
REMARK    6  A    between atoms: C6_11  and  C7_12 
REMARK    7  A    between atoms: C13_18  and  C14_19 
REMARK    8  A    between atoms: C14_19  and  O4_20 
REMARK    9  A    between atoms: C14_19  and  C15_22 
REMARK   10  A    between atoms: C15_22  and  N2_34 
REMARK   11  A    between atoms: C16_23  and  C17_24 
REMARK       I    between atoms: N2_34  and  C27_36 
REMARK   12  A    between atoms: C27_36  and  O6_38 
REMARK   13  A    between atoms: O6_38  and  C28_39 
ROOT
HETATM    1  C15 UNL     1      16.810  21.743  18.032  1.00  0.00     0.041 C 
HETATM    2  C16 UNL     1      17.194  22.665  19.069  1.00  0.00     0.011 C 
ENDROOT
BRANCH   1   3
HETATM    3  C14 UNL     1      17.480  21.563  16.737  1.00  0.00     0.186 C 
BRANCH   3   4
HETATM    4  C13 UNL     1      18.061  22.757  16.074  1.00  0.00     0.179 C 
BRANCH   4   5
HETATM    5  N1  UNL     1      17.082  23.720  15.620  1.00  0.00    -0.279 N 
BRANCH   5   6
HETATM    6  S1  UNL     1      17.504  25.320  16.021  1.00  0.00     0.264 S 
HETATM    7  O2  UNL     1      17.128  25.645  17.438  1.00  0.00    -0.200 OA
HETATM    8  O3  UNL     1      16.801  26.320  15.116  1.00  0.00    -0.200 OA
BRANCH   6   9
HETATM    9  C5  UNL     1      19.207  25.606  15.817  1.00  0.00     0.080 A 
HETATM   10  C4  UNL     1      19.965  26.218  16.794  1.00  0.00     0.028 A 
HETATM   11  C3  UNL     1      21.308  26.434  16.659  1.00  0.00     0.038 A 
HETATM   12  C2  UNL     1      21.960  26.020  15.476  1.00  0.00     0.068 A 
HETATM   13  C35 UNL     1      21.216  25.419  14.510  1.00  0.00     0.038 A 
HETATM   14  C34 UNL     1      19.845  25.194  14.640  1.00  0.00     0.028 A 
BRANCH  12  15
HETATM   15  O1  UNL     1      23.312  26.252  15.370  1.00  0.00    -0.356 OA
HETATM   16  C1  UNL     1      24.121  26.851  16.331  1.00  0.00     0.210 C 
ENDBRANCH  12  15
ENDBRANCH   6   9
ENDBRANCH   5   6
BRANCH   5  17
HETATM   17  C6  UNL     1      15.748  23.343  15.750  1.00  0.00     0.114 C 
BRANCH  17  18
HETATM   18  C7  UNL     1      15.008  23.182  14.455  1.00  0.00    -0.020 A 
HETATM   19  C8  UNL     1      13.614  23.291  14.384  1.00  0.00     0.013 A 
HETATM   20  C9  UNL     1      13.036  23.097  13.153  1.00  0.00     0.001 A 
HETATM   21  C10 UNL     1      13.763  22.809  12.013  1.00  0.00     0.000 A 
HETATM   22  C11 UNL     1      15.121  22.709  12.101  1.00  0.00     0.001 A 
HETATM   23  C12 UNL     1      15.728  22.901  13.339  1.00  0.00     0.013 A 
ENDBRANCH  17  18
ENDBRANCH   5  17
ENDBRANCH   4   5
ENDBRANCH   3   4
BRANCH   3  24
HETATM   24  O4  UNL     1      18.460  20.550  16.896  1.00  0.00    -0.388 OA
ATOM     25  H4  UNL     1      18.850  20.593  17.761  1.00  0.00     0.210 HD
ENDBRANCH   3  24
ENDBRANCH   1   3
BRANCH   1  26
HETATM   26  N2  UNL     1      16.508  20.381  18.546  1.00  0.00    -0.304 N 
HETATM   27  C27 UNL     1      15.366  19.665  18.142  1.00  0.00     0.365 C 
HETATM   28  O5  UNL     1      14.537  20.190  17.300  1.00  0.00    -0.238 OA
ATOM     29  H2  UNL     1      17.149  19.952  19.214  1.00  0.00     0.171 HD
BRANCH  27  30
HETATM   30  O6  UNL     1      15.004  18.402  18.556  1.00  0.00    -0.296 OA
BRANCH  30  31
HETATM   31  C28 UNL     1      14.260  18.154  19.731  1.00  0.00     0.166 C 
HETATM   32  C29 UNL     1      13.683  19.408  20.339  1.00  0.00     0.204 C 
HETATM   33  O7  UNL     1      12.608  18.951  21.064  1.00  0.00    -0.358 OA
HETATM   34  C30 UNL     1      12.065  17.843  20.461  1.00  0.00     0.266 C 
HETATM   35  O8  UNL     1      10.894  18.212  19.817  1.00  0.00    -0.361 OA
HETATM   36  C33 UNL     1      13.039  17.357  19.431  1.00  0.00     0.075 C 
HETATM   37  C31 UNL     1      10.893  17.619  18.575  1.00  0.00     0.171 C 
HETATM   38  C32 UNL     1      12.337  17.738  18.145  1.00  0.00     0.038 C 
ENDBRANCH  30  31
ENDBRANCH  27  30
ENDBRANCH   1  26
BRANCH   2  39
HETATM   39  C17 UNL     1      18.471  22.734  19.778  1.00  0.00    -0.020 C 
HETATM   40  C18 UNL     1      18.913  21.541  20.529  1.00  0.00     0.018 C 
HETATM   41  C19 UNL     1      20.200  21.826  21.301  1.00  0.00    -0.013 C 
HETATM   42  C20 UNL     1      21.286  22.232  20.368  1.00  0.00     0.009 C 
HETATM   43  C24 UNL     1      19.991  22.873  22.359  1.00  0.00     0.009 C 
HETATM   44  C21 UNL     1      20.865  23.533  19.713  1.00  0.00    -0.013 C 
HETATM   45  C22 UNL     1      20.649  24.611  20.736  1.00  0.00     0.009 C 
HETATM   46  C26 UNL     1      19.561  23.329  18.966  1.00  0.00     0.018 C 
HETATM   47  C23 UNL     1      19.526  24.120  21.628  1.00  0.00    -0.013 C 
HETATM   48  C25 UNL     1      18.269  23.813  20.925  1.00  0.00     0.018 C 
ENDBRANCH   2  39
TORSDOF 13
ENDMDL
