MODEL 16
REMARK VINA RESULT: -9.778990194      1.613      2.263
REMARK  14 active torsions:
REMARK  status: ('A' for Active; 'I' for Inactive)
REMARK    1  A    between atoms: O1_2  and  C2_3 
REMARK    2  A    between atoms: C5_6  and  S1_7 
REMARK    3  A    between atoms: S1_7  and  N1_10 
REMARK    4  A    between atoms: N1_10  and  C6_11 
REMARK    5  A    between atoms: N1_10  and  C10_15 
REMARK    6  A    between atoms: C6_11  and  C7_12 
REMARK    7  A    between atoms: C10_15  and  C11_16 
REMARK    8  A    between atoms: C11_16  and  O4_17 
REMARK    9  A    between atoms: C11_16  and  C12_19 
REMARK   10  A    between atoms: C12_19  and  C13_20 
REMARK   11  A    between atoms: C12_19  and  N2_31 
REMARK   12  A    between atoms: C13_20  and  C14_21 
REMARK       I    between atoms: N2_31  and  C24_33 
REMARK   13  A    between atoms: C24_33  and  O6_35 
REMARK   14  A    between atoms: O6_35  and  C25_36 
ROOT
HETATM    1  C12 UNL     1      15.959  23.151  16.868  1.00  0.00     0.117 C 
ENDROOT
BRANCH   1   2
HETATM    2  C11 UNL     1      16.159  24.279  17.782  1.00  0.00     0.160 C 
BRANCH   2   3
HETATM    3  C10 UNL     1      17.208  25.289  17.529  1.00  0.00     0.174 C 
BRANCH   3   4
HETATM    4  N1  UNL     1      18.497  24.706  17.214  1.00  0.00    -0.283 N 
BRANCH   4   5
HETATM    5  S1  UNL     1      19.157  25.052  15.735  1.00  0.00     0.264 S 
HETATM    6  O2  UNL     1      18.218  25.372  14.618  1.00  0.00    -0.200 OA
HETATM    7  O3  UNL     1      19.926  23.816  15.254  1.00  0.00    -0.200 OA
BRANCH   5   8
HETATM    8  C5  UNL     1      20.376  26.326  15.775  1.00  0.00     0.080 A 
HETATM    9  C4  UNL     1      20.522  27.090  14.636  1.00  0.00     0.028 A 
HETATM   10  C3  UNL     1      21.445  28.110  14.551  1.00  0.00     0.038 A 
HETATM   11  C2  UNL     1      22.251  28.366  15.661  1.00  0.00     0.068 A 
HETATM   12  C33 UNL     1      22.109  27.610  16.791  1.00  0.00     0.038 A 
HETATM   13  C32 UNL     1      21.168  26.584  16.853  1.00  0.00     0.028 A 
BRANCH  11  14
HETATM   14  O1  UNL     1      23.161  29.403  15.521  1.00  0.00    -0.356 OA
HETATM   15  C1  UNL     1      24.488  29.247  15.997  1.00  0.00     0.210 C 
ENDBRANCH  11  14
ENDBRANCH   5   8
ENDBRANCH   4   5
BRANCH   4  16
HETATM   16  C6  UNL     1      19.225  24.164  18.253  1.00  0.00     0.080 C 
BRANCH  16  17
HETATM   17  C7  UNL     1      19.050  24.622  19.642  1.00  0.00     0.017 C 
HETATM   18  C8  UNL     1      18.540  23.593  20.616  1.00  0.00     0.015 C 
HETATM   19  C9  UNL     1      20.240  25.284  20.285  1.00  0.00     0.015 C 
ENDBRANCH  16  17
ENDBRANCH   4  16
ENDBRANCH   3   4
ENDBRANCH   2   3
BRANCH   2  20
HETATM   20  O4  UNL     1      14.962  24.879  18.222  1.00  0.00    -0.392 OA
ATOM     21  H4  UNL     1      14.220  24.299  18.103  1.00  0.00     0.210 HD
ENDBRANCH   2  20
ENDBRANCH   1   2
BRANCH   1  22
HETATM   22  C13 UNL     1      15.666  23.269  15.467  1.00  0.00     0.037 C 
BRANCH  22  23
HETATM   23  C14 UNL     1      14.924  22.434  14.544  1.00  0.00    -0.037 C 
HETATM   24  C15 UNL     1      14.881  20.971  14.727  1.00  0.00     0.014 C 
HETATM   25  C16 UNL     1      14.334  20.205  13.527  1.00  0.00    -0.013 C 
HETATM   26  C17 UNL     1      12.885  20.654  13.372  1.00  0.00     0.009 C 
HETATM   27  C21 UNL     1      15.113  20.475  12.291  1.00  0.00     0.009 C 
HETATM   28  C18 UNL     1      12.908  22.131  13.162  1.00  0.00    -0.013 C 
HETATM   29  C19 UNL     1      13.627  22.409  11.860  1.00  0.00     0.009 C 
HETATM   30  C23 UNL     1      13.479  22.890  14.324  1.00  0.00     0.014 C 
HETATM   31  C20 UNL     1      15.054  21.969  12.049  1.00  0.00    -0.013 C 
HETATM   32  C22 UNL     1      15.633  22.711  13.174  1.00  0.00     0.014 C 
ENDBRANCH  22  23
ENDBRANCH   1  22
BRANCH   1  33
HETATM   33  N2  UNL     1      14.896  22.261  17.501  1.00  0.00    -0.330 N 
HETATM   34  C24 UNL     1      15.250  21.105  18.186  1.00  0.00     0.361 C 
HETATM   35  O5  UNL     1      16.456  20.767  18.302  1.00  0.00    -0.238 OA
ATOM     36  H2  UNL     1      13.911  22.517  17.421  1.00  0.00     0.165 HD
BRANCH  34  37
HETATM   37  O6  UNL     1      14.349  20.236  18.788  1.00  0.00    -0.296 OA
BRANCH  37  38
HETATM   38  C25 UNL     1      13.002  20.272  18.552  1.00  0.00     0.166 C 
HETATM   39  C26 UNL     1      12.539  19.812  17.209  1.00  0.00     0.204 C 
HETATM   40  O7  UNL     1      12.863  18.461  17.248  1.00  0.00    -0.358 OA
HETATM   41  C27 UNL     1      12.252  18.051  18.430  1.00  0.00     0.266 C 
HETATM   42  O8  UNL     1      12.824  16.893  18.954  1.00  0.00    -0.361 OA
HETATM   43  C31 UNL     1      12.337  19.188  19.418  1.00  0.00     0.073 C 
HETATM   44  C28 UNL     1      12.130  16.609  20.138  1.00  0.00     0.171 C 
HETATM   45  C29 UNL     1      12.435  17.606  21.231  1.00  0.00     0.027 C 
HETATM   46  C30 UNL     1      13.186  18.773  20.572  1.00  0.00     0.014 C 
ENDBRANCH  37  38
ENDBRANCH  34  37
ENDBRANCH   1  33
TORSDOF 14
ENDMDL
