MODEL 1
REMARK VINA RESULT: -10.882159288      0.000      0.000
REMARK  14 active torsions:
REMARK  status: ('A' for Active; 'I' for Inactive)
REMARK    1  A    between atoms: O1_2  and  C2_3 
REMARK    2  A    between atoms: C5_6  and  S1_7 
REMARK    3  A    between atoms: S1_7  and  N1_10 
REMARK    4  A    between atoms: N1_10  and  C6_11 
REMARK    5  A    between atoms: N1_10  and  C10_15 
REMARK    6  A    between atoms: C6_11  and  C7_12 
REMARK    7  A    between atoms: C10_15  and  C11_16 
REMARK    8  A    between atoms: C11_16  and  O4_17 
REMARK    9  A    between atoms: C11_16  and  C12_19 
REMARK   10  A    between atoms: C12_19  and  C13_20 
REMARK   11  A    between atoms: C12_19  and  N2_31 
REMARK   12  A    between atoms: C13_20  and  C14_21 
REMARK       I    between atoms: N2_31  and  C24_33 
REMARK   13  A    between atoms: C24_33  and  O6_35 
REMARK   14  A    between atoms: O6_35  and  C25_36 
ROOT
HETATM    1  C12 UNL     1      15.056  22.517  16.966  1.00  0.00     0.117 C 
ENDROOT
BRANCH   1   2
HETATM    2  C11 UNL     1      15.133  23.595  17.956  1.00  0.00     0.160 C 
BRANCH   2   3
HETATM    3  C10 UNL     1      16.181  24.632  17.876  1.00  0.00     0.174 C 
BRANCH   3   4
HETATM    4  N1  UNL     1      17.470  24.180  18.360  1.00  0.00    -0.283 N 
BRANCH   4   5
HETATM    5  S1  UNL     1      18.658  23.900  17.241  1.00  0.00     0.264 S 
HETATM    6  O2  UNL     1      18.505  22.707  16.356  1.00  0.00    -0.200 OA
HETATM    7  O3  UNL     1      19.974  23.661  17.991  1.00  0.00    -0.200 OA
BRANCH   5   8
HETATM    8  C5  UNL     1      19.003  25.282  16.201  1.00  0.00     0.080 A 
HETATM    9  C4  UNL     1      19.942  26.187  16.652  1.00  0.00     0.028 A 
HETATM   10  C3  UNL     1      20.289  27.306  15.926  1.00  0.00     0.038 A 
HETATM   11  C2  UNL     1      19.662  27.518  14.698  1.00  0.00     0.068 A 
HETATM   12  C33 UNL     1      18.731  26.623  14.248  1.00  0.00     0.038 A 
HETATM   13  C32 UNL     1      18.396  25.498  15.000  1.00  0.00     0.028 A 
BRANCH  11  14
HETATM   14  O1  UNL     1      20.048  28.658  14.010  1.00  0.00    -0.356 OA
HETATM   15  C1  UNL     1      21.356  28.746  13.468  1.00  0.00     0.210 C 
ENDBRANCH  11  14
ENDBRANCH   5   8
ENDBRANCH   4   5
BRANCH   4  16
HETATM   16  C6  UNL     1      17.724  24.303  19.711  1.00  0.00     0.080 C 
BRANCH  16  17
HETATM   17  C7  UNL     1      17.949  23.126  20.567  1.00  0.00     0.017 C 
HETATM   18  C8  UNL     1      17.656  21.789  19.940  1.00  0.00     0.015 C 
HETATM   19  C9  UNL     1      19.303  23.019  21.218  1.00  0.00     0.015 C 
ENDBRANCH  16  17
ENDBRANCH   4  16
ENDBRANCH   3   4
ENDBRANCH   2   3
BRANCH   2  20
HETATM   20  O4  UNL     1      13.882  24.152  18.294  1.00  0.00    -0.392 OA
ATOM     21  H4  UNL     1      13.705  24.937  17.790  1.00  0.00     0.210 HD
ENDBRANCH   2  20
ENDBRANCH   1   2
BRANCH   1  22
HETATM   22  C13 UNL     1      15.010  22.708  15.543  1.00  0.00     0.037 C 
BRANCH  22  23
HETATM   23  C14 UNL     1      14.432  21.931  14.466  1.00  0.00    -0.037 C 
HETATM   24  C15 UNL     1      14.449  20.457  14.514  1.00  0.00     0.014 C 
HETATM   25  C16 UNL     1      14.094  19.782  13.193  1.00  0.00    -0.013 C 
HETATM   26  C17 UNL     1      12.653  20.179  12.896  1.00  0.00     0.009 C 
HETATM   27  C21 UNL     1      15.002  20.200  12.093  1.00  0.00     0.009 C 
HETATM   28  C18 UNL     1      12.618  21.669  12.820  1.00  0.00    -0.013 C 
HETATM   29  C19 UNL     1      13.474  22.098  11.648  1.00  0.00     0.009 C 
HETATM   30  C23 UNL     1      13.002  22.341  14.106  1.00  0.00     0.014 C 
HETATM   31  C20 UNL     1      14.890  21.707  11.976  1.00  0.00    -0.013 C 
HETATM   32  C22 UNL     1      15.285  22.366  13.225  1.00  0.00     0.014 C 
ENDBRANCH  22  23
ENDBRANCH   1  22
BRANCH   1  33
HETATM   33  N2  UNL     1      13.875  21.641  17.366  1.00  0.00    -0.330 N 
HETATM   34  C24 UNL     1      14.055  20.532  18.184  1.00  0.00     0.361 C 
HETATM   35  O5  UNL     1      15.196  20.227  18.616  1.00  0.00    -0.238 OA
ATOM     36  H2  UNL     1      12.940  21.871  17.029  1.00  0.00     0.165 HD
BRANCH  34  37
HETATM   37  O6  UNL     1      13.039  19.679  18.593  1.00  0.00    -0.296 OA
BRANCH  37  38
HETATM   38  C25 UNL     1      13.224  18.679  19.509  1.00  0.00     0.166 C 
HETATM   39  C26 UNL     1      12.475  18.796  20.796  1.00  0.00     0.204 C 
HETATM   40  O7  UNL     1      11.160  18.656  20.369  1.00  0.00    -0.358 OA
HETATM   41  C27 UNL     1      11.217  17.469  19.642  1.00  0.00     0.266 C 
HETATM   42  O8  UNL     1      10.185  17.362  18.712  1.00  0.00    -0.361 OA
HETATM   43  C31 UNL     1      12.563  17.403  18.963  1.00  0.00     0.073 C 
HETATM   44  C28 UNL     1      10.374  16.143  18.048  1.00  0.00     0.171 C 
HETATM   45  C29 UNL     1      11.582  16.168  17.141  1.00  0.00     0.027 C 
HETATM   46  C30 UNL     1      12.369  17.443  17.484  1.00  0.00     0.014 C 
ENDBRANCH  37  38
ENDBRANCH  34  37
ENDBRANCH   1  33
TORSDOF 14
ENDMDL
