MODEL 9
REMARK VINA RESULT: -9.939180726      2.373      5.265
REMARK  14 active torsions:
REMARK  status: ('A' for Active; 'I' for Inactive)
REMARK    1  A    between atoms: O1_2  and  C2_3 
REMARK    2  A    between atoms: C5_6  and  S1_7 
REMARK    3  A    between atoms: S1_7  and  N1_10 
REMARK    4  A    between atoms: N1_10  and  C6_11 
REMARK    5  A    between atoms: N1_10  and  C10_15 
REMARK    6  A    between atoms: C6_11  and  C7_12 
REMARK    7  A    between atoms: C10_15  and  C11_16 
REMARK    8  A    between atoms: C11_16  and  O4_17 
REMARK    9  A    between atoms: C11_16  and  C12_19 
REMARK   10  A    between atoms: C12_19  and  C13_20 
REMARK   11  A    between atoms: C12_19  and  N2_31 
REMARK   12  A    between atoms: C13_20  and  C14_21 
REMARK       I    between atoms: N2_31  and  C24_33 
REMARK   13  A    between atoms: C24_33  and  O6_35 
REMARK   14  A    between atoms: O6_35  and  C25_36 
ROOT
HETATM    1  C12 UNL     1      14.473  21.838  17.016  1.00  0.00     0.117 C 
ENDROOT
BRANCH   1   2
HETATM    2  C11 UNL     1      15.872  21.693  16.601  1.00  0.00     0.160 C 
BRANCH   2   3
HETATM    3  C10 UNL     1      16.955  21.573  17.597  1.00  0.00     0.174 C 
BRANCH   3   4
HETATM    4  N1  UNL     1      17.880  22.688  17.574  1.00  0.00    -0.283 N 
BRANCH   4   5
HETATM    5  S1  UNL     1      17.596  23.902  16.483  1.00  0.00     0.264 S 
HETATM    6  O2  UNL     1      16.428  24.797  16.737  1.00  0.00    -0.200 OA
HETATM    7  O3  UNL     1      17.307  23.262  15.120  1.00  0.00    -0.200 OA
BRANCH   5   8
HETATM    8  C5  UNL     1      18.993  24.936  16.183  1.00  0.00     0.080 A 
HETATM    9  C4  UNL     1      19.799  24.604  15.114  1.00  0.00     0.028 A 
HETATM   10  C3  UNL     1      20.920  25.338  14.786  1.00  0.00     0.038 A 
HETATM   11  C2  UNL     1      21.236  26.448  15.570  1.00  0.00     0.068 A 
HETATM   12  C33 UNL     1      20.438  26.779  16.631  1.00  0.00     0.038 A 
HETATM   13  C32 UNL     1      19.310  26.022  16.942  1.00  0.00     0.028 A 
BRANCH  11  14
HETATM   14  O1  UNL     1      22.372  27.149  15.196  1.00  0.00    -0.356 OA
HETATM   15  C1  UNL     1      23.531  27.102  16.011  1.00  0.00     0.210 C 
ENDBRANCH  11  14
ENDBRANCH   5   8
ENDBRANCH   4   5
BRANCH   4  16
HETATM   16  C6  UNL     1      18.745  22.824  18.641  1.00  0.00     0.080 C 
BRANCH  16  17
HETATM   17  C7  UNL     1      18.255  22.916  20.027  1.00  0.00     0.017 C 
HETATM   18  C8  UNL     1      18.746  21.851  20.971  1.00  0.00     0.015 C 
HETATM   19  C9  UNL     1      18.446  24.239  20.720  1.00  0.00     0.015 C 
ENDBRANCH  16  17
ENDBRANCH   4  16
ENDBRANCH   3   4
ENDBRANCH   2   3
BRANCH   2  20
HETATM   20  O4  UNL     1      16.061  20.804  15.525  1.00  0.00    -0.392 OA
ATOM     21  H4  UNL     1      16.360  21.259  14.746  1.00  0.00     0.210 HD
ENDBRANCH   2  20
ENDBRANCH   1   2
BRANCH   1  22
HETATM   22  C13 UNL     1      13.876  21.172  18.140  1.00  0.00     0.037 C 
BRANCH  22  23
HETATM   23  C14 UNL     1      13.339  19.838  18.320  1.00  0.00    -0.037 C 
HETATM   24  C15 UNL     1      11.934  19.545  17.983  1.00  0.00     0.014 C 
HETATM   25  C16 UNL     1      11.430  18.204  18.506  1.00  0.00    -0.013 C 
HETATM   26  C17 UNL     1      12.264  17.141  17.801  1.00  0.00     0.009 C 
HETATM   27  C21 UNL     1      11.563  18.098  19.983  1.00  0.00     0.009 C 
HETATM   28  C18 UNL     1      13.691  17.406  18.149  1.00  0.00    -0.013 C 
HETATM   29  C19 UNL     1      13.853  17.216  19.641  1.00  0.00     0.009 C 
HETATM   30  C23 UNL     1      14.184  18.739  17.668  1.00  0.00     0.014 C 
HETATM   31  C20 UNL     1      13.031  18.286  20.308  1.00  0.00    -0.013 C 
HETATM   32  C22 UNL     1      13.509  19.597  19.859  1.00  0.00     0.014 C 
ENDBRANCH  22  23
ENDBRANCH   1  22
BRANCH   1  33
HETATM   33  N2  UNL     1      13.622  21.549  15.785  1.00  0.00    -0.330 N 
HETATM   34  C24 UNL     1      13.226  22.575  14.936  1.00  0.00     0.361 C 
HETATM   35  O5  UNL     1      13.565  23.765  15.160  1.00  0.00    -0.238 OA
ATOM     36  H2  UNL     1      13.338  20.590  15.583  1.00  0.00     0.165 HD
BRANCH  34  37
HETATM   37  O6  UNL     1      12.449  22.403  13.799  1.00  0.00    -0.296 OA
BRANCH  37  38
HETATM   38  C25 UNL     1      12.975  22.299  12.540  1.00  0.00     0.166 C 
HETATM   39  C26 UNL     1      14.423  21.948  12.441  1.00  0.00     0.204 C 
HETATM   40  O7  UNL     1      14.433  20.653  12.945  1.00  0.00    -0.358 OA
HETATM   41  C27 UNL     1      13.459  20.032  12.168  1.00  0.00     0.266 C 
HETATM   42  O8  UNL     1      12.925  18.901  12.782  1.00  0.00    -0.361 OA
HETATM   43  C31 UNL     1      12.380  21.046  11.876  1.00  0.00     0.073 C 
HETATM   44  C28 UNL     1      11.955  18.394  11.906  1.00  0.00     0.171 C 
HETATM   45  C29 UNL     1      10.737  19.284  11.826  1.00  0.00     0.027 C 
HETATM   46  C30 UNL     1      11.107  20.606  12.517  1.00  0.00     0.014 C 
ENDBRANCH  37  38
ENDBRANCH  34  37
ENDBRANCH   1  33
TORSDOF 14
ENDMDL
