MODEL 3
REMARK VINA RESULT: -10.639497149      1.277      1.564
REMARK  14 active torsions:
REMARK  status: ('A' for Active; 'I' for Inactive)
REMARK    1  A    between atoms: O1_2  and  C2_3 
REMARK    2  A    between atoms: C5_6  and  S1_7 
REMARK    3  A    between atoms: S1_7  and  N1_10 
REMARK    4  A    between atoms: N1_10  and  C6_11 
REMARK    5  A    between atoms: N1_10  and  C10_15 
REMARK    6  A    between atoms: C6_11  and  C7_12 
REMARK    7  A    between atoms: C10_15  and  C11_16 
REMARK    8  A    between atoms: C11_16  and  O4_17 
REMARK    9  A    between atoms: C11_16  and  C12_19 
REMARK   10  A    between atoms: C12_19  and  C13_20 
REMARK   11  A    between atoms: C12_19  and  N2_31 
REMARK   12  A    between atoms: C13_20  and  C14_21 
REMARK       I    between atoms: N2_31  and  C24_33 
REMARK   13  A    between atoms: C24_33  and  O6_35 
REMARK   14  A    between atoms: O6_35  and  C25_36 
ROOT
HETATM    1  C12 UNL     1      15.182  22.692  17.138  1.00  0.00     0.117 C 
ENDROOT
BRANCH   1   2
HETATM    2  C11 UNL     1      15.251  23.776  18.124  1.00  0.00     0.160 C 
BRANCH   2   3
HETATM    3  C10 UNL     1      16.427  24.667  18.197  1.00  0.00     0.174 C 
BRANCH   3   4
HETATM    4  N1  UNL     1      17.606  24.111  17.564  1.00  0.00    -0.283 N 
BRANCH   4   5
HETATM    5  S1  UNL     1      18.125  24.808  16.154  1.00  0.00     0.264 S 
HETATM    6  O2  UNL     1      17.148  25.648  15.399  1.00  0.00    -0.200 OA
HETATM    7  O3  UNL     1      18.508  23.687  15.180  1.00  0.00    -0.200 OA
BRANCH   5   8
HETATM    8  C5  UNL     1      19.605  25.751  16.324  1.00  0.00     0.080 A 
HETATM    9  C4  UNL     1      20.486  25.732  15.262  1.00  0.00     0.028 A 
HETATM   10  C3  UNL     1      21.675  26.428  15.284  1.00  0.00     0.038 A 
HETATM   11  C2  UNL     1      21.985  27.172  16.424  1.00  0.00     0.068 A 
HETATM   12  C33 UNL     1      21.114  27.192  17.478  1.00  0.00     0.038 A 
HETATM   13  C32 UNL     1      19.917  26.480  17.432  1.00  0.00     0.028 A 
BRANCH  11  14
HETATM   14  O1  UNL     1      23.192  27.852  16.393  1.00  0.00    -0.356 OA
HETATM   15  C1  UNL     1      24.354  27.208  15.895  1.00  0.00     0.210 C 
ENDBRANCH  11  14
ENDBRANCH   5   8
ENDBRANCH   4   5
BRANCH   4  16
HETATM   16  C6  UNL     1      18.389  23.255  18.312  1.00  0.00     0.080 C 
BRANCH  16  17
HETATM   17  C7  UNL     1      18.388  23.292  19.784  1.00  0.00     0.017 C 
HETATM   18  C8  UNL     1      18.384  21.956  20.477  1.00  0.00     0.015 C 
HETATM   19  C9  UNL     1      19.463  24.122  20.435  1.00  0.00     0.015 C 
ENDBRANCH  16  17
ENDBRANCH   4  16
ENDBRANCH   3   4
ENDBRANCH   2   3
BRANCH   2  20
HETATM   20  O4  UNL     1      14.049  24.496  18.267  1.00  0.00    -0.392 OA
ATOM     21  H4  UNL     1      13.844  24.990  17.482  1.00  0.00     0.210 HD
ENDBRANCH   2  20
ENDBRANCH   1   2
BRANCH   1  22
HETATM   22  C13 UNL     1      15.116  22.878  15.715  1.00  0.00     0.037 C 
BRANCH  22  23
HETATM   23  C14 UNL     1      14.514  22.101  14.651  1.00  0.00    -0.037 C 
HETATM   24  C15 UNL     1      14.505  20.628  14.711  1.00  0.00     0.014 C 
HETATM   25  C16 UNL     1      14.125  19.948  13.400  1.00  0.00    -0.013 C 
HETATM   26  C17 UNL     1      12.687  20.368  13.114  1.00  0.00     0.009 C 
HETATM   27  C21 UNL     1      15.028  20.341  12.287  1.00  0.00     0.009 C 
HETATM   28  C18 UNL     1      12.678  21.858  13.026  1.00  0.00    -0.013 C 
HETATM   29  C19 UNL     1      13.529  22.262  11.842  1.00  0.00     0.009 C 
HETATM   30  C23 UNL     1      13.087  22.534  14.302  1.00  0.00     0.014 C 
HETATM   31  C20 UNL     1      14.941  21.848  12.158  1.00  0.00    -0.013 C 
HETATM   32  C22 UNL     1      15.361  22.510  13.397  1.00  0.00     0.014 C 
ENDBRANCH  22  23
ENDBRANCH   1  22
BRANCH   1  33
HETATM   33  N2  UNL     1      14.022  21.797  17.555  1.00  0.00    -0.330 N 
HETATM   34  C24 UNL     1      14.235  20.678  18.350  1.00  0.00     0.361 C 
HETATM   35  O5  UNL     1      15.391  20.379  18.748  1.00  0.00    -0.238 OA
ATOM     36  H2  UNL     1      13.076  22.023  17.246  1.00  0.00     0.165 HD
BRANCH  34  37
HETATM   37  O6  UNL     1      13.240  19.807  18.772  1.00  0.00    -0.296 OA
BRANCH  37  38
HETATM   38  C25 UNL     1      13.462  18.788  19.657  1.00  0.00     0.166 C 
HETATM   39  C26 UNL     1      12.742  18.859  20.964  1.00  0.00     0.204 C 
HETATM   40  O7  UNL     1      11.419  18.709  20.564  1.00  0.00    -0.358 OA
HETATM   41  C27 UNL     1      11.477  17.542  19.806  1.00  0.00     0.266 C 
HETATM   42  O8  UNL     1      10.426  17.442  18.898  1.00  0.00    -0.361 OA
HETATM   43  C31 UNL     1      12.808  17.515  19.094  1.00  0.00     0.073 C 
HETATM   44  C28 UNL     1      10.619  16.243  18.197  1.00  0.00     0.171 C 
HETATM   45  C29 UNL     1      11.804  16.312  17.264  1.00  0.00     0.027 C 
HETATM   46  C30 UNL     1      12.579  17.590  17.622  1.00  0.00     0.014 C 
ENDBRANCH  37  38
ENDBRANCH  34  37
ENDBRANCH   1  33
TORSDOF 14
ENDMDL
