MODEL 2
REMARK VINA RESULT: -10.841317362      0.224      1.107
REMARK  14 active torsions:
REMARK  status: ('A' for Active; 'I' for Inactive)
REMARK    1  A    between atoms: O1_2  and  C2_3 
REMARK    2  A    between atoms: C5_6  and  S1_7 
REMARK    3  A    between atoms: S1_7  and  N1_10 
REMARK    4  A    between atoms: N1_10  and  C6_11 
REMARK    5  A    between atoms: N1_10  and  C10_15 
REMARK    6  A    between atoms: C6_11  and  C7_12 
REMARK    7  A    between atoms: C10_15  and  C11_16 
REMARK    8  A    between atoms: C11_16  and  O4_17 
REMARK    9  A    between atoms: C11_16  and  C12_19 
REMARK   10  A    between atoms: C12_19  and  C13_20 
REMARK   11  A    between atoms: C12_19  and  N2_31 
REMARK   12  A    between atoms: C13_20  and  C14_21 
REMARK       I    between atoms: N2_31  and  C24_33 
REMARK   13  A    between atoms: C24_33  and  O6_35 
REMARK   14  A    between atoms: O6_35  and  C25_36 
ROOT
HETATM    1  C12 UNL     1      14.796  22.476  16.850  1.00  0.00     0.117 C 
ENDROOT
BRANCH   1   2
HETATM    2  C11 UNL     1      15.022  23.423  17.946  1.00  0.00     0.160 C 
BRANCH   2   3
HETATM    3  C10 UNL     1      16.012  24.511  17.822  1.00  0.00     0.174 C 
BRANCH   3   4
HETATM    4  N1  UNL     1      17.344  24.123  18.242  1.00  0.00    -0.283 N 
BRANCH   4   5
HETATM    5  S1  UNL     1      18.469  23.832  17.062  1.00  0.00     0.264 S 
HETATM    6  O2  UNL     1      18.200  22.711  16.112  1.00  0.00    -0.200 OA
HETATM    7  O3  UNL     1      19.790  23.454  17.744  1.00  0.00    -0.200 OA
BRANCH   5   8
HETATM    8  C5  UNL     1      18.877  25.250  16.096  1.00  0.00     0.080 A 
HETATM    9  C4  UNL     1      19.825  26.109  16.614  1.00  0.00     0.028 A 
HETATM   10  C3  UNL     1      20.221  27.250  15.950  1.00  0.00     0.038 A 
HETATM   11  C2  UNL     1      19.634  27.533  14.716  1.00  0.00     0.068 A 
HETATM   12  C33 UNL     1      18.694  26.684  14.200  1.00  0.00     0.038 A 
HETATM   13  C32 UNL     1      18.311  25.536  14.891  1.00  0.00     0.028 A 
BRANCH  11  14
HETATM   14  O1  UNL     1      20.068  28.692  14.091  1.00  0.00    -0.356 OA
HETATM   15  C1  UNL     1      21.327  28.714  13.439  1.00  0.00     0.210 C 
ENDBRANCH  11  14
ENDBRANCH   5   8
ENDBRANCH   4   5
BRANCH   4  16
HETATM   16  C6  UNL     1      17.677  24.314  19.567  1.00  0.00     0.080 C 
BRANCH  16  17
HETATM   17  C7  UNL     1      17.911  23.180  20.478  1.00  0.00     0.017 C 
HETATM   18  C8  UNL     1      17.584  21.816  19.930  1.00  0.00     0.015 C 
HETATM   19  C9  UNL     1      19.280  23.088  21.098  1.00  0.00     0.015 C 
ENDBRANCH  16  17
ENDBRANCH   4  16
ENDBRANCH   3   4
ENDBRANCH   2   3
BRANCH   2  20
HETATM   20  O4  UNL     1      13.840  23.871  18.568  1.00  0.00    -0.392 OA
ATOM     21  H4  UNL     1      13.190  24.136  17.928  1.00  0.00     0.210 HD
ENDBRANCH   2  20
ENDBRANCH   1   2
BRANCH   1  22
HETATM   22  C13 UNL     1      14.588  22.842  15.476  1.00  0.00     0.037 C 
BRANCH  22  23
HETATM   23  C14 UNL     1      14.485  22.065  14.258  1.00  0.00    -0.037 C 
HETATM   24  C15 UNL     1      15.389  22.327  13.123  1.00  0.00     0.014 C 
HETATM   25  C16 UNL     1      14.969  21.659  11.818  1.00  0.00    -0.013 C 
HETATM   26  C17 UNL     1      15.039  20.158  12.077  1.00  0.00     0.009 C 
HETATM   27  C21 UNL     1      13.603  22.067  11.399  1.00  0.00     0.009 C 
HETATM   28  C18 UNL     1      14.111  19.867  13.209  1.00  0.00    -0.013 C 
HETATM   29  C19 UNL     1      12.705  20.201  12.759  1.00  0.00     0.009 C 
HETATM   30  C23 UNL     1      14.498  20.551  14.487  1.00  0.00     0.014 C 
HETATM   31  C20 UNL     1      12.663  21.687  12.525  1.00  0.00    -0.013 C 
HETATM   32  C22 UNL     1      13.026  22.372  13.771  1.00  0.00     0.014 C 
ENDBRANCH  22  23
ENDBRANCH   1  22
BRANCH   1  33
HETATM   33  N2  UNL     1      13.643  21.578  17.281  1.00  0.00    -0.330 N 
HETATM   34  C24 UNL     1      13.875  20.426  18.023  1.00  0.00     0.361 C 
HETATM   35  O5  UNL     1      15.043  20.100  18.359  1.00  0.00    -0.238 OA
ATOM     36  H2  UNL     1      12.687  21.825  17.021  1.00  0.00     0.165 HD
BRANCH  34  37
HETATM   37  O6  UNL     1      12.888  19.550  18.453  1.00  0.00    -0.296 OA
BRANCH  37  38
HETATM   38  C25 UNL     1      13.108  18.571  19.383  1.00  0.00     0.166 C 
HETATM   39  C26 UNL     1      12.377  18.693  20.679  1.00  0.00     0.204 C 
HETATM   40  O7  UNL     1      11.058  18.517  20.274  1.00  0.00    -0.358 OA
HETATM   41  C27 UNL     1      11.131  17.319  19.567  1.00  0.00     0.266 C 
HETATM   42  O8  UNL     1      10.088  17.174  18.654  1.00  0.00    -0.361 OA
HETATM   43  C31 UNL     1      12.468  17.271  18.868  1.00  0.00     0.073 C 
HETATM   44  C28 UNL     1      10.295  15.948  18.007  1.00  0.00     0.171 C 
HETATM   45  C29 UNL     1      11.489  15.984  17.082  1.00  0.00     0.027 C 
HETATM   46  C30 UNL     1      12.251  17.282  17.392  1.00  0.00     0.014 C 
ENDBRANCH  37  38
ENDBRANCH  34  37
ENDBRANCH   1  33
TORSDOF 14
ENDMDL
