MODEL 5
REMARK VINA RESULT: -10.122368095      2.984      9.209
REMARK  14 active torsions:
REMARK  status: ('A' for Active; 'I' for Inactive)
REMARK    1  A    between atoms: O1_2  and  C2_3 
REMARK    2  A    between atoms: C5_6  and  S1_7 
REMARK    3  A    between atoms: S1_7  and  N1_10 
REMARK    4  A    between atoms: N1_10  and  C6_11 
REMARK    5  A    between atoms: N1_10  and  C10_15 
REMARK    6  A    between atoms: C6_11  and  C7_12 
REMARK    7  A    between atoms: C10_15  and  C11_16 
REMARK    8  A    between atoms: C11_16  and  O4_17 
REMARK    9  A    between atoms: C11_16  and  C12_19 
REMARK   10  A    between atoms: C12_19  and  C13_20 
REMARK   11  A    between atoms: C12_19  and  N2_31 
REMARK   12  A    between atoms: C13_20  and  C14_21 
REMARK       I    between atoms: N2_31  and  C24_33 
REMARK   13  A    between atoms: C24_33  and  O6_35 
REMARK   14  A    between atoms: O6_35  and  C25_36 
ROOT
HETATM    1  C12 UNL     1      14.055  21.449  16.660  1.00  0.00     0.117 C 
ENDROOT
BRANCH   1   2
HETATM    2  C11 UNL     1      13.765  22.513  15.694  1.00  0.00     0.160 C 
BRANCH   2   3
HETATM    3  C10 UNL     1      12.799  22.305  14.597  1.00  0.00     0.174 C 
BRANCH   3   4
HETATM    4  N1  UNL     1      12.697  20.920  14.181  1.00  0.00    -0.283 N 
BRANCH   4   5
HETATM    5  S1  UNL     1      11.181  20.293  13.957  1.00  0.00     0.264 S 
HETATM    6  O2  UNL     1      10.347  20.878  12.865  1.00  0.00    -0.200 OA
HETATM    7  O3  UNL     1      10.371  20.533  15.236  1.00  0.00    -0.200 OA
BRANCH   5   8
HETATM    8  C5  UNL     1      11.154  18.541  13.755  1.00  0.00     0.080 A 
HETATM    9  C4  UNL     1      10.979  17.782  14.894  1.00  0.00     0.028 A 
HETATM   10  C3  UNL     1      10.945  16.404  14.858  1.00  0.00     0.038 A 
HETATM   11  C2  UNL     1      11.094  15.771  13.623  1.00  0.00     0.068 A 
HETATM   12  C33 UNL     1      11.268  16.521  12.493  1.00  0.00     0.038 A 
HETATM   13  C32 UNL     1      11.299  17.913  12.554  1.00  0.00     0.028 A 
BRANCH  11  14
HETATM   14  O1  UNL     1      11.052  14.386  13.645  1.00  0.00    -0.356 OA
HETATM   15  C1  UNL     1      10.426  13.715  14.727  1.00  0.00     0.210 C 
ENDBRANCH  11  14
ENDBRANCH   5   8
ENDBRANCH   4   5
BRANCH   4  16
HETATM   16  C6  UNL     1      13.841  20.309  13.707  1.00  0.00     0.080 C 
BRANCH  16  17
HETATM   17  C7  UNL     1      14.200  20.340  12.279  1.00  0.00     0.017 C 
HETATM   18  C8  UNL     1      15.205  21.386  11.874  1.00  0.00     0.015 C 
HETATM   19  C9  UNL     1      14.653  19.038  11.673  1.00  0.00     0.015 C 
ENDBRANCH  16  17
ENDBRANCH   4  16
ENDBRANCH   3   4
ENDBRANCH   2   3
BRANCH   2  20
HETATM   20  O4  UNL     1      13.617  23.788  16.276  1.00  0.00    -0.392 OA
ATOM     21  H4  UNL     1      14.448  24.125  16.590  1.00  0.00     0.210 HD
ENDBRANCH   2  20
ENDBRANCH   1   2
BRANCH   1  22
HETATM   22  C13 UNL     1      13.123  20.941  17.629  1.00  0.00     0.037 C 
BRANCH  22  23
HETATM   23  C14 UNL     1      12.872  19.612  18.148  1.00  0.00    -0.037 C 
HETATM   24  C15 UNL     1      11.492  19.141  18.363  1.00  0.00     0.014 C 
HETATM   25  C16 UNL     1      11.386  17.864  19.190  1.00  0.00    -0.013 C 
HETATM   26  C17 UNL     1      12.081  16.779  18.375  1.00  0.00     0.009 C 
HETATM   27  C21 UNL     1      12.016  18.014  20.528  1.00  0.00     0.009 C 
HETATM   28  C18 UNL     1      13.489  17.227  18.166  1.00  0.00    -0.013 C 
HETATM   29  C19 UNL     1      14.163  17.301  19.518  1.00  0.00     0.009 C 
HETATM   30  C23 UNL     1      13.600  18.503  17.383  1.00  0.00     0.014 C 
HETATM   31  C20 UNL     1      13.466  18.387  20.294  1.00  0.00    -0.013 C 
HETATM   32  C22 UNL     1      13.576  19.645  19.548  1.00  0.00     0.014 C 
ENDBRANCH  22  23
ENDBRANCH   1  22
BRANCH   1  33
HETATM   33  N2  UNL     1      15.326  21.860  17.394  1.00  0.00    -0.330 N 
HETATM   34  C24 UNL     1      16.578  21.523  16.893  1.00  0.00     0.361 C 
HETATM   35  O5  UNL     1      16.691  20.874  15.822  1.00  0.00    -0.238 OA
ATOM     36  H2  UNL     1      15.257  22.389  18.264  1.00  0.00     0.165 HD
BRANCH  34  37
HETATM   37  O6  UNL     1      17.784  21.852  17.497  1.00  0.00    -0.296 OA
BRANCH  37  38
HETATM   38  C25 UNL     1      18.514  22.959  17.158  1.00  0.00     0.166 C 
HETATM   39  C26 UNL     1      17.754  24.140  16.653  1.00  0.00     0.204 C 
HETATM   40  O7  UNL     1      17.034  24.514  17.782  1.00  0.00    -0.358 OA
HETATM   41  C27 UNL     1      18.038  24.625  18.741  1.00  0.00     0.266 C 
HETATM   42  O8  UNL     1      17.552  24.498  20.041  1.00  0.00    -0.361 OA
HETATM   43  C31 UNL     1      19.079  23.572  18.451  1.00  0.00     0.073 C 
HETATM   44  C28 UNL     1      18.659  24.610  20.892  1.00  0.00     0.171 C 
HETATM   45  C29 UNL     1      19.572  23.409  20.803  1.00  0.00     0.027 C 
HETATM   46  C30 UNL     1      19.120  22.597  19.579  1.00  0.00     0.014 C 
ENDBRANCH  37  38
ENDBRANCH  34  37
ENDBRANCH   1  33
TORSDOF 14
ENDMDL
