MODEL 4
REMARK VINA RESULT: -10.225121116      1.445      1.905
REMARK  14 active torsions:
REMARK  status: ('A' for Active; 'I' for Inactive)
REMARK    1  A    between atoms: O1_2  and  C2_3 
REMARK    2  A    between atoms: C5_6  and  S1_7 
REMARK    3  A    between atoms: S1_7  and  N1_10 
REMARK    4  A    between atoms: N1_10  and  C6_11 
REMARK    5  A    between atoms: N1_10  and  C10_15 
REMARK    6  A    between atoms: C6_11  and  C7_12 
REMARK    7  A    between atoms: C10_15  and  C11_16 
REMARK    8  A    between atoms: C11_16  and  O4_17 
REMARK    9  A    between atoms: C11_16  and  C12_19 
REMARK   10  A    between atoms: C12_19  and  C13_20 
REMARK   11  A    between atoms: C12_19  and  N2_31 
REMARK   12  A    between atoms: C13_20  and  C14_21 
REMARK       I    between atoms: N2_31  and  C24_33 
REMARK   13  A    between atoms: C24_33  and  O6_35 
REMARK   14  A    between atoms: O6_35  and  C25_36 
ROOT
HETATM    1  C12 UNL     1      15.620  20.923  15.997  1.00  0.00     0.117 C 
ENDROOT
BRANCH   1   2
HETATM    2  C11 UNL     1      16.303  22.066  16.611  1.00  0.00     0.160 C 
BRANCH   2   3
HETATM    3  C10 UNL     1      17.603  22.543  16.098  1.00  0.00     0.174 C 
BRANCH   3   4
HETATM    4  N1  UNL     1      18.134  23.666  16.845  1.00  0.00    -0.283 N 
BRANCH   4   5
HETATM    5  S1  UNL     1      17.654  25.186  16.397  1.00  0.00     0.264 S 
HETATM    6  O2  UNL     1      16.712  25.907  17.304  1.00  0.00    -0.200 OA
HETATM    7  O3  UNL     1      16.903  25.076  15.064  1.00  0.00    -0.200 OA
BRANCH   5   8
HETATM    8  C5  UNL     1      18.988  26.285  16.046  1.00  0.00     0.080 A 
HETATM    9  C4  UNL     1      19.069  26.783  14.762  1.00  0.00     0.028 A 
HETATM   10  C3  UNL     1      20.070  27.646  14.373  1.00  0.00     0.038 A 
HETATM   11  C2  UNL     1      21.027  28.019  15.319  1.00  0.00     0.068 A 
HETATM   12  C33 UNL     1      20.949  27.526  16.592  1.00  0.00     0.038 A 
HETATM   13  C32 UNL     1      19.927  26.655  16.962  1.00  0.00     0.028 A 
BRANCH  11  14
HETATM   14  O1  UNL     1      22.010  28.889  14.874  1.00  0.00    -0.356 OA
HETATM   15  C1  UNL     1      23.255  28.953  15.551  1.00  0.00     0.210 C 
ENDBRANCH  11  14
ENDBRANCH   5   8
ENDBRANCH   4   5
BRANCH   4  16
HETATM   16  C6  UNL     1      18.750  23.398  18.051  1.00  0.00     0.080 C 
BRANCH  16  17
HETATM   17  C7  UNL     1      18.040  23.550  19.333  1.00  0.00     0.017 C 
HETATM   18  C8  UNL     1      17.709  22.274  20.059  1.00  0.00     0.015 C 
HETATM   19  C9  UNL     1      18.666  24.479  20.340  1.00  0.00     0.015 C 
ENDBRANCH  16  17
ENDBRANCH   4  16
ENDBRANCH   3   4
ENDBRANCH   2   3
BRANCH   2  20
HETATM   20  O4  UNL     1      15.449  23.140  16.929  1.00  0.00    -0.392 OA
ATOM     21  H4  UNL     1      15.125  23.569  16.146  1.00  0.00     0.210 HD
ENDBRANCH   2  20
ENDBRANCH   1   2
BRANCH   1  22
HETATM   22  C13 UNL     1      15.249  20.835  14.612  1.00  0.00     0.037 C 
BRANCH  22  23
HETATM   23  C14 UNL     1      14.045  21.200  13.892  1.00  0.00    -0.037 C 
HETATM   24  C15 UNL     1      12.795  20.445  14.093  1.00  0.00     0.014 C 
HETATM   25  C16 UNL     1      11.713  20.736  13.059  1.00  0.00    -0.013 C 
HETATM   26  C17 UNL     1      11.352  22.207  13.234  1.00  0.00     0.009 C 
HETATM   27  C21 UNL     1      12.178  20.461  11.674  1.00  0.00     0.009 C 
HETATM   28  C18 UNL     1      12.602  22.991  13.011  1.00  0.00    -0.013 C 
HETATM   29  C19 UNL     1      13.036  22.783  11.577  1.00  0.00     0.009 C 
HETATM   30  C23 UNL     1      13.685  22.684  14.004  1.00  0.00     0.014 C 
HETATM   31  C20 UNL     1      13.398  21.329  11.438  1.00  0.00    -0.013 C 
HETATM   32  C22 UNL     1      14.465  21.014  12.393  1.00  0.00     0.014 C 
ENDBRANCH  22  23
ENDBRANCH   1  22
BRANCH   1  33
HETATM   33  N2  UNL     1      14.378  20.654  16.839  1.00  0.00    -0.330 N 
HETATM   34  C24 UNL     1      14.399  19.706  17.855  1.00  0.00     0.361 C 
HETATM   35  O5  UNL     1      15.443  19.051  18.105  1.00  0.00    -0.238 OA
ATOM     36  H2  UNL     1      13.521  21.176  16.654  1.00  0.00     0.165 HD
BRANCH  34  37
HETATM   37  O6  UNL     1      13.316  19.394  18.665  1.00  0.00    -0.296 OA
BRANCH  37  38
HETATM   38  C25 UNL     1      13.348  18.405  19.610  1.00  0.00     0.166 C 
HETATM   39  C26 UNL     1      12.582  18.648  20.869  1.00  0.00     0.204 C 
HETATM   40  O7  UNL     1      11.273  18.659  20.403  1.00  0.00    -0.358 OA
HETATM   41  C27 UNL     1      11.203  17.455  19.706  1.00  0.00     0.266 C 
HETATM   42  O8  UNL     1      10.194  17.451  18.746  1.00  0.00    -0.361 OA
HETATM   43  C31 UNL     1      12.550  17.205  19.073  1.00  0.00     0.073 C 
HETATM   44  C28 UNL     1      10.250  16.200  18.116  1.00  0.00     0.171 C 
HETATM   45  C29 UNL     1      11.479  16.051  17.249  1.00  0.00     0.027 C 
HETATM   46  C30 UNL     1      12.407  17.228  17.588  1.00  0.00     0.014 C 
ENDBRANCH  37  38
ENDBRANCH  34  37
ENDBRANCH   1  33
TORSDOF 14
ENDMDL
