MODEL 7
REMARK VINA RESULT: -10.055405706      2.982      8.825
REMARK  14 active torsions:
REMARK  status: ('A' for Active; 'I' for Inactive)
REMARK    1  A    between atoms: O1_2  and  C2_3 
REMARK    2  A    between atoms: C5_6  and  S1_7 
REMARK    3  A    between atoms: S1_7  and  N1_10 
REMARK    4  A    between atoms: N1_10  and  C6_11 
REMARK    5  A    between atoms: N1_10  and  C10_15 
REMARK    6  A    between atoms: C6_11  and  C7_12 
REMARK    7  A    between atoms: C10_15  and  C11_16 
REMARK    8  A    between atoms: C11_16  and  O4_17 
REMARK    9  A    between atoms: C11_16  and  C12_19 
REMARK   10  A    between atoms: C12_19  and  C13_20 
REMARK   11  A    between atoms: C12_19  and  N2_31 
REMARK   12  A    between atoms: C13_20  and  C14_21 
REMARK       I    between atoms: N2_31  and  C24_33 
REMARK   13  A    between atoms: C24_33  and  O6_35 
REMARK   14  A    between atoms: O6_35  and  C25_36 
ROOT
HETATM    1  C12 UNL     1      14.270  21.649  16.586  1.00  0.00     0.117 C 
ENDROOT
BRANCH   1   2
HETATM    2  C11 UNL     1      14.065  22.782  15.678  1.00  0.00     0.160 C 
BRANCH   2   3
HETATM    3  C10 UNL     1      12.755  23.021  15.040  1.00  0.00     0.174 C 
BRANCH   3   4
HETATM    4  N1  UNL     1      12.497  22.143  13.916  1.00  0.00    -0.283 N 
BRANCH   4   5
HETATM    5  S1  UNL     1      11.001  21.441  13.814  1.00  0.00     0.264 S 
HETATM    6  O2  UNL     1       9.975  22.123  12.970  1.00  0.00    -0.200 OA
HETATM    7  O3  UNL     1      10.390  21.410  15.219  1.00  0.00    -0.200 OA
BRANCH   5   8
HETATM    8  C5  UNL     1      11.037  19.746  13.326  1.00  0.00     0.080 A 
HETATM    9  C4  UNL     1      11.073  18.805  14.334  1.00  0.00     0.028 A 
HETATM   10  C3  UNL     1      11.107  17.452  14.072  1.00  0.00     0.038 A 
HETATM   11  C2  UNL     1      11.105  17.036  12.740  1.00  0.00     0.068 A 
HETATM   12  C33 UNL     1      11.071  17.967  11.739  1.00  0.00     0.038 A 
HETATM   13  C32 UNL     1      11.036  19.330  12.029  1.00  0.00     0.028 A 
BRANCH  11  14
HETATM   14  O1  UNL     1      11.140  15.666  12.534  1.00  0.00    -0.356 OA
HETATM   15  C1  UNL     1      12.194  15.091  11.779  1.00  0.00     0.210 C 
ENDBRANCH  11  14
ENDBRANCH   5   8
ENDBRANCH   4   5
BRANCH   4  16
HETATM   16  C6  UNL     1      13.382  22.184  12.858  1.00  0.00     0.080 C 
BRANCH  16  17
HETATM   17  C7  UNL     1      14.597  21.352  12.831  1.00  0.00     0.017 C 
HETATM   18  C8  UNL     1      14.448  19.951  13.363  1.00  0.00     0.015 C 
HETATM   19  C9  UNL     1      15.309  21.246  11.508  1.00  0.00     0.015 C 
ENDBRANCH  16  17
ENDBRANCH   4  16
ENDBRANCH   3   4
ENDBRANCH   2   3
BRANCH   2  20
HETATM   20  O4  UNL     1      14.649  23.985  16.123  1.00  0.00    -0.392 OA
ATOM     21  H4  UNL     1      14.025  24.701  16.104  1.00  0.00     0.210 HD
ENDBRANCH   2  20
ENDBRANCH   1   2
BRANCH   1  22
HETATM   22  C13 UNL     1      13.287  21.140  17.501  1.00  0.00     0.037 C 
BRANCH  22  23
HETATM   23  C14 UNL     1      12.956  19.800  17.941  1.00  0.00    -0.037 C 
HETATM   24  C15 UNL     1      11.552  19.352  17.987  1.00  0.00     0.014 C 
HETATM   25  C16 UNL     1      11.332  18.051  18.752  1.00  0.00    -0.013 C 
HETATM   26  C17 UNL     1      12.092  16.979  17.979  1.00  0.00     0.009 C 
HETATM   27  C21 UNL     1      11.814  18.143  20.155  1.00  0.00     0.009 C 
HETATM   28  C18 UNL     1      13.523  17.403  17.941  1.00  0.00    -0.013 C 
HETATM   29  C19 UNL     1      14.045  17.416  19.361  1.00  0.00     0.009 C 
HETATM   30  C23 UNL     1      13.742  18.701  17.221  1.00  0.00     0.014 C 
HETATM   31  C20 UNL     1      13.287  18.490  20.094  1.00  0.00    -0.013 C 
HETATM   32  C22 UNL     1      13.501  19.770  19.410  1.00  0.00     0.014 C 
ENDBRANCH  22  23
ENDBRANCH   1  22
BRANCH   1  33
HETATM   33  N2  UNL     1      15.542  21.945  17.372  1.00  0.00    -0.330 N 
HETATM   34  C24 UNL     1      16.778  21.495  16.924  1.00  0.00     0.361 C 
HETATM   35  O5  UNL     1      16.876  20.836  15.858  1.00  0.00    -0.238 OA
ATOM     36  H2  UNL     1      15.484  22.481  18.239  1.00  0.00     0.165 HD
BRANCH  34  37
HETATM   37  O6  UNL     1      17.982  21.715  17.578  1.00  0.00    -0.296 OA
BRANCH  37  38
HETATM   38  C25 UNL     1      18.810  22.766  17.290  1.00  0.00     0.166 C 
HETATM   39  C26 UNL     1      18.187  23.956  16.638  1.00  0.00     0.204 C 
HETATM   40  O7  UNL     1      17.349  24.421  17.645  1.00  0.00    -0.358 OA
HETATM   41  C27 UNL     1      18.225  24.532  18.723  1.00  0.00     0.266 C 
HETATM   42  O8  UNL     1      17.568  24.494  19.951  1.00  0.00    -0.361 OA
HETATM   43  C31 UNL     1      19.235  23.416  18.618  1.00  0.00     0.073 C 
HETATM   44  C28 UNL     1      18.561  24.595  20.935  1.00  0.00     0.171 C 
HETATM   45  C29 UNL     1      19.410  23.348  21.020  1.00  0.00     0.027 C 
HETATM   46  C30 UNL     1      19.076  22.498  19.783  1.00  0.00     0.014 C 
ENDBRANCH  37  38
ENDBRANCH  34  37
ENDBRANCH   1  33
TORSDOF 14
ENDMDL
