MODEL 2
REMARK VINA RESULT: -10.338006389      1.499      2.089
REMARK  6 active torsions:
REMARK  status: ('A' for Active; 'I' for Inactive)
REMARK    1  A    between atoms: N2_5  and  C4_6 
REMARK    2  A    between atoms: C4_6  and  O1_7 
REMARK    3  A    between atoms: C4_6  and  C5_9 
REMARK    4  A    between atoms: C8_12  and  N3_13 
REMARK       I    between atoms: N3_13  and  C9_15 
REMARK    5  A    between atoms: C9_15  and  C10_17 
REMARK    6  A    between atoms: C16_29  and  C17_30 
ROOT
HETATM    1  C5  UNL     1     -19.167 -48.249 -17.442  1.00  0.00     0.015 A 
HETATM    2  C6  UNL     1     -18.854 -47.380 -16.411  1.00  0.00     0.018 A 
HETATM    3  C7  UNL     1     -17.639 -47.386 -15.800  1.00  0.00     0.031 A 
HETATM    4  C8  UNL     1     -16.659 -48.272 -16.190  1.00  0.00     0.046 A 
HETATM    5  C16 UNL     1     -16.964 -49.138 -17.213  1.00  0.00     0.002 A 
HETATM    6  C23 UNL     1     -18.200 -49.137 -17.840  1.00  0.00     0.030 A 
ENDROOT
BRANCH   4   7
HETATM    7  N3  UNL     1     -15.399 -48.380 -15.587  1.00  0.00    -0.322 N 
HETATM    8  C9  UNL     1     -14.345 -47.456 -15.704  1.00  0.00     0.259 C 
HETATM    9  O2  UNL     1     -14.429 -46.426 -16.372  1.00  0.00    -0.267 OA
ATOM     10  H3  UNL     1     -15.231 -49.204 -15.010  1.00  0.00     0.169 HD
BRANCH   8  11
HETATM   11  C10 UNL     1     -13.044 -47.691 -15.002  1.00  0.00     0.067 A 
HETATM   12  C11 UNL     1     -12.687 -46.858 -13.980  1.00  0.00     0.070 A 
HETATM   13  S1  UNL     1     -11.180 -47.480 -13.489  1.00  0.00    -0.093 SA
HETATM   14  C12 UNL     1     -11.040 -48.777 -14.589  1.00  0.00     0.100 A 
HETATM   15  C13 UNL     1     -10.084 -49.779 -14.839  1.00  0.00     0.265 A 
HETATM   16  C15 UNL     1     -12.192 -48.685 -15.319  1.00  0.00     0.072 A 
HETATM   17  O3  UNL     1      -9.068 -49.764 -14.107  1.00  0.00    -0.267 OA
HETATM   18  N4  UNL     1     -10.272 -50.685 -15.809  1.00  0.00    -0.319 N 
HETATM   19  C14 UNL     1     -11.408 -50.567 -16.502  1.00  0.00     0.184 A 
ATOM     20  H4  UNL     1      -9.591 -51.419 -16.005  1.00  0.00     0.169 HD
HETATM   21  N5  UNL     1     -12.335 -49.641 -16.303  1.00  0.00    -0.350 N 
ATOM     22  H5  UNL     1     -13.170 -49.635 -16.889  1.00  0.00     0.166 HD
ENDBRANCH   8  11
ENDBRANCH   4   7
BRANCH   5  23
HETATM   23  C17 UNL     1     -15.961 -50.093 -17.731  1.00  0.00    -0.024 A 
HETATM   24  C18 UNL     1     -15.293 -49.701 -18.874  1.00  0.00     0.012 A 
HETATM   25  C19 UNL     1     -14.331 -50.524 -19.388  1.00  0.00     0.001 A 
HETATM   26  C20 UNL     1     -14.008 -51.729 -18.804  1.00  0.00     0.000 A 
HETATM   27  C21 UNL     1     -14.692 -52.095 -17.663  1.00  0.00     0.001 A 
HETATM   28  C22 UNL     1     -15.662 -51.279 -17.132  1.00  0.00     0.012 A 
ENDBRANCH   5  23
BRANCH   1  29
HETATM   29  C4  UNL     1     -20.467 -48.186 -18.033  1.00  0.00     0.148 C 
BRANCH  29  30
HETATM   30  N2  UNL     1     -21.745 -48.458 -17.544  1.00  0.00    -0.358 N 
HETATM   31  C3  UNL     1     -22.512 -49.608 -17.856  1.00  0.00     0.155 C 
HETATM   32  C2  UNL     1     -23.894 -49.409 -17.174  1.00  0.00     0.291 C 
HETATM   33  N1  UNL     1     -23.756 -49.292 -15.737  1.00  0.00     0.087 N 
HETATM   34  C1  UNL     1     -23.101 -50.501 -15.275  1.00  0.00     0.310 C 
HETATM   35  C25 UNL     1     -22.896 -48.176 -15.390  1.00  0.00     0.291 C 
HETATM   36  C24 UNL     1     -22.368 -47.490 -16.628  1.00  0.00     0.155 C 
ENDBRANCH  29  30
BRANCH  29  37
HETATM   37  O1  UNL     1     -20.467 -47.797 -19.283  1.00  0.00    -0.346 OA
ATOM     38  H1  UNL     1     -19.804 -48.230 -19.809  1.00  0.00     0.219 HD
ENDBRANCH  29  37
ENDBRANCH   1  29
TORSDOF 6
ENDMDL
