MODEL 6
REMARK VINA RESULT: -9.868111934      3.488      5.284
REMARK  6 active torsions:
REMARK  status: ('A' for Active; 'I' for Inactive)
REMARK    1  A    between atoms: N2_5  and  C4_6 
REMARK    2  A    between atoms: C4_6  and  O1_7 
REMARK    3  A    between atoms: C4_6  and  C5_9 
REMARK    4  A    between atoms: C8_12  and  N3_13 
REMARK       I    between atoms: N3_13  and  C9_15 
REMARK    5  A    between atoms: C9_15  and  C10_17 
REMARK    6  A    between atoms: C16_29  and  C17_30 
ROOT
HETATM    1  C5  UNL     1     -20.012 -47.467 -16.903  1.00  0.00     0.015 A 
HETATM    2  C6  UNL     1     -20.103 -48.601 -17.692  1.00  0.00     0.018 A 
HETATM    3  C7  UNL     1     -19.027 -49.388 -17.959  1.00  0.00     0.031 A 
HETATM    4  C8  UNL     1     -17.785 -49.081 -17.446  1.00  0.00     0.046 A 
HETATM    5  C16 UNL     1     -17.689 -47.957 -16.661  1.00  0.00     0.002 A 
HETATM    6  C23 UNL     1     -18.782 -47.151 -16.386  1.00  0.00     0.030 A 
ENDROOT
BRANCH   4   7
HETATM    7  N3  UNL     1     -16.616 -49.807 -17.707  1.00  0.00    -0.322 N 
HETATM    8  C9  UNL     1     -15.933 -49.859 -18.936  1.00  0.00     0.259 C 
HETATM    9  O2  UNL     1     -16.310 -49.252 -19.938  1.00  0.00    -0.267 OA
ATOM     10  H3  UNL     1     -16.223 -50.346 -16.936  1.00  0.00     0.169 HD
BRANCH   8  11
HETATM   11  C10 UNL     1     -14.686 -50.674 -19.081  1.00  0.00     0.067 A 
HETATM   12  C11 UNL     1     -13.733 -50.599 -18.106  1.00  0.00     0.070 A 
HETATM   13  S1  UNL     1     -12.526 -51.661 -18.667  1.00  0.00    -0.093 SA
HETATM   14  C12 UNL     1     -13.257 -52.172 -20.122  1.00  0.00     0.100 A 
HETATM   15  C13 UNL     1     -12.906 -53.048 -21.166  1.00  0.00     0.265 A 
HETATM   16  C15 UNL     1     -14.441 -51.488 -20.126  1.00  0.00     0.072 A 
HETATM   17  O3  UNL     1     -11.797 -53.618 -21.053  1.00  0.00    -0.267 OA
HETATM   18  N4  UNL     1     -13.726 -53.243 -22.208  1.00  0.00    -0.319 N 
HETATM   19  C14 UNL     1     -14.873 -52.560 -22.181  1.00  0.00     0.184 A 
ATOM     20  H4  UNL     1     -13.488 -53.874 -22.974  1.00  0.00     0.169 HD
HETATM   21  N5  UNL     1     -15.246 -51.725 -21.221  1.00  0.00    -0.350 N 
ATOM     22  H5  UNL     1     -16.145 -51.249 -21.294  1.00  0.00     0.166 HD
ENDBRANCH   8  11
ENDBRANCH   4   7
BRANCH   5  23
HETATM   23  C17 UNL     1     -16.408 -47.573 -16.029  1.00  0.00    -0.024 A 
HETATM   24  C18 UNL     1     -16.312 -47.818 -14.674  1.00  0.00     0.012 A 
HETATM   25  C19 UNL     1     -15.143 -47.514 -14.034  1.00  0.00     0.001 A 
HETATM   26  C20 UNL     1     -14.063 -46.973 -14.696  1.00  0.00     0.000 A 
HETATM   27  C21 UNL     1     -14.188 -46.740 -16.050  1.00  0.00     0.001 A 
HETATM   28  C22 UNL     1     -15.355 -47.039 -16.710  1.00  0.00     0.012 A 
ENDBRANCH   5  23
BRANCH   1  29
HETATM   29  C4  UNL     1     -21.187 -46.687 -16.671  1.00  0.00     0.148 C 
BRANCH  29  30
HETATM   30  N2  UNL     1     -22.528 -47.025 -16.485  1.00  0.00    -0.358 N 
HETATM   31  C3  UNL     1     -23.576 -46.734 -17.393  1.00  0.00     0.155 C 
HETATM   32  C2  UNL     1     -24.890 -47.198 -16.705  1.00  0.00     0.291 C 
HETATM   33  N1  UNL     1     -24.863 -48.620 -16.431  1.00  0.00     0.087 N 
HETATM   34  C1  UNL     1     -24.658 -49.292 -17.700  1.00  0.00     0.310 C 
HETATM   35  C25 UNL     1     -23.740 -48.961 -15.577  1.00  0.00     0.291 C 
HETATM   36  C24 UNL     1     -22.910 -47.740 -15.258  1.00  0.00     0.155 C 
ENDBRANCH  29  30
BRANCH  29  37
HETATM   37  O1  UNL     1     -20.970 -45.396 -16.621  1.00  0.00    -0.346 OA
ATOM     38  H1  UNL     1     -20.046 -45.172 -16.639  1.00  0.00     0.219 HD
ENDBRANCH  29  37
ENDBRANCH   1  29
TORSDOF 6
ENDMDL
