MODEL 5
REMARK VINA RESULT: -10.013373009      3.465      5.237
REMARK  6 active torsions:
REMARK  status: ('A' for Active; 'I' for Inactive)
REMARK    1  A    between atoms: N2_5  and  C4_6 
REMARK    2  A    between atoms: C4_6  and  O1_7 
REMARK    3  A    between atoms: C4_6  and  C5_9 
REMARK    4  A    between atoms: C8_12  and  N3_13 
REMARK       I    between atoms: N3_13  and  C9_15 
REMARK    5  A    between atoms: C9_15  and  C10_17 
REMARK    6  A    between atoms: C16_29  and  C17_30 
ROOT
HETATM    1  C5  UNL     1     -19.355 -47.585 -17.178  1.00  0.00     0.015 A 
HETATM    2  C6  UNL     1     -19.697 -48.551 -18.109  1.00  0.00     0.018 A 
HETATM    3  C7  UNL     1     -18.812 -49.487 -18.543  1.00  0.00     0.031 A 
HETATM    4  C8  UNL     1     -17.520 -49.510 -18.064  1.00  0.00     0.046 A 
HETATM    5  C16 UNL     1     -17.175 -48.555 -17.138  1.00  0.00     0.002 A 
HETATM    6  C23 UNL     1     -18.072 -47.597 -16.693  1.00  0.00     0.030 A 
ENDROOT
BRANCH   4   7
HETATM    7  N3  UNL     1     -16.530 -50.407 -18.488  1.00  0.00    -0.322 N 
HETATM    8  C9  UNL     1     -15.993 -50.489 -19.786  1.00  0.00     0.259 C 
HETATM    9  O2  UNL     1     -16.352 -49.758 -20.707  1.00  0.00    -0.267 OA
ATOM     10  H3  UNL     1     -16.167 -51.058 -17.793  1.00  0.00     0.169 HD
BRANCH   8  11
HETATM   11  C10 UNL     1     -14.932 -51.495 -20.108  1.00  0.00     0.067 A 
HETATM   12  C11 UNL     1     -15.257 -52.567 -20.890  1.00  0.00     0.070 A 
HETATM   13  S1  UNL     1     -13.789 -53.424 -20.994  1.00  0.00    -0.093 SA
HETATM   14  C12 UNL     1     -12.802 -52.405 -20.045  1.00  0.00     0.100 A 
HETATM   15  C13 UNL     1     -11.454 -52.409 -19.641  1.00  0.00     0.265 A 
HETATM   16  C15 UNL     1     -13.662 -51.410 -19.669  1.00  0.00     0.072 A 
HETATM   17  O3  UNL     1     -10.763 -53.372 -20.046  1.00  0.00    -0.267 OA
HETATM   18  N4  UNL     1     -10.962 -51.431 -18.868  1.00  0.00    -0.319 N 
HETATM   19  C14 UNL     1     -11.828 -50.475 -18.519  1.00  0.00     0.184 A 
ATOM     20  H4  UNL     1      -9.989 -51.417 -18.565  1.00  0.00     0.169 HD
HETATM   21  N5  UNL     1     -13.104 -50.429 -18.874  1.00  0.00    -0.350 N 
ATOM     22  H5  UNL     1     -13.685 -49.655 -18.554  1.00  0.00     0.166 HD
ENDBRANCH   8  11
ENDBRANCH   4   7
BRANCH   5  23
HETATM   23  C17 UNL     1     -15.826 -48.529 -16.533  1.00  0.00    -0.024 A 
HETATM   24  C18 UNL     1     -15.310 -47.276 -16.272  1.00  0.00     0.012 A 
HETATM   25  C19 UNL     1     -14.079 -47.181 -15.684  1.00  0.00     0.001 A 
HETATM   26  C20 UNL     1     -13.340 -48.293 -15.347  1.00  0.00     0.000 A 
HETATM   27  C21 UNL     1     -13.882 -49.533 -15.619  1.00  0.00     0.001 A 
HETATM   28  C22 UNL     1     -15.117 -49.647 -16.209  1.00  0.00     0.012 A 
ENDBRANCH   5  23
BRANCH   1  29
HETATM   29  C4  UNL     1     -20.339 -46.631 -16.774  1.00  0.00     0.148 C 
BRANCH  29  30
HETATM   30  N2  UNL     1     -21.726 -46.699 -16.636  1.00  0.00    -0.358 N 
HETATM   31  C3  UNL     1     -22.429 -47.721 -15.950  1.00  0.00     0.155 C 
HETATM   32  C2  UNL     1     -23.940 -47.430 -16.166  1.00  0.00     0.291 C 
HETATM   33  N1  UNL     1     -24.307 -46.139 -15.624  1.00  0.00     0.087 N 
HETATM   34  C1  UNL     1     -23.962 -46.157 -14.214  1.00  0.00     0.310 C 
HETATM   35  C25 UNL     1     -23.532 -45.079 -16.242  1.00  0.00     0.291 C 
HETATM   36  C24 UNL     1     -22.546 -45.639 -17.241  1.00  0.00     0.155 C 
ENDBRANCH  29  30
BRANCH  29  37
HETATM   37  O1  UNL     1     -19.850 -45.454 -16.470  1.00  0.00    -0.346 OA
ATOM     38  H1  UNL     1     -20.411 -44.956 -15.888  1.00  0.00     0.219 HD
ENDBRANCH  29  37
ENDBRANCH   1  29
TORSDOF 6
ENDMDL
