MODEL 4
REMARK VINA RESULT: -10.220177302      0.712      1.287
REMARK  6 active torsions:
REMARK  status: ('A' for Active; 'I' for Inactive)
REMARK    1  A    between atoms: N2_5  and  C4_6 
REMARK    2  A    between atoms: C4_6  and  O1_7 
REMARK    3  A    between atoms: C4_6  and  C5_9 
REMARK    4  A    between atoms: C8_12  and  N3_13 
REMARK       I    between atoms: N3_13  and  C9_15 
REMARK    5  A    between atoms: C9_15  and  C10_17 
REMARK    6  A    between atoms: C16_29  and  C17_30 
ROOT
HETATM    1  C5  UNL     1     -18.621 -48.043 -16.936  1.00  0.00     0.015 A 
HETATM    2  C6  UNL     1     -18.113 -47.111 -16.047  1.00  0.00     0.018 A 
HETATM    3  C7  UNL     1     -16.817 -47.127 -15.640  1.00  0.00     0.031 A 
HETATM    4  C8  UNL     1     -15.945 -48.087 -16.103  1.00  0.00     0.046 A 
HETATM    5  C16 UNL     1     -16.442 -49.015 -16.987  1.00  0.00     0.002 A 
HETATM    6  C23 UNL     1     -17.763 -49.005 -17.406  1.00  0.00     0.030 A 
ENDROOT
BRANCH   4   7
HETATM    7  N3  UNL     1     -14.608 -48.208 -15.702  1.00  0.00    -0.322 N 
HETATM    8  C9  UNL     1     -13.928 -47.344 -14.824  1.00  0.00     0.259 C 
HETATM    9  O2  UNL     1     -14.459 -46.364 -14.305  1.00  0.00    -0.267 OA
ATOM     10  H3  UNL     1     -14.080 -48.993 -16.081  1.00  0.00     0.169 HD
BRANCH   8  11
HETATM   11  C10 UNL     1     -12.494 -47.589 -14.474  1.00  0.00     0.067 A 
HETATM   12  C11 UNL     1     -11.854 -46.703 -13.654  1.00  0.00     0.070 A 
HETATM   13  S1  UNL     1     -10.288 -47.357 -13.529  1.00  0.00    -0.093 SA
HETATM   14  C12 UNL     1     -10.480 -48.735 -14.517  1.00  0.00     0.100 A 
HETATM   15  C13 UNL     1      -9.652 -49.796 -14.929  1.00  0.00     0.265 A 
HETATM   16  C15 UNL     1     -11.783 -48.641 -14.922  1.00  0.00     0.072 A 
HETATM   17  O3  UNL     1      -8.478 -49.775 -14.495  1.00  0.00    -0.267 OA
HETATM   18  N4  UNL     1     -10.116 -50.759 -15.737  1.00  0.00    -0.319 N 
HETATM   19  C14 UNL     1     -11.392 -50.638 -16.114  1.00  0.00     0.184 A 
ATOM     20  H4  UNL     1      -9.531 -51.536 -16.046  1.00  0.00     0.169 HD
HETATM   21  N5  UNL     1     -12.208 -49.658 -15.753  1.00  0.00    -0.350 N 
ATOM     22  H5  UNL     1     -13.168 -49.655 -16.096  1.00  0.00     0.166 HD
ENDBRANCH   8  11
ENDBRANCH   4   7
BRANCH   5  23
HETATM   23  C17 UNL     1     -15.571 -50.055 -17.574  1.00  0.00    -0.024 A 
HETATM   24  C18 UNL     1     -14.959 -49.723 -18.766  1.00  0.00     0.012 A 
HETATM   25  C19 UNL     1     -14.117 -50.628 -19.348  1.00  0.00     0.001 A 
HETATM   26  C20 UNL     1     -13.860 -51.859 -18.784  1.00  0.00     0.000 A 
HETATM   27  C21 UNL     1     -14.485 -52.163 -17.592  1.00  0.00     0.001 A 
HETATM   28  C22 UNL     1     -15.335 -51.266 -16.994  1.00  0.00     0.012 A 
ENDBRANCH   5  23
BRANCH   1  29
HETATM   29  C4  UNL     1     -19.997 -47.964 -17.315  1.00  0.00     0.148 C 
BRANCH  29  30
HETATM   30  N2  UNL     1     -20.676 -48.280 -18.492  1.00  0.00    -0.358 N 
HETATM   31  C3  UNL     1     -21.457 -49.445 -18.697  1.00  0.00     0.155 C 
HETATM   32  C2  UNL     1     -21.910 -49.409 -20.183  1.00  0.00     0.291 C 
HETATM   33  N1  UNL     1     -22.709 -48.234 -20.458  1.00  0.00     0.087 N 
HETATM   34  C1  UNL     1     -23.843 -48.270 -19.554  1.00  0.00     0.310 C 
HETATM   35  C25 UNL     1     -21.964 -47.022 -20.166  1.00  0.00     0.291 C 
HETATM   36  C24 UNL     1     -20.591 -47.346 -19.625  1.00  0.00     0.155 C 
ENDBRANCH  29  30
BRANCH  29  37
HETATM   37  O1  UNL     1     -20.784 -47.505 -16.374  1.00  0.00    -0.346 OA
ATOM     38  H1  UNL     1     -21.691 -47.765 -16.487  1.00  0.00     0.219 HD
ENDBRANCH  29  37
ENDBRANCH   1  29
TORSDOF 6
ENDMDL
