MODEL 3
REMARK VINA RESULT: -10.270088419      1.319      1.835
REMARK  6 active torsions:
REMARK  status: ('A' for Active; 'I' for Inactive)
REMARK    1  A    between atoms: N2_5  and  C4_6 
REMARK    2  A    between atoms: C4_6  and  O1_7 
REMARK    3  A    between atoms: C4_6  and  C5_9 
REMARK    4  A    between atoms: C8_12  and  N3_13 
REMARK       I    between atoms: N3_13  and  C9_15 
REMARK    5  A    between atoms: C9_15  and  C10_17 
REMARK    6  A    between atoms: C16_29  and  C17_30 
ROOT
HETATM    1  C5  UNL     1     -18.642 -48.234 -17.079  1.00  0.00     0.015 A 
HETATM    2  C6  UNL     1     -18.201 -47.343 -16.116  1.00  0.00     0.018 A 
HETATM    3  C7  UNL     1     -16.916 -47.333 -15.671  1.00  0.00     0.031 A 
HETATM    4  C8  UNL     1     -15.991 -48.223 -16.169  1.00  0.00     0.046 A 
HETATM    5  C16 UNL     1     -16.423 -49.110 -17.127  1.00  0.00     0.002 A 
HETATM    6  C23 UNL     1     -17.730 -49.126 -17.584  1.00  0.00     0.030 A 
ENDROOT
BRANCH   4   7
HETATM    7  N3  UNL     1     -14.662 -48.315 -15.736  1.00  0.00    -0.322 N 
HETATM    8  C9  UNL     1     -13.991 -47.382 -14.925  1.00  0.00     0.259 C 
HETATM    9  O2  UNL     1     -14.524 -46.357 -14.503  1.00  0.00    -0.267 OA
ATOM     10  H3  UNL     1     -14.132 -49.134 -16.036  1.00  0.00     0.169 HD
BRANCH   8  11
HETATM   11  C10 UNL     1     -12.564 -47.602 -14.530  1.00  0.00     0.067 A 
HETATM   12  C11 UNL     1     -11.968 -46.708 -13.687  1.00  0.00     0.070 A 
HETATM   13  S1  UNL     1     -10.394 -47.335 -13.515  1.00  0.00    -0.093 SA
HETATM   14  C12 UNL     1     -10.530 -48.712 -14.513  1.00  0.00     0.100 A 
HETATM   15  C13 UNL     1      -9.671 -49.756 -14.902  1.00  0.00     0.265 A 
HETATM   16  C15 UNL     1     -11.821 -48.640 -14.959  1.00  0.00     0.072 A 
HETATM   17  O3  UNL     1      -8.511 -49.716 -14.431  1.00  0.00    -0.267 OA
HETATM   18  N4  UNL     1     -10.091 -50.724 -15.728  1.00  0.00    -0.319 N 
HETATM   19  C14 UNL     1     -11.356 -50.625 -16.144  1.00  0.00     0.184 A 
ATOM     20  H4  UNL     1      -9.483 -51.489 -16.020  1.00  0.00     0.169 HD
HETATM   21  N5  UNL     1     -12.201 -49.661 -15.807  1.00  0.00    -0.350 N 
ATOM     22  H5  UNL     1     -13.150 -49.674 -16.180  1.00  0.00     0.166 HD
ENDBRANCH   8  11
ENDBRANCH   4   7
BRANCH   5  23
HETATM   23  C17 UNL     1     -15.491 -50.072 -17.754  1.00  0.00    -0.024 A 
HETATM   24  C18 UNL     1     -15.362 -51.287 -17.114  1.00  0.00     0.012 A 
HETATM   25  C19 UNL     1     -14.540 -52.234 -17.658  1.00  0.00     0.001 A 
HETATM   26  C20 UNL     1     -13.837 -52.012 -18.822  1.00  0.00     0.000 A 
HETATM   27  C21 UNL     1     -13.986 -50.788 -19.441  1.00  0.00     0.001 A 
HETATM   28  C22 UNL     1     -14.808 -49.825 -18.908  1.00  0.00     0.012 A 
ENDBRANCH   5  23
BRANCH   1  29
HETATM   29  C4  UNL     1     -20.009 -48.187 -17.494  1.00  0.00     0.148 C 
BRANCH  29  30
HETATM   30  N2  UNL     1     -20.747 -47.256 -18.226  1.00  0.00    -0.358 N 
HETATM   31  C3  UNL     1     -20.609 -47.015 -19.615  1.00  0.00     0.155 C 
HETATM   32  C2  UNL     1     -21.549 -45.823 -19.946  1.00  0.00     0.291 C 
HETATM   33  N1  UNL     1     -22.928 -46.145 -19.643  1.00  0.00     0.087 N 
HETATM   34  C1  UNL     1     -23.268 -47.325 -20.415  1.00  0.00     0.310 C 
HETATM   35  C25 UNL     1     -23.082 -46.489 -18.241  1.00  0.00     0.291 C 
HETATM   36  C24 UNL     1     -21.754 -46.447 -17.522  1.00  0.00     0.155 C 
ENDBRANCH  29  30
BRANCH  29  37
HETATM   37  O1  UNL     1     -20.718 -49.222 -17.116  1.00  0.00    -0.346 OA
ATOM     38  H1  UNL     1     -20.198 -50.010 -17.007  1.00  0.00     0.219 HD
ENDBRANCH  29  37
ENDBRANCH   1  29
TORSDOF 6
ENDMDL
