MODEL 7
REMARK VINA RESULT: -9.860111035      3.667      5.576
REMARK  6 active torsions:
REMARK  status: ('A' for Active; 'I' for Inactive)
REMARK    1  A    between atoms: N2_5  and  C4_6 
REMARK    2  A    between atoms: C4_6  and  O1_7 
REMARK    3  A    between atoms: C4_6  and  C5_9 
REMARK    4  A    between atoms: C8_12  and  N3_13 
REMARK       I    between atoms: N3_13  and  C9_15 
REMARK    5  A    between atoms: C9_15  and  C10_17 
REMARK    6  A    between atoms: C16_29  and  C17_30 
ROOT
HETATM    1  C5  UNL     1     -20.003 -47.465 -16.889  1.00  0.00     0.015 A 
HETATM    2  C6  UNL     1     -20.097 -48.601 -17.675  1.00  0.00     0.018 A 
HETATM    3  C7  UNL     1     -19.024 -49.389 -17.945  1.00  0.00     0.031 A 
HETATM    4  C8  UNL     1     -17.780 -49.083 -17.437  1.00  0.00     0.046 A 
HETATM    5  C16 UNL     1     -17.679 -47.958 -16.654  1.00  0.00     0.002 A 
HETATM    6  C23 UNL     1     -18.770 -47.150 -16.376  1.00  0.00     0.030 A 
ENDROOT
BRANCH   4   7
HETATM    7  N3  UNL     1     -16.612 -49.810 -17.701  1.00  0.00    -0.322 N 
HETATM    8  C9  UNL     1     -15.925 -49.852 -18.928  1.00  0.00     0.259 C 
HETATM    9  O2  UNL     1     -16.296 -49.233 -19.925  1.00  0.00    -0.267 OA
ATOM     10  H3  UNL     1     -16.225 -50.359 -16.934  1.00  0.00     0.169 HD
BRANCH   8  11
HETATM   11  C10 UNL     1     -14.681 -50.670 -19.077  1.00  0.00     0.067 A 
HETATM   12  C11 UNL     1     -13.724 -50.598 -18.105  1.00  0.00     0.070 A 
HETATM   13  S1  UNL     1     -12.522 -51.663 -18.670  1.00  0.00    -0.093 SA
HETATM   14  C12 UNL     1     -13.259 -52.172 -20.122  1.00  0.00     0.100 A 
HETATM   15  C13 UNL     1     -12.913 -53.049 -21.167  1.00  0.00     0.265 A 
HETATM   16  C15 UNL     1     -14.441 -51.485 -20.122  1.00  0.00     0.072 A 
HETATM   17  O3  UNL     1     -11.805 -53.622 -21.058  1.00  0.00    -0.267 OA
HETATM   18  N4  UNL     1     -13.737 -53.243 -22.207  1.00  0.00    -0.319 N 
HETATM   19  C14 UNL     1     -14.883 -52.557 -22.176  1.00  0.00     0.184 A 
ATOM     20  H4  UNL     1     -13.504 -53.874 -22.973  1.00  0.00     0.169 HD
HETATM   21  N5  UNL     1     -15.251 -51.721 -21.215  1.00  0.00    -0.350 N 
ATOM     22  H5  UNL     1     -16.148 -51.242 -21.285  1.00  0.00     0.166 HD
ENDBRANCH   8  11
ENDBRANCH   4   7
BRANCH   5  23
HETATM   23  C17 UNL     1     -16.396 -47.575 -16.027  1.00  0.00    -0.024 A 
HETATM   24  C18 UNL     1     -16.294 -47.818 -14.673  1.00  0.00     0.012 A 
HETATM   25  C19 UNL     1     -15.123 -47.516 -14.037  1.00  0.00     0.001 A 
HETATM   26  C20 UNL     1     -14.045 -46.976 -14.703  1.00  0.00     0.000 A 
HETATM   27  C21 UNL     1     -14.175 -46.743 -16.057  1.00  0.00     0.001 A 
HETATM   28  C22 UNL     1     -15.345 -47.042 -16.712  1.00  0.00     0.012 A 
ENDBRANCH   5  23
BRANCH   1  29
HETATM   29  C4  UNL     1     -21.176 -46.684 -16.653  1.00  0.00     0.148 C 
BRANCH  29  30
HETATM   30  N2  UNL     1     -22.509 -47.021 -16.421  1.00  0.00    -0.358 N 
HETATM   31  C3  UNL     1     -22.978 -47.793 -15.329  1.00  0.00     0.155 C 
HETATM   32  C2  UNL     1     -24.501 -47.997 -15.562  1.00  0.00     0.291 C 
HETATM   33  N1  UNL     1     -25.200 -46.729 -15.597  1.00  0.00     0.087 N 
HETATM   34  C1  UNL     1     -24.936 -46.065 -14.334  1.00  0.00     0.310 C 
HETATM   35  C25 UNL     1     -24.674 -45.878 -16.649  1.00  0.00     0.291 C 
HETATM   36  C24 UNL     1     -23.529 -46.551 -17.371  1.00  0.00     0.155 C 
ENDBRANCH  29  30
BRANCH  29  37
HETATM   37  O1  UNL     1     -20.965 -45.391 -16.653  1.00  0.00    -0.346 OA
ATOM     38  H1  UNL     1     -20.205 -45.137 -17.163  1.00  0.00     0.219 HD
ENDBRANCH  29  37
ENDBRANCH   1  29
TORSDOF 6
ENDMDL
