MODEL 3
REMARK VINA RESULT: -8.261964686      3.497      6.575
REMARK  7 active torsions:
REMARK  status: ('A' for Active; 'I' for Inactive)
REMARK    1  A    between atoms: C3_4  and  C4_5 
REMARK    2  A    between atoms: C5_9  and  C6_10 
REMARK    3  A    between atoms: C7_13  and  N3_14 
REMARK    4  A    between atoms: C12_22  and  N5_23 
REMARK    5  A    between atoms: C14_25  and  C15_26 
REMARK    6  A    between atoms: C14_25  and  C16_29 
REMARK    7  A    between atoms: C15_26  and  O2_27 
ROOT
HETATM    1  C6  UNL     1      22.895  -4.554  20.483  1.00  0.00     0.149 A 
HETATM    2  N2  UNL     1      21.894  -5.285  21.062  1.00  0.00    -0.175 N 
ATOM      3  H2  UNL     1      22.035  -6.287  21.195  1.00  0.00     0.186 HD
HETATM    4  C7  UNL     1      20.738  -4.744  21.461  1.00  0.00     0.696 A 
HETATM    5  N4  UNL     1      20.550  -3.404  21.281  1.00  0.00    -0.022 N 
ATOM      6  H4  UNL     1      19.675  -2.975  21.579  1.00  0.00     0.203 HD
HETATM    7  C12 UNL     1      21.504  -2.642  20.716  1.00  0.00     0.696 A 
HETATM    8  N6  UNL     1      22.633  -3.258  20.344  1.00  0.00    -0.175 N 
ATOM      9  H6  UNL     1      23.356  -2.681  19.916  1.00  0.00     0.186 HD
ENDROOT
BRANCH   1  10
HETATM   10  C5  UNL     1      24.126  -5.221  20.066  1.00  0.00     0.040 A 
HETATM   11  C3  UNL     1      24.378  -5.407  18.744  1.00  0.00     0.066 A 
HETATM   12  C2  UNL     1      25.574  -6.063  18.428  1.00  0.00     0.062 A 
HETATM   13  C1  UNL     1      26.465  -6.506  19.377  1.00  0.00     0.116 A 
HETATM   14  N1  UNL     1      27.674  -7.169  19.060  1.00  0.00    -0.083 NA
HETATM   15  N7  UNL     1      26.154  -6.288  20.659  1.00  0.00    -0.354 N 
HETATM   16  C18 UNL     1      25.022  -5.666  21.022  1.00  0.00     0.105 A 
ATOM     17  H7  UNL     1      26.797  -6.606  21.384  1.00  0.00     0.166 HD
BRANCH  11  18
HETATM   18  C4  UNL     1      23.503  -4.957  17.635  1.00  0.00     0.418 C 
HETATM   19  F1  UNL     1      23.676  -3.625  17.303  1.00  0.00    -0.166 F 
HETATM   20  F2  UNL     1      23.853  -5.643  16.461  1.00  0.00    -0.166 F 
HETATM   21  F3  UNL     1      22.173  -5.293  17.836  1.00  0.00    -0.166 F 
ENDBRANCH  11  18
ENDBRANCH   1  10
BRANCH   4  22
HETATM   22  N3  UNL     1      19.694  -5.496  22.063  1.00  0.00    -0.213 N 
HETATM   23  C8  UNL     1      19.894  -6.781  22.672  1.00  0.00     0.167 C 
HETATM   24  C9  UNL     1      18.950  -6.981  23.819  1.00  0.00     0.188 C 
HETATM   25  O1  UNL     1      17.641  -6.704  23.552  1.00  0.00    -0.388 OA
HETATM   26  C10 UNL     1      17.380  -6.044  22.384  1.00  0.00     0.188 C 
HETATM   27  C11 UNL     1      18.361  -4.939  22.064  1.00  0.00     0.167 C 
ENDBRANCH   4  22
BRANCH   7  28
HETATM   28  N5  UNL     1      21.314  -1.237  20.524  1.00  0.00    -0.215 N 
HETATM   29  C13 UNL     1      20.865  -0.393  19.438  1.00  0.00     0.155 C 
HETATM   30  C14 UNL     1      20.363   0.579  20.485  1.00  0.00     0.027 C 
HETATM   31  C17 UNL     1      21.482  -0.036  21.316  1.00  0.00     0.155 C 
BRANCH  30  32
HETATM   32  C15 UNL     1      20.549   2.032  20.168  1.00  0.00     0.177 C 
BRANCH  32  33
HETATM   33  O2  UNL     1      20.244   2.770  21.311  1.00  0.00    -0.400 OA
ATOM     34  H2  UNL     1      19.535   2.332  21.767  1.00  0.00     0.209 HD
ENDBRANCH  32  33
ENDBRANCH  30  32
BRANCH  30  35
HETATM   35  C16 UNL     1      19.029   0.179  21.016  1.00  0.00     0.129 C 
HETATM   36 CL1  UNL     1      17.681   0.864  20.114  1.00  0.00    -0.130 Cl
ENDBRANCH  30  35
ENDBRANCH   7  28
TORSDOF 7
ENDMDL
