MODEL 1
REMARK VINA RESULT: -8.515046103      0.000      0.000
REMARK  7 active torsions:
REMARK  status: ('A' for Active; 'I' for Inactive)
REMARK    1  A    between atoms: C3_4  and  C4_5 
REMARK    2  A    between atoms: C5_9  and  C6_10 
REMARK    3  A    between atoms: C7_13  and  N3_14 
REMARK    4  A    between atoms: C12_22  and  N5_23 
REMARK    5  A    between atoms: C14_25  and  C15_26 
REMARK    6  A    between atoms: C14_25  and  C16_29 
REMARK    7  A    between atoms: C15_26  and  O2_27 
ROOT
HETATM    1  C6  UNL     1      21.377  -2.422  20.734  1.00  0.00     0.149 A 
HETATM    2  N2  UNL     1      20.425  -3.145  21.397  1.00  0.00    -0.175 N 
ATOM      3  H2  UNL     1      19.639  -2.649  21.818  1.00  0.00     0.186 HD
HETATM    4  C7  UNL     1      20.479  -4.476  21.519  1.00  0.00     0.696 A 
HETATM    5  N4  UNL     1      21.531  -5.139  20.957  1.00  0.00    -0.022 N 
ATOM      6  H4  UNL     1      21.588  -6.154  21.041  1.00  0.00     0.203 HD
HETATM    7  C12 UNL     1      22.494  -4.473  20.296  1.00  0.00     0.696 A 
HETATM    8  N6  UNL     1      22.368  -3.142  20.216  1.00  0.00    -0.175 N 
ATOM      9  H6  UNL     1      23.097  -2.636  19.715  1.00  0.00     0.186 HD
ENDROOT
BRANCH   1  10
HETATM   10  C5  UNL     1      21.252  -0.969  20.652  1.00  0.00     0.040 A 
HETATM   11  C3  UNL     1      20.501  -0.411  19.666  1.00  0.00     0.066 A 
HETATM   12  C2  UNL     1      20.440   0.988  19.650  1.00  0.00     0.062 A 
HETATM   13  C1  UNL     1      21.090   1.781  20.566  1.00  0.00     0.116 A 
HETATM   14  N1  UNL     1      21.029   3.195  20.553  1.00  0.00    -0.083 NA
HETATM   15  N7  UNL     1      21.810   1.166  21.509  1.00  0.00    -0.354 N 
HETATM   16  C18 UNL     1      21.906  -0.171  21.574  1.00  0.00     0.105 A 
ATOM     17  H7  UNL     1      22.302   1.730  22.201  1.00  0.00     0.166 HD
BRANCH  11  18
HETATM   18  C4  UNL     1      19.743  -1.164  18.638  1.00  0.00     0.418 C 
HETATM   19  F1  UNL     1      18.630  -1.815  19.143  1.00  0.00    -0.166 F 
HETATM   20  F2  UNL     1      19.208  -0.263  17.704  1.00  0.00    -0.166 F 
HETATM   21  F3  UNL     1      20.554  -1.993  17.880  1.00  0.00    -0.166 F 
ENDBRANCH  11  18
ENDBRANCH   1  10
BRANCH   4  22
HETATM   22  N3  UNL     1      19.493  -5.235  22.206  1.00  0.00    -0.213 N 
HETATM   23  C8  UNL     1      19.804  -6.358  23.046  1.00  0.00     0.167 C 
HETATM   24  C9  UNL     1      18.821  -6.470  24.171  1.00  0.00     0.188 C 
HETATM   25  O1  UNL     1      17.507  -6.411  23.806  1.00  0.00    -0.388 OA
HETATM   26  C10 UNL     1      17.244  -6.006  22.528  1.00  0.00     0.188 C 
HETATM   27  C11 UNL     1      18.107  -4.859  22.052  1.00  0.00     0.167 C 
ENDBRANCH   4  22
BRANCH   7  28
HETATM   28  N5  UNL     1      23.600  -5.160  19.704  1.00  0.00    -0.215 N 
HETATM   29  C13 UNL     1      24.902  -4.783  19.198  1.00  0.00     0.155 C 
HETATM   30  C14 UNL     1      25.382  -6.168  19.577  1.00  0.00     0.027 C 
HETATM   31  C17 UNL     1      23.919  -6.529  19.348  1.00  0.00     0.155 C 
BRANCH  30  32
HETATM   32  C15 UNL     1      26.338  -6.812  18.619  1.00  0.00     0.177 C 
BRANCH  32  33
HETATM   33  O2  UNL     1      27.613  -6.766  19.178  1.00  0.00    -0.400 OA
ATOM     34  H2  UNL     1      28.245  -6.960  18.496  1.00  0.00     0.209 HD
ENDBRANCH  32  33
ENDBRANCH  30  32
BRANCH  30  35
HETATM   35  C16 UNL     1      25.729  -6.256  21.023  1.00  0.00     0.129 C 
HETATM   36 CL1  UNL     1      25.812  -7.908  21.625  1.00  0.00    -0.130 Cl
ENDBRANCH  30  35
ENDBRANCH   7  28
TORSDOF 7
ENDMDL
