MODEL 4
REMARK VINA RESULT: -8.205406689      1.824      2.187
REMARK  7 active torsions:
REMARK  status: ('A' for Active; 'I' for Inactive)
REMARK    1  A    between atoms: C3_4  and  C4_5 
REMARK    2  A    between atoms: C5_9  and  C6_10 
REMARK    3  A    between atoms: C7_13  and  N3_14 
REMARK    4  A    between atoms: C12_22  and  N5_23 
REMARK    5  A    between atoms: C14_25  and  C15_26 
REMARK    6  A    between atoms: C14_25  and  C16_29 
REMARK    7  A    between atoms: C15_26  and  O2_27 
ROOT
HETATM    1  C6  UNL     1      20.913  -2.684  19.992  1.00  0.00     0.149 A 
HETATM    2  N2  UNL     1      20.063  -3.367  20.818  1.00  0.00    -0.175 N 
ATOM      3  H2  UNL     1      19.170  -2.939  21.062  1.00  0.00     0.186 HD
HETATM    4  C7  UNL     1      20.352  -4.573  21.319  1.00  0.00     0.696 A 
HETATM    5  N4  UNL     1      21.548  -5.144  20.993  1.00  0.00    -0.022 N 
ATOM      6  H4  UNL     1      21.785  -6.063  21.367  1.00  0.00     0.203 HD
HETATM    7  C12 UNL     1      22.418  -4.512  20.186  1.00  0.00     0.696 A 
HETATM    8  N6  UNL     1      22.056  -3.309  19.724  1.00  0.00    -0.175 N 
ATOM      9  H6  UNL     1      22.714  -2.829  19.111  1.00  0.00     0.186 HD
ENDROOT
BRANCH   1  10
HETATM   10  C5  UNL     1      20.529  -1.366  19.492  1.00  0.00     0.040 A 
HETATM   11  C3  UNL     1      20.992  -0.248  20.109  1.00  0.00     0.066 A 
HETATM   12  C2  UNL     1      20.568   0.975  19.576  1.00  0.00     0.062 A 
HETATM   13  C1  UNL     1      19.733   1.074  18.488  1.00  0.00     0.116 A 
HETATM   14  N1  UNL     1      19.304   2.309  17.947  1.00  0.00    -0.083 NA
HETATM   15  N7  UNL     1      19.315  -0.067  17.929  1.00  0.00    -0.354 N 
HETATM   16  C18 UNL     1      19.687  -1.268  18.398  1.00  0.00     0.105 A 
ATOM     17  H7  UNL     1      18.695  -0.022  17.121  1.00  0.00     0.166 HD
BRANCH  11  18
HETATM   18  C4  UNL     1      21.910  -0.233  21.274  1.00  0.00     0.418 C 
HETATM   19  F1  UNL     1      23.174  -0.714  20.984  1.00  0.00    -0.166 F 
HETATM   20  F2  UNL     1      22.140   1.096  21.665  1.00  0.00    -0.166 F 
HETATM   21  F3  UNL     1      21.354  -0.823  22.398  1.00  0.00    -0.166 F 
ENDBRANCH  11  18
ENDBRANCH   1  10
BRANCH   4  22
HETATM   22  N3  UNL     1      19.475  -5.290  22.177  1.00  0.00    -0.213 N 
HETATM   23  C8  UNL     1      19.896  -6.389  22.999  1.00  0.00     0.167 C 
HETATM   24  C9  UNL     1      19.098  -6.445  24.266  1.00  0.00     0.188 C 
HETATM   25  O1  UNL     1      17.744  -6.373  24.106  1.00  0.00    -0.388 OA
HETATM   26  C10 UNL     1      17.292  -6.006  22.870  1.00  0.00     0.188 C 
HETATM   27  C11 UNL     1      18.087  -4.892  22.225  1.00  0.00     0.167 C 
ENDBRANCH   4  22
BRANCH   7  28
HETATM   28  N5  UNL     1      23.674  -5.104  19.839  1.00  0.00    -0.215 N 
HETATM   29  C13 UNL     1      25.057  -4.680  19.855  1.00  0.00     0.155 C 
HETATM   30  C14 UNL     1      25.434  -6.131  20.066  1.00  0.00     0.027 C 
HETATM   31  C17 UNL     1      24.127  -6.380  19.322  1.00  0.00     0.155 C 
BRANCH  30  32
HETATM   32  C15 UNL     1      26.660  -6.598  19.342  1.00  0.00     0.177 C 
BRANCH  32  33
HETATM   33  O2  UNL     1      27.774  -6.033  19.960  1.00  0.00    -0.400 OA
ATOM     34  H2  UNL     1      27.799  -5.109  19.741  1.00  0.00     0.209 HD
ENDBRANCH  32  33
ENDBRANCH  30  32
BRANCH  30  35
HETATM   35  C16 UNL     1      25.313  -6.531  21.497  1.00  0.00     0.129 C 
HETATM   36 CL1  UNL     1      25.925  -8.148  21.827  1.00  0.00    -0.130 Cl
ENDBRANCH  30  35
ENDBRANCH   7  28
TORSDOF 7
ENDMDL
