MODEL 2
REMARK VINA RESULT: -8.325884949      3.762      5.667
REMARK  7 active torsions:
REMARK  status: ('A' for Active; 'I' for Inactive)
REMARK    1  A    between atoms: C3_4  and  C4_5 
REMARK    2  A    between atoms: C5_9  and  C6_10 
REMARK    3  A    between atoms: C7_13  and  N3_14 
REMARK    4  A    between atoms: C12_22  and  N5_23 
REMARK    5  A    between atoms: C14_25  and  C15_26 
REMARK    6  A    between atoms: C14_25  and  C16_29 
REMARK    7  A    between atoms: C15_26  and  O2_27 
ROOT
HETATM    1  C6  UNL     1      21.707  -2.926  19.603  1.00  0.00     0.149 A 
HETATM    2  N2  UNL     1      20.531  -2.255  19.407  1.00  0.00    -0.175 N 
ATOM      3  H2  UNL     1      20.512  -1.487  18.736  1.00  0.00     0.186 HD
HETATM    4  C7  UNL     1      19.404  -2.562  20.058  1.00  0.00     0.696 A 
HETATM    5  N4  UNL     1      19.430  -3.589  20.957  1.00  0.00    -0.022 N 
ATOM      6  H4  UNL     1      18.580  -3.836  21.463  1.00  0.00     0.203 HD
HETATM    7  C12 UNL     1      20.562  -4.278  21.186  1.00  0.00     0.696 A 
HETATM    8  N6  UNL     1      21.648  -3.911  20.494  1.00  0.00    -0.175 N 
ATOM      9  H6  UNL     1      22.506  -4.433  20.666  1.00  0.00     0.186 HD
ENDROOT
BRANCH   1  10
HETATM   10  C5  UNL     1      22.898  -2.524  18.859  1.00  0.00     0.040 A 
HETATM   11  C3  UNL     1      23.466  -3.388  17.977  1.00  0.00     0.066 A 
HETATM   12  C2  UNL     1      24.611  -2.931  17.312  1.00  0.00     0.062 A 
HETATM   13  C1  UNL     1      25.154  -1.685  17.517  1.00  0.00     0.116 A 
HETATM   14  N1  UNL     1      26.311  -1.220  16.846  1.00  0.00    -0.083 NA
HETATM   15  N7  UNL     1      24.543  -0.886  18.398  1.00  0.00    -0.354 N 
HETATM   16  C18 UNL     1      23.444  -1.270  19.066  1.00  0.00     0.105 A 
ATOM     17  H7  UNL     1      24.925   0.044  18.569  1.00  0.00     0.166 HD
BRANCH  11  18
HETATM   18  C4  UNL     1      22.959  -4.745  17.662  1.00  0.00     0.418 C 
HETATM   19  F1  UNL     1      21.670  -4.748  17.158  1.00  0.00    -0.166 F 
HETATM   20  F2  UNL     1      23.726  -5.297  16.623  1.00  0.00    -0.166 F 
HETATM   21  F3  UNL     1      23.128  -5.633  18.713  1.00  0.00    -0.166 F 
ENDBRANCH  11  18
ENDBRANCH   1  10
BRANCH   4  22
HETATM   22  N3  UNL     1      18.178  -1.871  19.861  1.00  0.00    -0.213 N 
HETATM   23  C8  UNL     1      17.887  -1.094  18.688  1.00  0.00     0.167 C 
HETATM   24  C9  UNL     1      16.424  -1.138  18.369  1.00  0.00     0.188 C 
HETATM   25  O1  UNL     1      15.590  -0.873  19.417  1.00  0.00    -0.388 OA
HETATM   26  C10 UNL     1      16.156  -0.856  20.661  1.00  0.00     0.188 C 
HETATM   27  C11 UNL     1      17.172  -1.952  20.894  1.00  0.00     0.167 C 
ENDBRANCH   4  22
BRANCH   7  28
HETATM   28  N5  UNL     1      20.598  -5.356  22.126  1.00  0.00    -0.215 N 
HETATM   29  C13 UNL     1      20.605  -5.470  23.569  1.00  0.00     0.155 C 
HETATM   30  C14 UNL     1      19.912  -6.806  23.404  1.00  0.00     0.027 C 
HETATM   31  C17 UNL     1      20.642  -6.803  22.066  1.00  0.00     0.155 C 
BRANCH  30  32
HETATM   32  C15 UNL     1      20.347  -7.887  24.346  1.00  0.00     0.177 C 
BRANCH  32  33
HETATM   33  O2  UNL     1      19.252  -8.712  24.599  1.00  0.00    -0.400 OA
ATOM     34  H2  UNL     1      19.250  -9.410  23.955  1.00  0.00     0.209 HD
ENDBRANCH  32  33
ENDBRANCH  30  32
BRANCH  30  35
HETATM   35  C16 UNL     1      18.444  -6.647  23.205  1.00  0.00     0.129 C 
HETATM   36 CL1  UNL     1      17.627  -5.902  24.576  1.00  0.00    -0.130 Cl
ENDBRANCH  30  35
ENDBRANCH   7  28
TORSDOF 7
ENDMDL
