MODEL 16
REMARK VINA RESULT: -5.397912880      1.736      2.493
REMARK  1 active torsions:
REMARK  status: ('A' for Active; 'I' for Inactive)
REMARK    1  A    between atoms: C1_2  and  C2_4 
ROOT
HETATM    1  C2  UNL     1       5.222   8.088   9.456  1.00  0.00     0.030 A 
HETATM    2  C3  UNL     1       6.187   8.707   8.690  1.00  0.00     0.019 A 
HETATM    3  C4  UNL     1       6.957   9.751   9.095  1.00  0.00     0.032 A 
HETATM    4  C5  UNL     1       6.793  10.273  10.391  1.00  0.00     0.051 A 
HETATM    5  N2  UNL     1       7.459  11.262  10.901  1.00  0.00    -0.338 N 
ATOM      6  H2  UNL     1       8.175  11.726  10.341  1.00  0.00     0.167 HD
HETATM    7  C6  UNL     1       7.232  11.674  12.119  1.00  0.00     0.159 A 
HETATM    8  N3  UNL     1       7.855  12.743  12.867  1.00  0.00    -0.074 NA
HETATM    9  S1  UNL     1       5.976  10.599  12.619  1.00  0.00    -0.055 SA
HETATM   10  C7  UNL     1       5.841   9.678  11.177  1.00  0.00     0.035 A 
HETATM   11  C8  UNL     1       5.055   8.600  10.738  1.00  0.00     0.038 A 
ENDROOT
BRANCH   1  12
HETATM   12  C1  UNL     1       4.405   6.986   9.038  1.00  0.00     0.265 C 
HETATM   13  N1  UNL     1       4.369   6.555   7.684  1.00  0.00    -0.057 NA
HETATM   14  O1  UNL     1       3.684   6.357   9.852  1.00  0.00    -0.271 OA
ENDBRANCH   1  12
TORSDOF 1
ENDMDL
