MODEL 7
REMARK VINA RESULT: -5.749098282      4.226      5.065
REMARK  1 active torsions:
REMARK  status: ('A' for Active; 'I' for Inactive)
REMARK    1  A    between atoms: C1_2  and  C2_4 
ROOT
HETATM    1  C2  UNL     1       6.757   8.376   8.077  1.00  0.00     0.030 A 
HETATM    2  C3  UNL     1       7.296   9.192   7.106  1.00  0.00     0.019 A 
HETATM    3  C4  UNL     1       8.333   8.860   6.292  1.00  0.00     0.032 A 
HETATM    4  C5  UNL     1       8.933   7.594   6.413  1.00  0.00     0.051 A 
HETATM    5  N2  UNL     1       9.924   7.152   5.703  1.00  0.00    -0.338 N 
ATOM      6  H2  UNL     1      10.329   7.749   4.982  1.00  0.00     0.167 HD
HETATM    7  C6  UNL     1      10.412   5.956   5.893  1.00  0.00     0.159 A 
HETATM    8  N3  UNL     1      11.498   5.280   5.218  1.00  0.00    -0.074 NA
HETATM    9  S1  UNL     1       9.413   5.374   7.176  1.00  0.00    -0.055 SA
HETATM   10  C7  UNL     1       8.418   6.759   7.370  1.00  0.00     0.035 A 
HETATM   11  C8  UNL     1       7.346   7.123   8.202  1.00  0.00     0.038 A 
ENDROOT
BRANCH   1  12
HETATM   12  C1  UNL     1       5.664   8.717   8.940  1.00  0.00     0.265 C 
HETATM   13  N1  UNL     1       4.396   8.086   8.825  1.00  0.00    -0.057 NA
HETATM   14  O1  UNL     1       5.782   9.592   9.835  1.00  0.00    -0.271 OA
ENDBRANCH   1  12
TORSDOF 1
ENDMDL
