MODEL 3
REMARK VINA RESULT: -5.917024579      1.162      1.185
REMARK  1 active torsions:
REMARK  status: ('A' for Active; 'I' for Inactive)
REMARK    1  A    between atoms: C1_2  and  C2_4 
ROOT
HETATM    1  C2  UNL     1       4.438   6.973   8.614  1.00  0.00     0.030 A 
HETATM    2  C3  UNL     1       5.206   7.486   7.591  1.00  0.00     0.019 A 
HETATM    3  C4  UNL     1       6.104   8.500   7.719  1.00  0.00     0.032 A 
HETATM    4  C5  UNL     1       6.296   9.102   8.975  1.00  0.00     0.051 A 
HETATM    5  N2  UNL     1       7.116  10.073   9.234  1.00  0.00    -0.338 N 
ATOM      6  H2  UNL     1       7.689  10.459   8.483  1.00  0.00     0.167 HD
HETATM    7  C6  UNL     1       7.222  10.566  10.438  1.00  0.00     0.159 A 
HETATM    8  N3  UNL     1       8.064  11.633  10.932  1.00  0.00    -0.074 NA
HETATM    9  S1  UNL     1       6.083   9.603  11.308  1.00  0.00    -0.055 SA
HETATM   10  C7  UNL     1       5.546   8.614  10.013  1.00  0.00     0.035 A 
HETATM   11  C8  UNL     1       4.624   7.565   9.858  1.00  0.00     0.038 A 
ENDROOT
BRANCH   1  12
HETATM   12  C1  UNL     1       3.490   5.905   8.489  1.00  0.00     0.265 C 
HETATM   13  N1  UNL     1       2.521   5.644   9.497  1.00  0.00    -0.057 NA
HETATM   14  O1  UNL     1       3.477   5.152   7.483  1.00  0.00    -0.271 OA
ENDBRANCH   1  12
TORSDOF 1
ENDMDL
