MODEL 11
REMARK VINA RESULT: -5.585591179      1.106      1.403
REMARK  1 active torsions:
REMARK  status: ('A' for Active; 'I' for Inactive)
REMARK    1  A    between atoms: C1_2  and  C2_4 
ROOT
HETATM    1  C2  UNL     1       4.797   7.430   9.008  1.00  0.00     0.030 A 
HETATM    2  C3  UNL     1       5.642   7.845   8.001  1.00  0.00     0.019 A 
HETATM    3  C4  UNL     1       6.546   8.855   8.104  1.00  0.00     0.032 A 
HETATM    4  C5  UNL     1       6.664   9.559   9.315  1.00  0.00     0.051 A 
HETATM    5  N2  UNL     1       7.482  10.539   9.548  1.00  0.00    -0.338 N 
ATOM      6  H2  UNL     1       8.111  10.852   8.808  1.00  0.00     0.167 HD
HETATM    7  C6  UNL     1       7.516  11.131  10.710  1.00  0.00     0.159 A 
HETATM    8  N3  UNL     1       8.341  12.226  11.169  1.00  0.00    -0.074 NA
HETATM    9  S1  UNL     1       6.304  10.259  11.578  1.00  0.00    -0.055 SA
HETATM   10  C7  UNL     1       5.837   9.170  10.337  1.00  0.00     0.035 A 
HETATM   11  C8  UNL     1       4.909   8.123  10.208  1.00  0.00     0.038 A 
ENDROOT
BRANCH   1  12
HETATM   12  C1  UNL     1       3.840   6.366   8.909  1.00  0.00     0.265 C 
HETATM   13  N1  UNL     1       3.676   5.618   7.711  1.00  0.00    -0.057 NA
HETATM   14  O1  UNL     1       3.104   6.052   9.878  1.00  0.00    -0.271 OA
ENDBRANCH   1  12
TORSDOF 1
ENDMDL
