MODEL 6
REMARK VINA RESULT: -5.825111408      2.753      5.185
REMARK  1 active torsions:
REMARK  status: ('A' for Active; 'I' for Inactive)
REMARK    1  A    between atoms: C1_2  and  C2_4 
ROOT
HETATM    1  C2  UNL     1       6.025   8.961   9.665  1.00  0.00     0.030 A 
HETATM    2  C3  UNL     1       6.265   8.776   8.320  1.00  0.00     0.019 A 
HETATM    3  C4  UNL     1       5.688   7.818   7.547  1.00  0.00     0.032 A 
HETATM    4  C5  UNL     1       4.766   6.925   8.121  1.00  0.00     0.051 A 
HETATM    5  N2  UNL     1       4.146   5.970   7.500  1.00  0.00    -0.338 N 
ATOM      6  H2  UNL     1       4.317   5.825   6.505  1.00  0.00     0.167 HD
HETATM    7  C6  UNL     1       3.305   5.190   8.124  1.00  0.00     0.159 A 
HETATM    8  N3  UNL     1       2.520   4.084   7.624  1.00  0.00    -0.074 NA
HETATM    9  S1  UNL     1       3.368   5.828   9.728  1.00  0.00    -0.055 SA
HETATM   10  C7  UNL     1       4.506   7.084   9.457  1.00  0.00     0.035 A 
HETATM   11  C8  UNL     1       5.114   8.080  10.238  1.00  0.00     0.038 A 
ENDROOT
BRANCH   1  12
HETATM   12  C1  UNL     1       6.629   9.968  10.489  1.00  0.00     0.265 C 
HETATM   13  N1  UNL     1       6.343  10.067  11.877  1.00  0.00    -0.057 NA
HETATM   14  O1  UNL     1       7.436  10.807  10.015  1.00  0.00    -0.271 OA
ENDBRANCH   1  12
TORSDOF 1
ENDMDL
