MODEL 1
REMARK VINA RESULT: -6.470671889      0.000      0.000
REMARK  1 active torsions:
REMARK  status: ('A' for Active; 'I' for Inactive)
REMARK    1  A    between atoms: C1_2  and  C2_4 
ROOT
HETATM    1  C2  UNL     1       3.971   6.396   8.747  1.00  0.00     0.030 A 
HETATM    2  C3  UNL     1       4.618   6.794   7.598  1.00  0.00     0.019 A 
HETATM    3  C4  UNL     1       5.526   7.803   7.520  1.00  0.00     0.032 A 
HETATM    4  C5  UNL     1       5.864   8.523   8.680  1.00  0.00     0.051 A 
HETATM    5  N2  UNL     1       6.711   9.503   8.746  1.00  0.00    -0.338 N 
ATOM      6  H2  UNL     1       7.195   9.804   7.900  1.00  0.00     0.167 HD
HETATM    7  C6  UNL     1       6.957  10.110   9.875  1.00  0.00     0.159 A 
HETATM    8  N3  UNL     1       7.853  11.208  10.160  1.00  0.00    -0.074 NA
HETATM    9  S1  UNL     1       5.923   9.254  10.961  1.00  0.00    -0.055 SA
HETATM   10  C7  UNL     1       5.237   8.149   9.840  1.00  0.00     0.035 A 
HETATM   11  C8  UNL     1       4.300   7.104   9.897  1.00  0.00     0.038 A 
ENDROOT
BRANCH   1  12
HETATM   12  C1  UNL     1       3.011   5.333   8.839  1.00  0.00     0.265 C 
HETATM   13  N1  UNL     1       2.926   4.316   7.850  1.00  0.00    -0.057 NA
HETATM   14  O1  UNL     1       2.203   5.260   9.798  1.00  0.00    -0.271 OA
ENDBRANCH   1  12
TORSDOF 1
ENDMDL
