MODEL 8
REMARK VINA RESULT: -5.692260174      3.514      5.556
REMARK  1 active torsions:
REMARK  status: ('A' for Active; 'I' for Inactive)
REMARK    1  A    between atoms: C1_2  and  C2_4 
ROOT
HETATM    1  C2  UNL     1       7.653   9.524   7.805  1.00  0.00     0.030 A 
HETATM    2  C3  UNL     1       7.223   9.853   9.072  1.00  0.00     0.019 A 
HETATM    3  C4  UNL     1       6.188   9.261   9.727  1.00  0.00     0.032 A 
HETATM    4  C5  UNL     1       5.474   8.224   9.100  1.00  0.00     0.051 A 
HETATM    5  N2  UNL     1       4.471   7.577   9.609  1.00  0.00    -0.338 N 
ATOM      6  H2  UNL     1       4.146   7.814  10.546  1.00  0.00     0.167 HD
HETATM    7  C6  UNL     1       3.871   6.627   8.944  1.00  0.00     0.159 A 
HETATM    8  N3  UNL     1       2.752   5.794   9.324  1.00  0.00    -0.074 NA
HETATM    9  S1  UNL     1       4.769   6.617   7.469  1.00  0.00    -0.055 SA
HETATM   10  C7  UNL     1       5.878   7.874   7.838  1.00  0.00     0.035 A 
HETATM   11  C8  UNL     1       6.950   8.500   7.180  1.00  0.00     0.038 A 
ENDROOT
BRANCH   1  12
HETATM   12  C1  UNL     1       8.742  10.143   7.107  1.00  0.00     0.265 C 
HETATM   13  N1  UNL     1       9.446   9.469   6.072  1.00  0.00    -0.057 NA
HETATM   14  O1  UNL     1       9.122  11.309   7.383  1.00  0.00    -0.271 OA
ENDBRANCH   1  12
TORSDOF 1
ENDMDL
