MODEL 3
REMARK VINA RESULT: -7.945512261      1.401      1.589
REMARK  10 active torsions:
REMARK  status: ('A' for Active; 'I' for Inactive)
REMARK    1  A    between atoms: N5_13  and  C6_14 
REMARK    2  A    between atoms: C7_16  and  C8_17 
REMARK    3  A    between atoms: C8_17  and  S1_18 
REMARK    4  A    between atoms: S1_18  and  C9_19 
REMARK    5  A    between atoms: C9_19  and  C10_20 
REMARK    6  A    between atoms: C10_20  and  C11_21 
REMARK    7  A    between atoms: C11_21  and  N6_22 
REMARK    8  A    between atoms: C11_21  and  C12_26 
REMARK    9  A    between atoms: C13_29  and  O4_30 
REMARK   10  A    between atoms: C14_32  and  O5_33 
ROOT
HETATM    1  C6  UNL     1      25.101 132.150  16.506  1.00  0.00     0.262 C 
HETATM    2  O1  UNL     1      25.670 130.969  16.020  1.00  0.00    -0.355 OA
HETATM    3  C7  UNL     1      24.742 130.491  15.065  1.00  0.00     0.165 C 
HETATM    4  C13 UNL     1      24.495 131.764  14.283  1.00  0.00     0.180 C 
HETATM    5  C14 UNL     1      24.225 132.710  15.444  1.00  0.00     0.198 C 
ENDROOT
BRANCH   1   6
HETATM    6  N5  UNL     1      26.083 133.044  17.034  1.00  0.00    -0.297 N 
HETATM    7  C3  UNL     1      26.168 133.630  18.243  1.00  0.00     0.142 A 
HETATM    8  N3  UNL     1      25.339 133.524  19.295  1.00  0.00    -0.336 N 
HETATM    9  C4  UNL     1      27.287 134.423  18.322  1.00  0.00     0.119 A 
HETATM   10  C2  UNL     1      25.649 134.218  20.404  1.00  0.00     0.183 A 
ATOM     11  H3  UNL     1      24.504 132.940  19.253  1.00  0.00     0.168 HD
HETATM   12  N2  UNL     1      26.749 135.006  20.498  1.00  0.00    -0.339 N 
HETATM   13  C1  UNL     1      27.601 135.137  19.471  1.00  0.00     0.148 A 
ATOM     14  H2  UNL     1      26.932 135.510  21.366  1.00  0.00     0.167 HD
HETATM   15  N1  UNL     1      28.766 135.935  19.485  1.00  0.00    -0.080 NA
HETATM   16  N4  UNL     1      27.899 134.314  17.118  1.00  0.00    -0.346 N 
HETATM   17  C5  UNL     1      27.175 133.487  16.345  1.00  0.00     0.188 A 
ATOM     18  H4  UNL     1      28.763 134.781  16.844  1.00  0.00     0.167 HD
ENDBRANCH   1   6
BRANCH   5  19
HETATM   19  O5  UNL     1      22.862 132.553  15.751  1.00  0.00    -0.388 OA
ATOM     20  H5  UNL     1      22.455 133.378  15.989  1.00  0.00     0.210 HD
ENDBRANCH   5  19
BRANCH   3  21
HETATM   21  C8  UNL     1      25.349 129.398  14.238  1.00  0.00     0.108 C 
BRANCH  21  22
HETATM   22  S1  UNL     1      27.151 129.432  14.573  1.00  0.00    -0.166 SA
BRANCH  22  23
HETATM   23  C9  UNL     1      27.582 127.927  15.520  1.00  0.00     0.076 C 
BRANCH  23  24
HETATM   24  C10 UNL     1      26.420 127.462  16.324  1.00  0.00     0.054 C 
BRANCH  24  25
HETATM   25  C11 UNL     1      26.544 127.797  17.786  1.00  0.00     0.284 C 
BRANCH  25  26
HETATM   26  N6  UNL     1      25.760 128.977  18.126  1.00  0.00    -0.065 N 
ATOM     27  H63 UNL     1      25.252 128.850  19.001  1.00  0.00     0.275 HD
ATOM     28  H62 UNL     1      26.358 129.756  18.403  1.00  0.00     0.275 HD
ATOM     29  H61 UNL     1      25.135 129.238  17.365  1.00  0.00     0.275 HD
ENDBRANCH  25  26
BRANCH  25  30
HETATM   30  C12 UNL     1      27.929 128.031  18.241  1.00  0.00     0.204 C 
HETATM   31  O2  UNL     1      28.712 127.048  18.484  1.00  0.00    -0.646 OA
HETATM   32  O3  UNL     1      28.490 129.279  18.439  1.00  0.00    -0.646 OA
ENDBRANCH  25  30
ENDBRANCH  24  25
ENDBRANCH  23  24
ENDBRANCH  22  23
ENDBRANCH  21  22
ENDBRANCH   3  21
BRANCH   4  33
HETATM   33  O4  UNL     1      23.381 131.652  13.456  1.00  0.00    -0.390 OA
ATOM     34  H4  UNL     1      22.786 132.384  13.565  1.00  0.00     0.210 HD
ENDBRANCH   4  33
TORSDOF 10
ENDMDL
