MODEL 5
REMARK VINA RESULT: -7.846574379      3.540      7.900
REMARK  10 active torsions:
REMARK  status: ('A' for Active; 'I' for Inactive)
REMARK    1  A    between atoms: N5_13  and  C6_14 
REMARK    2  A    between atoms: C7_16  and  C8_17 
REMARK    3  A    between atoms: C8_17  and  S1_18 
REMARK    4  A    between atoms: S1_18  and  C9_19 
REMARK    5  A    between atoms: C9_19  and  C10_20 
REMARK    6  A    between atoms: C10_20  and  C11_21 
REMARK    7  A    between atoms: C11_21  and  N6_22 
REMARK    8  A    between atoms: C11_21  and  C12_26 
REMARK    9  A    between atoms: C13_29  and  O4_30 
REMARK   10  A    between atoms: C14_32  and  O5_33 
ROOT
HETATM    1  C6  UNL     1      26.965 127.473  17.898  1.00  0.00     0.262 C 
HETATM    2  O1  UNL     1      26.002 128.064  17.076  1.00  0.00    -0.355 OA
HETATM    3  C7  UNL     1      26.441 129.399  16.913  1.00  0.00     0.165 C 
HETATM    4  C13 UNL     1      27.896 129.154  16.570  1.00  0.00     0.180 C 
HETATM    5  C14 UNL     1      28.249 128.193  17.696  1.00  0.00     0.198 C 
ENDROOT
BRANCH   1   6
HETATM    6  N5  UNL     1      27.019 126.054  17.732  1.00  0.00    -0.297 N 
HETATM    7  C3  UNL     1      27.374 125.088  18.599  1.00  0.00     0.142 A 
HETATM    8  N3  UNL     1      27.777 125.203  19.876  1.00  0.00    -0.336 N 
HETATM    9  C4  UNL     1      27.279 123.849  18.013  1.00  0.00     0.119 A 
HETATM   10  C2  UNL     1      28.077 124.072  20.538  1.00  0.00     0.183 A 
ATOM     11  H3  UNL     1      27.852 126.115  20.326  1.00  0.00     0.168 HD
HETATM   12  N2  UNL     1      27.990 122.841  19.973  1.00  0.00    -0.339 N 
HETATM   13  C1  UNL     1      27.591 122.685  18.703  1.00  0.00     0.148 A 
ATOM     14  H2  UNL     1      28.232 122.018  20.526  1.00  0.00     0.167 HD
HETATM   15  N1  UNL     1      27.473 121.443  18.041  1.00  0.00    -0.080 NA
HETATM   16  N4  UNL     1      26.852 124.075  16.747  1.00  0.00    -0.346 N 
HETATM   17  C5  UNL     1      26.697 125.399  16.578  1.00  0.00     0.188 A 
ATOM     18  H4  UNL     1      26.678 123.360  16.040  1.00  0.00     0.167 HD
ENDBRANCH   1   6
BRANCH   5  19
HETATM   19  O5  UNL     1      28.575 129.005  18.797  1.00  0.00    -0.388 OA
ATOM     20  H5  UNL     1      28.676 128.497  19.594  1.00  0.00     0.210 HD
ENDBRANCH   5  19
BRANCH   3  21
HETATM   21  C8  UNL     1      25.680 130.077  15.813  1.00  0.00     0.108 C 
BRANCH  21  22
HETATM   22  S1  UNL     1      25.637 131.861  16.233  1.00  0.00    -0.166 SA
BRANCH  22  23
HETATM   23  C9  UNL     1      25.766 132.021  18.050  1.00  0.00     0.076 C 
BRANCH  23  24
HETATM   24  C10 UNL     1      27.020 132.728  18.427  1.00  0.00     0.054 C 
BRANCH  24  25
HETATM   25  C11 UNL     1      26.768 134.044  19.113  1.00  0.00     0.284 C 
BRANCH  25  26
HETATM   26  N6  UNL     1      25.414 134.520  18.864  1.00  0.00    -0.065 N 
ATOM     27  H63 UNL     1      25.368 135.539  18.876  1.00  0.00     0.275 HD
ATOM     28  H62 UNL     1      25.134 134.362  17.897  1.00  0.00     0.275 HD
ATOM     29  H61 UNL     1      24.750 134.108  19.518  1.00  0.00     0.275 HD
ENDBRANCH  25  26
BRANCH  25  30
HETATM   30  C12 UNL     1      27.702 135.120  18.726  1.00  0.00     0.204 C 
HETATM   31  O2  UNL     1      27.646 135.646  17.561  1.00  0.00    -0.646 OA
HETATM   32  O3  UNL     1      28.682 135.642  19.550  1.00  0.00    -0.646 OA
ENDBRANCH  25  30
ENDBRANCH  24  25
ENDBRANCH  23  24
ENDBRANCH  22  23
ENDBRANCH  21  22
ENDBRANCH   3  21
BRANCH   4  33
HETATM   33  O4  UNL     1      28.648 130.323  16.651  1.00  0.00    -0.390 OA
ATOM     34  H4  UNL     1      29.466 130.249  16.173  1.00  0.00     0.210 HD
ENDBRANCH   4  33
TORSDOF 10
ENDMDL
