MODEL 2
REMARK VINA RESULT: -7.993979660      1.013      1.024
REMARK  10 active torsions:
REMARK  status: ('A' for Active; 'I' for Inactive)
REMARK    1  A    between atoms: N5_13  and  C6_14 
REMARK    2  A    between atoms: C7_16  and  C8_17 
REMARK    3  A    between atoms: C8_17  and  S1_18 
REMARK    4  A    between atoms: S1_18  and  C9_19 
REMARK    5  A    between atoms: C9_19  and  C10_20 
REMARK    6  A    between atoms: C10_20  and  C11_21 
REMARK    7  A    between atoms: C11_21  and  N6_22 
REMARK    8  A    between atoms: C11_21  and  C12_26 
REMARK    9  A    between atoms: C13_29  and  O4_30 
REMARK   10  A    between atoms: C14_32  and  O5_33 
ROOT
HETATM    1  C6  UNL     1      25.192 132.055  16.513  1.00  0.00     0.262 C 
HETATM    2  O1  UNL     1      25.793 130.897  16.012  1.00  0.00    -0.355 OA
HETATM    3  C7  UNL     1      24.873 130.400  15.059  1.00  0.00     0.165 C 
HETATM    4  C13 UNL     1      24.582 131.672  14.290  1.00  0.00     0.180 C 
HETATM    5  C14 UNL     1      24.292 132.599  15.462  1.00  0.00     0.198 C 
ENDROOT
BRANCH   1   6
HETATM    6  N5  UNL     1      26.150 132.975  17.042  1.00  0.00    -0.297 N 
HETATM    7  C3  UNL     1      26.213 133.568  18.249  1.00  0.00     0.142 A 
HETATM    8  N3  UNL     1      25.380 133.449  19.296  1.00  0.00    -0.336 N 
HETATM    9  C4  UNL     1      27.314 134.387  18.331  1.00  0.00     0.119 A 
HETATM   10  C2  UNL     1      25.667 134.154  20.404  1.00  0.00     0.183 A 
ATOM     11  H3  UNL     1      24.559 132.845  19.252  1.00  0.00     0.168 HD
HETATM   12  N2  UNL     1      26.749 134.968  20.501  1.00  0.00    -0.339 N 
HETATM   13  C1  UNL     1      27.604 135.113  19.479  1.00  0.00     0.148 A 
ATOM     14  H2  UNL     1      26.914 135.480  21.368  1.00  0.00     0.167 HD
HETATM   15  N1  UNL     1      28.751 135.937  19.497  1.00  0.00    -0.080 NA
HETATM   16  N4  UNL     1      27.936 134.286  17.132  1.00  0.00    -0.346 N 
HETATM   17  C5  UNL     1      27.236 133.438  16.358  1.00  0.00     0.188 A 
ATOM     18  H4  UNL     1      28.791 134.771  16.861  1.00  0.00     0.167 HD
ENDBRANCH   1   6
BRANCH   5  19
HETATM   19  O5  UNL     1      22.936 132.398  15.777  1.00  0.00    -0.388 OA
ATOM     20  H5  UNL     1      22.447 133.212  15.776  1.00  0.00     0.210 HD
ENDBRANCH   5  19
BRANCH   3  21
HETATM   21  C8  UNL     1      25.508 129.333  14.218  1.00  0.00     0.108 C 
BRANCH  21  22
HETATM   22  S1  UNL     1      27.194 129.075  14.890  1.00  0.00    -0.166 SA
BRANCH  22  23
HETATM   23  C9  UNL     1      27.135 127.660  16.047  1.00  0.00     0.076 C 
BRANCH  23  24
HETATM   24  C10 UNL     1      27.837 127.990  17.317  1.00  0.00     0.054 C 
BRANCH  24  25
HETATM   25  C11 UNL     1      28.918 127.004  17.664  1.00  0.00     0.284 C 
BRANCH  25  26
HETATM   26  N6  UNL     1      28.709 126.433  18.988  1.00  0.00    -0.065 N 
ATOM     27  H63 UNL     1      28.730 127.150  19.713  1.00  0.00     0.275 HD
ATOM     28  H62 UNL     1      27.748 126.114  19.110  1.00  0.00     0.275 HD
ATOM     29  H61 UNL     1      29.377 125.688  19.179  1.00  0.00     0.275 HD
ENDBRANCH  25  26
BRANCH  25  30
HETATM   30  C12 UNL     1      30.285 127.562  17.627  1.00  0.00     0.204 C 
HETATM   31  O2  UNL     1      30.569 128.546  16.860  1.00  0.00    -0.646 OA
HETATM   32  O3  UNL     1      31.343 127.097  18.386  1.00  0.00    -0.646 OA
ENDBRANCH  25  30
ENDBRANCH  24  25
ENDBRANCH  23  24
ENDBRANCH  22  23
ENDBRANCH  21  22
ENDBRANCH   3  21
BRANCH   4  33
HETATM   33  O4  UNL     1      23.466 131.533  13.470  1.00  0.00    -0.390 OA
ATOM     34  H4  UNL     1      23.652 131.796  12.576  1.00  0.00     0.210 HD
ENDBRANCH   4  33
TORSDOF 10
ENDMDL
