MODEL 1
REMARK VINA RESULT: -8.058919579      0.000      0.000
REMARK  10 active torsions:
REMARK  status: ('A' for Active; 'I' for Inactive)
REMARK    1  A    between atoms: N5_13  and  C6_14 
REMARK    2  A    between atoms: C7_16  and  C8_17 
REMARK    3  A    between atoms: C8_17  and  S1_18 
REMARK    4  A    between atoms: S1_18  and  C9_19 
REMARK    5  A    between atoms: C9_19  and  C10_20 
REMARK    6  A    between atoms: C10_20  and  C11_21 
REMARK    7  A    between atoms: C11_21  and  N6_22 
REMARK    8  A    between atoms: C11_21  and  C12_26 
REMARK    9  A    between atoms: C13_29  and  O4_30 
REMARK   10  A    between atoms: C14_32  and  O5_33 
ROOT
HETATM    1  C6  UNL     1      25.657 131.577  16.713  1.00  0.00     0.262 C 
HETATM    2  O1  UNL     1      26.312 130.377  16.423  1.00  0.00    -0.355 OA
HETATM    3  C7  UNL     1      25.498 129.751  15.450  1.00  0.00     0.165 C 
HETATM    4  C13 UNL     1      25.282 130.915  14.505  1.00  0.00     0.180 C 
HETATM    5  C14 UNL     1      24.868 131.973  15.518  1.00  0.00     0.198 C 
ENDROOT
BRANCH   1   6
HETATM    6  N5  UNL     1      26.551 132.571  17.221  1.00  0.00    -0.297 N 
HETATM    7  C3  UNL     1      26.457 133.350  18.314  1.00  0.00     0.142 A 
HETATM    8  N3  UNL     1      25.482 133.401  19.238  1.00  0.00    -0.336 N 
HETATM    9  C4  UNL     1      27.552 134.173  18.421  1.00  0.00     0.119 A 
HETATM   10  C2  UNL     1      25.625 134.275  20.248  1.00  0.00     0.183 A 
ATOM     11  H3  UNL     1      24.662 132.797  19.174  1.00  0.00     0.168 HD
HETATM   12  N2  UNL     1      26.700 135.095  20.367  1.00  0.00    -0.339 N 
HETATM   13  C1  UNL     1      27.694 135.075  19.468  1.00  0.00     0.148 A 
ATOM     14  H2  UNL     1      26.753 135.740  21.156  1.00  0.00     0.167 HD
HETATM   15  N1  UNL     1      28.845 135.892  19.517  1.00  0.00    -0.080 NA
HETATM   16  N4  UNL     1      28.335 133.880  17.354  1.00  0.00    -0.346 N 
HETATM   17  C5  UNL     1      27.732 132.919  16.633  1.00  0.00     0.188 A 
ATOM     18  H4  UNL     1      29.230 134.317  17.134  1.00  0.00     0.167 HD
ENDBRANCH   1   6
BRANCH   5  19
HETATM   19  O5  UNL     1      23.488 131.788  15.715  1.00  0.00    -0.388 OA
ATOM     20  H5  UNL     1      22.980 132.096  14.974  1.00  0.00     0.210 HD
ENDBRANCH   5  19
BRANCH   3  21
HETATM   21  C8  UNL     1      26.221 128.601  14.816  1.00  0.00     0.108 C 
BRANCH  21  22
HETATM   22  S1  UNL     1      25.521 127.076  15.555  1.00  0.00    -0.166 SA
BRANCH  22  23
HETATM   23  C9  UNL     1      26.402 126.748  17.124  1.00  0.00     0.076 C 
BRANCH  23  24
HETATM   24  C10 UNL     1      27.868 126.636  16.889  1.00  0.00     0.054 C 
BRANCH  24  25
HETATM   25  C11 UNL     1      28.686 127.333  17.942  1.00  0.00     0.284 C 
BRANCH  25  26
HETATM   26  N6  UNL     1      28.133 128.642  18.262  1.00  0.00    -0.065 N 
ATOM     27  H63 UNL     1      27.114 128.616  18.311  1.00  0.00     0.275 HD
ATOM     28  H62 UNL     1      28.330 128.906  19.227  1.00  0.00     0.275 HD
ATOM     29  H61 UNL     1      28.457 129.351  17.606  1.00  0.00     0.275 HD
ENDBRANCH  25  26
BRANCH  25  30
HETATM   30  C12 UNL     1      30.106 127.521  17.584  1.00  0.00     0.204 C 
HETATM   31  O2  UNL     1      30.434 128.165  16.527  1.00  0.00    -0.646 OA
HETATM   32  O3  UNL     1      31.172 127.042  18.323  1.00  0.00    -0.646 OA
ENDBRANCH  25  30
ENDBRANCH  24  25
ENDBRANCH  23  24
ENDBRANCH  22  23
ENDBRANCH  21  22
ENDBRANCH   3  21
BRANCH   4  33
HETATM   33  O4  UNL     1      24.257 130.658  13.598  1.00  0.00    -0.390 OA
ATOM     34  H4  UNL     1      24.395 131.110  12.774  1.00  0.00     0.210 HD
ENDBRANCH   4  33
TORSDOF 10
ENDMDL
