MODEL 2
REMARK VINA RESULT: -8.994975431      0.996      1.043
REMARK  8 active torsions:
REMARK  status: ('A' for Active; 'I' for Inactive)
REMARK    1  A    between atoms: C2_2  and  O1_3 
REMARK    2  A    between atoms: C2_2  and  C17_27 
REMARK    3  A    between atoms: O1_3  and  C3_4 
REMARK    4  A    between atoms: C7_12  and  C8_13 
REMARK    5  A    between atoms: C9_14  and  C10_15 
REMARK    6  A    between atoms: N4_19  and  C12_20 
REMARK    7  A    between atoms: C12_20  and  C13_21 
REMARK    8  A    between atoms: C13_21  and  O2_22 
ROOT
HETATM    1  C3  UNL     1     -37.422 -13.586 378.694  1.00  0.00     0.070 A 
HETATM    2  C4  UNL     1     -37.245 -12.285 379.092  1.00  0.00     0.039 A 
HETATM    3  C5  UNL     1     -38.141 -11.653 379.961  1.00  0.00     0.034 A 
HETATM    4  C6  UNL     1     -39.228 -12.312 380.447  1.00  0.00     0.060 A 
HETATM    5  N1  UNL     1     -40.260 -12.041 381.266  1.00  0.00    -0.299 N 
ATOM      6  H1  UNL     1     -40.404 -11.141 381.725  1.00  0.00     0.187 HD
HETATM    7  N2  UNL     1     -41.064 -13.079 381.403  1.00  0.00    -0.299 N 
ATOM      8  H2  UNL     1     -41.910 -13.113 381.971  1.00  0.00     0.187 HD
HETATM    9  C7  UNL     1     -40.561 -14.098 380.649  1.00  0.00     0.060 A 
HETATM   10  C15 UNL     1     -39.415 -13.620 380.053  1.00  0.00     0.023 A 
HETATM   11  C16 UNL     1     -38.548 -14.257 379.201  1.00  0.00     0.053 A 
ENDROOT
BRANCH   1  12
HETATM   12  O1  UNL     1     -36.613 -14.300 377.850  1.00  0.00    -0.342 OA
BRANCH  12  13
HETATM   13  C2  UNL     1     -37.087 -15.371 377.046  1.00  0.00     0.161 C 
HETATM   14  C1  UNL     1     -36.251 -16.596 377.200  1.00  0.00     0.045 C 
BRANCH  13  15
HETATM   15  C17 UNL     1     -37.472 -14.970 375.696  1.00  0.00     0.017 A 
HETATM   16  C18 UNL     1     -38.799 -15.186 375.312  1.00  0.00     0.059 A 
HETATM   17 CL1  UNL     1     -39.957 -15.921 376.413  1.00  0.00    -0.082 Cl
HETATM   18  C19 UNL     1     -39.172 -14.821 374.040  1.00  0.00     0.112 A 
HETATM   19  N5  UNL     1     -38.312 -14.273 373.164  1.00  0.00    -0.372 N 
HETATM   20  C20 UNL     1     -37.051 -14.057 373.497  1.00  0.00     0.112 A 
ATOM     21  H5  UNL     1     -38.638 -14.020 372.231  1.00  0.00     0.164 HD
HETATM   22  C21 UNL     1     -36.633 -14.414 374.781  1.00  0.00     0.059 A 
HETATM   23 CL2  UNL     1     -34.924 -14.107 375.116  1.00  0.00    -0.082 Cl
ENDBRANCH  13  15
ENDBRANCH  12  13
ENDBRANCH   1  12
BRANCH   9  24
HETATM   24  C8  UNL     1     -41.128 -15.430 380.493  1.00  0.00     0.033 C 
HETATM   25  C9  UNL     1     -41.879 -15.795 379.485  1.00  0.00     0.016 C 
BRANCH  25  26
HETATM   26  C10 UNL     1     -42.447 -17.122 379.321  1.00  0.00    -0.002 A 
HETATM   27  C11 UNL     1     -41.848 -18.167 378.652  1.00  0.00     0.120 A 
HETATM   28  N3  UNL     1     -42.669 -19.201 378.726  1.00  0.00    -0.309 N 
HETATM   29  N4  UNL     1     -43.765 -18.894 379.402  1.00  0.00    -0.301 N 
ATOM     30  H3  UNL     1     -42.482 -20.115 378.316  1.00  0.00     0.186 HD
HETATM   31  C14 UNL     1     -43.653 -17.611 379.781  1.00  0.00     0.122 A 
BRANCH  29  32
HETATM   32  C12 UNL     1     -44.835 -19.814 379.655  1.00  0.00     0.174 C 
BRANCH  32  33
HETATM   33  C13 UNL     1     -45.708 -19.875 378.394  1.00  0.00     0.185 C 
BRANCH  33  34
HETATM   34  O2  UNL     1     -46.833 -19.099 378.616  1.00  0.00    -0.399 OA
ATOM     35  H2  UNL     1     -46.841 -18.404 377.969  1.00  0.00     0.209 HD
ENDBRANCH  33  34
ENDBRANCH  32  33
ENDBRANCH  29  32
ENDBRANCH  25  26
ENDBRANCH   9  24
TORSDOF 8
ENDMDL
