MODEL 3
REMARK VINA RESULT: -8.986024549      1.463      1.617
REMARK  8 active torsions:
REMARK  status: ('A' for Active; 'I' for Inactive)
REMARK    1  A    between atoms: C2_2  and  O1_3 
REMARK    2  A    between atoms: C2_2  and  C17_27 
REMARK    3  A    between atoms: O1_3  and  C3_4 
REMARK    4  A    between atoms: C7_12  and  C8_13 
REMARK    5  A    between atoms: C9_14  and  C10_15 
REMARK    6  A    between atoms: N4_19  and  C12_20 
REMARK    7  A    between atoms: C12_20  and  C13_21 
REMARK    8  A    between atoms: C13_21  and  O2_22 
ROOT
HETATM    1  C3  UNL     1     -37.245 -12.688 378.178  1.00  0.00     0.070 A 
HETATM    2  C4  UNL     1     -37.151 -11.422 378.699  1.00  0.00     0.039 A 
HETATM    3  C5  UNL     1     -37.980 -10.992 379.740  1.00  0.00     0.034 A 
HETATM    4  C6  UNL     1     -38.916 -11.820 380.278  1.00  0.00     0.060 A 
HETATM    5  N1  UNL     1     -39.849 -11.757 381.245  1.00  0.00    -0.299 N 
ATOM      6  H1  UNL     1     -40.022 -10.932 381.819  1.00  0.00     0.187 HD
HETATM    7  N2  UNL     1     -40.514 -12.891 381.361  1.00  0.00    -0.299 N 
ATOM      8  H2  UNL     1     -41.266 -13.082 382.023  1.00  0.00     0.187 HD
HETATM    9  C7  UNL     1     -40.015 -13.763 380.438  1.00  0.00     0.060 A 
HETATM   10  C15 UNL     1     -39.018 -13.095 379.763  1.00  0.00     0.023 A 
HETATM   11  C16 UNL     1     -38.215 -13.536 378.742  1.00  0.00     0.053 A 
ENDROOT
BRANCH   1  12
HETATM   12  O1  UNL     1     -36.489 -13.213 377.163  1.00  0.00    -0.342 OA
BRANCH  12  13
HETATM   13  C2  UNL     1     -36.375 -14.609 376.926  1.00  0.00     0.161 C 
HETATM   14  C1  UNL     1     -34.956 -15.029 376.739  1.00  0.00     0.045 C 
BRANCH  13  15
HETATM   15  C17 UNL     1     -37.372 -15.134 375.997  1.00  0.00     0.017 A 
HETATM   16  C18 UNL     1     -38.053 -16.296 376.370  1.00  0.00     0.059 A 
HETATM   17 CL1  UNL     1     -37.714 -17.100 377.898  1.00  0.00    -0.082 Cl
HETATM   18  C19 UNL     1     -38.989 -16.805 375.500  1.00  0.00     0.112 A 
HETATM   19  N5  UNL     1     -39.263 -16.230 374.317  1.00  0.00    -0.372 N 
HETATM   20  C20 UNL     1     -38.635 -15.131 373.935  1.00  0.00     0.112 A 
ATOM     21  H5  UNL     1     -39.965 -16.647 373.706  1.00  0.00     0.164 HD
HETATM   22  C21 UNL     1     -37.678 -14.582 374.792  1.00  0.00     0.059 A 
HETATM   23 CL2  UNL     1     -36.880 -13.129 374.178  1.00  0.00    -0.082 Cl
ENDBRANCH  13  15
ENDBRANCH  12  13
ENDBRANCH   1  12
BRANCH   9  24
HETATM   24  C8  UNL     1     -40.457 -15.129 380.201  1.00  0.00     0.033 C 
HETATM   25  C9  UNL     1     -41.414 -15.460 379.371  1.00  0.00     0.016 C 
BRANCH  25  26
HETATM   26  C10 UNL     1     -41.859 -16.821 379.128  1.00  0.00    -0.002 A 
HETATM   27  C11 UNL     1     -41.210 -17.740 378.333  1.00  0.00     0.120 A 
HETATM   28  N3  UNL     1     -41.918 -18.856 378.369  1.00  0.00    -0.309 N 
HETATM   29  N4  UNL     1     -42.987 -18.721 379.137  1.00  0.00    -0.301 N 
ATOM     30  H3  UNL     1     -41.671 -19.711 377.869  1.00  0.00     0.186 HD
HETATM   31  C14 UNL     1     -42.975 -17.468 379.620  1.00  0.00     0.122 A 
BRANCH  29  32
HETATM   32  C12 UNL     1     -43.939 -19.765 379.376  1.00  0.00     0.174 C 
BRANCH  32  33
HETATM   33  C13 UNL     1     -45.186 -19.126 380.006  1.00  0.00     0.185 C 
BRANCH  33  34
HETATM   34  O2  UNL     1     -46.093 -18.872 378.991  1.00  0.00    -0.399 OA
ATOM     35  H2  UNL     1     -45.919 -19.482 378.285  1.00  0.00     0.209 HD
ENDBRANCH  33  34
ENDBRANCH  32  33
ENDBRANCH  29  32
ENDBRANCH  25  26
ENDBRANCH   9  24
TORSDOF 8
ENDMDL
