MODEL 15
REMARK VINA RESULT: -8.339856926      2.014      5.096
REMARK  8 active torsions:
REMARK  status: ('A' for Active; 'I' for Inactive)
REMARK    1  A    between atoms: C2_2  and  O1_3 
REMARK    2  A    between atoms: C2_2  and  C17_27 
REMARK    3  A    between atoms: O1_3  and  C3_4 
REMARK    4  A    between atoms: C7_12  and  C8_13 
REMARK    5  A    between atoms: C9_14  and  C10_15 
REMARK    6  A    between atoms: N4_19  and  C12_20 
REMARK    7  A    between atoms: C12_20  and  C13_21 
REMARK    8  A    between atoms: C13_21  and  O2_22 
ROOT
HETATM    1  C3  UNL     1     -37.410 -13.073 375.575  1.00  0.00     0.070 A 
HETATM    2  C4  UNL     1     -36.694 -12.925 374.414  1.00  0.00     0.039 A 
HETATM    3  C5  UNL     1     -36.986 -13.675 373.270  1.00  0.00     0.034 A 
HETATM    4  C6  UNL     1     -37.998 -14.583 373.267  1.00  0.00     0.060 A 
HETATM    5  N1  UNL     1     -38.545 -15.447 372.393  1.00  0.00    -0.299 N 
ATOM      6  H1  UNL     1     -38.223 -15.569 371.432  1.00  0.00     0.187 HD
HETATM    7  N2  UNL     1     -39.548 -16.119 372.928  1.00  0.00    -0.299 N 
ATOM      8  H2  UNL     1     -40.114 -16.827 372.460  1.00  0.00     0.187 HD
HETATM    9  C7  UNL     1     -39.691 -15.697 374.217  1.00  0.00     0.060 A 
HETATM   10  C15 UNL     1     -38.725 -14.739 374.429  1.00  0.00     0.023 A 
HETATM   11  C16 UNL     1     -38.454 -14.014 375.561  1.00  0.00     0.053 A 
ENDROOT
BRANCH   1  12
HETATM   12  O1  UNL     1     -37.213 -12.395 376.750  1.00  0.00    -0.342 OA
BRANCH  12  13
HETATM   13  C2  UNL     1     -36.767 -13.028 377.942  1.00  0.00     0.161 C 
HETATM   14  C1  UNL     1     -35.854 -14.172 377.657  1.00  0.00     0.045 C 
BRANCH  13  15
HETATM   15  C17 UNL     1     -37.819 -13.222 378.935  1.00  0.00     0.017 A 
HETATM   16  C18 UNL     1     -38.207 -12.111 379.690  1.00  0.00     0.059 A 
HETATM   17 CL1  UNL     1     -37.448 -10.541 379.456  1.00  0.00    -0.082 Cl
HETATM   18  C19 UNL     1     -39.191 -12.283 380.635  1.00  0.00     0.112 A 
HETATM   19  N5  UNL     1     -39.782 -13.469 380.856  1.00  0.00    -0.372 N 
HETATM   20  C20 UNL     1     -39.437 -14.539 380.159  1.00  0.00     0.112 A 
ATOM     21  H5  UNL     1     -40.506 -13.545 381.569  1.00  0.00     0.164 HD
HETATM   22  C21 UNL     1     -38.441 -14.405 379.188  1.00  0.00     0.059 A 
HETATM   23 CL2  UNL     1     -38.037 -15.898 378.331  1.00  0.00    -0.082 Cl
ENDBRANCH  13  15
ENDBRANCH  12  13
ENDBRANCH   1  12
BRANCH   9  24
HETATM   24  C8  UNL     1     -40.666 -16.173 375.187  1.00  0.00     0.033 C 
HETATM   25  C9  UNL     1     -40.468 -17.185 375.993  1.00  0.00     0.016 C 
BRANCH  25  26
HETATM   26  C10 UNL     1     -41.435 -17.665 376.965  1.00  0.00    -0.002 A 
HETATM   27  C11 UNL     1     -41.363 -17.464 378.326  1.00  0.00     0.120 A 
HETATM   28  N3  UNL     1     -42.422 -18.044 378.864  1.00  0.00    -0.309 N 
HETATM   29  N4  UNL     1     -43.180 -18.611 377.938  1.00  0.00    -0.301 N 
ATOM     30  H3  UNL     1     -42.629 -18.053 379.863  1.00  0.00     0.186 HD
HETATM   31  C14 UNL     1     -42.589 -18.391 376.752  1.00  0.00     0.122 A 
BRANCH  29  32
HETATM   32  C12 UNL     1     -44.401 -19.308 378.217  1.00  0.00     0.174 C 
BRANCH  32  33
HETATM   33  C13 UNL     1     -44.811 -18.972 379.658  1.00  0.00     0.185 C 
BRANCH  33  34
HETATM   34  O2  UNL     1     -45.235 -17.655 379.685  1.00  0.00    -0.399 OA
ATOM     35  H2  UNL     1     -46.082 -17.611 379.257  1.00  0.00     0.209 HD
ENDBRANCH  33  34
ENDBRANCH  32  33
ENDBRANCH  29  32
ENDBRANCH  25  26
ENDBRANCH   9  24
TORSDOF 8
ENDMDL
