MODEL 16
REMARK VINA RESULT: -8.220809491      3.539      9.998
REMARK  8 active torsions:
REMARK  status: ('A' for Active; 'I' for Inactive)
REMARK    1  A    between atoms: C2_2  and  O1_3 
REMARK    2  A    between atoms: C2_2  and  C17_27 
REMARK    3  A    between atoms: O1_3  and  C3_4 
REMARK    4  A    between atoms: C7_12  and  C8_13 
REMARK    5  A    between atoms: C9_14  and  C10_15 
REMARK    6  A    between atoms: N4_19  and  C12_20 
REMARK    7  A    between atoms: C12_20  and  C13_21 
REMARK    8  A    between atoms: C13_21  and  O2_22 
ROOT
HETATM    1  C3  UNL     1     -39.238 -14.864 376.433  1.00  0.00     0.070 A 
HETATM    2  C4  UNL     1     -40.166 -15.776 375.998  1.00  0.00     0.039 A 
HETATM    3  C5  UNL     1     -40.232 -16.176 374.660  1.00  0.00     0.034 A 
HETATM    4  C6  UNL     1     -39.372 -15.672 373.734  1.00  0.00     0.060 A 
HETATM    5  N1  UNL     1     -39.147 -15.815 372.416  1.00  0.00    -0.299 N 
ATOM      6  H1  UNL     1     -39.685 -16.434 371.808  1.00  0.00     0.187 HD
HETATM    7  N2  UNL     1     -38.148 -15.058 372.003  1.00  0.00    -0.299 N 
ATOM      8  H2  UNL     1     -37.795 -14.997 371.048  1.00  0.00     0.187 HD
HETATM    9  C7  UNL     1     -37.672 -14.371 373.080  1.00  0.00     0.060 A 
HETATM   10  C15 UNL     1     -38.435 -14.755 374.161  1.00  0.00     0.023 A 
HETATM   11  C16 UNL     1     -38.354 -14.349 375.469  1.00  0.00     0.053 A 
ENDROOT
BRANCH   1  12
HETATM   12  O1  UNL     1     -39.083 -14.401 377.714  1.00  0.00    -0.342 OA
BRANCH  12  13
HETATM   13  C2  UNL     1     -39.003 -15.261 378.842  1.00  0.00     0.161 C 
HETATM   14  C1  UNL     1     -38.301 -16.537 378.521  1.00  0.00     0.045 C 
BRANCH  13  15
HETATM   15  C17 UNL     1     -40.239 -15.336 379.616  1.00  0.00     0.017 A 
HETATM   16  C18 UNL     1     -40.460 -14.344 380.576  1.00  0.00     0.059 A 
HETATM   17 CL1  UNL     1     -39.287 -13.061 380.847  1.00  0.00    -0.082 Cl
HETATM   18  C19 UNL     1     -41.616 -14.408 381.318  1.00  0.00     0.112 A 
HETATM   19  N5  UNL     1     -42.527 -15.382 381.153  1.00  0.00    -0.372 N 
HETATM   20  C20 UNL     1     -42.347 -16.335 380.254  1.00  0.00     0.112 A 
ATOM     21  H5  UNL     1     -43.369 -15.386 381.729  1.00  0.00     0.164 HD
HETATM   22  C21 UNL     1     -41.184 -16.304 379.479  1.00  0.00     0.059 A 
HETATM   23 CL2  UNL     1     -41.028 -17.635 378.325  1.00  0.00    -0.082 Cl
ENDBRANCH  13  15
ENDBRANCH  12  13
ENDBRANCH   1  12
BRANCH   9  24
HETATM   24  C8  UNL     1     -36.578 -13.411 373.090  1.00  0.00     0.033 C 
HETATM   25  C9  UNL     1     -35.578 -13.427 372.245  1.00  0.00     0.016 C 
BRANCH  25  26
HETATM   26  C10 UNL     1     -34.484 -12.472 372.247  1.00  0.00    -0.002 A 
HETATM   27  C11 UNL     1     -34.480 -11.265 371.583  1.00  0.00     0.120 A 
HETATM   28  N3  UNL     1     -33.318 -10.685 371.831  1.00  0.00    -0.309 N 
HETATM   29  N4  UNL     1     -32.564 -11.440 372.615  1.00  0.00    -0.301 N 
ATOM     30  H3  UNL     1     -33.039  -9.775 371.466  1.00  0.00     0.186 HD
HETATM   31  C14 UNL     1     -33.263 -12.554 372.887  1.00  0.00     0.122 A 
BRANCH  29  32
HETATM   32  C12 UNL     1     -31.254 -11.072 373.064  1.00  0.00     0.174 C 
BRANCH  32  33
HETATM   33  C13 UNL     1     -30.818  -9.834 372.267  1.00  0.00     0.185 C 
BRANCH  33  34
HETATM   34  O2  UNL     1     -31.365  -8.719 372.879  1.00  0.00    -0.399 OA
ATOM     35  H2  UNL     1     -31.883  -8.255 372.232  1.00  0.00     0.209 HD
ENDBRANCH  33  34
ENDBRANCH  32  33
ENDBRANCH  29  32
ENDBRANCH  25  26
ENDBRANCH   9  24
TORSDOF 8
ENDMDL
