MODEL 1
REMARK VINA RESULT: -9.040451815      0.000      0.000
REMARK  8 active torsions:
REMARK  status: ('A' for Active; 'I' for Inactive)
REMARK    1  A    between atoms: C2_2  and  O1_3 
REMARK    2  A    between atoms: C2_2  and  C17_27 
REMARK    3  A    between atoms: O1_3  and  C3_4 
REMARK    4  A    between atoms: C7_12  and  C8_13 
REMARK    5  A    between atoms: C9_14  and  C10_15 
REMARK    6  A    between atoms: N4_19  and  C12_20 
REMARK    7  A    between atoms: C12_20  and  C13_21 
REMARK    8  A    between atoms: C13_21  and  O2_22 
ROOT
HETATM    1  C3  UNL     1     -37.308 -13.274 378.757  1.00  0.00     0.070 A 
HETATM    2  C4  UNL     1     -37.226 -11.987 379.225  1.00  0.00     0.039 A 
HETATM    3  C5  UNL     1     -38.189 -11.456 380.089  1.00  0.00     0.034 A 
HETATM    4  C6  UNL     1     -39.248 -12.202 380.502  1.00  0.00     0.060 A 
HETATM    5  N1  UNL     1     -40.323 -12.036 381.293  1.00  0.00    -0.299 N 
ATOM      6  H1  UNL     1     -40.539 -11.171 381.790  1.00  0.00     0.187 HD
HETATM    7  N2  UNL     1     -41.065 -13.127 381.350  1.00  0.00    -0.299 N 
ATOM      8  H2  UNL     1     -41.927 -13.240 381.884  1.00  0.00     0.187 HD
HETATM    9  C7  UNL     1     -40.474 -14.074 380.567  1.00  0.00     0.060 A 
HETATM   10  C15 UNL     1     -39.340 -13.498 380.038  1.00  0.00     0.023 A 
HETATM   11  C16 UNL     1     -38.407 -14.037 379.189  1.00  0.00     0.053 A 
ENDROOT
BRANCH   1  12
HETATM   12  O1  UNL     1     -36.428 -13.895 377.910  1.00  0.00    -0.342 OA
BRANCH  12  13
HETATM   13  C2  UNL     1     -36.839 -14.794 376.890  1.00  0.00     0.161 C 
HETATM   14  C1  UNL     1     -35.905 -15.950 376.758  1.00  0.00     0.045 C 
BRANCH  13  15
HETATM   15  C17 UNL     1     -37.289 -14.134 375.668  1.00  0.00     0.017 A 
HETATM   16  C18 UNL     1     -38.632 -14.288 375.310  1.00  0.00     0.059 A 
HETATM   17 CL1  UNL     1     -39.732 -15.250 376.290  1.00  0.00    -0.082 Cl
HETATM   18  C19 UNL     1     -39.067 -13.680 374.156  1.00  0.00     0.112 A 
HETATM   19  N5  UNL     1     -38.254 -12.953 373.372  1.00  0.00    -0.372 N 
HETATM   20  C20 UNL     1     -36.979 -12.789 373.683  1.00  0.00     0.112 A 
ATOM     21  H5  UNL     1     -38.624 -12.522 372.525  1.00  0.00     0.164 HD
HETATM   22  C21 UNL     1     -36.498 -13.392 374.848  1.00  0.00     0.059 A 
HETATM   23 CL2  UNL     1     -34.777 -13.132 375.161  1.00  0.00    -0.082 Cl
ENDBRANCH  13  15
ENDBRANCH  12  13
ENDBRANCH   1  12
BRANCH   9  24
HETATM   24  C8  UNL     1     -40.951 -15.428 380.325  1.00  0.00     0.033 C 
HETATM   25  C9  UNL     1     -41.707 -15.771 379.313  1.00  0.00     0.016 C 
BRANCH  25  26
HETATM   26  C10 UNL     1     -42.186 -17.119 379.064  1.00  0.00    -0.002 A 
HETATM   27  C11 UNL     1     -41.497 -18.095 378.378  1.00  0.00     0.120 A 
HETATM   28  N3  UNL     1     -42.256 -19.177 378.367  1.00  0.00    -0.309 N 
HETATM   29  N4  UNL     1     -43.397 -18.967 379.004  1.00  0.00    -0.301 N 
ATOM     30  H3  UNL     1     -41.996 -20.059 377.926  1.00  0.00     0.186 HD
HETATM   31  C14 UNL     1     -43.379 -17.699 379.446  1.00  0.00     0.122 A 
BRANCH  29  32
HETATM   32  C12 UNL     1     -44.419 -19.959 379.167  1.00  0.00     0.174 C 
BRANCH  32  33
HETATM   33  C13 UNL     1     -45.039 -19.768 380.558  1.00  0.00     0.185 C 
BRANCH  33  34
HETATM   34  O2  UNL     1     -44.664 -20.844 381.344  1.00  0.00    -0.399 OA
ATOM     35  H2  UNL     1     -45.267 -20.896 382.076  1.00  0.00     0.209 HD
ENDBRANCH  33  34
ENDBRANCH  32  33
ENDBRANCH  29  32
ENDBRANCH  25  26
ENDBRANCH   9  24
TORSDOF 8
ENDMDL
