MODEL 5
REMARK VINA RESULT: -8.870298102      0.747      1.849
REMARK  8 active torsions:
REMARK  status: ('A' for Active; 'I' for Inactive)
REMARK    1  A    between atoms: C2_2  and  O1_3 
REMARK    2  A    between atoms: C2_2  and  C17_27 
REMARK    3  A    between atoms: O1_3  and  C3_4 
REMARK    4  A    between atoms: C7_12  and  C8_13 
REMARK    5  A    between atoms: C9_14  and  C10_15 
REMARK    6  A    between atoms: N4_19  and  C12_20 
REMARK    7  A    between atoms: C12_20  and  C13_21 
REMARK    8  A    between atoms: C13_21  and  O2_22 
ROOT
HETATM    1  C3  UNL     1     -37.299 -13.287 378.764  1.00  0.00     0.070 A 
HETATM    2  C4  UNL     1     -37.211 -11.991 379.205  1.00  0.00     0.039 A 
HETATM    3  C5  UNL     1     -38.168 -11.439 380.062  1.00  0.00     0.034 A 
HETATM    4  C6  UNL     1     -39.229 -12.174 380.493  1.00  0.00     0.060 A 
HETATM    5  N1  UNL     1     -40.300 -11.988 381.285  1.00  0.00    -0.299 N 
ATOM      6  H1  UNL     1     -40.511 -11.113 381.765  1.00  0.00     0.187 HD
HETATM    7  N2  UNL     1     -41.045 -13.075 381.367  1.00  0.00    -0.299 N 
ATOM      8  H2  UNL     1     -41.905 -13.175 381.906  1.00  0.00     0.187 HD
HETATM    9  C7  UNL     1     -40.460 -14.040 380.601  1.00  0.00     0.060 A 
HETATM   10  C15 UNL     1     -39.326 -13.478 380.056  1.00  0.00     0.023 A 
HETATM   11  C16 UNL     1     -38.399 -14.038 379.215  1.00  0.00     0.053 A 
ENDROOT
BRANCH   1  12
HETATM   12  O1  UNL     1     -36.424 -13.928 377.927  1.00  0.00    -0.342 OA
BRANCH  12  13
HETATM   13  C2  UNL     1     -36.838 -14.874 376.951  1.00  0.00     0.161 C 
HETATM   14  C1  UNL     1     -35.808 -15.928 376.725  1.00  0.00     0.045 C 
BRANCH  13  15
HETATM   15  C17 UNL     1     -37.472 -14.275 375.780  1.00  0.00     0.017 A 
HETATM   16  C18 UNL     1     -36.685 -13.448 374.973  1.00  0.00     0.059 A 
HETATM   17 CL1  UNL     1     -34.998 -13.134 375.361  1.00  0.00    -0.082 Cl
HETATM   18  C19 UNL     1     -37.272 -12.870 373.872  1.00  0.00     0.112 A 
HETATM   19  N5  UNL     1     -38.562 -13.071 373.552  1.00  0.00    -0.372 N 
HETATM   20  C20 UNL     1     -39.332 -13.847 374.295  1.00  0.00     0.112 A 
ATOM     21  H5  UNL     1     -38.951 -12.619 372.725  1.00  0.00     0.164 HD
HETATM   22  C21 UNL     1     -38.772 -14.453 375.423  1.00  0.00     0.059 A 
HETATM   23 CL2  UNL     1     -39.891 -15.450 376.361  1.00  0.00    -0.082 Cl
ENDBRANCH  13  15
ENDBRANCH  12  13
ENDBRANCH   1  12
BRANCH   9  24
HETATM   24  C8  UNL     1     -40.942 -15.397 380.389  1.00  0.00     0.033 C 
HETATM   25  C9  UNL     1     -41.785 -15.739 379.447  1.00  0.00     0.016 C 
BRANCH  25  26
HETATM   26  C10 UNL     1     -42.269 -17.090 379.228  1.00  0.00    -0.002 A 
HETATM   27  C11 UNL     1     -41.598 -18.074 378.535  1.00  0.00     0.120 A 
HETATM   28  N3  UNL     1     -42.357 -19.156 378.558  1.00  0.00    -0.309 N 
HETATM   29  N4  UNL     1     -43.480 -18.939 379.224  1.00  0.00    -0.301 N 
ATOM     30  H3  UNL     1     -42.108 -20.044 378.121  1.00  0.00     0.186 HD
HETATM   31  C14 UNL     1     -43.452 -17.666 379.649  1.00  0.00     0.122 A 
BRANCH  29  32
HETATM   32  C12 UNL     1     -44.497 -19.929 379.426  1.00  0.00     0.174 C 
BRANCH  32  33
HETATM   33  C13 UNL     1     -45.505 -19.806 378.275  1.00  0.00     0.185 C 
BRANCH  33  34
HETATM   34  O2  UNL     1     -46.587 -19.074 378.733  1.00  0.00    -0.399 OA
ATOM     35  H2  UNL     1     -46.633 -18.272 378.225  1.00  0.00     0.209 HD
ENDBRANCH  33  34
ENDBRANCH  32  33
ENDBRANCH  29  32
ENDBRANCH  25  26
ENDBRANCH   9  24
TORSDOF 8
ENDMDL
