MODEL 6
REMARK VINA RESULT: -8.844467039      1.061      1.297
REMARK  8 active torsions:
REMARK  status: ('A' for Active; 'I' for Inactive)
REMARK    1  A    between atoms: C2_2  and  O1_3 
REMARK    2  A    between atoms: C2_2  and  C17_27 
REMARK    3  A    between atoms: O1_3  and  C3_4 
REMARK    4  A    between atoms: C7_12  and  C8_13 
REMARK    5  A    between atoms: C9_14  and  C10_15 
REMARK    6  A    between atoms: N4_19  and  C12_20 
REMARK    7  A    between atoms: C12_20  and  C13_21 
REMARK    8  A    between atoms: C13_21  and  O2_22 
ROOT
HETATM    1  C3  UNL     1     -37.423 -13.567 378.697  1.00  0.00     0.070 A 
HETATM    2  C4  UNL     1     -37.239 -12.294 379.174  1.00  0.00     0.039 A 
HETATM    3  C5  UNL     1     -38.147 -11.702 380.058  1.00  0.00     0.034 A 
HETATM    4  C6  UNL     1     -39.253 -12.373 380.481  1.00  0.00     0.060 A 
HETATM    5  N1  UNL     1     -40.300 -12.136 381.291  1.00  0.00    -0.299 N 
ATOM      6  H1  UNL     1     -40.444 -11.262 381.798  1.00  0.00     0.187 HD
HETATM    7  N2  UNL     1     -41.119 -13.169 381.350  1.00  0.00    -0.299 N 
ATOM      8  H2  UNL     1     -41.979 -13.225 381.896  1.00  0.00     0.187 HD
HETATM    9  C7  UNL     1     -40.611 -14.150 380.550  1.00  0.00     0.060 A 
HETATM   10  C15 UNL     1     -39.446 -13.654 380.008  1.00  0.00     0.023 A 
HETATM   11  C16 UNL     1     -38.568 -14.252 379.140  1.00  0.00     0.053 A 
ENDROOT
BRANCH   1  12
HETATM   12  O1  UNL     1     -36.603 -14.243 377.832  1.00  0.00    -0.342 OA
BRANCH  12  13
HETATM   13  C2  UNL     1     -37.058 -15.306 377.007  1.00  0.00     0.161 C 
HETATM   14  C1  UNL     1     -36.248 -16.544 377.197  1.00  0.00     0.045 C 
BRANCH  13  15
HETATM   15  C17 UNL     1     -37.375 -14.900 375.641  1.00  0.00     0.017 A 
HETATM   16  C18 UNL     1     -38.675 -15.137 375.183  1.00  0.00     0.059 A 
HETATM   17 CL1  UNL     1     -39.877 -15.906 376.212  1.00  0.00    -0.082 Cl
HETATM   18  C19 UNL     1     -38.985 -14.767 373.895  1.00  0.00     0.112 A 
HETATM   19  N5  UNL     1     -38.090 -14.194 373.073  1.00  0.00    -0.372 N 
HETATM   20  C20 UNL     1     -36.853 -13.957 373.476  1.00  0.00     0.112 A 
ATOM     21  H5  UNL     1     -38.368 -13.938 372.126  1.00  0.00     0.164 HD
HETATM   22  C21 UNL     1     -36.499 -14.318 374.779  1.00  0.00     0.059 A 
HETATM   23 CL2  UNL     1     -34.818 -13.981 375.210  1.00  0.00    -0.082 Cl
ENDBRANCH  13  15
ENDBRANCH  12  13
ENDBRANCH   1  12
BRANCH   9  24
HETATM   24  C8  UNL     1     -41.190 -15.463 380.304  1.00  0.00     0.033 C 
HETATM   25  C9  UNL     1     -41.934 -15.756 379.267  1.00  0.00     0.016 C 
BRANCH  25  26
HETATM   26  C10 UNL     1     -42.513 -17.064 379.015  1.00  0.00    -0.002 A 
HETATM   27  C11 UNL     1     -43.539 -17.633 379.737  1.00  0.00     0.120 A 
HETATM   28  N3  UNL     1     -43.786 -18.816 379.201  1.00  0.00    -0.309 N 
HETATM   29  N4  UNL     1     -42.985 -19.053 378.174  1.00  0.00    -0.301 N 
ATOM     30  H3  UNL     1     -44.501 -19.462 379.536  1.00  0.00     0.186 HD
HETATM   31  C14 UNL     1     -42.186 -17.982 378.038  1.00  0.00     0.122 A 
BRANCH  29  32
HETATM   32  C12 UNL     1     -43.024 -20.250 377.387  1.00  0.00     0.174 C 
BRANCH  32  33
HETATM   33  C13 UNL     1     -43.136 -21.440 378.351  1.00  0.00     0.185 C 
BRANCH  33  34
HETATM   34  O2  UNL     1     -42.145 -21.309 379.308  1.00  0.00    -0.399 OA
ATOM     35  H2  UNL     1     -42.122 -22.110 379.817  1.00  0.00     0.209 HD
ENDBRANCH  33  34
ENDBRANCH  32  33
ENDBRANCH  29  32
ENDBRANCH  25  26
ENDBRANCH   9  24
TORSDOF 8
ENDMDL
