MODEL 7
REMARK VINA RESULT: -7.793617243      3.988      9.967
REMARK  7 active torsions:
REMARK  status: ('A' for Active; 'I' for Inactive)
REMARK    1  A    between atoms: C2_2  and  N1_4 
REMARK    2  A    between atoms: C4_7  and  C5_8 
REMARK    3  A    between atoms: C7_12  and  C8_13 
REMARK       I    between atoms: C8_13  and  N3_15 
REMARK    4  A    between atoms: N3_15  and  C9_17 
REMARK    5  A    between atoms: C12_20  and  C13_21 
REMARK    6  A    between atoms: C14_22  and  O2_23 
REMARK    7  A    between atoms: C21_34  and  C22_35 
ROOT
HETATM    1  C9  UNL     1      29.869 -28.049  12.790  1.00  0.00     0.035 A 
HETATM    2  C10 UNL     1      30.756 -27.445  13.644  1.00  0.00     0.030 A 
HETATM    3  C11 UNL     1      30.822 -27.849  14.958  1.00  0.00     0.012 A 
HETATM    4  C12 UNL     1      30.010 -28.874  15.494  1.00  0.00    -0.021 A 
HETATM    5  C21 UNL     1      29.156 -29.445  14.634  1.00  0.00    -0.015 A 
HETATM    6  C28 UNL     1      29.068 -29.050  13.284  1.00  0.00     0.042 A 
ENDROOT
BRANCH   1   7
HETATM    7  N3  UNL     1      29.676 -27.712  11.413  1.00  0.00    -0.322 N 
HETATM    8  C8  UNL     1      30.307 -28.301  10.309  1.00  0.00     0.274 C 
HETATM    9  O1  UNL     1      31.133 -29.238  10.566  1.00  0.00    -0.266 OA
ATOM     10  H3  UNL     1      29.010 -26.966  11.214  1.00  0.00     0.169 HD
BRANCH   8  11
HETATM   11  C7  UNL     1      30.128 -27.977   8.910  1.00  0.00     0.121 A 
HETATM   12  N1  UNL     1      29.175 -28.334   8.053  1.00  0.00    -0.282 N 
HETATM   13  N2  UNL     1      29.491 -27.812   6.845  1.00  0.00    -0.296 N 
HETATM   14  C4  UNL     1      30.618 -27.131   6.911  1.00  0.00     0.092 A 
ATOM     15  H2  UNL     1      28.933 -27.930   5.998  1.00  0.00     0.187 HD
HETATM   16  C6  UNL     1      31.061 -27.207   8.202  1.00  0.00     0.069 A 
BRANCH  12  17
HETATM   17  C2  UNL     1      27.975 -29.093   8.226  1.00  0.00     0.100 C 
HETATM   18  C1  UNL     1      28.048 -30.367   7.418  1.00  0.00     0.034 C 
HETATM   19  C3  UNL     1      26.811 -28.247   7.671  1.00  0.00     0.034 C 
ENDBRANCH  12  17
BRANCH  14  20
HETATM   20  C5  UNL     1      31.301 -26.404   5.786  1.00  0.00     0.404 C 
HETATM   21  F1  UNL     1      30.562 -25.296   5.463  1.00  0.00    -0.207 F 
HETATM   22  F2  UNL     1      32.590 -26.078   6.129  1.00  0.00    -0.207 F 
ENDBRANCH  14  20
ENDBRANCH   8  11
ENDBRANCH   1   7
BRANCH   5  23
HETATM   23  C22 UNL     1      28.321 -30.539  15.052  1.00  0.00    -0.025 A 
HETATM   24  C23 UNL     1      28.760 -31.811  14.841  1.00  0.00     0.012 A 
HETATM   25  C24 UNL     1      28.038 -32.905  15.276  1.00  0.00     0.001 A 
HETATM   26  C25 UNL     1      26.853 -32.702  15.937  1.00  0.00     0.000 A 
HETATM   27  C26 UNL     1      26.377 -31.428  16.168  1.00  0.00     0.001 A 
HETATM   28  C27 UNL     1      27.149 -30.348  15.704  1.00  0.00     0.012 A 
ENDBRANCH   5  23
BRANCH   4  29
HETATM   29  C13 UNL     1      30.207 -29.102  16.884  1.00  0.00     0.153 C 
HETATM   30  C14 UNL     1      31.461 -29.269  17.575  1.00  0.00     0.146 C 
HETATM   31  C15 UNL     1      31.236 -30.342  18.690  1.00  0.00     0.034 C 
HETATM   32  C16 UNL     1      30.727 -29.695  19.948  1.00  0.00     0.008 C 
HETATM   33  C17 UNL     1      29.240 -29.474  19.805  1.00  0.00     0.059 C 
HETATM   34  C18 UNL     1      28.977 -28.309  18.930  1.00  0.00     0.029 A 
HETATM   35  C19 UNL     1      28.243 -27.210  19.322  1.00  0.00     0.114 A 
HETATM   36  N5  UNL     1      29.394 -28.144  17.654  1.00  0.00    -0.334 N 
HETATM   37  N4  UNL     1      28.227 -26.381  18.250  1.00  0.00    -0.360 N 
HETATM   38  C20 UNL     1      28.932 -26.961  17.239  1.00  0.00     0.183 A 
ATOM     39  H4  UNL     1      27.764 -25.473  18.207  1.00  0.00     0.166 HD
BRANCH  30  40
HETATM   40  O2  UNL     1      31.740 -28.124  18.366  1.00  0.00    -0.393 OA
ATOM     41  H2  UNL     1      31.669 -28.339  19.288  1.00  0.00     0.210 HD
ENDBRANCH  30  40
ENDBRANCH   4  29
TORSDOF 7
ENDMDL
