MODEL 2
REMARK VINA RESULT: -7.925236495      1.223      1.356
REMARK  7 active torsions:
REMARK  status: ('A' for Active; 'I' for Inactive)
REMARK    1  A    between atoms: C2_2  and  N1_4 
REMARK    2  A    between atoms: C4_7  and  C5_8 
REMARK    3  A    between atoms: C7_12  and  C8_13 
REMARK       I    between atoms: C8_13  and  N3_15 
REMARK    4  A    between atoms: N3_15  and  C9_17 
REMARK    5  A    between atoms: C12_20  and  C13_21 
REMARK    6  A    between atoms: C14_22  and  O2_23 
REMARK    7  A    between atoms: C21_34  and  C22_35 
ROOT
HETATM    1  C9  UNL     1      29.829 -28.495  10.874  1.00  0.00     0.035 A 
HETATM    2  C10 UNL     1      30.937 -27.892  10.336  1.00  0.00     0.030 A 
HETATM    3  C11 UNL     1      31.014 -27.696   8.976  1.00  0.00     0.012 A 
HETATM    4  C12 UNL     1      29.995 -28.087   8.079  1.00  0.00    -0.021 A 
HETATM    5  C21 UNL     1      28.926 -28.670   8.637  1.00  0.00    -0.015 A 
HETATM    6  C28 UNL     1      28.822 -28.885  10.025  1.00  0.00     0.042 A 
ENDROOT
BRANCH   1   7
HETATM    7  N3  UNL     1      29.629 -28.786  12.261  1.00  0.00    -0.322 N 
HETATM    8  C8  UNL     1      29.322 -27.868  13.275  1.00  0.00     0.274 C 
HETATM    9  O1  UNL     1      29.205 -26.650  12.916  1.00  0.00    -0.266 OA
ATOM     10  H3  UNL     1      29.719 -29.762  12.541  1.00  0.00     0.169 HD
BRANCH   8  11
HETATM   11  C7  UNL     1      29.117 -28.139  14.682  1.00  0.00     0.121 A 
HETATM   12  N1  UNL     1      28.478 -29.137  15.286  1.00  0.00    -0.282 N 
HETATM   13  N2  UNL     1      28.523 -28.906  16.620  1.00  0.00    -0.296 N 
HETATM   14  C4  UNL     1      29.174 -27.789  16.878  1.00  0.00     0.092 A 
ATOM     15  H2  UNL     1      28.109 -29.513  17.328  1.00  0.00     0.187 HD
HETATM   16  C6  UNL     1      29.570 -27.266  15.680  1.00  0.00     0.069 A 
BRANCH  12  17
HETATM   17  C2  UNL     1      27.841 -30.311  14.773  1.00  0.00     0.100 C 
HETATM   18  C1  UNL     1      26.786 -30.792  15.742  1.00  0.00     0.034 C 
HETATM   19  C3  UNL     1      28.919 -31.409  14.662  1.00  0.00     0.034 C 
ENDBRANCH  12  17
BRANCH  14  20
HETATM   20  C5  UNL     1      29.438 -27.191  18.231  1.00  0.00     0.404 C 
HETATM   21  F1  UNL     1      30.588 -26.446  18.169  1.00  0.00    -0.207 F 
HETATM   22  F2  UNL     1      28.366 -26.442  18.650  1.00  0.00    -0.207 F 
ENDBRANCH  14  20
ENDBRANCH   8  11
ENDBRANCH   1   7
BRANCH   5  23
HETATM   23  C22 UNL     1      27.800 -29.057   7.828  1.00  0.00    -0.025 A 
HETATM   24  C23 UNL     1      26.886 -28.106   7.488  1.00  0.00     0.012 A 
HETATM   25  C24 UNL     1      25.818 -28.396   6.661  1.00  0.00     0.001 A 
HETATM   26  C25 UNL     1      25.680 -29.671   6.172  1.00  0.00     0.000 A 
HETATM   27  C26 UNL     1      26.586 -30.659   6.496  1.00  0.00     0.001 A 
HETATM   28  C27 UNL     1      27.655 -30.313   7.342  1.00  0.00     0.012 A 
ENDBRANCH   5  23
BRANCH   4  29
HETATM   29  C13 UNL     1      30.297 -27.832   6.712  1.00  0.00     0.153 C 
HETATM   30  C14 UNL     1      31.050 -26.727   6.173  1.00  0.00     0.146 C 
HETATM   31  C15 UNL     1      30.378 -26.327   4.819  1.00  0.00     0.034 C 
HETATM   32  C16 UNL     1      30.939 -27.148   3.690  1.00  0.00     0.008 C 
HETATM   33  C17 UNL     1      30.245 -28.489   3.684  1.00  0.00     0.059 C 
HETATM   34  C18 UNL     1      30.781 -29.349   4.764  1.00  0.00     0.029 A 
HETATM   35  C19 UNL     1      31.339 -30.589   4.547  1.00  0.00     0.114 A 
HETATM   36  N5  UNL     1      30.801 -29.067   6.087  1.00  0.00    -0.334 N 
HETATM   37  N4  UNL     1      31.696 -31.049   5.771  1.00  0.00    -0.360 N 
HETATM   38  C20 UNL     1      31.363 -30.112   6.702  1.00  0.00     0.183 A 
ATOM     39  H4  UNL     1      32.140 -31.946   5.964  1.00  0.00     0.166 HD
BRANCH  30  40
HETATM   40  O2  UNL     1      32.316 -27.175   5.715  1.00  0.00    -0.393 OA
ATOM     41  H2  UNL     1      32.893 -26.434   5.572  1.00  0.00     0.210 HD
ENDBRANCH  30  40
ENDBRANCH   4  29
TORSDOF 7
ENDMDL
