MODEL 1
REMARK VINA RESULT: -7.930990523      0.000      0.000
REMARK  7 active torsions:
REMARK  status: ('A' for Active; 'I' for Inactive)
REMARK    1  A    between atoms: C2_2  and  N1_4 
REMARK    2  A    between atoms: C4_7  and  C5_8 
REMARK    3  A    between atoms: C7_12  and  C8_13 
REMARK       I    between atoms: C8_13  and  N3_15 
REMARK    4  A    between atoms: N3_15  and  C9_17 
REMARK    5  A    between atoms: C12_20  and  C13_21 
REMARK    6  A    between atoms: C14_22  and  O2_23 
REMARK    7  A    between atoms: C21_34  and  C22_35 
ROOT
HETATM    1  C9  UNL     1      29.461 -28.911  11.508  1.00  0.00     0.035 A 
HETATM    2  C10 UNL     1      30.611 -28.239  11.183  1.00  0.00     0.030 A 
HETATM    3  C11 UNL     1      30.838 -27.869   9.876  1.00  0.00     0.012 A 
HETATM    4  C12 UNL     1      29.936 -28.148   8.825  1.00  0.00    -0.021 A 
HETATM    5  C21 UNL     1      28.822 -28.803   9.177  1.00  0.00    -0.015 A 
HETATM    6  C28 UNL     1      28.565 -29.194  10.506  1.00  0.00     0.042 A 
ENDROOT
BRANCH   1   7
HETATM    7  N3  UNL     1      29.110 -29.378  12.815  1.00  0.00    -0.322 N 
HETATM    8  C8  UNL     1      28.772 -28.592  13.924  1.00  0.00     0.274 C 
HETATM    9  O1  UNL     1      28.774 -27.330  13.742  1.00  0.00    -0.266 OA
ATOM     10  H3  UNL     1      29.105 -30.389  12.953  1.00  0.00     0.169 HD
BRANCH   8  11
HETATM   11  C7  UNL     1      28.416 -29.041  15.253  1.00  0.00     0.121 A 
HETATM   12  N1  UNL     1      28.007 -30.233  15.683  1.00  0.00    -0.282 N 
HETATM   13  N2  UNL     1      27.749 -30.125  17.008  1.00  0.00    -0.296 N 
HETATM   14  C4  UNL     1      27.985 -28.899  17.431  1.00  0.00     0.092 A 
ATOM     15  H2  UNL     1      27.418 -30.889  17.598  1.00  0.00     0.187 HD
HETATM   16  C6  UNL     1      28.410 -28.173  16.354  1.00  0.00     0.069 A 
BRANCH  12  17
HETATM   17  C2  UNL     1      27.846 -31.485  15.010  1.00  0.00     0.100 C 
HETATM   18  C1  UNL     1      26.874 -32.358  15.768  1.00  0.00     0.034 C 
HETATM   19  C3  UNL     1      29.218 -32.189  15.013  1.00  0.00     0.034 C 
ENDBRANCH  12  17
BRANCH  14  20
HETATM   20  C5  UNL     1      27.820 -28.381  18.832  1.00  0.00     0.404 C 
HETATM   21  F1  UNL     1      26.482 -28.252  19.102  1.00  0.00    -0.207 F 
HETATM   22  F2  UNL     1      28.447 -29.206  19.734  1.00  0.00    -0.207 F 
ENDBRANCH  14  20
ENDBRANCH   8  11
ENDBRANCH   1   7
BRANCH   5  23
HETATM   23  C22 UNL     1      27.804 -29.089   8.202  1.00  0.00    -0.025 A 
HETATM   24  C23 UNL     1      26.951 -28.091   7.838  1.00  0.00     0.012 A 
HETATM   25  C24 UNL     1      25.994 -28.280   6.861  1.00  0.00     0.001 A 
HETATM   26  C25 UNL     1      25.904 -29.503   6.244  1.00  0.00     0.000 A 
HETATM   27  C26 UNL     1      26.750 -30.537   6.586  1.00  0.00     0.001 A 
HETATM   28  C27 UNL     1      27.706 -30.293   7.588  1.00  0.00     0.012 A 
ENDBRANCH   5  23
BRANCH   4  29
HETATM   29  C13 UNL     1      30.386 -27.718   7.546  1.00  0.00     0.153 C 
HETATM   30  C14 UNL     1      31.182 -26.555   7.243  1.00  0.00     0.146 C 
HETATM   31  C15 UNL     1      30.662 -25.980   5.885  1.00  0.00     0.034 C 
HETATM   32  C16 UNL     1      31.355 -26.649   4.730  1.00  0.00     0.008 C 
HETATM   33  C17 UNL     1      30.681 -27.976   4.472  1.00  0.00     0.059 C 
HETATM   34  C18 UNL     1      31.102 -28.970   5.484  1.00  0.00     0.029 A 
HETATM   35  C19 UNL     1      31.695 -30.174   5.172  1.00  0.00     0.114 A 
HETATM   36  N5  UNL     1      30.971 -28.863   6.827  1.00  0.00    -0.334 N 
HETATM   37  N4  UNL     1      31.917 -30.790   6.359  1.00  0.00    -0.360 N 
HETATM   38  C20 UNL     1      31.472 -29.981   7.360  1.00  0.00     0.183 A 
ATOM     39  H4  UNL     1      32.346 -31.707   6.482  1.00  0.00     0.166 HD
BRANCH  30  40
HETATM   40  O2  UNL     1      32.496 -26.944   6.876  1.00  0.00    -0.393 OA
ATOM     41  H2  UNL     1      33.112 -26.250   7.078  1.00  0.00     0.210 HD
ENDBRANCH  30  40
ENDBRANCH   4  29
TORSDOF 7
ENDMDL
