MODEL 3
REMARK VINA RESULT: -7.867654615      1.512      2.162
REMARK  7 active torsions:
REMARK  status: ('A' for Active; 'I' for Inactive)
REMARK    1  A    between atoms: C2_2  and  N1_4 
REMARK    2  A    between atoms: C4_7  and  C5_8 
REMARK    3  A    between atoms: C7_12  and  C8_13 
REMARK       I    between atoms: C8_13  and  N3_15 
REMARK    4  A    between atoms: N3_15  and  C9_17 
REMARK    5  A    between atoms: C12_20  and  C13_21 
REMARK    6  A    between atoms: C14_22  and  O2_23 
REMARK    7  A    between atoms: C21_34  and  C22_35 
ROOT
HETATM    1  C9  UNL     1      29.811 -28.537  10.752  1.00  0.00     0.035 A 
HETATM    2  C10 UNL     1      30.891 -27.867  10.237  1.00  0.00     0.030 A 
HETATM    3  C11 UNL     1      30.944 -27.591   8.890  1.00  0.00     0.012 A 
HETATM    4  C12 UNL     1      29.927 -27.964   7.983  1.00  0.00    -0.021 A 
HETATM    5  C21 UNL     1      28.884 -28.614   8.518  1.00  0.00    -0.015 A 
HETATM    6  C28 UNL     1      28.806 -28.911   9.893  1.00  0.00     0.042 A 
ENDROOT
BRANCH   1   7
HETATM    7  N3  UNL     1      29.638 -28.913  12.122  1.00  0.00    -0.322 N 
HETATM    8  C8  UNL     1      29.320 -28.065  13.191  1.00  0.00     0.274 C 
HETATM    9  O1  UNL     1      29.163 -26.832  12.905  1.00  0.00    -0.266 OA
ATOM     10  H3  UNL     1      29.760 -29.901  12.343  1.00  0.00     0.169 HD
BRANCH   8  11
HETATM   11  C7  UNL     1      29.142 -28.422  14.582  1.00  0.00     0.121 A 
HETATM   12  N1  UNL     1      29.921 -28.202  15.638  1.00  0.00    -0.282 N 
HETATM   13  N2  UNL     1      29.333 -28.784  16.711  1.00  0.00    -0.296 N 
HETATM   14  C4  UNL     1      28.202 -29.365  16.365  1.00  0.00     0.092 A 
ATOM     15  H2  UNL     1      29.715 -28.773  17.657  1.00  0.00     0.187 HD
HETATM   16  C6  UNL     1      28.037 -29.163  15.023  1.00  0.00     0.069 A 
BRANCH  12  17
HETATM   17  C2  UNL     1      31.152 -27.488  15.783  1.00  0.00     0.100 C 
HETATM   18  C1  UNL     1      32.312 -28.371  15.389  1.00  0.00     0.034 C 
HETATM   19  C3  UNL     1      31.308 -27.137  17.276  1.00  0.00     0.034 C 
ENDBRANCH  12  17
BRANCH  14  20
HETATM   20  C5  UNL     1      27.260 -30.114  17.265  1.00  0.00     0.404 C 
HETATM   21  F1  UNL     1      26.699 -29.230  18.151  1.00  0.00    -0.207 F 
HETATM   22  F2  UNL     1      26.307 -30.776  16.530  1.00  0.00    -0.207 F 
ENDBRANCH  14  20
ENDBRANCH   8  11
ENDBRANCH   1   7
BRANCH   5  23
HETATM   23  C22 UNL     1      27.761 -28.991   7.702  1.00  0.00    -0.025 A 
HETATM   24  C23 UNL     1      26.852 -28.035   7.363  1.00  0.00     0.012 A 
HETATM   25  C24 UNL     1      25.788 -28.315   6.529  1.00  0.00     0.001 A 
HETATM   26  C25 UNL     1      25.647 -29.586   6.031  1.00  0.00     0.000 A 
HETATM   27  C26 UNL     1      26.549 -30.580   6.353  1.00  0.00     0.001 A 
HETATM   28  C27 UNL     1      27.614 -30.243   7.207  1.00  0.00     0.012 A 
ENDBRANCH   5  23
BRANCH   4  29
HETATM   29  C13 UNL     1      30.201 -27.621   6.630  1.00  0.00     0.153 C 
HETATM   30  C14 UNL     1      30.979 -26.506   6.150  1.00  0.00     0.146 C 
HETATM   31  C15 UNL     1      30.287 -25.987   4.847  1.00  0.00     0.034 C 
HETATM   32  C16 UNL     1      30.789 -26.743   3.648  1.00  0.00     0.008 C 
HETATM   33  C17 UNL     1      30.049 -28.057   3.565  1.00  0.00     0.059 C 
HETATM   34  C18 UNL     1      30.582 -29.009   4.566  1.00  0.00     0.029 A 
HETATM   35  C19 UNL     1      31.091 -30.249   4.246  1.00  0.00     0.114 A 
HETATM   36  N5  UNL     1      30.647 -28.824   5.905  1.00  0.00    -0.334 N 
HETATM   37  N4  UNL     1      31.463 -30.806   5.424  1.00  0.00    -0.360 N 
HETATM   38  C20 UNL     1      31.187 -29.928   6.428  1.00  0.00     0.183 A 
ATOM     39  H4  UNL     1      31.880 -31.730   5.539  1.00  0.00     0.166 HD
BRANCH  30  40
HETATM   40  O2  UNL     1      32.216 -26.961   5.626  1.00  0.00    -0.393 OA
ATOM     41  H2  UNL     1      32.070 -27.677   5.019  1.00  0.00     0.210 HD
ENDBRANCH  30  40
ENDBRANCH   4  29
TORSDOF 7
ENDMDL
