MODEL 2
REMARK VINA RESULT: -4.809481200      2.030      3.223
REMARK  4 active torsions:
REMARK  status: ('A' for Active; 'I' for Inactive)
REMARK    1  A    between atoms: O1_1  and  C1_3 
REMARK    2  A    between atoms: C1_3  and  C2_4 
REMARK    3  A    between atoms: C4_9  and  O2_10 
REMARK    4  A    between atoms: C5_12  and  O3_13 
ROOT
HETATM    1  C2  UNL     1     304.541 220.114 333.028  1.00  0.00     0.240 C 
HETATM    2  N1  UNL     1     303.820 219.038 332.363  1.00  0.00    -0.064 N 
ATOM      3  H11 UNL     1     302.954 218.734 332.808  1.00  0.00     0.277 HD
ATOM      4  H12 UNL     1     304.253 218.115 332.402  1.00  0.00     0.277 HD
HETATM    5  C3  UNL     1     303.687 219.638 331.024  1.00  0.00     0.267 C 
HETATM    6  C4  UNL     1     305.052 220.248 330.769  1.00  0.00     0.174 C 
HETATM    7  C5  UNL     1     305.756 220.182 332.126  1.00  0.00     0.181 C 
ENDROOT
BRANCH   1   8
HETATM    8  C1  UNL     1     304.882 219.802 334.448  1.00  0.00     0.199 C 
BRANCH   8   9
HETATM    9  O1  UNL     1     306.077 219.109 334.509  1.00  0.00    -0.399 OA
ATOM     10  H1  UNL     1     305.934 218.192 334.308  1.00  0.00     0.209 HD
ENDBRANCH   8   9
ENDBRANCH   1   8
BRANCH   7  11
HETATM   11  O3  UNL     1     306.542 221.282 332.364  1.00  0.00    -0.391 OA
ATOM     12  H3  UNL     1     306.195 222.079 331.980  1.00  0.00     0.210 HD
ENDBRANCH   7  11
BRANCH   6  13
HETATM   13  O2  UNL     1     305.729 219.516 329.805  1.00  0.00    -0.391 OA
ATOM     14  H2  UNL     1     306.602 219.301 330.111  1.00  0.00     0.210 HD
ENDBRANCH   6  13
TORSDOF 4
ENDMDL
