MODEL 9
REMARK VINA RESULT: -9.173464025      1.144      6.119
REMARK  8 active torsions:
REMARK  status: ('A' for Active; 'I' for Inactive)
REMARK    1  A    between atoms: C2_2  and  C4_4 
REMARK    2  A    between atoms: C6_9  and  N3_10 
REMARK    3  A    between atoms: N3_10  and  C7_12 
REMARK    4  A    between atoms: C7_12  and  C8_13 
REMARK    5  A    between atoms: C15_20  and  N4_21 
REMARK    6  A    between atoms: N4_21  and  C16_23 
REMARK    7  A    between atoms: C16_23  and  C17_24 
REMARK    8  A    between atoms: C21_31  and  O1_32 
ROOT
HETATM    1  C4  UNL     1      -0.128  -4.936 -28.430  1.00  0.00     0.008 A 
HETATM    2  C5  UNL     1       0.777  -4.113 -29.072  1.00  0.00     0.119 A 
HETATM    3  N1  UNL     1       1.854  -4.870 -29.369  1.00  0.00    -0.301 N 
ATOM      4  H1  UNL     1       2.689  -4.533 -29.849  1.00  0.00     0.186 HD
HETATM    5  N2  UNL     1       1.671  -6.119 -28.948  1.00  0.00    -0.224 N 
HETATM    6  C6  UNL     1       2.462  -7.198 -29.021  1.00  0.00     0.129 A 
HETATM    7  C14 UNL     1       1.979  -8.376 -28.476  1.00  0.00     0.098 A 
HETATM    8  C15 UNL     1       0.743  -8.447 -27.882  1.00  0.00     0.106 A 
HETATM    9  N6  UNL     1       0.007  -7.327 -27.844  1.00  0.00    -0.327 N 
ATOM     10  H6  UNL     1      -0.914  -7.357 -27.408  1.00  0.00     0.169 HD
HETATM   11  C22 UNL     1       0.439  -6.183 -28.357  1.00  0.00     0.138 A 
ENDROOT
BRANCH   8  12
HETATM   12  N4  UNL     1       0.281  -9.648 -27.340  1.00  0.00    -0.376 N 
ATOM     13  H4  UNL     1       0.963 -10.362 -27.084  1.00  0.00     0.161 HD
BRANCH  12  14
HETATM   14  C16 UNL     1      -1.121  -9.927 -27.124  1.00  0.00     0.128 C 
BRANCH  14  15
HETATM   15  C17 UNL     1      -1.380 -10.092 -25.661  1.00  0.00     0.035 C 
HETATM   16  C18 UNL     1      -0.166 -10.709 -25.016  1.00  0.00     0.036 C 
HETATM   17  C19 UNL     1      -0.331 -10.572 -23.517  1.00  0.00     0.233 C 
HETATM   18  N5  UNL     1      -0.345  -9.198 -23.128  1.00  0.00    -0.073 N 
HETATM   19  C20 UNL     1      -0.608  -8.288 -24.208  1.00  0.00     0.264 C 
ATOM     20  H52 UNL     1      -1.005  -9.048 -22.365  1.00  0.00     0.277 HD
ATOM     21  H51 UNL     1       0.524  -8.950 -22.655  1.00  0.00     0.277 HD
HETATM   22  C21 UNL     1      -1.749  -8.760 -25.072  1.00  0.00     0.149 C 
BRANCH  22  23
HETATM   23  O1  UNL     1      -2.944  -8.815 -24.357  1.00  0.00    -0.393 OA
ATOM     24  H1  UNL     1      -3.691  -8.572 -24.890  1.00  0.00     0.210 HD
ENDBRANCH  22  23
ENDBRANCH  14  15
ENDBRANCH  12  14
ENDBRANCH   8  12
BRANCH   6  25
HETATM   25  N3  UNL     1       3.735  -7.196 -29.619  1.00  0.00    -0.370 N 
ATOM     26  H3  UNL     1       4.019  -6.423 -30.220  1.00  0.00     0.161 HD
BRANCH  25  27
HETATM   27  C7  UNL     1       4.639  -8.297 -29.376  1.00  0.00     0.160 C 
BRANCH  27  28
HETATM   28  C8  UNL     1       4.832  -9.171 -30.535  1.00  0.00    -0.041 A 
HETATM   29  C9  UNL     1       4.715 -10.545 -30.478  1.00  0.00     0.009 A 
HETATM   30  C10 UNL     1       4.917 -11.302 -31.617  1.00  0.00     0.001 A 
HETATM   31  C11 UNL     1       5.237 -10.728 -32.830  1.00  0.00     0.000 A 
HETATM   32  C12 UNL     1       5.356  -9.369 -32.901  1.00  0.00     0.001 A 
HETATM   33  C13 UNL     1       5.153  -8.618 -31.758  1.00  0.00     0.009 A 
ENDBRANCH  27  28
ENDBRANCH  25  27
ENDBRANCH   6  25
BRANCH   1  34
HETATM   34  C2  UNL     1      -1.467  -4.561 -27.913  1.00  0.00     0.016 C 
HETATM   35  C1  UNL     1      -1.449  -4.330 -26.430  1.00  0.00     0.015 C 
HETATM   36  C3  UNL     1      -2.493  -5.621 -28.288  1.00  0.00     0.015 C 
ENDBRANCH   1  34
TORSDOF 8
ENDMDL
