MODEL 13
REMARK VINA RESULT: -8.946546816      1.298      6.238
REMARK  8 active torsions:
REMARK  status: ('A' for Active; 'I' for Inactive)
REMARK    1  A    between atoms: C2_2  and  C4_4 
REMARK    2  A    between atoms: C6_9  and  N3_10 
REMARK    3  A    between atoms: N3_10  and  C7_12 
REMARK    4  A    between atoms: C7_12  and  C8_13 
REMARK    5  A    between atoms: C15_20  and  N4_21 
REMARK    6  A    between atoms: N4_21  and  C16_23 
REMARK    7  A    between atoms: C16_23  and  C17_24 
REMARK    8  A    between atoms: C21_31  and  O1_32 
ROOT
HETATM    1  C4  UNL     1      -0.435  -5.427 -27.847  1.00  0.00     0.008 A 
HETATM    2  C5  UNL     1       0.210  -4.533 -28.680  1.00  0.00     0.119 A 
HETATM    3  N1  UNL     1       1.314  -5.156 -29.145  1.00  0.00    -0.301 N 
ATOM      4  H1  UNL     1       1.990  -4.741 -29.786  1.00  0.00     0.186 HD
HETATM    5  N2  UNL     1       1.393  -6.388 -28.649  1.00  0.00    -0.224 N 
HETATM    6  C6  UNL     1       2.304  -7.354 -28.829  1.00  0.00     0.129 A 
HETATM    7  C14 UNL     1       2.102  -8.548 -28.158  1.00  0.00     0.098 A 
HETATM    8  C15 UNL     1       1.018  -8.746 -27.340  1.00  0.00     0.106 A 
HETATM    9  N6  UNL     1       0.147  -7.736 -27.207  1.00  0.00    -0.327 N 
ATOM     10  H6  UNL     1      -0.666  -7.862 -26.605  1.00  0.00     0.169 HD
HETATM   11  C22 UNL     1       0.310  -6.580 -27.835  1.00  0.00     0.138 A 
ENDROOT
BRANCH   8  12
HETATM   12  N4  UNL     1       0.839  -9.962 -26.675  1.00  0.00    -0.376 N 
ATOM     13  H4  UNL     1       0.639 -10.795 -27.228  1.00  0.00     0.161 HD
BRANCH  12  14
HETATM   14  C16 UNL     1       0.924 -10.094 -25.238  1.00  0.00     0.128 C 
BRANCH  14  15
HETATM   15  C17 UNL     1      -0.414 -10.474 -24.689  1.00  0.00     0.035 C 
HETATM   16  C18 UNL     1      -0.328 -10.527 -23.185  1.00  0.00     0.036 C 
HETATM   17  C19 UNL     1      -1.745 -10.599 -22.654  1.00  0.00     0.233 C 
HETATM   18  N5  UNL     1      -2.474  -9.415 -22.980  1.00  0.00    -0.073 N 
HETATM   19  C20 UNL     1      -1.885  -8.639 -24.035  1.00  0.00     0.264 C 
ATOM     20  H52 UNL     1      -3.444  -9.641 -23.200  1.00  0.00     0.277 HD
ATOM     21  H51 UNL     1      -2.615  -8.841 -22.148  1.00  0.00     0.277 HD
HETATM   22  C21 UNL     1      -1.446  -9.504 -25.189  1.00  0.00     0.149 C 
BRANCH  22  23
HETATM   23  O1  UNL     1      -2.527 -10.149 -25.786  1.00  0.00    -0.393 OA
ATOM     24  H1  UNL     1      -2.448 -11.094 -25.744  1.00  0.00     0.210 HD
ENDBRANCH  22  23
ENDBRANCH  14  15
ENDBRANCH  12  14
ENDBRANCH   8  12
BRANCH   6  25
HETATM   25  N3  UNL     1       3.434  -7.219 -29.655  1.00  0.00    -0.370 N 
ATOM     26  H3  UNL     1       3.453  -6.508 -30.387  1.00  0.00     0.161 HD
BRANCH  25  27
HETATM   27  C7  UNL     1       4.568  -8.093 -29.461  1.00  0.00     0.160 C 
BRANCH  27  28
HETATM   28  C8  UNL     1       4.782  -9.038 -30.561  1.00  0.00    -0.041 A 
HETATM   29  C9  UNL     1       4.667 -10.406 -30.419  1.00  0.00     0.009 A 
HETATM   30  C10 UNL     1       4.889 -11.231 -31.505  1.00  0.00     0.001 A 
HETATM   31  C11 UNL     1       5.227 -10.733 -32.747  1.00  0.00     0.000 A 
HETATM   32  C12 UNL     1       5.343  -9.381 -32.901  1.00  0.00     0.001 A 
HETATM   33  C13 UNL     1       5.121  -8.561 -31.810  1.00  0.00     0.009 A 
ENDBRANCH  27  28
ENDBRANCH  25  27
ENDBRANCH   6  25
BRANCH   1  34
HETATM   34  C2  UNL     1      -1.698  -5.204 -27.103  1.00  0.00     0.016 C 
HETATM   35  C1  UNL     1      -2.903  -5.523 -27.939  1.00  0.00     0.015 C 
HETATM   36  C3  UNL     1      -1.759  -3.775 -26.584  1.00  0.00     0.015 C 
ENDBRANCH   1  34
TORSDOF 8
ENDMDL
