MODEL 7
REMARK VINA RESULT: -9.272602072      1.424      6.281
REMARK  8 active torsions:
REMARK  status: ('A' for Active; 'I' for Inactive)
REMARK    1  A    between atoms: C2_2  and  C4_4 
REMARK    2  A    between atoms: C6_9  and  N3_10 
REMARK    3  A    between atoms: N3_10  and  C7_12 
REMARK    4  A    between atoms: C7_12  and  C8_13 
REMARK    5  A    between atoms: C15_20  and  N4_21 
REMARK    6  A    between atoms: N4_21  and  C16_23 
REMARK    7  A    between atoms: C16_23  and  C17_24 
REMARK    8  A    between atoms: C21_31  and  O1_32 
ROOT
HETATM    1  C4  UNL     1      -0.442  -4.826 -28.277  1.00  0.00     0.008 A 
HETATM    2  C5  UNL     1       0.496  -3.933 -28.758  1.00  0.00     0.119 A 
HETATM    3  N1  UNL     1       1.591  -4.651 -29.086  1.00  0.00    -0.301 N 
ATOM      4  H1  UNL     1       2.451  -4.260 -29.471  1.00  0.00     0.186 HD
HETATM    5  N2  UNL     1       1.388  -5.942 -28.836  1.00  0.00    -0.224 N 
HETATM    6  C6  UNL     1       2.185  -7.007 -28.998  1.00  0.00     0.129 A 
HETATM    7  C14 UNL     1       1.675  -8.242 -28.634  1.00  0.00     0.098 A 
HETATM    8  C15 UNL     1       0.408  -8.382 -28.125  1.00  0.00     0.106 A 
HETATM    9  N6  UNL     1      -0.333  -7.273 -27.990  1.00  0.00    -0.327 N 
ATOM     10  H6  UNL     1      -1.278  -7.353 -27.615  1.00  0.00     0.169 HD
HETATM   11  C22 UNL     1       0.124  -6.075 -28.329  1.00  0.00     0.138 A 
ENDROOT
BRANCH   8  12
HETATM   12  N4  UNL     1      -0.082  -9.640 -27.766  1.00  0.00    -0.376 N 
ATOM     13  H4  UNL     1      -0.469 -10.238 -28.495  1.00  0.00     0.161 HD
BRANCH  12  14
HETATM   14  C16 UNL     1      -0.064 -10.133 -26.407  1.00  0.00     0.128 C 
BRANCH  14  15
HETATM   15  C17 UNL     1      -0.784  -9.172 -25.516  1.00  0.00     0.035 C 
HETATM   16  C18 UNL     1      -2.269  -9.340 -25.715  1.00  0.00     0.036 C 
HETATM   17  C19 UNL     1      -2.962  -8.596 -24.593  1.00  0.00     0.233 C 
HETATM   18  N5  UNL     1      -2.652  -9.178 -23.326  1.00  0.00    -0.073 N 
HETATM   19  C20 UNL     1      -1.492 -10.025 -23.340  1.00  0.00     0.264 C 
ATOM     20  H52 UNL     1      -2.559  -8.454 -22.612  1.00  0.00     0.277 HD
ATOM     21  H51 UNL     1      -3.459  -9.681 -22.955  1.00  0.00     0.277 HD
HETATM   22  C21 UNL     1      -0.350  -9.395 -24.096  1.00  0.00     0.149 C 
BRANCH  22  23
HETATM   23  O1  UNL     1       0.080  -8.218 -23.487  1.00  0.00    -0.393 OA
ATOM     24  H1  UNL     1      -0.505  -7.940 -22.792  1.00  0.00     0.210 HD
ENDBRANCH  22  23
ENDBRANCH  14  15
ENDBRANCH  12  14
ENDBRANCH   8  12
BRANCH   6  25
HETATM   25  N3  UNL     1       3.490  -6.936 -29.517  1.00  0.00    -0.370 N 
ATOM     26  H3  UNL     1       3.731  -6.222 -30.206  1.00  0.00     0.161 HD
BRANCH  25  27
HETATM   27  C7  UNL     1       4.489  -7.878 -29.069  1.00  0.00     0.160 C 
BRANCH  27  28
HETATM   28  C8  UNL     1       5.064  -8.689 -30.146  1.00  0.00    -0.041 A 
HETATM   29  C9  UNL     1       6.017  -9.665 -29.936  1.00  0.00     0.009 A 
HETATM   30  C10 UNL     1       6.513 -10.384 -31.006  1.00  0.00     0.001 A 
HETATM   31  C11 UNL     1       6.086 -10.162 -32.300  1.00  0.00     0.000 A 
HETATM   32  C12 UNL     1       5.143  -9.199 -32.521  1.00  0.00     0.001 A 
HETATM   33  C13 UNL     1       4.651  -8.482 -31.446  1.00  0.00     0.009 A 
ENDBRANCH  27  28
ENDBRANCH  25  27
ENDBRANCH   6  25
BRANCH   1  34
HETATM   34  C2  UNL     1      -1.809  -4.514 -27.796  1.00  0.00     0.016 C 
HETATM   35  C1  UNL     1      -1.836  -4.257 -26.317  1.00  0.00     0.015 C 
HETATM   36  C3  UNL     1      -2.770  -5.632 -28.172  1.00  0.00     0.015 C 
ENDBRANCH   1  34
TORSDOF 8
ENDMDL
