MODEL 1
REMARK VINA RESULT: -9.738445752      0.000      0.000
REMARK  8 active torsions:
REMARK  status: ('A' for Active; 'I' for Inactive)
REMARK    1  A    between atoms: C2_2  and  C4_4 
REMARK    2  A    between atoms: C6_9  and  N3_10 
REMARK    3  A    between atoms: N3_10  and  C7_12 
REMARK    4  A    between atoms: C7_12  and  C8_13 
REMARK    5  A    between atoms: C15_20  and  N4_21 
REMARK    6  A    between atoms: N4_21  and  C16_23 
REMARK    7  A    between atoms: C16_23  and  C17_24 
REMARK    8  A    between atoms: C21_31  and  O1_32 
ROOT
HETATM    1  C4  UNL     1       4.104  -9.293 -29.684  1.00  0.00     0.008 A 
HETATM    2  C5  UNL     1       4.404  -8.037 -30.175  1.00  0.00     0.119 A 
HETATM    3  N1  UNL     1       3.395  -7.219 -29.806  1.00  0.00    -0.301 N 
ATOM      4  H1  UNL     1       3.340  -6.225 -30.027  1.00  0.00     0.186 HD
HETATM    5  N2  UNL     1       2.482  -7.896 -29.113  1.00  0.00    -0.224 N 
HETATM    6  C6  UNL     1       1.328  -7.503 -28.557  1.00  0.00     0.129 A 
HETATM    7  C14 UNL     1       0.586  -8.465 -27.891  1.00  0.00     0.098 A 
HETATM    8  C15 UNL     1       1.004  -9.769 -27.799  1.00  0.00     0.106 A 
HETATM    9  N6  UNL     1       2.169 -10.090 -28.379  1.00  0.00    -0.327 N 
ATOM     10  H6  UNL     1       2.500 -11.053 -28.323  1.00  0.00     0.169 HD
HETATM   11  C22 UNL     1       2.905  -9.194 -29.024  1.00  0.00     0.138 A 
ENDROOT
BRANCH   8  12
HETATM   12  N4  UNL     1       0.236 -10.719 -27.122  1.00  0.00    -0.376 N 
ATOM     13  H4  UNL     1       0.699 -11.553 -26.762  1.00  0.00     0.161 HD
BRANCH  12  14
HETATM   14  C16 UNL     1      -1.187 -10.573 -26.907  1.00  0.00     0.128 C 
BRANCH  14  15
HETATM   15  C17 UNL     1      -1.464 -10.458 -25.443  1.00  0.00     0.035 C 
HETATM   16  C18 UNL     1      -0.321 -11.078 -24.679  1.00  0.00     0.036 C 
HETATM   17  C19 UNL     1      -0.473 -10.671 -23.229  1.00  0.00     0.233 C 
HETATM   18  N5  UNL     1      -0.344  -9.257 -23.078  1.00  0.00    -0.073 N 
HETATM   19  C20 UNL     1      -0.510  -8.522 -24.301  1.00  0.00     0.264 C 
ATOM     20  H52 UNL     1      -0.986  -8.912 -22.364  1.00  0.00     0.277 HD
ATOM     21  H51 UNL     1       0.546  -9.022 -22.637  1.00  0.00     0.277 HD
HETATM   22  C21 UNL     1      -1.693  -9.016 -25.095  1.00  0.00     0.149 C 
BRANCH  22  23
HETATM   23  O1  UNL     1      -2.888  -8.825 -24.404  1.00  0.00    -0.393 OA
ATOM     24  H1  UNL     1      -3.073  -9.539 -23.806  1.00  0.00     0.210 HD
ENDBRANCH  22  23
ENDBRANCH  14  15
ENDBRANCH  12  14
ENDBRANCH   8  12
BRANCH   6  25
HETATM   25  N3  UNL     1       0.843  -6.185 -28.610  1.00  0.00    -0.370 N 
ATOM     26  H3  UNL     1       1.469  -5.400 -28.430  1.00  0.00     0.161 HD
BRANCH  25  27
HETATM   27  C7  UNL     1      -0.548  -5.948 -28.920  1.00  0.00     0.160 C 
BRANCH  27  28
HETATM   28  C8  UNL     1      -1.301  -5.324 -27.829  1.00  0.00    -0.041 A 
HETATM   29  C9  UNL     1      -0.975  -4.098 -27.285  1.00  0.00     0.009 A 
HETATM   30  C10 UNL     1      -1.734  -3.579 -26.254  1.00  0.00     0.001 A 
HETATM   31  C11 UNL     1      -2.823  -4.249 -25.737  1.00  0.00     0.000 A 
HETATM   32  C12 UNL     1      -3.157  -5.463 -26.266  1.00  0.00     0.001 A 
HETATM   33  C13 UNL     1      -2.393  -5.978 -27.297  1.00  0.00     0.009 A 
ENDBRANCH  27  28
ENDBRANCH  25  27
ENDBRANCH   6  25
BRANCH   1  34
HETATM   34  C2  UNL     1       4.915 -10.526 -29.828  1.00  0.00     0.016 C 
HETATM   35  C1  UNL     1       6.369 -10.273 -29.556  1.00  0.00     0.015 C 
HETATM   36  C3  UNL     1       4.717 -11.129 -31.211  1.00  0.00     0.015 C 
ENDBRANCH   1  34
TORSDOF 8
ENDMDL
