MODEL 14
REMARK VINA RESULT: -8.942728046      1.651      6.398
REMARK  8 active torsions:
REMARK  status: ('A' for Active; 'I' for Inactive)
REMARK    1  A    between atoms: C2_2  and  C4_4 
REMARK    2  A    between atoms: C6_9  and  N3_10 
REMARK    3  A    between atoms: N3_10  and  C7_12 
REMARK    4  A    between atoms: C7_12  and  C8_13 
REMARK    5  A    between atoms: C15_20  and  N4_21 
REMARK    6  A    between atoms: N4_21  and  C16_23 
REMARK    7  A    between atoms: C16_23  and  C17_24 
REMARK    8  A    between atoms: C21_31  and  O1_32 
ROOT
HETATM    1  C4  UNL     1      -0.378  -5.518 -28.020  1.00  0.00     0.008 A 
HETATM    2  C5  UNL     1       0.379  -4.512 -28.587  1.00  0.00     0.119 A 
HETATM    3  N1  UNL     1       1.513  -5.083 -29.046  1.00  0.00    -0.301 N 
ATOM      4  H1  UNL     1       2.267  -4.584 -29.518  1.00  0.00     0.186 HD
HETATM    5  N2  UNL     1       1.505  -6.390 -28.797  1.00  0.00    -0.224 N 
HETATM    6  C6  UNL     1       2.407  -7.344 -29.064  1.00  0.00     0.129 A 
HETATM    7  C14 UNL     1       2.102  -8.635 -28.667  1.00  0.00     0.098 A 
HETATM    8  C15 UNL     1       0.927  -8.936 -28.023  1.00  0.00     0.106 A 
HETATM    9  N6  UNL     1       0.072  -7.932 -27.788  1.00  0.00    -0.327 N 
ATOM     10  H6  UNL     1      -0.807  -8.133 -27.311  1.00  0.00     0.169 HD
HETATM   11  C22 UNL     1       0.333  -6.685 -28.156  1.00  0.00     0.138 A 
ENDROOT
BRANCH   8  12
HETATM   12  N4  UNL     1       0.645 -10.248 -27.632  1.00  0.00    -0.376 N 
ATOM     13  H4  UNL     1       1.234 -11.000 -27.989  1.00  0.00     0.161 HD
BRANCH  12  14
HETATM   14  C16 UNL     1      -0.445 -10.588 -26.745  1.00  0.00     0.128 C 
BRANCH  14  15
HETATM   15  C17 UNL     1      -0.022 -10.374 -25.327  1.00  0.00     0.035 C 
HETATM   16  C18 UNL     1      -1.251 -10.303 -24.456  1.00  0.00     0.036 C 
HETATM   17  C19 UNL     1      -0.791 -10.403 -23.017  1.00  0.00     0.233 C 
HETATM   18  N5  UNL     1      -0.183 -11.670 -22.762  1.00  0.00    -0.073 N 
HETATM   19  C20 UNL     1       0.221 -12.374 -23.947  1.00  0.00     0.264 C 
ATOM     20  H52 UNL     1       0.604 -11.567 -22.121  1.00  0.00     0.277 HD
ATOM     21  H51 UNL     1      -0.795 -12.253 -22.190  1.00  0.00     0.277 HD
HETATM   22  C21 UNL     1       0.925 -11.466 -24.924  1.00  0.00     0.149 C 
BRANCH  22  23
HETATM   23  O1  UNL     1       2.111 -10.963 -24.390  1.00  0.00    -0.393 OA
ATOM     24  H1  UNL     1       2.524 -10.333 -24.968  1.00  0.00     0.210 HD
ENDBRANCH  22  23
ENDBRANCH  14  15
ENDBRANCH  12  14
ENDBRANCH   8  12
BRANCH   6  25
HETATM   25  N3  UNL     1       3.626  -7.105 -29.723  1.00  0.00    -0.370 N 
ATOM     26  H3  UNL     1       3.674  -6.426 -30.483  1.00  0.00     0.161 HD
BRANCH  25  27
HETATM   27  C7  UNL     1       4.809  -7.827 -29.319  1.00  0.00     0.160 C 
BRANCH  27  28
HETATM   28  C8  UNL     1       5.321  -8.747 -30.339  1.00  0.00    -0.041 A 
HETATM   29  C9  UNL     1       6.151  -9.812 -30.054  1.00  0.00     0.009 A 
HETATM   30  C10 UNL     1       6.593 -10.632 -31.074  1.00  0.00     0.001 A 
HETATM   31  C11 UNL     1       6.232 -10.425 -32.390  1.00  0.00     0.000 A 
HETATM   32  C12 UNL     1       5.411  -9.374 -32.685  1.00  0.00     0.001 A 
HETATM   33  C13 UNL     1       4.971  -8.557 -31.660  1.00  0.00     0.009 A 
ENDBRANCH  27  28
ENDBRANCH  25  27
ENDBRANCH   6  25
BRANCH   1  34
HETATM   34  C2  UNL     1      -1.711  -5.384 -27.385  1.00  0.00     0.016 C 
HETATM   35  C1  UNL     1      -2.823  -5.573 -28.374  1.00  0.00     0.015 C 
HETATM   36  C3  UNL     1      -1.828  -4.039 -26.683  1.00  0.00     0.015 C 
ENDBRANCH   1  34
TORSDOF 8
ENDMDL
