MODEL 3
REMARK VINA RESULT: -9.391928345      1.809      2.641
REMARK  8 active torsions:
REMARK  status: ('A' for Active; 'I' for Inactive)
REMARK    1  A    between atoms: C2_2  and  C4_4 
REMARK    2  A    between atoms: C6_9  and  N3_10 
REMARK    3  A    between atoms: N3_10  and  C7_12 
REMARK    4  A    between atoms: C7_12  and  C8_13 
REMARK    5  A    between atoms: C15_20  and  N4_21 
REMARK    6  A    between atoms: N4_21  and  C16_23 
REMARK    7  A    between atoms: C16_23  and  C17_24 
REMARK    8  A    between atoms: C21_31  and  O1_32 
ROOT
HETATM    1  C4  UNL     1       5.030  -9.916 -31.559  1.00  0.00     0.008 A 
HETATM    2  C5  UNL     1       5.468  -8.692 -32.027  1.00  0.00     0.119 A 
HETATM    3  N1  UNL     1       4.860  -7.746 -31.282  1.00  0.00    -0.301 N 
ATOM      4  H1  UNL     1       4.990  -6.741 -31.397  1.00  0.00     0.186 HD
HETATM    5  N2  UNL     1       4.067  -8.311 -30.374  1.00  0.00    -0.224 N 
HETATM    6  C6  UNL     1       3.278  -7.772 -29.435  1.00  0.00     0.129 A 
HETATM    7  C14 UNL     1       2.562  -8.644 -28.632  1.00  0.00     0.098 A 
HETATM    8  C15 UNL     1       2.648 -10.005 -28.783  1.00  0.00     0.106 A 
HETATM    9  N6  UNL     1       3.458 -10.474 -29.743  1.00  0.00    -0.327 N 
ATOM     10  H6  UNL     1       3.538 -11.482 -29.873  1.00  0.00     0.169 HD
HETATM   11  C22 UNL     1       4.158  -9.667 -30.529  1.00  0.00     0.138 A 
ENDROOT
BRANCH   8  12
HETATM   12  N4  UNL     1       1.914 -10.862 -27.959  1.00  0.00    -0.376 N 
ATOM     13  H4  UNL     1       2.279 -11.798 -27.782  1.00  0.00     0.161 HD
BRANCH  12  14
HETATM   14  C16 UNL     1       0.661 -10.483 -27.345  1.00  0.00     0.128 C 
BRANCH  14  15
HETATM   15  C17 UNL     1       0.926  -9.852 -26.016  1.00  0.00     0.035 C 
HETATM   16  C18 UNL     1      -0.172  -8.863 -25.718  1.00  0.00     0.036 C 
HETATM   17  C19 UNL     1      -0.053  -8.482 -24.257  1.00  0.00     0.233 C 
HETATM   18  N5  UNL     1      -0.283  -9.612 -23.414  1.00  0.00    -0.073 N 
HETATM   19  C20 UNL     1      -0.167 -10.876 -24.087  1.00  0.00     0.264 C 
ATOM     20  H52 UNL     1       0.331  -9.582 -22.600  1.00  0.00     0.277 HD
ATOM     21  H51 UNL     1      -1.188  -9.535 -22.950  1.00  0.00     0.277 HD
HETATM   22  C21 UNL     1       1.050 -10.927 -24.975  1.00  0.00     0.149 C 
BRANCH  22  23
HETATM   23  O1  UNL     1       2.227 -10.810 -24.237  1.00  0.00    -0.393 OA
ATOM     24  H1  UNL     1       2.984 -11.120 -24.719  1.00  0.00     0.210 HD
ENDBRANCH  22  23
ENDBRANCH  14  15
ENDBRANCH  12  14
ENDBRANCH   8  12
BRANCH   6  25
HETATM   25  N3  UNL     1       3.146  -6.388 -29.224  1.00  0.00    -0.370 N 
ATOM     26  H3  UNL     1       3.771  -5.905 -28.578  1.00  0.00     0.161 HD
BRANCH  25  27
HETATM   27  C7  UNL     1       2.121  -5.653 -29.928  1.00  0.00     0.160 C 
BRANCH  27  28
HETATM   28  C8  UNL     1       0.912  -5.416 -29.135  1.00  0.00    -0.041 A 
HETATM   29  C9  UNL     1       0.004  -6.406 -28.819  1.00  0.00     0.009 A 
HETATM   30  C10 UNL     1      -1.115  -6.100 -28.069  1.00  0.00     0.001 A 
HETATM   31  C11 UNL     1      -1.366  -4.822 -27.614  1.00  0.00     0.000 A 
HETATM   32  C12 UNL     1      -0.475  -3.832 -27.919  1.00  0.00     0.001 A 
HETATM   33  C13 UNL     1       0.643  -4.144 -28.671  1.00  0.00     0.009 A 
ENDBRANCH  27  28
ENDBRANCH  25  27
ENDBRANCH   6  25
BRANCH   1  34
HETATM   34  C2  UNL     1       5.422 -11.256 -32.058  1.00  0.00     0.016 C 
HETATM   35  C1  UNL     1       6.786 -11.656 -31.575  1.00  0.00     0.015 C 
HETATM   36  C3  UNL     1       5.349 -11.295 -33.578  1.00  0.00     0.015 C 
ENDBRANCH   1  34
TORSDOF 8
ENDMDL
