MODEL 2
REMARK VINA RESULT: -9.551193252      1.074      1.370
REMARK  8 active torsions:
REMARK  status: ('A' for Active; 'I' for Inactive)
REMARK    1  A    between atoms: C2_2  and  C4_4 
REMARK    2  A    between atoms: C6_9  and  N3_10 
REMARK    3  A    between atoms: N3_10  and  C7_12 
REMARK    4  A    between atoms: C7_12  and  C8_13 
REMARK    5  A    between atoms: C15_20  and  N4_21 
REMARK    6  A    between atoms: N4_21  and  C16_23 
REMARK    7  A    between atoms: C16_23  and  C17_24 
REMARK    8  A    between atoms: C21_31  and  O1_32 
ROOT
HETATM    1  C4  UNL     1       4.330  -9.373 -29.971  1.00  0.00     0.008 A 
HETATM    2  C5  UNL     1       4.402  -8.246 -30.768  1.00  0.00     0.119 A 
HETATM    3  N1  UNL     1       3.475  -7.379 -30.309  1.00  0.00    -0.301 N 
ATOM      4  H1  UNL     1       3.296  -6.455 -30.701  1.00  0.00     0.186 HD
HETATM    5  N2  UNL     1       2.827  -7.903 -29.271  1.00  0.00    -0.224 N 
HETATM    6  C6  UNL     1       1.838  -7.413 -28.511  1.00  0.00     0.129 A 
HETATM    7  C14 UNL     1       1.367  -8.219 -27.488  1.00  0.00     0.098 A 
HETATM    8  C15 UNL     1       1.882  -9.469 -27.254  1.00  0.00     0.106 A 
HETATM    9  N6  UNL     1       2.869  -9.894 -28.054  1.00  0.00    -0.327 N 
ATOM     10  H6  UNL     1       3.267 -10.820 -27.898  1.00  0.00     0.169 HD
HETATM   11  C22 UNL     1       3.345  -9.148 -29.042  1.00  0.00     0.138 A 
ENDROOT
BRANCH   8  12
HETATM   12  N4  UNL     1       1.387 -10.261 -26.215  1.00  0.00    -0.376 N 
ATOM     13  H4  UNL     1       2.042 -10.619 -25.520  1.00  0.00     0.161 HD
BRANCH  12  14
HETATM   14  C16 UNL     1      -0.013 -10.598 -26.079  1.00  0.00     0.128 C 
BRANCH  14  15
HETATM   15  C17 UNL     1      -0.729  -9.487 -25.380  1.00  0.00     0.035 C 
HETATM   16  C18 UNL     1      -2.204  -9.595 -25.675  1.00  0.00     0.036 C 
HETATM   17  C19 UNL     1      -2.925  -8.669 -24.718  1.00  0.00     0.233 C 
HETATM   18  N5  UNL     1      -2.748  -9.093 -23.365  1.00  0.00    -0.073 N 
HETATM   19  C20 UNL     1      -1.649  -9.998 -23.176  1.00  0.00     0.264 C 
ATOM     20  H52 UNL     1      -2.658  -8.287 -22.746  1.00  0.00     0.277 HD
ATOM     21  H51 UNL     1      -3.611  -9.495 -22.999  1.00  0.00     0.277 HD
HETATM   22  C21 UNL     1      -0.415  -9.542 -23.913  1.00  0.00     0.149 C 
BRANCH  22  23
HETATM   23  O1  UNL     1       0.047  -8.320 -23.428  1.00  0.00    -0.393 OA
ATOM     24  H1  UNL     1       0.852  -8.412 -22.933  1.00  0.00     0.210 HD
ENDBRANCH  22  23
ENDBRANCH  14  15
ENDBRANCH  12  14
ENDBRANCH   8  12
BRANCH   6  25
HETATM   25  N3  UNL     1       1.269  -6.140 -28.693  1.00  0.00    -0.370 N 
ATOM     26  H3  UNL     1       1.833  -5.301 -28.556  1.00  0.00     0.161 HD
BRANCH  25  27
HETATM   27  C7  UNL     1      -0.119  -6.028 -29.076  1.00  0.00     0.160 C 
BRANCH  27  28
HETATM   28  C8  UNL     1      -0.974  -5.441 -28.040  1.00  0.00    -0.041 A 
HETATM   29  C9  UNL     1      -0.711  -4.229 -27.436  1.00  0.00     0.009 A 
HETATM   30  C10 UNL     1      -1.566  -3.745 -26.463  1.00  0.00     0.001 A 
HETATM   31  C11 UNL     1      -2.690  -4.438 -26.065  1.00  0.00     0.000 A 
HETATM   32  C12 UNL     1      -2.962  -5.640 -26.656  1.00  0.00     0.001 A 
HETATM   33  C13 UNL     1      -2.103  -6.119 -27.628  1.00  0.00     0.009 A 
ENDBRANCH  27  28
ENDBRANCH  25  27
ENDBRANCH   6  25
BRANCH   1  34
HETATM   34  C2  UNL     1       5.155 -10.600 -30.081  1.00  0.00     0.016 C 
HETATM   35  C1  UNL     1       6.614 -10.312 -29.878  1.00  0.00     0.015 C 
HETATM   36  C3  UNL     1       4.915 -11.279 -31.422  1.00  0.00     0.015 C 
ENDBRANCH   1  34
TORSDOF 8
ENDMDL
