MODEL 4
REMARK VINA RESULT: -8.834461146      2.886     10.532
REMARK  13 active torsions:
REMARK  status: ('A' for Active; 'I' for Inactive)
REMARK    1  A    between atoms: C2_2  and  C4_4 
REMARK    2  A    between atoms: C4_4  and  C5_5 
REMARK    3  A    between atoms: C5_5  and  N1_6 
REMARK    4  A    between atoms: C5_5  and  C15_24 
REMARK    5  A    between atoms: N1_6  and  P1_8 
REMARK    6  A    between atoms: P1_8  and  C6_11 
REMARK    7  A    between atoms: C6_11  and  N2_12 
REMARK       I    between atoms: N2_12  and  C7_14 
REMARK    8  A    between atoms: C7_14  and  O4_16 
REMARK    9  A    between atoms: O4_16  and  C8_17 
REMARK   10  A    between atoms: C8_17  and  C9_18 
REMARK       I    between atoms: C15_24  and  N3_26 
REMARK   11  A    between atoms: N3_26  and  C16_28 
REMARK   12  A    between atoms: C16_28  and  C17_29 
REMARK   13  A    between atoms: C17_29  and  C19_31 
ROOT
HETATM    1  N1  UNL     1      13.319  41.027  -8.867  1.00  0.00    -0.332 N 
ATOM      2  H1  UNL     1      14.237  40.802  -8.484  1.00  0.00     0.164 HD
ENDROOT
BRANCH   1   3
HETATM    3  C5  UNL     1      13.240  41.901  -9.948  1.00  0.00     0.178 C 
BRANCH   3   4
HETATM    4  C4  UNL     1      14.165  43.051  -9.618  1.00  0.00     0.038 C 
BRANCH   4   5
HETATM    5  C2  UNL     1      15.364  42.743  -8.800  1.00  0.00    -0.020 C 
HETATM    6  C1  UNL     1      16.664  43.116  -9.484  1.00  0.00     0.009 C 
HETATM    7  C3  UNL     1      15.278  43.723  -7.600  1.00  0.00     0.009 C 
ENDBRANCH   4   5
ENDBRANCH   3   4
BRANCH   3   8
HETATM    8  C15 UNL     1      13.845  41.182 -11.137  1.00  0.00     0.240 C 
HETATM    9  O5  UNL     1      13.858  41.806 -12.226  1.00  0.00    -0.271 OA
HETATM   10  N3  UNL     1      14.355  39.887 -10.975  1.00  0.00    -0.359 N 
ATOM     11  H3  UNL     1      14.320  39.467 -10.046  1.00  0.00     0.162 HD
BRANCH  10  12
HETATM   12  C16 UNL     1      14.918  39.126 -12.034  1.00  0.00     0.127 C 
BRANCH  12  13
HETATM   13  C17 UNL     1      14.052  38.402 -12.981  1.00  0.00     0.007 C 
HETATM   14  C18 UNL     1      14.236  38.603 -14.442  1.00  0.00     0.012 C 
BRANCH  13  15
HETATM   15  C19 UNL     1      14.162  36.889 -12.720  1.00  0.00    -0.047 C 
HETATM   16  C20 UNL     1      15.595  36.524 -12.389  1.00  0.00     0.015 C 
HETATM   17  C21 UNL     1      13.623  36.126 -13.904  1.00  0.00     0.015 C 
HETATM   18  C22 UNL     1      13.306  36.578 -11.520  1.00  0.00     0.015 C 
ENDBRANCH  13  15
ENDBRANCH  12  13
ENDBRANCH  10  12
ENDBRANCH   3   8
ENDBRANCH   1   3
BRANCH   1  19
HETATM   19  P1  UNL     1      12.048  40.375  -8.215  1.00  0.00     0.246 P 
HETATM   20  O1  UNL     1      11.081  41.449  -9.002  1.00  0.00    -0.648 OA
HETATM   21  O2  UNL     1      12.492  38.941  -9.036  1.00  0.00    -0.648 OA
BRANCH  19  22
HETATM   22  C6  UNL     1      12.243  40.389  -6.504  1.00  0.00     0.190 C 
BRANCH  22  23
HETATM   23  N2  UNL     1      11.236  39.807  -5.647  1.00  0.00    -0.305 N 
HETATM   24  C7  UNL     1      10.974  38.424  -5.499  1.00  0.00     0.365 C 
HETATM   25  O3  UNL     1      11.622  37.593  -6.138  1.00  0.00    -0.238 OA
ATOM     26  H2  UNL     1      10.664  40.449  -5.100  1.00  0.00     0.170 HD
BRANCH  24  27
HETATM   27  O4  UNL     1       9.972  37.961  -4.622  1.00  0.00    -0.299 OA
BRANCH  27  28
HETATM   28  C8  UNL     1       9.185  38.911  -3.889  1.00  0.00     0.219 C 
BRANCH  28  29
HETATM   29  C9  UNL     1       9.342  38.632  -2.455  1.00  0.00    -0.034 A 
HETATM   30  C10 UNL     1       9.669  39.688  -1.613  1.00  0.00     0.009 A 
HETATM   31  C11 UNL     1       9.814  39.420  -0.269  1.00  0.00     0.001 A 
HETATM   32  C12 UNL     1       9.647  38.159   0.266  1.00  0.00     0.000 A 
HETATM   33  C13 UNL     1       9.322  37.131  -0.597  1.00  0.00     0.001 A 
HETATM   34  C14 UNL     1       9.173  37.372  -1.939  1.00  0.00     0.009 A 
ENDBRANCH  28  29
ENDBRANCH  27  28
ENDBRANCH  24  27
ENDBRANCH  22  23
ENDBRANCH  19  22
ENDBRANCH   1  19
TORSDOF 13
ENDMDL
