MODEL 9
REMARK VINA RESULT: -8.577298269      3.210     11.183
REMARK  13 active torsions:
REMARK  status: ('A' for Active; 'I' for Inactive)
REMARK    1  A    between atoms: C2_2  and  C4_4 
REMARK    2  A    between atoms: C4_4  and  C5_5 
REMARK    3  A    between atoms: C5_5  and  N1_6 
REMARK    4  A    between atoms: C5_5  and  C15_24 
REMARK    5  A    between atoms: N1_6  and  P1_8 
REMARK    6  A    between atoms: P1_8  and  C6_11 
REMARK    7  A    between atoms: C6_11  and  N2_12 
REMARK       I    between atoms: N2_12  and  C7_14 
REMARK    8  A    between atoms: C7_14  and  O4_16 
REMARK    9  A    between atoms: O4_16  and  C8_17 
REMARK   10  A    between atoms: C8_17  and  C9_18 
REMARK       I    between atoms: C15_24  and  N3_26 
REMARK   11  A    between atoms: N3_26  and  C16_28 
REMARK   12  A    between atoms: C16_28  and  C17_29 
REMARK   13  A    between atoms: C17_29  and  C19_31 
ROOT
HETATM    1  N1  UNL     1      14.643  38.787  -9.524  1.00  0.00    -0.332 N 
ATOM      2  H1  UNL     1      15.508  38.286  -9.324  1.00  0.00     0.164 HD
ENDROOT
BRANCH   1   3
HETATM    3  C5  UNL     1      14.672  39.836 -10.439  1.00  0.00     0.178 C 
BRANCH   3   4
HETATM    4  C4  UNL     1      15.805  40.736  -9.998  1.00  0.00     0.038 C 
BRANCH   4   5
HETATM    5  C2  UNL     1      15.531  42.193  -9.940  1.00  0.00    -0.020 C 
HETATM    6  C1  UNL     1      14.955  42.639  -8.611  1.00  0.00     0.009 C 
HETATM    7  C3  UNL     1      16.933  42.855  -9.983  1.00  0.00     0.009 C 
ENDBRANCH   4   5
ENDBRANCH   3   4
BRANCH   3   8
HETATM    8  C15 UNL     1      15.079  39.243 -11.773  1.00  0.00     0.240 C 
HETATM    9  O5  UNL     1      15.219  40.046 -12.727  1.00  0.00    -0.271 OA
HETATM   10  N3  UNL     1      15.283  37.860 -11.881  1.00  0.00    -0.359 N 
ATOM     11  H3  UNL     1      15.166  37.289 -11.044  1.00  0.00     0.162 HD
BRANCH  10  12
HETATM   12  C16 UNL     1      15.641  37.212 -13.092  1.00  0.00     0.127 C 
BRANCH  12  13
HETATM   13  C17 UNL     1      14.819  36.113 -13.628  1.00  0.00     0.007 C 
HETATM   14  C18 UNL     1      13.515  35.795 -12.990  1.00  0.00     0.012 C 
BRANCH  13  15
HETATM   15  C19 UNL     1      14.537  36.365 -15.120  1.00  0.00    -0.047 C 
HETATM   16  C20 UNL     1      14.447  37.855 -15.385  1.00  0.00     0.015 C 
HETATM   17  C21 UNL     1      13.295  35.620 -15.538  1.00  0.00     0.015 C 
HETATM   18  C22 UNL     1      15.707  35.817 -15.895  1.00  0.00     0.015 C 
ENDBRANCH  13  15
ENDBRANCH  12  13
ENDBRANCH  10  12
ENDBRANCH   3   8
ENDBRANCH   1   3
BRANCH   1  19
HETATM   19  P1  UNL     1      13.327  38.345  -8.790  1.00  0.00     0.246 P 
HETATM   20  O1  UNL     1      12.660  37.906 -10.229  1.00  0.00    -0.648 OA
HETATM   21  O2  UNL     1      14.296  37.197  -7.970  1.00  0.00    -0.648 OA
BRANCH  19  22
HETATM   22  C6  UNL     1      12.742  39.675  -7.867  1.00  0.00     0.190 C 
BRANCH  22  23
HETATM   23  N2  UNL     1      12.371  39.501  -6.482  1.00  0.00    -0.305 N 
HETATM   24  C7  UNL     1      11.209  38.841  -6.014  1.00  0.00     0.365 C 
HETATM   25  O3  UNL     1      10.400  38.360  -6.810  1.00  0.00    -0.238 OA
ATOM     26  H2  UNL     1      13.001  39.887  -5.780  1.00  0.00     0.170 HD
BRANCH  24  27
HETATM   27  O4  UNL     1      10.947  38.716  -4.634  1.00  0.00    -0.299 OA
BRANCH  27  28
HETATM   28  C8  UNL     1       9.619  38.397  -4.197  1.00  0.00     0.219 C 
BRANCH  28  29
HETATM   29  C9  UNL     1       9.636  38.248  -2.735  1.00  0.00    -0.034 A 
HETATM   30  C10 UNL     1       9.880  39.378  -1.963  1.00  0.00     0.009 A 
HETATM   31  C11 UNL     1       9.894  39.230  -0.593  1.00  0.00     0.001 A 
HETATM   32  C12 UNL     1       9.678  38.020   0.033  1.00  0.00     0.000 A 
HETATM   33  C13 UNL     1       9.439  36.916  -0.762  1.00  0.00     0.001 A 
HETATM   34  C14 UNL     1       9.420  37.036  -2.128  1.00  0.00     0.009 A 
ENDBRANCH  28  29
ENDBRANCH  27  28
ENDBRANCH  24  27
ENDBRANCH  22  23
ENDBRANCH  19  22
ENDBRANCH   1  19
TORSDOF 13
ENDMDL
