MODEL 6
REMARK VINA RESULT: -8.734153028      3.404     10.939
REMARK  13 active torsions:
REMARK  status: ('A' for Active; 'I' for Inactive)
REMARK    1  A    between atoms: C2_2  and  C4_4 
REMARK    2  A    between atoms: C4_4  and  C5_5 
REMARK    3  A    between atoms: C5_5  and  N1_6 
REMARK    4  A    between atoms: C5_5  and  C15_24 
REMARK    5  A    between atoms: N1_6  and  P1_8 
REMARK    6  A    between atoms: P1_8  and  C6_11 
REMARK    7  A    between atoms: C6_11  and  N2_12 
REMARK       I    between atoms: N2_12  and  C7_14 
REMARK    8  A    between atoms: C7_14  and  O4_16 
REMARK    9  A    between atoms: O4_16  and  C8_17 
REMARK   10  A    between atoms: C8_17  and  C9_18 
REMARK       I    between atoms: C15_24  and  N3_26 
REMARK   11  A    between atoms: N3_26  and  C16_28 
REMARK   12  A    between atoms: C16_28  and  C17_29 
REMARK   13  A    between atoms: C17_29  and  C19_31 
ROOT
HETATM    1  N1  UNL     1      13.243  40.775  -8.346  1.00  0.00    -0.332 N 
ATOM      2  H1  UNL     1      14.102  40.416  -7.929  1.00  0.00     0.164 HD
ENDROOT
BRANCH   1   3
HETATM    3  C5  UNL     1      13.247  41.123  -9.694  1.00  0.00     0.178 C 
BRANCH   3   4
HETATM    4  C4  UNL     1      14.145  42.334  -9.806  1.00  0.00     0.038 C 
BRANCH   4   5
HETATM    5  C2  UNL     1      15.471  42.259  -9.144  1.00  0.00    -0.020 C 
HETATM    6  C1  UNL     1      16.628  42.469 -10.100  1.00  0.00     0.009 C 
HETATM    7  C3  UNL     1      15.516  43.504  -8.220  1.00  0.00     0.009 C 
ENDBRANCH   4   5
ENDBRANCH   3   4
BRANCH   3   8
HETATM    8  C15 UNL     1      13.939  39.996 -10.435  1.00  0.00     0.240 C 
HETATM    9  O5  UNL     1      14.256  38.988  -9.758  1.00  0.00    -0.271 OA
HETATM   10  N3  UNL     1      14.186  40.122 -11.809  1.00  0.00    -0.359 N 
ATOM     11  H3  UNL     1      13.873  40.971 -12.279  1.00  0.00     0.162 HD
BRANCH  10  12
HETATM   12  C16 UNL     1      14.849  39.132 -12.581  1.00  0.00     0.127 C 
BRANCH  12  13
HETATM   13  C17 UNL     1      14.091  38.264 -13.499  1.00  0.00     0.007 C 
HETATM   14  C18 UNL     1      14.398  38.290 -14.953  1.00  0.00     0.012 C 
BRANCH  13  15
HETATM   15  C19 UNL     1      14.220  36.799 -13.041  1.00  0.00    -0.047 C 
HETATM   16  C20 UNL     1      15.614  36.546 -12.504  1.00  0.00     0.015 C 
HETATM   17  C21 UNL     1      13.852  35.876 -14.175  1.00  0.00     0.015 C 
HETATM   18  C22 UNL     1      13.236  36.594 -11.919  1.00  0.00     0.015 C 
ENDBRANCH  13  15
ENDBRANCH  12  13
ENDBRANCH  10  12
ENDBRANCH   3   8
ENDBRANCH   1   3
BRANCH   1  19
HETATM   19  P1  UNL     1      11.967  40.914  -7.443  1.00  0.00     0.246 P 
HETATM   20  O1  UNL     1      12.689  42.122  -6.590  1.00  0.00    -0.648 OA
HETATM   21  O2  UNL     1      11.128  41.332  -8.875  1.00  0.00    -0.648 OA
BRANCH  19  22
HETATM   22  C6  UNL     1      11.615  39.377  -6.751  1.00  0.00     0.190 C 
BRANCH  22  23
HETATM   23  N2  UNL     1      11.439  39.237  -5.325  1.00  0.00    -0.305 N 
HETATM   24  C7  UNL     1      10.384  38.543  -4.685  1.00  0.00     0.365 C 
HETATM   25  O3  UNL     1       9.503  37.995  -5.350  1.00  0.00    -0.238 OA
ATOM     26  H2  UNL     1      12.136  39.678  -4.725  1.00  0.00     0.170 HD
BRANCH  24  27
HETATM   27  O4  UNL     1      10.313  38.457  -3.279  1.00  0.00    -0.299 OA
BRANCH  27  28
HETATM   28  C8  UNL     1       9.799  37.263  -2.673  1.00  0.00     0.219 C 
BRANCH  28  29
HETATM   29  C9  UNL     1       9.515  37.549  -1.259  1.00  0.00    -0.034 A 
HETATM   30  C10 UNL     1       8.524  36.808  -0.626  1.00  0.00     0.009 A 
HETATM   31  C11 UNL     1       8.264  37.080   0.699  1.00  0.00     0.001 A 
HETATM   32  C12 UNL     1       8.940  38.048   1.413  1.00  0.00     0.000 A 
HETATM   33  C13 UNL     1       9.919  38.767   0.755  1.00  0.00     0.001 A 
HETATM   34  C14 UNL     1      10.197  38.516  -0.564  1.00  0.00     0.009 A 
ENDBRANCH  28  29
ENDBRANCH  27  28
ENDBRANCH  24  27
ENDBRANCH  22  23
ENDBRANCH  19  22
ENDBRANCH   1  19
TORSDOF 13
ENDMDL
