MODEL 4
REMARK VINA RESULT: -8.358551246      3.351     12.288
REMARK  14 active torsions:
REMARK  status: ('A' for Active; 'I' for Inactive)
REMARK    1  A    between atoms: O1_1  and  C1_3 
REMARK    2  A    between atoms: C1_3  and  C2_4 
REMARK    3  A    between atoms: C1_3  and  N4_34 
REMARK    4  A    between atoms: C5_7  and  C6_8 
REMARK    5  A    between atoms: C6_8  and  O2_9 
REMARK    6  A    between atoms: C6_8  and  N1_11 
REMARK    7  A    between atoms: C9_14  and  C10_15 
REMARK    8  A    between atoms: C10_15  and  C11_16 
REMARK    9  A    between atoms: C11_16  and  N2_17 
REMARK   10  A    between atoms: C18_24  and  N3_25 
REMARK   11  A    between atoms: N3_25  and  C19_27 
REMARK   12  A    between atoms: C28_37  and  C29_38 
REMARK   13  A    between atoms: C29_38  and  C30_39 
REMARK   14  A    between atoms: C30_39  and  N5_40 
ROOT
HETATM    1  C2  UNL     1      12.015  40.323  20.394  1.00  0.00     0.017 A 
HETATM    2  C3  UNL     1      11.672  40.199  21.705  1.00  0.00     0.017 A 
HETATM    3  C4  UNL     1      10.888  41.171  22.359  1.00  0.00     0.019 A 
HETATM    4  C5  UNL     1      10.435  42.297  21.682  1.00  0.00     0.041 A 
HETATM    5  C18 UNL     1      10.781  42.440  20.329  1.00  0.00     0.048 A 
HETATM    6  C25 UNL     1      11.542  41.470  19.743  1.00  0.00     0.046 A 
ENDROOT
BRANCH   1   7
HETATM    7  C1  UNL     1      12.869  39.386  19.721  1.00  0.00     0.148 C 
BRANCH   7   8
HETATM    8  O1  UNL     1      13.860  39.961  19.086  1.00  0.00    -0.346 OA
ATOM      9  H1  UNL     1      14.677  39.933  19.569  1.00  0.00     0.219 HD
ENDBRANCH   7   8
BRANCH   7  10
HETATM   10  N4  UNL     1      12.819  37.991  19.636  1.00  0.00    -0.361 N 
HETATM   11  C26 UNL     1      11.671  37.179  19.427  1.00  0.00     0.125 C 
HETATM   12  C27 UNL     1      11.694  35.787  19.984  1.00  0.00     0.024 C 
HETATM   13  C28 UNL     1      13.055  35.175  19.961  1.00  0.00    -0.010 C 
HETATM   14  C35 UNL     1      13.968  36.162  20.680  1.00  0.00     0.024 C 
HETATM   15  C36 UNL     1      14.135  37.308  19.723  1.00  0.00     0.125 C 
BRANCH  13  16
HETATM   16  C29 UNL     1      13.067  33.831  20.633  1.00  0.00     0.035 C 
BRANCH  16  17
HETATM   17  C30 UNL     1      13.339  32.726  19.673  1.00  0.00     0.272 C 
BRANCH  17  18
HETATM   18  N5  UNL     1      12.208  32.294  18.898  1.00  0.00     0.088 N 
HETATM   19  C31 UNL     1      12.549  31.529  17.718  1.00  0.00     0.272 C 
HETATM   20  C32 UNL     1      13.278  30.325  18.245  1.00  0.00     0.032 C 
HETATM   21  C33 UNL     1      12.659  30.160  19.609  1.00  0.00     0.032 C 
HETATM   22  C34 UNL     1      11.564  31.231  19.698  1.00  0.00     0.272 C 
ENDBRANCH  17  18
ENDBRANCH  16  17
ENDBRANCH  13  16
ENDBRANCH   7  10
ENDBRANCH   1   7
BRANCH   5  23
HETATM   23  N3  UNL     1      10.381  43.571  19.591  1.00  0.00    -0.355 N 
ATOM     24  H3  UNL     1       9.394  43.809  19.485  1.00  0.00     0.166 HD
BRANCH  23  25
HETATM   25  C19 UNL     1      11.424  44.393  18.983  1.00  0.00     0.032 A 
HETATM   26  C20 UNL     1      11.242  45.037  17.790  1.00  0.00     0.029 A 
HETATM   27  C21 UNL     1      12.265  45.798  17.213  1.00  0.00     0.002 A 
HETATM   28  C22 UNL     1      13.474  45.905  17.850  1.00  0.00     0.000 A 
HETATM   29  C23 UNL     1      13.651  45.260  19.045  1.00  0.00     0.002 A 
HETATM   30  C24 UNL     1      12.647  44.512  19.611  1.00  0.00     0.029 A 
ENDBRANCH  23  25
ENDBRANCH   5  23
BRANCH   4  31
HETATM   31  C6  UNL     1       9.711  43.301  22.421  1.00  0.00     0.150 C 
BRANCH  31  32
HETATM   32  O2  UNL     1       8.494  43.487  21.988  1.00  0.00    -0.345 OA
ATOM     33  H2  UNL     1       8.441  44.094  21.258  1.00  0.00     0.219 HD
ENDBRANCH  31  32
BRANCH  31  34
HETATM   34  N1  UNL     1      10.129  44.060  23.496  1.00  0.00    -0.361 N 
HETATM   35  C7  UNL     1      10.873  45.311  23.134  1.00  0.00     0.125 C 
HETATM   36  C8  UNL     1       9.914  46.441  23.421  1.00  0.00     0.024 C 
HETATM   37  C9  UNL     1       9.461  46.371  24.870  1.00  0.00    -0.010 C 
HETATM   38  C16 UNL     1      10.147  45.269  25.616  1.00  0.00     0.024 C 
HETATM   39  C17 UNL     1       9.925  43.915  24.884  1.00  0.00     0.125 C 
BRANCH  37  40
HETATM   40  C10 UNL     1       9.805  47.689  25.516  1.00  0.00     0.035 C 
BRANCH  40  41
HETATM   41  C11 UNL     1      10.707  48.495  24.643  1.00  0.00     0.272 C 
BRANCH  41  42
HETATM   42  N2  UNL     1      11.957  48.841  25.267  1.00  0.00     0.088 N 
HETATM   43  C12 UNL     1      12.679  49.896  24.634  1.00  0.00     0.272 C 
HETATM   44  C13 UNL     1      14.152  49.575  24.767  1.00  0.00     0.032 C 
HETATM   45  C14 UNL     1      14.190  48.071  24.910  1.00  0.00     0.032 C 
HETATM   46  C15 UNL     1      12.822  47.721  25.437  1.00  0.00     0.272 C 
ENDBRANCH  41  42
ENDBRANCH  40  41
ENDBRANCH  37  40
ENDBRANCH  31  34
ENDBRANCH   4  31
TORSDOF 14
ENDMDL
