MODEL 2
REMARK VINA RESULT: -9.104989732      2.145      2.701
REMARK  14 active torsions:
REMARK  status: ('A' for Active; 'I' for Inactive)
REMARK    1  A    between atoms: O1_1  and  C1_3 
REMARK    2  A    between atoms: C1_3  and  C2_4 
REMARK    3  A    between atoms: C1_3  and  N4_34 
REMARK    4  A    between atoms: C5_7  and  C6_8 
REMARK    5  A    between atoms: C6_8  and  O2_9 
REMARK    6  A    between atoms: C6_8  and  N1_11 
REMARK    7  A    between atoms: C9_14  and  C10_15 
REMARK    8  A    between atoms: C10_15  and  C11_16 
REMARK    9  A    between atoms: C11_16  and  N2_17 
REMARK   10  A    between atoms: C18_24  and  N3_25 
REMARK   11  A    between atoms: N3_25  and  C19_27 
REMARK   12  A    between atoms: C28_37  and  C29_38 
REMARK   13  A    between atoms: C29_38  and  C30_39 
REMARK   14  A    between atoms: C30_39  and  N5_40 
ROOT
HETATM    1  C2  UNL     1      11.416  41.565  20.816  1.00  0.00     0.017 A 
HETATM    2  C3  UNL     1      12.038  40.935  19.783  1.00  0.00     0.017 A 
HETATM    3  C4  UNL     1      12.591  39.647  19.929  1.00  0.00     0.019 A 
HETATM    4  C5  UNL     1      12.517  38.971  21.142  1.00  0.00     0.041 A 
HETATM    5  C18 UNL     1      11.878  39.608  22.217  1.00  0.00     0.048 A 
HETATM    6  C25 UNL     1      11.361  40.856  22.023  1.00  0.00     0.046 A 
ENDROOT
BRANCH   1   7
HETATM    7  C1  UNL     1      10.906  42.904  20.717  1.00  0.00     0.148 C 
BRANCH   7   8
HETATM    8  O1  UNL     1      10.098  43.218  21.700  1.00  0.00    -0.346 OA
ATOM      9  H1  UNL     1       9.190  43.281  21.428  1.00  0.00     0.219 HD
ENDBRANCH   7   8
BRANCH   7  10
HETATM   10  N4  UNL     1      11.127  43.906  19.767  1.00  0.00    -0.361 N 
HETATM   11  C26 UNL     1      10.323  44.219  18.638  1.00  0.00     0.125 C 
HETATM   12  C27 UNL     1      11.001  44.831  17.450  1.00  0.00     0.024 C 
HETATM   13  C28 UNL     1      12.139  45.721  17.825  1.00  0.00    -0.010 C 
HETATM   14  C35 UNL     1      13.050  44.882  18.713  1.00  0.00     0.024 C 
HETATM   15  C36 UNL     1      12.316  44.760  20.020  1.00  0.00     0.125 C 
BRANCH  13  16
HETATM   16  C29 UNL     1      12.871  46.223  16.612  1.00  0.00     0.035 C 
BRANCH  16  17
HETATM   17  C30 UNL     1      13.086  47.696  16.655  1.00  0.00     0.272 C 
BRANCH  17  18
HETATM   18  N5  UNL     1      11.891  48.492  16.585  1.00  0.00     0.088 N 
HETATM   19  C31 UNL     1      11.865  49.614  17.499  1.00  0.00     0.272 C 
HETATM   20  C32 UNL     1      13.046  50.454  17.102  1.00  0.00     0.032 C 
HETATM   21  C33 UNL     1      13.166  50.145  15.631  1.00  0.00     0.032 C 
HETATM   22  C34 UNL     1      11.981  49.226  15.305  1.00  0.00     0.272 C 
ENDBRANCH  17  18
ENDBRANCH  16  17
ENDBRANCH  13  16
ENDBRANCH   7  10
ENDBRANCH   1   7
BRANCH   5  23
HETATM   23  N3  UNL     1      11.794  38.994  23.482  1.00  0.00    -0.355 N 
ATOM     24  H3  UNL     1      11.367  38.074  23.593  1.00  0.00     0.166 HD
BRANCH  23  25
HETATM   25  C19 UNL     1      12.340  39.715  24.629  1.00  0.00     0.032 A 
HETATM   26  C20 UNL     1      11.538  40.291  25.576  1.00  0.00     0.029 A 
HETATM   27  C21 UNL     1      12.083  41.000  26.653  1.00  0.00     0.002 A 
HETATM   28  C22 UNL     1      13.443  41.124  26.767  1.00  0.00     0.000 A 
HETATM   29  C23 UNL     1      14.242  40.546  25.817  1.00  0.00     0.002 A 
HETATM   30  C24 UNL     1      13.708  39.849  24.759  1.00  0.00     0.029 A 
ENDBRANCH  23  25
ENDBRANCH   5  23
BRANCH   4  31
HETATM   31  C6  UNL     1      13.174  37.693  21.260  1.00  0.00     0.150 C 
BRANCH  31  32
HETATM   32  O2  UNL     1      14.209  37.712  22.055  1.00  0.00    -0.345 OA
ATOM     33  H2  UNL     1      14.847  37.036  21.860  1.00  0.00     0.219 HD
ENDBRANCH  31  32
BRANCH  31  34
HETATM   34  N1  UNL     1      12.852  36.492  20.660  1.00  0.00    -0.361 N 
HETATM   35  C7  UNL     1      13.981  35.509  20.569  1.00  0.00     0.125 C 
HETATM   36  C8  UNL     1      13.667  34.445  21.592  1.00  0.00     0.024 C 
HETATM   37  C9  UNL     1      12.293  33.858  21.313  1.00  0.00    -0.010 C 
HETATM   38  C16 UNL     1      11.683  34.431  20.072  1.00  0.00     0.024 C 
HETATM   39  C17 UNL     1      11.629  35.982  20.175  1.00  0.00     0.125 C 
BRANCH  37  40
HETATM   40  C10 UNL     1      12.464  32.371  21.134  1.00  0.00     0.035 C 
BRANCH  40  41
HETATM   41  C11 UNL     1      11.238  31.757  20.547  1.00  0.00     0.272 C 
BRANCH  41  42
HETATM   42  N2  UNL     1      11.513  30.720  19.588  1.00  0.00     0.088 N 
HETATM   43  C12 UNL     1      12.872  30.292  19.531  1.00  0.00     0.272 C 
HETATM   44  C13 UNL     1      13.180  29.961  18.087  1.00  0.00     0.032 C 
HETATM   45  C14 UNL     1      12.197  30.798  17.300  1.00  0.00     0.032 C 
HETATM   46  C15 UNL     1      11.073  31.049  18.273  1.00  0.00     0.272 C 
ENDBRANCH  41  42
ENDBRANCH  40  41
ENDBRANCH  37  40
ENDBRANCH  31  34
ENDBRANCH   4  31
TORSDOF 14
ENDMDL
