MODEL 1
REMARK VINA RESULT: -9.567235761      0.000      0.000
REMARK  14 active torsions:
REMARK  status: ('A' for Active; 'I' for Inactive)
REMARK    1  A    between atoms: O1_1  and  C1_3 
REMARK    2  A    between atoms: C1_3  and  C2_4 
REMARK    3  A    between atoms: C1_3  and  N4_34 
REMARK    4  A    between atoms: C5_7  and  C6_8 
REMARK    5  A    between atoms: C6_8  and  O2_9 
REMARK    6  A    between atoms: C6_8  and  N1_11 
REMARK    7  A    between atoms: C9_14  and  C10_15 
REMARK    8  A    between atoms: C10_15  and  C11_16 
REMARK    9  A    between atoms: C11_16  and  N2_17 
REMARK   10  A    between atoms: C18_24  and  N3_25 
REMARK   11  A    between atoms: N3_25  and  C19_27 
REMARK   12  A    between atoms: C28_37  and  C29_38 
REMARK   13  A    between atoms: C29_38  and  C30_39 
REMARK   14  A    between atoms: C30_39  and  N5_40 
ROOT
HETATM    1  C2  UNL     1      10.896  41.525  20.498  1.00  0.00     0.017 A 
HETATM    2  C3  UNL     1       9.781  40.747  20.520  1.00  0.00     0.017 A 
HETATM    3  C4  UNL     1       9.839  39.366  20.243  1.00  0.00     0.019 A 
HETATM    4  C5  UNL     1      11.046  38.748  19.939  1.00  0.00     0.041 A 
HETATM    5  C18 UNL     1      12.206  39.538  19.914  1.00  0.00     0.048 A 
HETATM    6  C25 UNL     1      12.095  40.871  20.187  1.00  0.00     0.046 A 
ENDROOT
BRANCH   1   7
HETATM    7  C1  UNL     1      10.858  42.946  20.706  1.00  0.00     0.148 C 
BRANCH   7   8
HETATM    8  O1  UNL     1      10.480  43.277  21.916  1.00  0.00    -0.346 OA
ATOM      9  H1  UNL     1       9.935  44.055  21.934  1.00  0.00     0.219 HD
ENDBRANCH   7   8
BRANCH   7  10
HETATM   10  N4  UNL     1      11.155  44.009  19.848  1.00  0.00    -0.361 N 
HETATM   11  C26 UNL     1      10.394  44.459  18.735  1.00  0.00     0.125 C 
HETATM   12  C27 UNL     1      11.132  45.130  17.615  1.00  0.00     0.024 C 
HETATM   13  C28 UNL     1      12.306  45.922  18.085  1.00  0.00    -0.010 C 
HETATM   14  C35 UNL     1      13.150  44.963  18.916  1.00  0.00     0.024 C 
HETATM   15  C36 UNL     1      12.381  44.773  20.194  1.00  0.00     0.125 C 
BRANCH  13  16
HETATM   16  C29 UNL     1      13.092  46.482  16.932  1.00  0.00     0.035 C 
BRANCH  16  17
HETATM   17  C30 UNL     1      13.492  47.898  17.161  1.00  0.00     0.272 C 
BRANCH  17  18
HETATM   18  N5  UNL     1      12.411  48.803  17.442  1.00  0.00     0.088 N 
HETATM   19  C31 UNL     1      12.750  50.203  17.299  1.00  0.00     0.272 C 
HETATM   20  C32 UNL     1      13.159  50.348  15.860  1.00  0.00     0.032 C 
HETATM   21  C33 UNL     1      12.346  49.267  15.195  1.00  0.00     0.032 C 
HETATM   22  C34 UNL     1      11.475  48.664  16.306  1.00  0.00     0.272 C 
ENDBRANCH  17  18
ENDBRANCH  16  17
ENDBRANCH  13  16
ENDBRANCH   7  10
ENDBRANCH   1   7
BRANCH   5  23
HETATM   23  N3  UNL     1      13.458  38.983  19.584  1.00  0.00    -0.355 N 
ATOM     24  H3  UNL     1      13.892  39.164  18.678  1.00  0.00     0.166 HD
BRANCH  23  25
HETATM   25  C19 UNL     1      14.115  38.140  20.579  1.00  0.00     0.032 A 
HETATM   26  C20 UNL     1      14.303  38.549  21.871  1.00  0.00     0.029 A 
HETATM   27  C21 UNL     1      14.959  37.735  22.801  1.00  0.00     0.002 A 
HETATM   28  C22 UNL     1      15.424  36.504  22.419  1.00  0.00     0.000 A 
HETATM   29  C23 UNL     1      15.233  36.098  21.125  1.00  0.00     0.002 A 
HETATM   30  C24 UNL     1      14.589  36.897  20.210  1.00  0.00     0.029 A 
ENDBRANCH  23  25
ENDBRANCH   5  23
BRANCH   4  31
HETATM   31  C6  UNL     1      11.035  37.352  19.582  1.00  0.00     0.150 C 
BRANCH  31  32
HETATM   32  O2  UNL     1      11.101  37.144  18.295  1.00  0.00    -0.345 OA
ATOM     33  H2  UNL     1      10.509  36.467  17.990  1.00  0.00     0.219 HD
ENDBRANCH  31  32
BRANCH  31  34
HETATM   34  N1  UNL     1      10.970  36.244  20.404  1.00  0.00    -0.361 N 
HETATM   35  C7  UNL     1      10.481  34.992  19.738  1.00  0.00     0.125 C 
HETATM   36  C8  UNL     1      11.703  34.118  19.589  1.00  0.00     0.024 C 
HETATM   37  C9  UNL     1      12.346  33.902  20.950  1.00  0.00    -0.010 C 
HETATM   38  C16 UNL     1      11.553  34.537  22.048  1.00  0.00     0.024 C 
HETATM   39  C17 UNL     1      11.347  36.049  21.749  1.00  0.00     0.125 C 
BRANCH  37  40
HETATM   40  C10 UNL     1      12.413  32.415  21.188  1.00  0.00     0.035 C 
BRANCH  40  41
HETATM   41  C11 UNL     1      11.196  31.732  20.660  1.00  0.00     0.272 C 
BRANCH  41  42
HETATM   42  N2  UNL     1      11.484  30.692  19.708  1.00  0.00     0.088 N 
HETATM   43  C12 UNL     1      12.837  30.240  19.695  1.00  0.00     0.272 C 
HETATM   44  C13 UNL     1      13.186  29.906  18.261  1.00  0.00     0.032 C 
HETATM   45  C14 UNL     1      12.244  30.761  17.444  1.00  0.00     0.032 C 
HETATM   46  C15 UNL     1      11.093  31.030  18.380  1.00  0.00     0.272 C 
ENDBRANCH  41  42
ENDBRANCH  40  41
ENDBRANCH  37  40
ENDBRANCH  31  34
ENDBRANCH   4  31
TORSDOF 14
ENDMDL
