MODEL 1
REMARK VINA RESULT: -8.525973529      0.000      0.000
REMARK  17 active torsions:
REMARK  status: ('A' for Active; 'I' for Inactive)
REMARK    1  A    between atoms: O1_1  and  C1_3 
REMARK    2  A    between atoms: C1_3  and  C2_4 
REMARK    3  A    between atoms: C1_3  and  N5_41 
REMARK    4  A    between atoms: C5_7  and  C6_8 
REMARK    5  A    between atoms: C6_8  and  O2_9 
REMARK    6  A    between atoms: C6_8  and  N1_11 
REMARK    7  A    between atoms: C9_14  and  C10_15 
REMARK    8  A    between atoms: C10_15  and  C11_16 
REMARK    9  A    between atoms: C11_16  and  N2_17 
REMARK   10  A    between atoms: C18_24  and  N3_25 
REMARK   11  A    between atoms: N3_25  and  C19_27 
REMARK   12  A    between atoms: C22_30  and  O3_31 
REMARK   13  A    between atoms: O3_31  and  C23_32 
REMARK   14  A    between atoms: C23_32  and  N4_33 
REMARK   15  A    between atoms: C33_44  and  C34_45 
REMARK   16  A    between atoms: C34_45  and  C35_46 
REMARK   17  A    between atoms: C35_46  and  N6_47 
ROOT
HETATM    1  C2  UNL     1      11.041  -1.816   1.907  1.00  0.00     0.017 A 
HETATM    2  C3  UNL     1       9.907  -1.062   1.931  1.00  0.00     0.017 A 
HETATM    3  C4  UNL     1       9.852   0.268   2.351  1.00  0.00     0.019 A 
HETATM    4  C5  UNL     1      11.014   0.874   2.773  1.00  0.00     0.042 A 
HETATM    5  C18 UNL     1      12.197   0.141   2.765  1.00  0.00     0.048 A 
HETATM    6  C30 UNL     1      12.214  -1.159   2.348  1.00  0.00     0.046 A 
ENDROOT
BRANCH   1   7
HETATM    7  C1  UNL     1      11.146  -3.159   1.423  1.00  0.00     0.148 C 
BRANCH   7   8
HETATM    8  O1  UNL     1      10.710  -3.354   0.198  1.00  0.00    -0.346 OA
ATOM      9  H1  UNL     1      10.264  -4.179   0.050  1.00  0.00     0.219 HD
ENDBRANCH   7   8
BRANCH   7  10
HETATM   10  N5  UNL     1      11.633  -4.334   2.021  1.00  0.00    -0.361 N 
HETATM   11  C31 UNL     1      10.674  -5.061   2.873  1.00  0.00     0.125 C 
HETATM   12  C32 UNL     1      11.334  -5.404   4.156  1.00  0.00     0.024 C 
HETATM   13  C33 UNL     1      12.591  -6.238   3.925  1.00  0.00    -0.010 C 
HETATM   14  C40 UNL     1      13.569  -5.519   3.064  1.00  0.00     0.024 C 
HETATM   15  C41 UNL     1      12.975  -4.788   1.877  1.00  0.00     0.125 C 
BRANCH  13  16
HETATM   16  C34 UNL     1      12.262  -7.557   3.301  1.00  0.00     0.035 C 
BRANCH  16  17
HETATM   17  C35 UNL     1      11.503  -8.497   4.192  1.00  0.00     0.272 C 
BRANCH  17  18
HETATM   18  N6  UNL     1      12.235  -9.711   4.475  1.00  0.00     0.088 N 
HETATM   19  C36 UNL     1      12.905  -9.590   5.779  1.00  0.00     0.272 C 
HETATM   20  C37 UNL     1      13.886 -10.741   5.711  1.00  0.00     0.032 C 
HETATM   21  C38 UNL     1      14.166 -10.953   4.237  1.00  0.00     0.032 C 
HETATM   22  C39 UNL     1      13.382  -9.828   3.598  1.00  0.00     0.272 C 
ENDBRANCH  17  18
ENDBRANCH  16  17
ENDBRANCH  13  16
ENDBRANCH   7  10
ENDBRANCH   1   7
BRANCH   5  23
HETATM   23  N3  UNL     1      13.456   0.739   3.049  1.00  0.00    -0.355 N 
ATOM     24  H3  UNL     1      13.922   0.459   3.911  1.00  0.00     0.166 HD
BRANCH  23  25
HETATM   25  C19 UNL     1      14.119   1.693   2.235  1.00  0.00     0.032 A 
HETATM   26  C20 UNL     1      14.801   2.793   2.692  1.00  0.00     0.032 A 
HETATM   27  C21 UNL     1      15.425   3.630   1.779  1.00  0.00     0.039 A 
HETATM   28  C22 UNL     1      15.386   3.395   0.405  1.00  0.00     0.071 A 
HETATM   29  C28 UNL     1      14.706   2.298  -0.056  1.00  0.00     0.039 A 
HETATM   30  C29 UNL     1      14.090   1.473   0.848  1.00  0.00     0.032 A 
BRANCH  28  31
HETATM   31  O3  UNL     1      16.034   4.278  -0.443  1.00  0.00    -0.322 OA
BRANCH  31  32
HETATM   32  C23 UNL     1      16.203   5.640  -0.192  1.00  0.00     0.447 C 
BRANCH  32  33
HETATM   33  N4  UNL     1      15.013   6.377  -0.614  1.00  0.00     0.111 N 
HETATM   34  C24 UNL     1      15.430   7.313  -1.631  1.00  0.00     0.275 C 
HETATM   35  C25 UNL     1      15.794   8.602  -0.949  1.00  0.00     0.032 C 
HETATM   36  C26 UNL     1      15.582   8.314   0.527  1.00  0.00     0.032 C 
HETATM   37  C27 UNL     1      14.560   7.210   0.478  1.00  0.00     0.275 C 
ENDBRANCH  32  33
ENDBRANCH  31  32
ENDBRANCH  28  31
ENDBRANCH  23  25
ENDBRANCH   5  23
BRANCH   4  38
HETATM   38  C6  UNL     1      10.987   2.187   3.381  1.00  0.00     0.154 C 
BRANCH  38  39
HETATM   39  O2  UNL     1      11.457   2.216   4.612  1.00  0.00    -0.345 OA
ATOM     40  H2  UNL     1      11.352   3.055   5.046  1.00  0.00     0.219 HD
ENDBRANCH  38  39
BRANCH  38  41
HETATM   41  N1  UNL     1      10.548   3.367   2.841  1.00  0.00    -0.341 N 
HETATM   42  C7  UNL     1       9.467   4.215   3.152  1.00  0.00     0.066 C 
HETATM   43  C8  UNL     1       9.981   5.451   3.809  1.00  0.00     0.049 C 
HETATM   44  C9  UNL     1      10.932   6.192   2.826  1.00  0.00    -0.007 C 
HETATM   45  C16 UNL     1      11.936   5.235   2.352  1.00  0.00     0.025 C 
HETATM   46  C17 UNL     1      11.397   3.952   1.731  1.00  0.00     0.130 C 
BRANCH  44  47
HETATM   47  C10 UNL     1      10.145   6.980   1.885  1.00  0.00     0.035 C 
BRANCH  47  48
HETATM   48  C11 UNL     1      10.825   7.604   0.731  1.00  0.00     0.272 C 
BRANCH  48  49
HETATM   49  N2  UNL     1      10.177   7.602  -0.524  1.00  0.00     0.088 N 
HETATM   50  C12 UNL     1      11.174   7.651  -1.628  1.00  0.00     0.272 C 
HETATM   51  C13 UNL     1      11.609   6.233  -1.821  1.00  0.00     0.032 C 
HETATM   52  C14 UNL     1      10.383   5.425  -1.450  1.00  0.00     0.032 C 
HETATM   53  C15 UNL     1       9.429   6.385  -0.813  1.00  0.00     0.272 C 
ENDBRANCH  48  49
ENDBRANCH  47  48
ENDBRANCH  44  47
ENDBRANCH  38  41
ENDBRANCH   4  38
TORSDOF 17
ENDMDL
