MODEL 2
REMARK VINA RESULT: -8.354522654      3.571     12.676
REMARK  17 active torsions:
REMARK  status: ('A' for Active; 'I' for Inactive)
REMARK    1  A    between atoms: O1_1  and  C1_3 
REMARK    2  A    between atoms: C1_3  and  C2_4 
REMARK    3  A    between atoms: C1_3  and  N5_41 
REMARK    4  A    between atoms: C5_7  and  C6_8 
REMARK    5  A    between atoms: C6_8  and  O2_9 
REMARK    6  A    between atoms: C6_8  and  N1_11 
REMARK    7  A    between atoms: C9_14  and  C10_15 
REMARK    8  A    between atoms: C10_15  and  C11_16 
REMARK    9  A    between atoms: C11_16  and  N2_17 
REMARK   10  A    between atoms: C18_24  and  N3_25 
REMARK   11  A    between atoms: N3_25  and  C19_27 
REMARK   12  A    between atoms: C22_30  and  O3_31 
REMARK   13  A    between atoms: O3_31  and  C23_32 
REMARK   14  A    between atoms: C23_32  and  N4_33 
REMARK   15  A    between atoms: C33_44  and  C34_45 
REMARK   16  A    between atoms: C34_45  and  C35_46 
REMARK   17  A    between atoms: C35_46  and  N6_47 
ROOT
HETATM    1  C2  UNL     1      12.078   0.418   2.883  1.00  0.00     0.017 A 
HETATM    2  C3  UNL     1      10.907   0.726   3.507  1.00  0.00     0.017 A 
HETATM    3  C4  UNL     1       9.801  -0.122   3.573  1.00  0.00     0.019 A 
HETATM    4  C5  UNL     1       9.882  -1.358   2.971  1.00  0.00     0.042 A 
HETATM    5  C18 UNL     1      11.060  -1.715   2.323  1.00  0.00     0.048 A 
HETATM    6  C30 UNL     1      12.124  -0.860   2.277  1.00  0.00     0.046 A 
ENDROOT
BRANCH   1   7
HETATM    7  C1  UNL     1      13.253   1.236   2.850  1.00  0.00     0.148 C 
BRANCH   7   8
HETATM    8  O1  UNL     1      14.375   0.624   3.162  1.00  0.00    -0.346 OA
ATOM      9  H1  UNL     1      14.662  -0.039   2.545  1.00  0.00     0.219 HD
ENDBRANCH   7   8
BRANCH   7  10
HETATM   10  N5  UNL     1      13.439   2.595   2.546  1.00  0.00    -0.361 N 
HETATM   11  C31 UNL     1      12.206   3.383   2.365  1.00  0.00     0.125 C 
HETATM   12  C32 UNL     1      12.328   4.186   1.124  1.00  0.00     0.024 C 
HETATM   13  C33 UNL     1      13.549   5.100   1.174  1.00  0.00    -0.010 C 
HETATM   14  C40 UNL     1      14.802   4.319   1.359  1.00  0.00     0.024 C 
HETATM   15  C41 UNL     1      14.722   3.188   2.365  1.00  0.00     0.125 C 
BRANCH  13  16
HETATM   16  C34 UNL     1      13.430   6.109   2.271  1.00  0.00     0.035 C 
BRANCH  16  17
HETATM   17  C35 UNL     1      13.099   7.498   1.809  1.00  0.00     0.272 C 
BRANCH  17  18
HETATM   18  N6  UNL     1      13.597   8.518   2.704  1.00  0.00     0.088 N 
HETATM   19  C36 UNL     1      15.003   8.812   2.383  1.00  0.00     0.272 C 
HETATM   20  C37 UNL     1      15.431   9.572   3.620  1.00  0.00     0.032 C 
HETATM   21  C38 UNL     1      14.538   9.071   4.738  1.00  0.00     0.032 C 
HETATM   22  C39 UNL     1      13.736   7.990   4.046  1.00  0.00     0.272 C 
ENDBRANCH  17  18
ENDBRANCH  16  17
ENDBRANCH  13  16
ENDBRANCH   7  10
ENDBRANCH   1   7
BRANCH   5  23
HETATM   23  N3  UNL     1      11.269  -3.025   1.806  1.00  0.00    -0.355 N 
ATOM     24  H3  UNL     1      10.961  -3.203   0.850  1.00  0.00     0.166 HD
BRANCH  23  25
HETATM   25  C19 UNL     1      11.868  -4.102   2.505  1.00  0.00     0.032 A 
HETATM   26  C20 UNL     1      11.265  -4.847   3.488  1.00  0.00     0.032 A 
HETATM   27  C21 UNL     1      11.965  -5.893   4.071  1.00  0.00     0.039 A 
HETATM   28  C22 UNL     1      13.268  -6.218   3.695  1.00  0.00     0.071 A 
HETATM   29  C28 UNL     1      13.874  -5.477   2.715  1.00  0.00     0.039 A 
HETATM   30  C29 UNL     1      13.181  -4.444   2.140  1.00  0.00     0.032 A 
BRANCH  28  31
HETATM   31  O3  UNL     1      13.901  -7.276   4.325  1.00  0.00    -0.322 OA
BRANCH  31  32
HETATM   32  C23 UNL     1      14.201  -8.497   3.720  1.00  0.00     0.447 C 
BRANCH  32  33
HETATM   33  N4  UNL     1      13.061  -9.406   3.837  1.00  0.00     0.111 N 
HETATM   34  C24 UNL     1      12.527  -9.250   5.169  1.00  0.00     0.275 C 
HETATM   35  C25 UNL     1      13.213 -10.247   6.060  1.00  0.00     0.032 C 
HETATM   36  C26 UNL     1      14.194 -10.954   5.141  1.00  0.00     0.032 C 
HETATM   37  C27 UNL     1      13.538 -10.770   3.798  1.00  0.00     0.275 C 
ENDBRANCH  32  33
ENDBRANCH  31  32
ENDBRANCH  28  31
ENDBRANCH  23  25
ENDBRANCH   5  23
BRANCH   4  38
HETATM   38  C6  UNL     1       8.715  -2.205   2.857  1.00  0.00     0.154 C 
BRANCH  38  39
HETATM   39  O2  UNL     1       8.469  -2.615   1.628  1.00  0.00    -0.345 OA
ATOM     40  H2  UNL     1       8.447  -3.560   1.534  1.00  0.00     0.219 HD
ENDBRANCH  38  39
BRANCH  38  41
HETATM   41  N1  UNL     1       7.863  -2.621   3.847  1.00  0.00    -0.341 N 
HETATM   42  C7  UNL     1       6.459  -2.647   3.950  1.00  0.00     0.066 C 
HETATM   43  C8  UNL     1       5.981  -4.055   3.834  1.00  0.00     0.049 C 
HETATM   44  C9  UNL     1       6.583  -4.894   4.997  1.00  0.00    -0.007 C 
HETATM   45  C16 UNL     1       8.036  -4.692   5.002  1.00  0.00     0.025 C 
HETATM   46  C17 UNL     1       8.510  -3.245   5.067  1.00  0.00     0.130 C 
BRANCH  44  47
HETATM   47  C10 UNL     1       5.795  -4.691   6.206  1.00  0.00     0.035 C 
BRANCH  47  48
HETATM   48  C11 UNL     1       6.351  -5.126   7.505  1.00  0.00     0.272 C 
BRANCH  48  49
HETATM   49  N2  UNL     1       5.495  -5.759   8.434  1.00  0.00     0.088 N 
HETATM   50  C12 UNL     1       5.135  -7.124   7.968  1.00  0.00     0.272 C 
HETATM   51  C13 UNL     1       6.277  -7.993   8.389  1.00  0.00     0.032 C 
HETATM   52  C14 UNL     1       6.782  -7.336   9.657  1.00  0.00     0.032 C 
HETATM   53  C15 UNL     1       6.100  -6.007   9.737  1.00  0.00     0.272 C 
ENDBRANCH  48  49
ENDBRANCH  47  48
ENDBRANCH  44  47
ENDBRANCH  38  41
ENDBRANCH   4  38
TORSDOF 17
ENDMDL
