MODEL 3
REMARK VINA RESULT: -8.171684531      0.781      1.366
REMARK  17 active torsions:
REMARK  status: ('A' for Active; 'I' for Inactive)
REMARK    1  A    between atoms: O1_1  and  C1_3 
REMARK    2  A    between atoms: C1_3  and  C2_4 
REMARK    3  A    between atoms: C1_3  and  N5_41 
REMARK    4  A    between atoms: C5_7  and  C6_8 
REMARK    5  A    between atoms: C6_8  and  O2_9 
REMARK    6  A    between atoms: C6_8  and  N1_11 
REMARK    7  A    between atoms: C9_14  and  C10_15 
REMARK    8  A    between atoms: C10_15  and  C11_16 
REMARK    9  A    between atoms: C11_16  and  N2_17 
REMARK   10  A    between atoms: C18_24  and  N3_25 
REMARK   11  A    between atoms: N3_25  and  C19_27 
REMARK   12  A    between atoms: C22_30  and  O3_31 
REMARK   13  A    between atoms: O3_31  and  C23_32 
REMARK   14  A    between atoms: C23_32  and  N4_33 
REMARK   15  A    between atoms: C33_44  and  C34_45 
REMARK   16  A    between atoms: C34_45  and  C35_46 
REMARK   17  A    between atoms: C35_46  and  N6_47 
ROOT
HETATM    1  C2  UNL     1      11.025  -1.672   2.028  1.00  0.00     0.017 A 
HETATM    2  C3  UNL     1       9.895  -0.932   2.207  1.00  0.00     0.017 A 
HETATM    3  C4  UNL     1       9.880   0.392   2.647  1.00  0.00     0.019 A 
HETATM    4  C5  UNL     1      11.080   1.008   2.925  1.00  0.00     0.042 A 
HETATM    5  C18 UNL     1      12.260   0.290   2.755  1.00  0.00     0.048 A 
HETATM    6  C30 UNL     1      12.238  -1.006   2.323  1.00  0.00     0.046 A 
ENDROOT
BRANCH   1   7
HETATM    7  C1  UNL     1      11.081  -3.008   1.518  1.00  0.00     0.148 C 
BRANCH   7   8
HETATM    8  O1  UNL     1      10.592  -3.172   0.308  1.00  0.00    -0.346 OA
ATOM      9  H1  UNL     1      10.965  -3.891  -0.189  1.00  0.00     0.219 HD
ENDBRANCH   7   8
BRANCH   7  10
HETATM   10  N5  UNL     1      11.567  -4.203   2.075  1.00  0.00    -0.361 N 
HETATM   11  C31 UNL     1      10.622  -4.933   2.941  1.00  0.00     0.125 C 
HETATM   12  C32 UNL     1      11.316  -5.314   4.195  1.00  0.00     0.024 C 
HETATM   13  C33 UNL     1      12.551  -6.163   3.908  1.00  0.00    -0.010 C 
HETATM   14  C40 UNL     1      13.514  -5.441   3.033  1.00  0.00     0.024 C 
HETATM   15  C41 UNL     1      12.896  -4.675   1.880  1.00  0.00     0.125 C 
BRANCH  13  16
HETATM   16  C34 UNL     1      12.182  -7.463   3.267  1.00  0.00     0.035 C 
BRANCH  16  17
HETATM   17  C35 UNL     1      11.464  -8.423   4.170  1.00  0.00     0.272 C 
BRANCH  17  18
HETATM   18  N6  UNL     1      12.210  -9.640   4.398  1.00  0.00     0.088 N 
HETATM   19  C36 UNL     1      12.833  -9.595   5.730  1.00  0.00     0.272 C 
HETATM   20  C37 UNL     1      13.839 -10.721   5.619  1.00  0.00     0.032 C 
HETATM   21  C38 UNL     1      14.173 -10.829   4.145  1.00  0.00     0.032 C 
HETATM   22  C39 UNL     1      13.388  -9.677   3.555  1.00  0.00     0.272 C 
ENDBRANCH  17  18
ENDBRANCH  16  17
ENDBRANCH  13  16
ENDBRANCH   7  10
ENDBRANCH   1   7
BRANCH   5  23
HETATM   23  N3  UNL     1      13.539   0.900   2.883  1.00  0.00    -0.355 N 
ATOM     24  H3  UNL     1      14.068   0.702   3.732  1.00  0.00     0.166 HD
BRANCH  23  25
HETATM   25  C19 UNL     1      14.141   1.762   1.931  1.00  0.00     0.032 A 
HETATM   26  C20 UNL     1      14.175   1.549   0.575  1.00  0.00     0.032 A 
HETATM   27  C21 UNL     1      14.778   2.493  -0.243  1.00  0.00     0.039 A 
HETATM   28  C22 UNL     1      15.355   3.657   0.263  1.00  0.00     0.071 A 
HETATM   29  C28 UNL     1      15.323   3.873   1.615  1.00  0.00     0.039 A 
HETATM   30  C29 UNL     1      14.727   2.940   2.422  1.00  0.00     0.032 A 
BRANCH  28  31
HETATM   31  O3  UNL     1      15.939   4.551  -0.620  1.00  0.00    -0.322 OA
BRANCH  31  32
HETATM   32  C23 UNL     1      16.614   5.713  -0.243  1.00  0.00     0.447 C 
BRANCH  32  33
HETATM   33  N4  UNL     1      16.113   6.852  -1.012  1.00  0.00     0.111 N 
HETATM   34  C24 UNL     1      16.850   8.015  -0.577  1.00  0.00     0.275 C 
HETATM   35  C25 UNL     1      16.089   8.645   0.556  1.00  0.00     0.032 C 
HETATM   36  C26 UNL     1      14.888   7.736   0.748  1.00  0.00     0.032 C 
HETATM   37  C27 UNL     1      14.748   7.124  -0.620  1.00  0.00     0.275 C 
ENDBRANCH  32  33
ENDBRANCH  31  32
ENDBRANCH  28  31
ENDBRANCH  23  25
ENDBRANCH   5  23
BRANCH   4  38
HETATM   38  C6  UNL     1      11.118   2.313   3.547  1.00  0.00     0.154 C 
BRANCH  38  39
HETATM   39  O2  UNL     1      11.466   2.290   4.819  1.00  0.00    -0.345 OA
ATOM     40  H2  UNL     1      10.965   2.884   5.366  1.00  0.00     0.219 HD
ENDBRANCH  38  39
BRANCH  38  41
HETATM   41  N1  UNL     1      10.846   3.533   2.986  1.00  0.00    -0.341 N 
HETATM   42  C7  UNL     1      10.901   4.848   3.486  1.00  0.00     0.066 C 
HETATM   43  C8  UNL     1      12.072   5.555   2.890  1.00  0.00     0.049 C 
HETATM   44  C9  UNL     1      11.898   5.614   1.346  1.00  0.00    -0.007 C 
HETATM   45  C16 UNL     1      11.637   4.255   0.862  1.00  0.00     0.025 C 
HETATM   46  C17 UNL     1      10.470   3.525   1.517  1.00  0.00     0.130 C 
BRANCH  44  47
HETATM   47  C10 UNL     1      11.012   6.717   0.995  1.00  0.00     0.035 C 
BRANCH  47  48
HETATM   48  C11 UNL     1      10.361   6.719  -0.332  1.00  0.00     0.272 C 
BRANCH  48  49
HETATM   49  N2  UNL     1       9.029   7.176  -0.436  1.00  0.00     0.088 N 
HETATM   50  C12 UNL     1       8.375   6.610  -1.647  1.00  0.00     0.272 C 
HETATM   51  C13 UNL     1       7.904   5.252  -1.235  1.00  0.00     0.032 C 
HETATM   52  C14 UNL     1       7.593   5.409   0.240  1.00  0.00     0.032 C 
HETATM   53  C15 UNL     1       8.154   6.735   0.643  1.00  0.00     0.272 C 
ENDBRANCH  48  49
ENDBRANCH  47  48
ENDBRANCH  44  47
ENDBRANCH  38  41
ENDBRANCH   4  38
TORSDOF 17
ENDMDL
