MODEL 17
REMARK VINA RESULT: -6.470102561      3.561      4.774
REMARK  7 active torsions:
REMARK  status: ('A' for Active; 'I' for Inactive)
REMARK    1  A    between atoms: N4_10  and  C5_11 
REMARK    2  A    between atoms: C5_11  and  C6_12 
REMARK    3  A    between atoms: C6_12  and  C7_13 
REMARK    4  A    between atoms: C7_13  and  C8_14 
REMARK    5  A    between atoms: C8_14  and  C9_15 
REMARK    6  A    between atoms: C9_15  and  C10_16 
REMARK    7  A    between atoms: C10_16  and  P1_17 
ROOT
HETATM    1  N1  UNL     1      37.264  21.644  44.026  1.00  0.00    -0.063 NA
HETATM    2  C1  UNL     1      38.657  21.907  44.016  1.00  0.00     0.196 A 
HETATM    3  N2  UNL     1      39.256  22.609  43.034  1.00  0.00    -0.314 N 
ATOM      4  H2  UNL     1      38.674  22.960  42.273  1.00  0.00     0.170 HD
HETATM    5  C2  UNL     1      40.574  22.875  42.996  1.00  0.00     0.143 A 
HETATM    6  C3  UNL     1      41.371  22.411  44.012  1.00  0.00     0.146 A 
HETATM    7  N3  UNL     1      42.644  22.796  43.763  1.00  0.00    -0.345 N 
ATOM      8  H3  UNL     1      43.466  22.604  44.336  1.00  0.00     0.167 HD
HETATM    9  C4  UNL     1      42.605  23.489  42.599  1.00  0.00     0.185 A 
HETATM   10  N4  UNL     1      41.372  23.545  42.128  1.00  0.00    -0.327 N 
HETATM   11  C11 UNL     1      40.775  21.692  45.026  1.00  0.00     0.278 A 
HETATM   12  O4  UNL     1      41.527  21.273  45.951  1.00  0.00    -0.265 OA
HETATM   13  N5  UNL     1      39.466  21.455  45.016  1.00  0.00    -0.295 N 
ATOM     14  H5  UNL     1      39.055  20.919  45.780  1.00  0.00     0.171 HD
ENDROOT
BRANCH  10  15
HETATM   15  C5  UNL     1      40.867  24.182  40.915  1.00  0.00     0.131 C 
BRANCH  15  16
HETATM   16  C6  UNL     1      41.944  24.000  39.867  1.00  0.00     0.020 C 
BRANCH  16  17
HETATM   17  C7  UNL     1      41.868  25.015  38.762  1.00  0.00     0.002 C 
BRANCH  17  18
HETATM   18  C8  UNL     1      42.495  26.324  39.136  1.00  0.00     0.001 C 
BRANCH  18  19
HETATM   19  C9  UNL     1      41.677  27.515  38.833  1.00  0.00     0.013 C 
BRANCH  19  20
HETATM   20  C10 UNL     1      41.272  28.308  40.084  1.00  0.00     0.146 C 
BRANCH  20  21
HETATM   21  P1  UNL     1      40.920  29.881  39.711  1.00  0.00     0.259 P 
HETATM   22  O1  UNL     1      40.533  31.355  39.547  1.00  0.00    -0.640 OA
HETATM   23  O2  UNL     1      41.499  29.773  38.191  1.00  0.00    -0.640 OA
HETATM   24  O3  UNL     1      41.992  30.398  40.886  1.00  0.00    -0.640 OA
ENDBRANCH  20  21
ENDBRANCH  19  20
ENDBRANCH  18  19
ENDBRANCH  17  18
ENDBRANCH  16  17
ENDBRANCH  15  16
ENDBRANCH  10  15
TORSDOF 7
ENDMDL
