MODEL 1
REMARK VINA RESULT: -7.210529286      0.000      0.000
REMARK  7 active torsions:
REMARK  status: ('A' for Active; 'I' for Inactive)
REMARK    1  A    between atoms: N4_10  and  C5_11 
REMARK    2  A    between atoms: C5_11  and  C6_12 
REMARK    3  A    between atoms: C6_12  and  C7_13 
REMARK    4  A    between atoms: C7_13  and  C8_14 
REMARK    5  A    between atoms: C8_14  and  C9_15 
REMARK    6  A    between atoms: C9_15  and  C10_16 
REMARK    7  A    between atoms: C10_16  and  P1_17 
ROOT
HETATM    1  N1  UNL     1      36.453  24.990  38.286  1.00  0.00    -0.063 NA
HETATM    2  C1  UNL     1      36.232  24.434  39.572  1.00  0.00     0.196 A 
HETATM    3  N2  UNL     1      37.206  23.827  40.278  1.00  0.00    -0.314 N 
ATOM      4  H2  UNL     1      38.135  23.771  39.860  1.00  0.00     0.170 HD
HETATM    5  C2  UNL     1      37.027  23.291  41.498  1.00  0.00     0.143 A 
HETATM    6  C3  UNL     1      35.784  23.359  42.075  1.00  0.00     0.146 A 
HETATM    7  N3  UNL     1      35.845  22.761  43.287  1.00  0.00    -0.345 N 
ATOM      8  H3  UNL     1      35.082  22.652  43.955  1.00  0.00     0.167 HD
HETATM    9  C4  UNL     1      37.124  22.337  43.433  1.00  0.00     0.185 A 
HETATM   10  N4  UNL     1      37.844  22.648  42.369  1.00  0.00    -0.327 N 
HETATM   11  C11 UNL     1      34.776  23.977  41.367  1.00  0.00     0.278 A 
HETATM   12  O4  UNL     1      33.638  24.029  41.917  1.00  0.00    -0.265 OA
HETATM   13  N5  UNL     1      35.004  24.491  40.162  1.00  0.00    -0.295 N 
ATOM     14  H5  UNL     1      34.237  24.942  39.664  1.00  0.00     0.171 HD
ENDROOT
BRANCH  10  15
HETATM   15  C5  UNL     1      39.255  22.390  42.093  1.00  0.00     0.131 C 
BRANCH  15  16
HETATM   16  C6  UNL     1      40.000  23.633  42.527  1.00  0.00     0.020 C 
BRANCH  16  17
HETATM   17  C7  UNL     1      40.676  24.343  41.389  1.00  0.00     0.002 C 
BRANCH  17  18
HETATM   18  C8  UNL     1      40.922  25.794  41.678  1.00  0.00     0.001 C 
BRANCH  18  19
HETATM   19  C9  UNL     1      40.544  26.718  40.590  1.00  0.00     0.013 C 
BRANCH  19  20
HETATM   20  C10 UNL     1      40.611  28.197  40.998  1.00  0.00     0.146 C 
BRANCH  20  21
HETATM   21  P1  UNL     1      41.263  29.124  39.794  1.00  0.00     0.259 P 
HETATM   22  O1  UNL     1      41.728  30.111  38.717  1.00  0.00    -0.640 OA
HETATM   23  O2  UNL     1      42.490  28.092  39.503  1.00  0.00    -0.640 OA
HETATM   24  O3  UNL     1      41.557  30.347  40.897  1.00  0.00    -0.640 OA
ENDBRANCH  20  21
ENDBRANCH  19  20
ENDBRANCH  18  19
ENDBRANCH  17  18
ENDBRANCH  16  17
ENDBRANCH  15  16
ENDBRANCH  10  15
TORSDOF 7
ENDMDL
