MODEL 3
REMARK VINA RESULT: -7.094912677      1.356      3.136
REMARK  7 active torsions:
REMARK  status: ('A' for Active; 'I' for Inactive)
REMARK    1  A    between atoms: N4_10  and  C5_11 
REMARK    2  A    between atoms: C5_11  and  C6_12 
REMARK    3  A    between atoms: C6_12  and  C7_13 
REMARK    4  A    between atoms: C7_13  and  C8_14 
REMARK    5  A    between atoms: C8_14  and  C9_15 
REMARK    6  A    between atoms: C9_15  and  C10_16 
REMARK    7  A    between atoms: C10_16  and  P1_17 
ROOT
HETATM    1  N1  UNL     1      39.020  21.634  43.612  1.00  0.00    -0.063 NA
HETATM    2  C1  UNL     1      37.934  22.297  42.988  1.00  0.00     0.196 A 
HETATM    3  N2  UNL     1      38.036  22.870  41.772  1.00  0.00    -0.314 N 
ATOM      4  H2  UNL     1      38.934  22.818  41.292  1.00  0.00     0.170 HD
HETATM    5  C2  UNL     1      37.024  23.506  41.154  1.00  0.00     0.143 A 
HETATM    6  C3  UNL     1      35.809  23.585  41.785  1.00  0.00     0.146 A 
HETATM    7  N3  UNL     1      34.956  24.262  40.982  1.00  0.00    -0.345 N 
ATOM      8  H3  UNL     1      33.979  24.483  41.173  1.00  0.00     0.167 HD
HETATM    9  C4  UNL     1      35.664  24.586  39.872  1.00  0.00     0.185 A 
HETATM   10  N4  UNL     1      36.904  24.140  39.961  1.00  0.00    -0.327 N 
HETATM   11  C11 UNL     1      35.687  23.004  43.029  1.00  0.00     0.278 A 
HETATM   12  O4  UNL     1      34.558  23.088  43.593  1.00  0.00    -0.265 OA
HETATM   13  N5  UNL     1      36.718  22.387  43.598  1.00  0.00    -0.295 N 
ATOM     14  H5  UNL     1      36.596  21.967  44.519  1.00  0.00     0.171 HD
ENDROOT
BRANCH  10  15
HETATM   15  C5  UNL     1      38.006  24.258  39.010  1.00  0.00     0.131 C 
BRANCH  15  16
HETATM   16  C6  UNL     1      37.803  25.577  38.296  1.00  0.00     0.020 C 
BRANCH  16  17
HETATM   17  C7  UNL     1      39.055  26.405  38.221  1.00  0.00     0.002 C 
BRANCH  17  18
HETATM   18  C8  UNL     1      39.060  27.535  39.206  1.00  0.00     0.001 C 
BRANCH  18  19
HETATM   19  C9  UNL     1      39.691  27.227  40.505  1.00  0.00     0.013 C 
BRANCH  19  20
HETATM   20  C10 UNL     1      40.561  28.371  41.044  1.00  0.00     0.146 C 
BRANCH  20  21
HETATM   21  P1  UNL     1      41.241  29.240  39.812  1.00  0.00     0.259 P 
HETATM   22  O1  UNL     1      41.733  30.176  38.702  1.00  0.00    -0.640 OA
HETATM   23  O2  UNL     1      42.459  28.183  39.581  1.00  0.00    -0.640 OA
HETATM   24  O3  UNL     1      41.536  30.504  40.868  1.00  0.00    -0.640 OA
ENDBRANCH  20  21
ENDBRANCH  19  20
ENDBRANCH  18  19
ENDBRANCH  17  18
ENDBRANCH  16  17
ENDBRANCH  15  16
ENDBRANCH  10  15
TORSDOF 7
ENDMDL
