MODEL 2
REMARK VINA RESULT: -7.115132060      1.610      1.748
REMARK  7 active torsions:
REMARK  status: ('A' for Active; 'I' for Inactive)
REMARK    1  A    between atoms: N4_10  and  C5_11 
REMARK    2  A    between atoms: C5_11  and  C6_12 
REMARK    3  A    between atoms: C6_12  and  C7_13 
REMARK    4  A    between atoms: C7_13  and  C8_14 
REMARK    5  A    between atoms: C8_14  and  C9_15 
REMARK    6  A    between atoms: C9_15  and  C10_16 
REMARK    7  A    between atoms: C10_16  and  P1_17 
ROOT
HETATM    1  N1  UNL     1      35.668  20.645  38.515  1.00  0.00    -0.063 NA
HETATM    2  C1  UNL     1      35.386  21.638  39.486  1.00  0.00     0.196 A 
HETATM    3  N2  UNL     1      36.327  22.132  40.314  1.00  0.00    -0.314 N 
ATOM      4  H2  UNL     1      37.277  21.769  40.230  1.00  0.00     0.170 HD
HETATM    5  C2  UNL     1      36.091  23.074  41.245  1.00  0.00     0.143 A 
HETATM    6  C3  UNL     1      34.820  23.574  41.371  1.00  0.00     0.146 A 
HETATM    7  N3  UNL     1      34.823  24.498  42.359  1.00  0.00    -0.345 N 
ATOM      8  H3  UNL     1      34.028  25.046  42.689  1.00  0.00     0.167 HD
HETATM    9  C4  UNL     1      36.096  24.549  42.821  1.00  0.00     0.185 A 
HETATM   10  N4  UNL     1      36.867  23.701  42.163  1.00  0.00    -0.327 N 
HETATM   11  C11 UNL     1      33.844  23.081  40.532  1.00  0.00     0.278 A 
HETATM   12  O4  UNL     1      32.679  23.555  40.665  1.00  0.00    -0.265 OA
HETATM   13  N5  UNL     1      34.129  22.148  39.628  1.00  0.00    -0.295 N 
ATOM     14  H5  UNL     1      33.385  21.803  39.022  1.00  0.00     0.171 HD
ENDROOT
BRANCH  10  15
HETATM   15  C5  UNL     1      38.292  23.423  42.322  1.00  0.00     0.131 C 
BRANCH  15  16
HETATM   16  C6  UNL     1      39.005  24.304  41.320  1.00  0.00     0.020 C 
BRANCH  16  17
HETATM   17  C7  UNL     1      40.481  24.414  41.578  1.00  0.00     0.002 C 
BRANCH  17  18
HETATM   18  C8  UNL     1      40.938  25.835  41.724  1.00  0.00     0.001 C 
BRANCH  18  19
HETATM   19  C9  UNL     1      40.561  26.728  40.610  1.00  0.00     0.013 C 
BRANCH  19  20
HETATM   20  C10 UNL     1      40.581  28.215  40.990  1.00  0.00     0.146 C 
BRANCH  20  21
HETATM   21  P1  UNL     1      41.248  29.134  39.787  1.00  0.00     0.259 P 
HETATM   22  O1  UNL     1      41.728  30.114  38.711  1.00  0.00    -0.640 OA
HETATM   23  O2  UNL     1      42.464  28.088  39.502  1.00  0.00    -0.640 OA
HETATM   24  O3  UNL     1      41.552  30.354  40.890  1.00  0.00    -0.640 OA
ENDBRANCH  20  21
ENDBRANCH  19  20
ENDBRANCH  18  19
ENDBRANCH  17  18
ENDBRANCH  16  17
ENDBRANCH  15  16
ENDBRANCH  10  15
TORSDOF 7
ENDMDL
