MODEL 6
REMARK VINA RESULT: -8.695168506      3.717     10.434
REMARK  13 active torsions:
REMARK  status: ('A' for Active; 'I' for Inactive)
REMARK    1  A    between atoms: C2_2  and  C4_4 
REMARK    2  A    between atoms: C4_4  and  C5_5 
REMARK    3  A    between atoms: C5_5  and  N1_6 
REMARK    4  A    between atoms: C5_5  and  C15_24 
REMARK    5  A    between atoms: N1_6  and  P1_8 
REMARK    6  A    between atoms: P1_8  and  C6_11 
REMARK    7  A    between atoms: C6_11  and  N2_12 
REMARK       I    between atoms: N2_12  and  C7_14 
REMARK    8  A    between atoms: C7_14  and  O4_16 
REMARK    9  A    between atoms: O4_16  and  C8_17 
REMARK   10  A    between atoms: C8_17  and  C9_18 
REMARK       I    between atoms: C15_24  and  N3_26 
REMARK   11  A    between atoms: N3_26  and  C16_28 
REMARK   12  A    between atoms: C16_28  and  C17_29 
REMARK   13  A    between atoms: C17_29  and  C19_31 
ROOT
HETATM    1  N1  UNL     1      13.343  39.246 -10.246  1.00  0.00    -0.332 N 
ATOM      2  H1  UNL     1      12.551  39.848 -10.471  1.00  0.00     0.164 HD
ENDROOT
BRANCH   1   3
HETATM    3  C5  UNL     1      14.370  39.046 -11.156  1.00  0.00     0.178 C 
BRANCH   3   4
HETATM    4  C4  UNL     1      13.978  38.468 -12.482  1.00  0.00     0.038 C 
BRANCH   4   5
HETATM    5  C2  UNL     1      14.325  37.046 -12.725  1.00  0.00    -0.020 C 
HETATM    6  C1  UNL     1      15.724  36.633 -12.420  1.00  0.00     0.009 C 
HETATM    7  C3  UNL     1      13.270  36.078 -12.224  1.00  0.00     0.009 C 
ENDBRANCH   4   5
ENDBRANCH   3   4
BRANCH   3   8
HETATM    8  C15 UNL     1      15.255  40.258 -11.324  1.00  0.00     0.240 C 
HETATM    9  O5  UNL     1      15.847  40.336 -12.417  1.00  0.00    -0.271 OA
HETATM   10  N3  UNL     1      15.420  41.232 -10.354  1.00  0.00    -0.359 N 
ATOM     11  H3  UNL     1      14.907  41.071  -9.487  1.00  0.00     0.162 HD
BRANCH  10  12
HETATM   12  C16 UNL     1      16.198  42.425 -10.384  1.00  0.00     0.127 C 
BRANCH  12  13
HETATM   13  C17 UNL     1      16.529  43.112  -9.124  1.00  0.00     0.007 C 
HETATM   14  C18 UNL     1      15.418  43.520  -8.241  1.00  0.00     0.012 C 
BRANCH  13  15
HETATM   15  C19 UNL     1      17.467  44.283  -9.447  1.00  0.00    -0.047 C 
HETATM   16  C20 UNL     1      18.741  43.799 -10.065  1.00  0.00     0.015 C 
HETATM   17  C21 UNL     1      16.736  45.202 -10.398  1.00  0.00     0.015 C 
HETATM   18  C22 UNL     1      17.827  45.073  -8.217  1.00  0.00     0.015 C 
ENDBRANCH  13  15
ENDBRANCH  12  13
ENDBRANCH  10  12
ENDBRANCH   3   8
ENDBRANCH   1   3
BRANCH   1  19
HETATM   19  P1  UNL     1      13.442  38.460  -8.751  1.00  0.00     0.246 P 
HETATM   20  O1  UNL     1      14.428  37.058  -8.673  1.00  0.00    -0.648 OA
HETATM   21  O2  UNL     1      12.330  37.468  -9.176  1.00  0.00    -0.648 OA
BRANCH  19  22
HETATM   22  C6  UNL     1      12.754  39.063  -7.315  1.00  0.00     0.190 C 
BRANCH  22  23
HETATM   23  N2  UNL     1      12.256  38.173  -6.286  1.00  0.00    -0.305 N 
HETATM   24  C7  UNL     1      11.066  38.558  -5.587  1.00  0.00     0.365 C 
HETATM   25  O3  UNL     1      10.517  39.647  -5.910  1.00  0.00    -0.238 OA
ATOM     26  H2  UNL     1      12.736  37.300  -6.066  1.00  0.00     0.170 HD
BRANCH  24  27
HETATM   27  O4  UNL     1      10.466  37.841  -4.588  1.00  0.00    -0.299 OA
BRANCH  27  28
HETATM   28  C8  UNL     1       9.229  38.261  -4.015  1.00  0.00     0.219 C 
BRANCH  28  29
HETATM   29  C9  UNL     1       9.378  38.279  -2.526  1.00  0.00    -0.034 A 
HETATM   30  C10 UNL     1       9.673  39.423  -1.831  1.00  0.00     0.009 A 
HETATM   31  C11 UNL     1       9.797  39.342  -0.443  1.00  0.00     0.001 A 
HETATM   32  C12 UNL     1       9.635  38.163   0.246  1.00  0.00     0.000 A 
HETATM   33  C13 UNL     1       9.334  37.029  -0.509  1.00  0.00     0.001 A 
HETATM   34  C14 UNL     1       9.207  37.082  -1.879  1.00  0.00     0.009 A 
ENDBRANCH  28  29
ENDBRANCH  27  28
ENDBRANCH  24  27
ENDBRANCH  22  23
ENDBRANCH  19  22
ENDBRANCH   1  19
TORSDOF 13
ENDMDL
