MODEL 8
REMARK VINA RESULT: -8.672187311      3.697     10.917
REMARK  13 active torsions:
REMARK  status: ('A' for Active; 'I' for Inactive)
REMARK    1  A    between atoms: C2_2  and  C4_4 
REMARK    2  A    between atoms: C4_4  and  C5_5 
REMARK    3  A    between atoms: C5_5  and  N1_6 
REMARK    4  A    between atoms: C5_5  and  C15_24 
REMARK    5  A    between atoms: N1_6  and  P1_8 
REMARK    6  A    between atoms: P1_8  and  C6_11 
REMARK    7  A    between atoms: C6_11  and  N2_12 
REMARK       I    between atoms: N2_12  and  C7_14 
REMARK    8  A    between atoms: C7_14  and  O4_16 
REMARK    9  A    between atoms: O4_16  and  C8_17 
REMARK   10  A    between atoms: C8_17  and  C9_18 
REMARK       I    between atoms: C15_24  and  N3_26 
REMARK   11  A    between atoms: N3_26  and  C16_28 
REMARK   12  A    between atoms: C16_28  and  C17_29 
REMARK   13  A    between atoms: C17_29  and  C19_31 
ROOT
HETATM    1  N1  UNL     1      13.538  39.196 -10.337  1.00  0.00    -0.332 N 
ATOM      2  H1  UNL     1      12.890  39.954 -10.554  1.00  0.00     0.164 HD
ENDROOT
BRANCH   1   3
HETATM    3  C5  UNL     1      14.453  38.748 -11.277  1.00  0.00     0.178 C 
BRANCH   3   4
HETATM    4  C4  UNL     1      13.883  38.092 -12.498  1.00  0.00     0.038 C 
BRANCH   4   5
HETATM    5  C2  UNL     1      13.822  36.609 -12.500  1.00  0.00    -0.020 C 
HETATM    6  C1  UNL     1      13.462  35.952 -13.788  1.00  0.00     0.009 C 
HETATM    7  C3  UNL     1      14.989  35.962 -11.779  1.00  0.00     0.009 C 
ENDBRANCH   4   5
ENDBRANCH   3   4
BRANCH   3   8
HETATM    8  C15 UNL     1      15.484  39.789 -11.642  1.00  0.00     0.240 C 
HETATM    9  O5  UNL     1      15.364  40.280 -12.780  1.00  0.00    -0.271 OA
HETATM   10  N3  UNL     1      16.504  40.193 -10.797  1.00  0.00    -0.359 N 
ATOM     11  H3  UNL     1      16.529  39.721  -9.893  1.00  0.00     0.162 HD
BRANCH  10  12
HETATM   12  C16 UNL     1      17.523  41.168 -11.000  1.00  0.00     0.127 C 
BRANCH  12  13
HETATM   13  C17 UNL     1      17.533  42.393 -10.181  1.00  0.00     0.007 C 
HETATM   14  C18 UNL     1      16.273  43.147 -10.041  1.00  0.00     0.012 C 
BRANCH  13  15
HETATM   15  C19 UNL     1      18.687  43.282 -10.663  1.00  0.00    -0.047 C 
HETATM   16  C20 UNL     1      18.972  44.376  -9.682  1.00  0.00     0.015 C 
HETATM   17  C21 UNL     1      19.901  42.399 -10.834  1.00  0.00     0.015 C 
HETATM   18  C22 UNL     1      18.386  43.925 -11.990  1.00  0.00     0.015 C 
ENDBRANCH  13  15
ENDBRANCH  12  13
ENDBRANCH  10  12
ENDBRANCH   3   8
ENDBRANCH   1   3
BRANCH   1  19
HETATM   19  P1  UNL     1      13.526  38.449  -8.820  1.00  0.00     0.246 P 
HETATM   20  O1  UNL     1      14.515  37.060  -8.629  1.00  0.00    -0.648 OA
HETATM   21  O2  UNL     1      12.460  37.434  -9.305  1.00  0.00    -0.648 OA
BRANCH  19  22
HETATM   22  C6  UNL     1      12.721  39.079  -7.458  1.00  0.00     0.190 C 
BRANCH  22  23
HETATM   23  N2  UNL     1      12.298  38.222  -6.369  1.00  0.00    -0.305 N 
HETATM   24  C7  UNL     1      11.110  38.586  -5.656  1.00  0.00     0.365 C 
HETATM   25  O3  UNL     1      10.497  39.627  -6.019  1.00  0.00    -0.238 OA
ATOM     26  H2  UNL     1      12.828  37.387  -6.118  1.00  0.00     0.170 HD
BRANCH  24  27
HETATM   27  O4  UNL     1      10.574  37.895  -4.603  1.00  0.00    -0.299 OA
BRANCH  27  28
HETATM   28  C8  UNL     1       9.315  38.261  -4.041  1.00  0.00     0.219 C 
BRANCH  28  29
HETATM   29  C9  UNL     1       9.419  38.176  -2.550  1.00  0.00    -0.034 A 
HETATM   30  C10 UNL     1       9.232  37.004  -1.866  1.00  0.00     0.009 A 
HETATM   31  C11 UNL     1       9.344  37.023  -0.475  1.00  0.00     0.001 A 
HETATM   32  C12 UNL     1       9.631  38.169   0.228  1.00  0.00     0.000 A 
HETATM   33  C13 UNL     1       9.813  39.335  -0.517  1.00  0.00     0.001 A 
HETATM   34  C14 UNL     1       9.708  39.343  -1.889  1.00  0.00     0.009 A 
ENDBRANCH  28  29
ENDBRANCH  27  28
ENDBRANCH  24  27
ENDBRANCH  22  23
ENDBRANCH  19  22
ENDBRANCH   1  19
TORSDOF 13
ENDMDL
