MODEL 4
REMARK VINA RESULT: -8.812466643      3.089     10.326
REMARK  13 active torsions:
REMARK  status: ('A' for Active; 'I' for Inactive)
REMARK    1  A    between atoms: C2_2  and  C4_4 
REMARK    2  A    between atoms: C4_4  and  C5_5 
REMARK    3  A    between atoms: C5_5  and  N1_6 
REMARK    4  A    between atoms: C5_5  and  C15_24 
REMARK    5  A    between atoms: N1_6  and  P1_8 
REMARK    6  A    between atoms: P1_8  and  C6_11 
REMARK    7  A    between atoms: C6_11  and  N2_12 
REMARK       I    between atoms: N2_12  and  C7_14 
REMARK    8  A    between atoms: C7_14  and  O4_16 
REMARK    9  A    between atoms: O4_16  and  C8_17 
REMARK   10  A    between atoms: C8_17  and  C9_18 
REMARK       I    between atoms: C15_24  and  N3_26 
REMARK   11  A    between atoms: N3_26  and  C16_28 
REMARK   12  A    between atoms: C16_28  and  C17_29 
REMARK   13  A    between atoms: C17_29  and  C19_31 
ROOT
HETATM    1  N1  UNL     1      13.850  42.046  -8.363  1.00  0.00    -0.332 N 
ATOM      2  H1  UNL     1      14.390  42.498  -7.624  1.00  0.00     0.164 HD
ENDROOT
BRANCH   1   3
HETATM    3  C5  UNL     1      14.223  42.162  -9.694  1.00  0.00     0.178 C 
BRANCH   3   4
HETATM    4  C4  UNL     1      15.190  43.260 -10.018  1.00  0.00     0.038 C 
BRANCH   4   5
HETATM    5  C2  UNL     1      16.433  43.323  -9.209  1.00  0.00    -0.020 C 
HETATM    6  C1  UNL     1      17.723  43.305  -9.954  1.00  0.00     0.009 C 
HETATM    7  C3  UNL     1      16.373  44.356  -8.100  1.00  0.00     0.009 C 
ENDBRANCH   4   5
ENDBRANCH   3   4
BRANCH   3   8
HETATM    8  C15 UNL     1      14.655  40.850 -10.304  1.00  0.00     0.240 C 
HETATM    9  O5  UNL     1      15.691  40.356  -9.822  1.00  0.00    -0.271 OA
HETATM   10  N3  UNL     1      13.971  40.214 -11.326  1.00  0.00    -0.359 N 
ATOM     11  H3  UNL     1      13.143  40.705 -11.665  1.00  0.00     0.162 HD
BRANCH  10  12
HETATM   12  C16 UNL     1      14.249  38.976 -11.976  1.00  0.00     0.127 C 
BRANCH  12  13
HETATM   13  C17 UNL     1      13.455  37.782 -11.639  1.00  0.00     0.007 C 
HETATM   14  C18 UNL     1      13.303  37.426 -10.215  1.00  0.00     0.012 C 
BRANCH  13  15
HETATM   15  C19 UNL     1      13.980  36.607 -12.475  1.00  0.00    -0.047 C 
HETATM   16  C20 UNL     1      14.079  36.975 -13.922  1.00  0.00     0.015 C 
HETATM   17  C21 UNL     1      15.340  36.233 -11.931  1.00  0.00     0.015 C 
HETATM   18  C22 UNL     1      13.087  35.399 -12.371  1.00  0.00     0.015 C 
ENDBRANCH  13  15
ENDBRANCH  12  13
ENDBRANCH  10  12
ENDBRANCH   3   8
ENDBRANCH   1   3
BRANCH   1  19
HETATM   19  P1  UNL     1      12.473  41.133  -8.000  1.00  0.00     0.246 P 
HETATM   20  O1  UNL     1      11.103  41.358  -9.008  1.00  0.00    -0.648 OA
HETATM   21  O2  UNL     1      11.879  42.314  -7.191  1.00  0.00    -0.648 OA
BRANCH  19  22
HETATM   22  C6  UNL     1      12.427  39.918  -6.808  1.00  0.00     0.190 C 
BRANCH  22  23
HETATM   23  N2  UNL     1      11.270  39.743  -5.954  1.00  0.00    -0.305 N 
HETATM   24  C7  UNL     1      10.867  38.405  -5.641  1.00  0.00     0.365 C 
HETATM   25  O3  UNL     1      11.543  37.455  -6.122  1.00  0.00    -0.238 OA
ATOM     26  H2  UNL     1      10.759  40.546  -5.587  1.00  0.00     0.170 HD
BRANCH  24  27
HETATM   27  O4  UNL     1       9.799  38.061  -4.857  1.00  0.00    -0.299 OA
BRANCH  27  28
HETATM   28  C8  UNL     1       9.140  39.025  -4.038  1.00  0.00     0.219 C 
BRANCH  28  29
HETATM   29  C9  UNL     1       9.358  38.659  -2.603  1.00  0.00    -0.034 A 
HETATM   30  C10 UNL     1       9.579  39.599  -1.631  1.00  0.00     0.009 A 
HETATM   31  C11 UNL     1       9.777  39.163  -0.321  1.00  0.00     0.001 A 
HETATM   32  C12 UNL     1       9.760  37.832   0.027  1.00  0.00     0.000 A 
HETATM   33  C13 UNL     1       9.530  36.917  -1.001  1.00  0.00     0.001 A 
HETATM   34  C14 UNL     1       9.332  37.322  -2.302  1.00  0.00     0.009 A 
ENDBRANCH  28  29
ENDBRANCH  27  28
ENDBRANCH  24  27
ENDBRANCH  22  23
ENDBRANCH  19  22
ENDBRANCH   1  19
TORSDOF 13
ENDMDL
