MODEL 6
REMARK VINA RESULT: -8.258048222      1.918      9.895
REMARK  10 active torsions:
REMARK  status: ('A' for Active; 'I' for Inactive)
REMARK    1  A    between atoms: C2_2  and  C4_4 
REMARK    2  A    between atoms: C4_4  and  C5_5 
REMARK    3  A    between atoms: C5_5  and  N1_6 
REMARK    4  A    between atoms: C5_5  and  C15_24 
REMARK    5  A    between atoms: N1_6  and  P1_8 
REMARK    6  A    between atoms: P1_8  and  C6_11 
REMARK    7  A    between atoms: C6_11  and  N2_12 
REMARK       I    between atoms: N2_12  and  C7_14 
REMARK    8  A    between atoms: C7_14  and  O4_16 
REMARK    9  A    between atoms: O4_16  and  C8_17 
REMARK   10  A    between atoms: C8_17  and  C9_18 
ROOT
HETATM    1  P1  UNL     1      12.975  38.872  -7.976  1.00  0.00     0.224 P 
HETATM    2  O1  UNL     1      13.916  37.617  -8.071  1.00  0.00    -0.651 OA
HETATM    3  O2  UNL     1      12.526  40.324  -7.836  1.00  0.00    -0.651 OA
ENDROOT
BRANCH   1   4
HETATM    4  N1  UNL     1      12.913  38.970  -9.644  1.00  0.00    -0.335 N 
ATOM      5  H1  UNL     1      12.023  39.220 -10.075  1.00  0.00     0.164 HD
BRANCH   4   6
HETATM    6  C5  UNL     1      14.008  38.729 -10.485  1.00  0.00     0.175 C 
BRANCH   6   7
HETATM    7  C4  UNL     1      13.514  37.880 -11.642  1.00  0.00     0.038 C 
BRANCH   7   8
HETATM    8  C2  UNL     1      13.551  36.435 -11.455  1.00  0.00    -0.020 C 
HETATM    9  C1  UNL     1      13.096  35.568 -12.570  1.00  0.00     0.009 C 
HETATM   10  C3  UNL     1      14.921  35.975 -11.000  1.00  0.00     0.009 C 
ENDBRANCH   7   8
ENDBRANCH   6   7
BRANCH   6  11
HETATM   11  C15 UNL     1      14.858  39.828 -10.905  1.00  0.00     0.254 C 
HETATM   12  N3  UNL     1      15.598  40.610  -9.965  1.00  0.00    -0.060 NA
HETATM   13  O5  UNL     1      15.005  40.169 -12.097  1.00  0.00    -0.275 OA
ENDBRANCH   6  11
ENDBRANCH   4   6
ENDBRANCH   1   4
BRANCH   1  14
HETATM   14  C6  UNL     1      11.754  38.090  -7.033  1.00  0.00     0.252 C 
BRANCH  14  15
HETATM   15  N2  UNL     1      11.647  38.749  -5.715  1.00  0.00    -0.325 N 
HETATM   16  C7  UNL     1      10.478  38.587  -4.931  1.00  0.00     0.361 C 
HETATM   17  O3  UNL     1       9.545  37.877  -5.377  1.00  0.00    -0.238 OA
ATOM     18  H2  UNL     1      12.417  39.323  -5.369  1.00  0.00     0.165 HD
BRANCH  16  19
HETATM   19  O4  UNL     1      10.307  39.172  -3.692  1.00  0.00    -0.299 OA
BRANCH  19  20
HETATM   20  C8  UNL     1      10.969  38.820  -2.518  1.00  0.00     0.219 C 
BRANCH  20  21
HETATM   21  C9  UNL     1      10.146  38.171  -1.498  1.00  0.00    -0.034 A 
HETATM   22  C10 UNL     1       9.595  36.939  -1.749  1.00  0.00     0.009 A 
HETATM   23  C11 UNL     1       8.809  36.276  -0.818  1.00  0.00     0.001 A 
HETATM   24  C12 UNL     1       8.576  36.872   0.390  1.00  0.00     0.000 A 
HETATM   25  C13 UNL     1       9.115  38.100   0.663  1.00  0.00     0.001 A 
HETATM   26  C14 UNL     1       9.905  38.759  -0.283  1.00  0.00     0.009 A 
ENDBRANCH  20  21
ENDBRANCH  19  20
ENDBRANCH  16  19
ENDBRANCH  14  15
ENDBRANCH   1  14
TORSDOF 10
ENDMDL
