MODEL 10
REMARK VINA RESULT: -8.191131283      3.185      4.622
REMARK  10 active torsions:
REMARK  status: ('A' for Active; 'I' for Inactive)
REMARK    1  A    between atoms: C2_2  and  C4_4 
REMARK    2  A    between atoms: C4_4  and  C5_5 
REMARK    3  A    between atoms: C5_5  and  N1_6 
REMARK    4  A    between atoms: C5_5  and  C15_24 
REMARK    5  A    between atoms: N1_6  and  P1_8 
REMARK    6  A    between atoms: P1_8  and  C6_11 
REMARK    7  A    between atoms: C6_11  and  N2_12 
REMARK       I    between atoms: N2_12  and  C7_14 
REMARK    8  A    between atoms: C7_14  and  O4_16 
REMARK    9  A    between atoms: O4_16  and  C8_17 
REMARK   10  A    between atoms: C8_17  and  C9_18 
ROOT
HETATM    1  P1  UNL     1       9.195  39.487  -2.647  1.00  0.00     0.224 P 
HETATM    2  O1  UNL     1      10.122  39.763  -1.408  1.00  0.00    -0.651 OA
HETATM    3  O2  UNL     1       7.955  39.132  -3.463  1.00  0.00    -0.651 OA
ENDROOT
BRANCH   1   4
HETATM    4  N1  UNL     1       8.868  41.121  -2.785  1.00  0.00    -0.335 N 
ATOM      5  H1  UNL     1       9.473  41.774  -2.285  1.00  0.00     0.164 HD
BRANCH   4   6
HETATM    6  C5  UNL     1       7.814  41.650  -3.542  1.00  0.00     0.175 C 
BRANCH   6   7
HETATM    7  C4  UNL     1       7.023  42.576  -2.638  1.00  0.00     0.038 C 
BRANCH   7   8
HETATM    8  C2  UNL     1       7.795  43.484  -1.797  1.00  0.00    -0.020 C 
HETATM    9  C1  UNL     1       8.512  44.608  -2.448  1.00  0.00     0.009 C 
HETATM   10  C3  UNL     1       6.954  44.027  -0.661  1.00  0.00     0.009 C 
ENDBRANCH   7   8
ENDBRANCH   6   7
BRANCH   6  11
HETATM   11  C15 UNL     1       8.075  42.216  -4.853  1.00  0.00     0.254 C 
HETATM   12  N3  UNL     1       9.338  42.063  -5.503  1.00  0.00    -0.060 NA
HETATM   13  O5  UNL     1       7.230  42.868  -5.503  1.00  0.00    -0.275 OA
ENDBRANCH   6  11
ENDBRANCH   4   6
ENDBRANCH   1   4
BRANCH   1  14
HETATM   14  C6  UNL     1      10.408  38.688  -3.586  1.00  0.00     0.252 C 
BRANCH  14  15
HETATM   15  N2  UNL     1      10.554  39.367  -4.890  1.00  0.00    -0.325 N 
HETATM   16  C7  UNL     1      11.049  38.656  -6.010  1.00  0.00     0.361 C 
HETATM   17  O3  UNL     1      11.357  37.448  -5.872  1.00  0.00    -0.238 OA
ATOM     18  H2  UNL     1      10.298  40.351  -4.982  1.00  0.00     0.165 HD
BRANCH  16  19
HETATM   19  O4  UNL     1      11.212  39.224  -7.259  1.00  0.00    -0.299 OA
BRANCH  19  20
HETATM   20  C8  UNL     1      12.377  39.805  -7.752  1.00  0.00     0.219 C 
BRANCH  20  21
HETATM   21  C9  UNL     1      12.886  39.239  -9.001  1.00  0.00    -0.034 A 
HETATM   22  C10 UNL     1      13.356  40.072  -9.986  1.00  0.00     0.009 A 
HETATM   23  C11 UNL     1      13.853  39.590 -11.188  1.00  0.00     0.001 A 
HETATM   24  C12 UNL     1      13.875  38.240 -11.397  1.00  0.00     0.000 A 
HETATM   25  C13 UNL     1      13.412  37.389 -10.429  1.00  0.00     0.001 A 
HETATM   26  C14 UNL     1      12.913  37.886  -9.222  1.00  0.00     0.009 A 
ENDBRANCH  20  21
ENDBRANCH  19  20
ENDBRANCH  16  19
ENDBRANCH  14  15
ENDBRANCH   1  14
TORSDOF 10
ENDMDL
