MODEL 9
REMARK VINA RESULT: -8.209474955      2.385      9.194
REMARK  10 active torsions:
REMARK  status: ('A' for Active; 'I' for Inactive)
REMARK    1  A    between atoms: C2_2  and  C4_4 
REMARK    2  A    between atoms: C4_4  and  C5_5 
REMARK    3  A    between atoms: C5_5  and  N1_6 
REMARK    4  A    between atoms: C5_5  and  C15_24 
REMARK    5  A    between atoms: N1_6  and  P1_8 
REMARK    6  A    between atoms: P1_8  and  C6_11 
REMARK    7  A    between atoms: C6_11  and  N2_12 
REMARK       I    between atoms: N2_12  and  C7_14 
REMARK    8  A    between atoms: C7_14  and  O4_16 
REMARK    9  A    between atoms: O4_16  and  C8_17 
REMARK   10  A    between atoms: C8_17  and  C9_18 
ROOT
HETATM    1  P1  UNL     1      12.078  41.307  -7.659  1.00  0.00     0.224 P 
HETATM    2  O1  UNL     1      12.956  42.453  -7.040  1.00  0.00    -0.651 OA
HETATM    3  O2  UNL     1      10.916  40.604  -8.356  1.00  0.00    -0.651 OA
ENDROOT
BRANCH   1   4
HETATM    4  N1  UNL     1      12.932  41.407  -9.093  1.00  0.00    -0.335 N 
ATOM      5  H1  UNL     1      12.627  42.093  -9.784  1.00  0.00     0.164 HD
BRANCH   4   6
HETATM    6  C5  UNL     1      14.039  40.607  -9.404  1.00  0.00     0.175 C 
BRANCH   6   7
HETATM    7  C4  UNL     1      13.615  39.649 -10.501  1.00  0.00     0.038 C 
BRANCH   7   8
HETATM    8  C2  UNL     1      13.255  38.298 -10.084  1.00  0.00    -0.020 C 
HETATM    9  C1  UNL     1      13.315  37.211 -11.092  1.00  0.00     0.009 C 
HETATM   10  C3  UNL     1      14.035  37.877  -8.857  1.00  0.00     0.009 C 
ENDBRANCH   7   8
ENDBRANCH   6   7
BRANCH   6  11
HETATM   11  C15 UNL     1      15.332  41.221  -9.651  1.00  0.00     0.254 C 
HETATM   12  N3  UNL     1      15.639  42.540  -9.197  1.00  0.00    -0.060 NA
HETATM   13  O5  UNL     1      16.258  40.652 -10.266  1.00  0.00    -0.275 OA
ENDBRANCH   6  11
ENDBRANCH   4   6
ENDBRANCH   1   4
BRANCH   1  14
HETATM   14  C6  UNL     1      12.436  40.143  -6.430  1.00  0.00     0.252 C 
BRANCH  14  15
HETATM   15  N2  UNL     1      11.191  39.765  -5.728  1.00  0.00    -0.325 N 
HETATM   16  C7  UNL     1      10.823  38.401  -5.620  1.00  0.00     0.361 C 
HETATM   17  O3  UNL     1      11.570  37.531  -6.128  1.00  0.00    -0.238 OA
ATOM     18  H2  UNL     1      10.597  40.487  -5.322  1.00  0.00     0.165 HD
BRANCH  16  19
HETATM   19  O4  UNL     1       9.677  37.972  -4.980  1.00  0.00    -0.299 OA
BRANCH  19  20
HETATM   20  C8  UNL     1       8.924  38.703  -4.064  1.00  0.00     0.219 C 
BRANCH  20  21
HETATM   21  C9  UNL     1       9.265  38.494  -2.657  1.00  0.00    -0.034 A 
HETATM   22  C10 UNL     1       9.498  39.575  -1.844  1.00  0.00     0.009 A 
HETATM   23  C11 UNL     1       9.822  39.436  -0.502  1.00  0.00     0.001 A 
HETATM   24  C12 UNL     1       9.911  38.178   0.026  1.00  0.00     0.000 A 
HETATM   25  C13 UNL     1       9.682  37.085  -0.764  1.00  0.00     0.001 A 
HETATM   26  C14 UNL     1       9.357  37.237  -2.116  1.00  0.00     0.009 A 
ENDBRANCH  20  21
ENDBRANCH  19  20
ENDBRANCH  16  19
ENDBRANCH  14  15
ENDBRANCH   1  14
TORSDOF 10
ENDMDL
