MODEL 10
REMARK VINA RESULT: -8.337274809      2.644     10.832
REMARK  13 active torsions:
REMARK  status: ('A' for Active; 'I' for Inactive)
REMARK    1  A    between atoms: C2_2  and  C3_3 
REMARK    2  A    between atoms: C3_3  and  C5_5 
REMARK    3  A    between atoms: C5_5  and  N1_6 
REMARK       I    between atoms: N1_6  and  C6_8 
REMARK    4  A    between atoms: C6_8  and  C7_10 
REMARK    5  A    between atoms: C7_10  and  C8_11 
REMARK    6  A    between atoms: C7_10  and  N2_15 
REMARK    7  A    between atoms: C8_11  and  C9_12 
REMARK    8  A    between atoms: N2_15  and  P1_17 
REMARK    9  A    between atoms: P1_17  and  C12_20 
REMARK   10  A    between atoms: C12_20  and  N3_21 
REMARK       I    between atoms: N3_21  and  C13_23 
REMARK   11  A    between atoms: C13_23  and  O5_25 
REMARK   12  A    between atoms: O5_25  and  C14_26 
REMARK   13  A    between atoms: C14_26  and  C15_27 
ROOT
HETATM    1  N2  UNL     1      14.956  39.033  -9.678  1.00  0.00    -0.332 N 
ATOM      2  H2  UNL     1      15.842  38.615  -9.392  1.00  0.00     0.164 HD
ENDROOT
BRANCH   1   3
HETATM    3  C7  UNL     1      14.994  40.088 -10.641  1.00  0.00     0.178 C 
BRANCH   3   4
HETATM    4  C6  UNL     1      15.435  39.481 -11.959  1.00  0.00     0.240 C 
HETATM    5  N1  UNL     1      15.683  38.099 -12.067  1.00  0.00    -0.359 N 
ATOM      6  H1  UNL     1      15.550  37.567 -11.208  1.00  0.00     0.162 HD
HETATM    7  O1  UNL     1      15.585  40.189 -12.963  1.00  0.00    -0.271 OA
BRANCH   5   8
HETATM    8  C5  UNL     1      16.089  37.337 -13.194  1.00  0.00     0.126 C 
BRANCH   8   9
HETATM    9  C3  UNL     1      15.112  36.453 -13.861  1.00  0.00    -0.001 C 
HETATM   10  C4  UNL     1      15.292  36.300 -15.321  1.00  0.00     0.011 C 
BRANCH   9  11
HETATM   11  C2  UNL     1      13.686  36.623 -13.391  1.00  0.00     0.001 C 
HETATM   12  C1  UNL     1      13.334  35.352 -12.610  1.00  0.00     0.005 C 
ENDBRANCH   9  11
ENDBRANCH   8   9
ENDBRANCH   5   8
ENDBRANCH   3   4
BRANCH   3  13
HETATM   13  C8  UNL     1      15.951  41.151 -10.203  1.00  0.00     0.038 C 
BRANCH  13  14
HETATM   14  C9  UNL     1      15.380  42.121  -9.230  1.00  0.00    -0.020 C 
HETATM   15  C10 UNL     1      16.318  43.329  -9.102  1.00  0.00     0.009 C 
HETATM   16  C11 UNL     1      14.011  42.604  -9.577  1.00  0.00     0.009 C 
ENDBRANCH  13  14
ENDBRANCH   3  13
ENDBRANCH   1   3
BRANCH   1  17
HETATM   17  P1  UNL     1      13.585  38.454  -9.007  1.00  0.00     0.246 P 
HETATM   18  O2  UNL     1      12.589  37.304  -9.829  1.00  0.00    -0.648 OA
HETATM   19  O3  UNL     1      14.189  37.230  -8.313  1.00  0.00    -0.648 OA
BRANCH  17  20
HETATM   20  C12 UNL     1      12.856  39.203  -7.582  1.00  0.00     0.190 C 
BRANCH  20  21
HETATM   21  N3  UNL     1      12.254  38.345  -6.599  1.00  0.00    -0.305 N 
HETATM   22  C13 UNL     1      11.106  38.757  -5.831  1.00  0.00     0.365 C 
HETATM   23  O4  UNL     1      10.623  39.886  -6.027  1.00  0.00    -0.238 OA
ATOM     24  H3  UNL     1      12.650  37.418  -6.442  1.00  0.00     0.170 HD
BRANCH  22  25
HETATM   25  O5  UNL     1      10.527  37.927  -4.882  1.00  0.00    -0.299 OA
BRANCH  25  26
HETATM   26  C14 UNL     1       9.286  38.231  -4.287  1.00  0.00     0.219 C 
BRANCH  26  27
HETATM   27  C15 UNL     1       9.463  38.194  -2.815  1.00  0.00    -0.034 A 
HETATM   28  C16 UNL     1       9.696  39.336  -2.074  1.00  0.00     0.009 A 
HETATM   29  C17 UNL     1       9.860  39.321  -0.711  1.00  0.00     0.001 A 
HETATM   30  C18 UNL     1       9.795  38.138  -0.021  1.00  0.00     0.000 A 
HETATM   31  C19 UNL     1       9.564  36.982  -0.727  1.00  0.00     0.001 A 
HETATM   32  C20 UNL     1       9.402  37.011  -2.089  1.00  0.00     0.009 A 
ENDBRANCH  26  27
ENDBRANCH  25  26
ENDBRANCH  22  25
ENDBRANCH  20  21
ENDBRANCH  17  20
ENDBRANCH   1  17
TORSDOF 13
ENDMDL
