MODEL 8
REMARK VINA RESULT: -8.444987940      3.262     10.047
REMARK  13 active torsions:
REMARK  status: ('A' for Active; 'I' for Inactive)
REMARK    1  A    between atoms: C2_2  and  C3_3 
REMARK    2  A    between atoms: C3_3  and  C5_5 
REMARK    3  A    between atoms: C5_5  and  N1_6 
REMARK       I    between atoms: N1_6  and  C6_8 
REMARK    4  A    between atoms: C6_8  and  C7_10 
REMARK    5  A    between atoms: C7_10  and  C8_11 
REMARK    6  A    between atoms: C7_10  and  N2_15 
REMARK    7  A    between atoms: C8_11  and  C9_12 
REMARK    8  A    between atoms: N2_15  and  P1_17 
REMARK    9  A    between atoms: P1_17  and  C12_20 
REMARK   10  A    between atoms: C12_20  and  N3_21 
REMARK       I    between atoms: N3_21  and  C13_23 
REMARK   11  A    between atoms: C13_23  and  O5_25 
REMARK   12  A    between atoms: O5_25  and  C14_26 
REMARK   13  A    between atoms: C14_26  and  C15_27 
ROOT
HETATM    1  N2  UNL     1      12.677  39.991  -9.260  1.00  0.00    -0.332 N 
ATOM      2  H2  UNL     1      11.916  40.329  -9.849  1.00  0.00     0.164 HD
ENDROOT
BRANCH   1   3
HETATM    3  C7  UNL     1      13.911  39.645  -9.894  1.00  0.00     0.178 C 
BRANCH   3   4
HETATM    4  C6  UNL     1      14.592  40.939 -10.293  1.00  0.00     0.240 C 
HETATM    5  N1  UNL     1      15.328  41.685  -9.352  1.00  0.00    -0.359 N 
ATOM      6  H1  UNL     1      15.353  41.292  -8.411  1.00  0.00     0.162 HD
HETATM    7  O1  UNL     1      14.514  41.364 -11.453  1.00  0.00    -0.271 OA
BRANCH   5   8
HETATM    8  C5  UNL     1      16.042  42.902  -9.517  1.00  0.00     0.126 C 
BRANCH   8   9
HETATM    9  C3  UNL     1      16.275  43.769  -8.346  1.00  0.00    -0.001 C 
HETATM   10  C4  UNL     1      15.153  43.850  -7.385  1.00  0.00     0.011 C 
BRANCH   9  11
HETATM   11  C2  UNL     1      16.965  45.077  -8.658  1.00  0.00     0.001 C 
HETATM   12  C1  UNL     1      18.418  44.726  -9.001  1.00  0.00     0.005 C 
ENDBRANCH   9  11
ENDBRANCH   8   9
ENDBRANCH   5   8
ENDBRANCH   3   4
BRANCH   3  13
HETATM   13  C8  UNL     1      13.650  38.793 -11.096  1.00  0.00     0.038 C 
BRANCH  13  14
HETATM   14  C9  UNL     1      13.410  37.358 -10.784  1.00  0.00    -0.020 C 
HETATM   15  C10 UNL     1      13.437  36.542 -12.084  1.00  0.00     0.009 C 
HETATM   16  C11 UNL     1      14.384  36.768  -9.821  1.00  0.00     0.009 C 
ENDBRANCH  13  14
ENDBRANCH   3  13
ENDBRANCH   1   3
BRANCH   1  17
HETATM   17  P1  UNL     1      12.410  39.879  -7.653  1.00  0.00     0.246 P 
HETATM   18  O2  UNL     1      12.653  41.229  -6.599  1.00  0.00    -0.648 OA
HETATM   19  O3  UNL     1      10.943  40.317  -7.652  1.00  0.00    -0.648 OA
BRANCH  17  20
HETATM   20  C12 UNL     1      12.198  38.320  -6.850  1.00  0.00     0.190 C 
BRANCH  20  21
HETATM   21  N3  UNL     1      11.944  38.317  -5.436  1.00  0.00    -0.305 N 
HETATM   22  C13 UNL     1      10.611  38.176  -4.903  1.00  0.00     0.365 C 
HETATM   23  O4  UNL     1       9.657  38.051  -5.691  1.00  0.00    -0.238 OA
ATOM     24  H3  UNL     1      12.728  38.417  -4.791  1.00  0.00     0.170 HD
BRANCH  22  25
HETATM   25  O5  UNL     1      10.369  38.174  -3.537  1.00  0.00    -0.299 OA
BRANCH  25  26
HETATM   26  C14 UNL     1       9.394  37.337  -2.957  1.00  0.00     0.219 C 
BRANCH  26  27
HETATM   27  C15 UNL     1       9.319  37.656  -1.510  1.00  0.00    -0.034 A 
HETATM   28  C16 UNL     1       9.998  38.723  -0.957  1.00  0.00     0.009 A 
HETATM   29  C17 UNL     1       9.939  39.034   0.379  1.00  0.00     0.001 A 
HETATM   30  C18 UNL     1       9.182  38.273   1.232  1.00  0.00     0.000 A 
HETATM   31  C19 UNL     1       8.492  37.202   0.714  1.00  0.00     0.001 A 
HETATM   32  C20 UNL     1       8.560  36.903  -0.623  1.00  0.00     0.009 A 
ENDBRANCH  26  27
ENDBRANCH  25  26
ENDBRANCH  22  25
ENDBRANCH  20  21
ENDBRANCH  17  20
ENDBRANCH   1  17
TORSDOF 13
ENDMDL
