MODEL 6
REMARK VINA RESULT: -8.524516771      2.816     10.207
REMARK  13 active torsions:
REMARK  status: ('A' for Active; 'I' for Inactive)
REMARK    1  A    between atoms: C2_2  and  C3_3 
REMARK    2  A    between atoms: C3_3  and  C5_5 
REMARK    3  A    between atoms: C5_5  and  N1_6 
REMARK       I    between atoms: N1_6  and  C6_8 
REMARK    4  A    between atoms: C6_8  and  C7_10 
REMARK    5  A    between atoms: C7_10  and  C8_11 
REMARK    6  A    between atoms: C7_10  and  N2_15 
REMARK    7  A    between atoms: C8_11  and  C9_12 
REMARK    8  A    between atoms: N2_15  and  P1_17 
REMARK    9  A    between atoms: P1_17  and  C12_20 
REMARK   10  A    between atoms: C12_20  and  N3_21 
REMARK       I    between atoms: N3_21  and  C13_23 
REMARK   11  A    between atoms: C13_23  and  O5_25 
REMARK   12  A    between atoms: O5_25  and  C14_26 
REMARK   13  A    between atoms: C14_26  and  C15_27 
ROOT
HETATM    1  N2  UNL     1      12.587  38.725  -9.193  1.00  0.00    -0.332 N 
ATOM      2  H2  UNL     1      11.788  38.283  -9.646  1.00  0.00     0.164 HD
ENDROOT
BRANCH   1   3
HETATM    3  C7  UNL     1      13.767  38.935  -9.972  1.00  0.00     0.178 C 
BRANCH   3   4
HETATM    4  C6  UNL     1      13.936  40.433 -10.140  1.00  0.00     0.240 C 
HETATM    5  N1  UNL     1      15.005  41.110  -9.522  1.00  0.00    -0.359 N 
ATOM      6  H1  UNL     1      15.626  40.524  -8.965  1.00  0.00     0.162 HD
HETATM    7  O1  UNL     1      13.138  41.087 -10.824  1.00  0.00    -0.271 OA
BRANCH   5   8
HETATM    8  C5  UNL     1      15.347  42.488  -9.557  1.00  0.00     0.126 C 
BRANCH   8   9
HETATM    9  C3  UNL     1      16.651  42.896 -10.117  1.00  0.00    -0.001 C 
HETATM   10  C4  UNL     1      17.428  41.817 -10.763  1.00  0.00     0.011 C 
BRANCH   9  11
HETATM   11  C2  UNL     1      17.443  43.840  -9.242  1.00  0.00     0.001 C 
HETATM   12  C1  UNL     1      16.528  44.212  -8.069  1.00  0.00     0.005 C 
ENDBRANCH   9  11
ENDBRANCH   8   9
ENDBRANCH   5   8
ENDBRANCH   3   4
BRANCH   3  13
HETATM   13  C8  UNL     1      13.631  38.267 -11.303  1.00  0.00     0.038 C 
BRANCH  13  14
HETATM   14  C9  UNL     1      13.578  36.781 -11.235  1.00  0.00    -0.020 C 
HETATM   15  C10 UNL     1      13.276  36.216 -12.629  1.00  0.00     0.009 C 
HETATM   16  C11 UNL     1      14.823  36.146 -10.713  1.00  0.00     0.009 C 
ENDBRANCH  13  14
ENDBRANCH   3  13
ENDBRANCH   1   3
BRANCH   1  17
HETATM   17  P1  UNL     1      12.437  39.149  -7.623  1.00  0.00     0.246 P 
HETATM   18  O2  UNL     1      12.926  40.708  -7.056  1.00  0.00    -0.648 OA
HETATM   19  O3  UNL     1      11.040  39.768  -7.703  1.00  0.00    -0.648 OA
BRANCH  17  20
HETATM   20  C12 UNL     1      12.102  37.957  -6.363  1.00  0.00     0.190 C 
BRANCH  20  21
HETATM   21  N3  UNL     1      11.700  38.435  -5.069  1.00  0.00    -0.305 N 
HETATM   22  C13 UNL     1      10.319  38.429  -4.652  1.00  0.00     0.365 C 
HETATM   23  O4  UNL     1       9.455  37.995  -5.435  1.00  0.00    -0.238 OA
ATOM     24  H3  UNL     1      12.410  38.788  -4.428  1.00  0.00     0.170 HD
BRANCH  22  25
HETATM   25  O5  UNL     1       9.933  38.892  -3.403  1.00  0.00    -0.299 OA
BRANCH  25  26
HETATM   26  C14 UNL     1      10.764  38.756  -2.272  1.00  0.00     0.219 C 
BRANCH  26  27
HETATM   27  C15 UNL     1       9.945  38.200  -1.167  1.00  0.00    -0.034 A 
HETATM   28  C16 UNL     1       9.219  37.034  -1.306  1.00  0.00     0.009 A 
HETATM   29  C17 UNL     1       8.458  36.504  -0.294  1.00  0.00     0.001 A 
HETATM   30  C18 UNL     1       8.392  37.132   0.923  1.00  0.00     0.000 A 
HETATM   31  C19 UNL     1       9.103  38.296   1.096  1.00  0.00     0.001 A 
HETATM   32  C20 UNL     1       9.860  38.815   0.076  1.00  0.00     0.009 A 
ENDBRANCH  26  27
ENDBRANCH  25  26
ENDBRANCH  22  25
ENDBRANCH  20  21
ENDBRANCH  17  20
ENDBRANCH   1  17
TORSDOF 13
ENDMDL
