MODEL 9
REMARK VINA RESULT: -8.345575733      3.316     10.034
REMARK  13 active torsions:
REMARK  status: ('A' for Active; 'I' for Inactive)
REMARK    1  A    between atoms: C2_2  and  C3_3 
REMARK    2  A    between atoms: C3_3  and  C5_5 
REMARK    3  A    between atoms: C5_5  and  N1_6 
REMARK       I    between atoms: N1_6  and  C6_8 
REMARK    4  A    between atoms: C6_8  and  C7_10 
REMARK    5  A    between atoms: C7_10  and  C8_11 
REMARK    6  A    between atoms: C7_10  and  N2_15 
REMARK    7  A    between atoms: C8_11  and  C9_12 
REMARK    8  A    between atoms: N2_15  and  P1_17 
REMARK    9  A    between atoms: P1_17  and  C12_20 
REMARK   10  A    between atoms: C12_20  and  N3_21 
REMARK       I    between atoms: N3_21  and  C13_23 
REMARK   11  A    between atoms: C13_23  and  O5_25 
REMARK   12  A    between atoms: O5_25  and  C14_26 
REMARK   13  A    between atoms: C14_26  and  C15_27 
ROOT
HETATM    1  N2  UNL     1      12.947  40.259  -9.234  1.00  0.00    -0.332 N 
ATOM      2  H2  UNL     1      12.388  40.857  -9.843  1.00  0.00     0.164 HD
ENDROOT
BRANCH   1   3
HETATM    3  C7  UNL     1      14.062  39.574  -9.810  1.00  0.00     0.178 C 
BRANCH   3   4
HETATM    4  C6  UNL     1      15.078  40.624 -10.213  1.00  0.00     0.240 C 
HETATM    5  N1  UNL     1      15.002  41.933  -9.700  1.00  0.00    -0.359 N 
ATOM      6  H1  UNL     1      14.226  42.104  -9.062  1.00  0.00     0.162 HD
HETATM    7  O1  UNL     1      15.993  40.349 -11.001  1.00  0.00    -0.271 OA
BRANCH   5   8
HETATM    8  C5  UNL     1      15.847  43.050  -9.938  1.00  0.00     0.126 C 
BRANCH   8   9
HETATM    9  C3  UNL     1      16.543  43.687  -8.802  1.00  0.00    -0.001 C 
HETATM   10  C4  UNL     1      15.666  44.180  -7.719  1.00  0.00     0.011 C 
BRANCH   9  11
HETATM   11  C2  UNL     1      17.679  44.603  -9.194  1.00  0.00     0.001 C 
HETATM   12  C1  UNL     1      18.062  45.381  -7.931  1.00  0.00     0.005 C 
ENDBRANCH   9  11
ENDBRANCH   8   9
ENDBRANCH   5   8
ENDBRANCH   3   4
BRANCH   3  13
HETATM   13  C8  UNL     1      13.620  38.782 -10.999  1.00  0.00     0.038 C 
BRANCH  13  14
HETATM   14  C9  UNL     1      13.536  37.316 -10.757  1.00  0.00    -0.020 C 
HETATM   15  C10 UNL     1      13.364  36.586 -12.096  1.00  0.00     0.009 C 
HETATM   16  C11 UNL     1      14.712  36.743 -10.040  1.00  0.00     0.009 C 
ENDBRANCH  13  14
ENDBRANCH   3  13
ENDBRANCH   1   3
BRANCH   1  17
HETATM   17  P1  UNL     1      12.512  40.145  -7.664  1.00  0.00     0.246 P 
HETATM   18  O2  UNL     1      12.585  41.509  -6.603  1.00  0.00    -0.648 OA
HETATM   19  O3  UNL     1      11.038  40.522  -7.826  1.00  0.00    -0.648 OA
BRANCH  17  20
HETATM   20  C12 UNL     1      12.277  38.582  -6.873  1.00  0.00     0.190 C 
BRANCH  20  21
HETATM   21  N3  UNL     1      12.028  38.572  -5.458  1.00  0.00    -0.305 N 
HETATM   22  C13 UNL     1      10.695  38.451  -4.922  1.00  0.00     0.365 C 
HETATM   23  O4  UNL     1       9.736  38.352  -5.708  1.00  0.00    -0.238 OA
ATOM     24  H3  UNL     1      12.817  38.651  -4.816  1.00  0.00     0.170 HD
BRANCH  22  25
HETATM   25  O5  UNL     1      10.457  38.442  -3.556  1.00  0.00    -0.299 OA
BRANCH  25  26
HETATM   26  C14 UNL     1       9.599  37.496  -2.958  1.00  0.00     0.219 C 
BRANCH  26  27
HETATM   27  C15 UNL     1       9.485  37.829  -1.516  1.00  0.00    -0.034 A 
HETATM   28  C16 UNL     1      10.195  38.865  -0.943  1.00  0.00     0.009 A 
HETATM   29  C17 UNL     1      10.100  39.188   0.388  1.00  0.00     0.001 A 
HETATM   30  C18 UNL     1       9.272  38.472   1.215  1.00  0.00     0.000 A 
HETATM   31  C19 UNL     1       8.551  37.434   0.677  1.00  0.00     0.001 A 
HETATM   32  C20 UNL     1       8.655  37.122  -0.655  1.00  0.00     0.009 A 
ENDBRANCH  26  27
ENDBRANCH  25  26
ENDBRANCH  22  25
ENDBRANCH  20  21
ENDBRANCH  17  20
ENDBRANCH   1  17
TORSDOF 13
ENDMDL
