MODEL 6
REMARK VINA RESULT: -8.511156057      2.963      9.923
REMARK  13 active torsions:
REMARK  status: ('A' for Active; 'I' for Inactive)
REMARK    1  A    between atoms: C2_2  and  C3_3 
REMARK    2  A    between atoms: C3_3  and  C5_5 
REMARK    3  A    between atoms: C5_5  and  N1_6 
REMARK       I    between atoms: N1_6  and  C6_8 
REMARK    4  A    between atoms: C6_8  and  C7_10 
REMARK    5  A    between atoms: C7_10  and  C8_11 
REMARK    6  A    between atoms: C7_10  and  N2_15 
REMARK    7  A    between atoms: C8_11  and  C9_12 
REMARK    8  A    between atoms: N2_15  and  P1_17 
REMARK    9  A    between atoms: P1_17  and  C12_20 
REMARK   10  A    between atoms: C12_20  and  N3_21 
REMARK       I    between atoms: N3_21  and  C13_23 
REMARK   11  A    between atoms: C13_23  and  O5_25 
REMARK   12  A    between atoms: O5_25  and  C14_26 
REMARK   13  A    between atoms: C14_26  and  C15_27 
ROOT
HETATM    1  N2  UNL     1      12.639  39.006  -9.198  1.00  0.00    -0.332 N 
ATOM      2  H2  UNL     1      11.849  38.560  -9.664  1.00  0.00     0.164 HD
ENDROOT
BRANCH   1   3
HETATM    3  C7  UNL     1      13.826  39.232  -9.961  1.00  0.00     0.178 C 
BRANCH   3   4
HETATM    4  C6  UNL     1      13.968  40.731 -10.142  1.00  0.00     0.240 C 
HETATM    5  N1  UNL     1      14.968  41.447  -9.456  1.00  0.00    -0.359 N 
ATOM      6  H1  UNL     1      15.560  40.887  -8.844  1.00  0.00     0.162 HD
HETATM    7  O1  UNL     1      13.207  41.352 -10.896  1.00  0.00    -0.271 OA
BRANCH   5   8
HETATM    8  C5  UNL     1      15.275  42.834  -9.490  1.00  0.00     0.126 C 
BRANCH   8   9
HETATM    9  C3  UNL     1      15.801  43.488  -8.276  1.00  0.00    -0.001 C 
HETATM   10  C4  UNL     1      14.779  43.939  -7.307  1.00  0.00     0.011 C 
BRANCH   9  11
HETATM   11  C2  UNL     1      16.939  44.452  -8.524  1.00  0.00     0.001 C 
HETATM   12  C1  UNL     1      17.759  43.864  -9.678  1.00  0.00     0.005 C 
ENDBRANCH   9  11
ENDBRANCH   8   9
ENDBRANCH   5   8
ENDBRANCH   3   4
BRANCH   3  13
HETATM   13  C8  UNL     1      13.723  38.548 -11.288  1.00  0.00     0.038 C 
BRANCH  13  14
HETATM   14  C9  UNL     1      13.671  37.063 -11.203  1.00  0.00    -0.020 C 
HETATM   15  C10 UNL     1      13.364  36.483 -12.591  1.00  0.00     0.009 C 
HETATM   16  C11 UNL     1      14.918  36.434 -10.680  1.00  0.00     0.009 C 
ENDBRANCH  13  14
ENDBRANCH   3  13
ENDBRANCH   1   3
BRANCH   1  17
HETATM   17  P1  UNL     1      12.468  39.416  -7.626  1.00  0.00     0.246 P 
HETATM   18  O2  UNL     1      12.915  40.983  -7.046  1.00  0.00    -0.648 OA
HETATM   19  O3  UNL     1      11.056  40.001  -7.713  1.00  0.00    -0.648 OA
BRANCH  17  20
HETATM   20  C12 UNL     1      12.153  38.208  -6.376  1.00  0.00     0.190 C 
BRANCH  20  21
HETATM   21  N3  UNL     1      11.773  38.670  -5.070  1.00  0.00    -0.305 N 
HETATM   22  C13 UNL     1      10.403  38.637  -4.621  1.00  0.00     0.365 C 
HETATM   23  O4  UNL     1       9.528  38.195  -5.387  1.00  0.00    -0.238 OA
ATOM     24  H3  UNL     1      12.492  39.030  -4.443  1.00  0.00     0.170 HD
BRANCH  22  25
HETATM   25  O5  UNL     1      10.038  39.084  -3.360  1.00  0.00    -0.299 OA
BRANCH  25  26
HETATM   26  C14 UNL     1      10.873  38.903  -2.238  1.00  0.00     0.219 C 
BRANCH  26  27
HETATM   27  C15 UNL     1      10.038  38.384  -1.126  1.00  0.00    -0.034 A 
HETATM   28  C16 UNL     1       9.297  37.225  -1.242  1.00  0.00     0.009 A 
HETATM   29  C17 UNL     1       8.521  36.730  -0.224  1.00  0.00     0.001 A 
HETATM   30  C18 UNL     1       8.454  37.389   0.977  1.00  0.00     0.000 A 
HETATM   31  C19 UNL     1       9.180  38.547   1.127  1.00  0.00     0.001 A 
HETATM   32  C20 UNL     1       9.951  39.030   0.101  1.00  0.00     0.009 A 
ENDBRANCH  26  27
ENDBRANCH  25  26
ENDBRANCH  22  25
ENDBRANCH  20  21
ENDBRANCH  17  20
ENDBRANCH   1  17
TORSDOF 13
ENDMDL
