MODEL 8
REMARK VINA RESULT: -8.369135683      3.139      9.782
REMARK  13 active torsions:
REMARK  status: ('A' for Active; 'I' for Inactive)
REMARK    1  A    between atoms: C2_2  and  C3_3 
REMARK    2  A    between atoms: C3_3  and  C5_5 
REMARK    3  A    between atoms: C5_5  and  N1_6 
REMARK       I    between atoms: N1_6  and  C6_8 
REMARK    4  A    between atoms: C6_8  and  C7_10 
REMARK    5  A    between atoms: C7_10  and  C8_11 
REMARK    6  A    between atoms: C7_10  and  N2_15 
REMARK    7  A    between atoms: C8_11  and  C9_12 
REMARK    8  A    between atoms: N2_15  and  P1_17 
REMARK    9  A    between atoms: P1_17  and  C12_20 
REMARK   10  A    between atoms: C12_20  and  N3_21 
REMARK       I    between atoms: N3_21  and  C13_23 
REMARK   11  A    between atoms: C13_23  and  O5_25 
REMARK   12  A    between atoms: O5_25  and  C14_26 
REMARK   13  A    between atoms: C14_26  and  C15_27 
ROOT
HETATM    1  N2  UNL     1      12.785  40.096  -9.310  1.00  0.00    -0.332 N 
ATOM      2  H2  UNL     1      12.038  40.459  -9.901  1.00  0.00     0.164 HD
ENDROOT
BRANCH   1   3
HETATM    3  C7  UNL     1      14.000  39.687  -9.943  1.00  0.00     0.178 C 
BRANCH   3   4
HETATM    4  C6  UNL     1      14.731  40.945 -10.371  1.00  0.00     0.240 C 
HETATM    5  N1  UNL     1      15.526  41.661  -9.455  1.00  0.00    -0.359 N 
ATOM      6  H1  UNL     1      15.557  41.274  -8.512  1.00  0.00     0.162 HD
HETATM    7  O1  UNL     1      14.643  41.365 -11.532  1.00  0.00    -0.271 OA
BRANCH   5   8
HETATM    8  C5  UNL     1      16.292  42.842  -9.649  1.00  0.00     0.126 C 
BRANCH   8   9
HETATM    9  C3  UNL     1      16.129  43.973  -8.714  1.00  0.00    -0.001 C 
HETATM   10  C4  UNL     1      17.368  44.714  -8.395  1.00  0.00     0.011 C 
BRANCH   9  11
HETATM   11  C2  UNL     1      15.212  43.696  -7.546  1.00  0.00     0.001 C 
HETATM   12  C1  UNL     1      14.327  44.938  -7.387  1.00  0.00     0.005 C 
ENDBRANCH   9  11
ENDBRANCH   8   9
ENDBRANCH   5   8
ENDBRANCH   3   4
BRANCH   3  13
HETATM   13  C8  UNL     1      13.698  38.824 -11.127  1.00  0.00     0.038 C 
BRANCH  13  14
HETATM   14  C9  UNL     1      13.522  37.383 -10.801  1.00  0.00    -0.020 C 
HETATM   15  C10 UNL     1      13.326  36.586 -12.097  1.00  0.00     0.009 C 
HETATM   16  C11 UNL     1      14.651  36.786 -10.030  1.00  0.00     0.009 C 
ENDBRANCH  13  14
ENDBRANCH   3  13
ENDBRANCH   1   3
BRANCH   1  17
HETATM   17  P1  UNL     1      12.520  40.018  -7.701  1.00  0.00     0.246 P 
HETATM   18  O2  UNL     1      12.755  41.391  -6.676  1.00  0.00    -0.648 OA
HETATM   19  O3  UNL     1      11.050  40.445  -7.708  1.00  0.00    -0.648 OA
BRANCH  17  20
HETATM   20  C12 UNL     1      12.319  38.475  -6.863  1.00  0.00     0.190 C 
BRANCH  20  21
HETATM   21  N3  UNL     1      12.057  38.501  -5.451  1.00  0.00    -0.305 N 
HETATM   22  C13 UNL     1      10.718  38.397  -4.924  1.00  0.00     0.365 C 
HETATM   23  O4  UNL     1       9.767  38.278  -5.716  1.00  0.00    -0.238 OA
ATOM     24  H3  UNL     1      12.839  38.597  -4.803  1.00  0.00     0.170 HD
BRANCH  22  25
HETATM   25  O5  UNL     1      10.468  38.424  -3.560  1.00  0.00    -0.299 OA
BRANCH  25  26
HETATM   26  C14 UNL     1       9.665  37.448  -2.933  1.00  0.00     0.219 C 
BRANCH  26  27
HETATM   27  C15 UNL     1       9.519  37.825  -1.505  1.00  0.00    -0.034 A 
HETATM   28  C16 UNL     1       8.702  37.125  -0.641  1.00  0.00     0.009 A 
HETATM   29  C17 UNL     1       8.556  37.458   0.683  1.00  0.00     0.001 A 
HETATM   30  C18 UNL     1       9.236  38.528   1.205  1.00  0.00     0.000 A 
HETATM   31  C19 UNL     1      10.059  39.248   0.371  1.00  0.00     0.001 A 
HETATM   32  C20 UNL     1      10.196  38.903  -0.949  1.00  0.00     0.009 A 
ENDBRANCH  26  27
ENDBRANCH  25  26
ENDBRANCH  22  25
ENDBRANCH  20  21
ENDBRANCH  17  20
ENDBRANCH   1  17
TORSDOF 13
ENDMDL
