MODEL 3
REMARK VINA RESULT: -8.827260462      1.479      2.218
REMARK  7 active torsions:
REMARK  status: ('A' for Active; 'I' for Inactive)
REMARK    1  A    between atoms: C6_12  and  N4_13 
REMARK    2  A    between atoms: N4_13  and  C7_15 
REMARK    3  A    between atoms: C7_15  and  C8_16 
REMARK    4  A    between atoms: C8_16  and  C9_17 
REMARK    5  A    between atoms: C12_20  and  C13_21 
REMARK    6  A    between atoms: C13_21  and  C14_22 
REMARK    7  A    between atoms: C14_22  and  O2_23 
ROOT
HETATM    1  N1  UNL     1     108.791  19.376  23.594  1.00  0.00    -0.063 NA
HETATM    2  C1  UNL     1     108.152  19.235  22.343  1.00  0.00     0.195 A 
HETATM    3  N2  UNL     1     106.896  18.744  22.217  1.00  0.00    -0.297 N 
ATOM      4  H2  UNL     1     106.374  18.459  23.046  1.00  0.00     0.171 HD
HETATM    5  C2  UNL     1     106.337  18.634  20.999  1.00  0.00     0.260 A 
HETATM    6  O1  UNL     1     105.170  18.177  20.886  1.00  0.00    -0.267 OA
HETATM    7  C3  UNL     1     106.987  18.999  19.845  1.00  0.00     0.061 A 
HETATM    8  C4  UNL     1     106.407  18.881  18.599  1.00  0.00     0.052 A 
HETATM    9  C5  UNL     1     107.091  19.260  17.457  1.00  0.00     0.077 A 
HETATM   10  N3  UNL     1     106.794  19.262  16.134  1.00  0.00    -0.190 N 
ATOM     11  H3  UNL     1     105.911  18.945  15.732  1.00  0.00     0.184 HD
HETATM   12  C6  UNL     1     107.833  19.742  15.430  1.00  0.00     0.679 A 
HETATM   13  N5  UNL     1     108.785  20.040  16.322  1.00  0.00    -0.190 N 
ATOM     14  H5  UNL     1     109.699  20.426  16.086  1.00  0.00     0.184 HD
HETATM   15  C17 UNL     1     108.374  19.761  17.577  1.00  0.00     0.078 A 
HETATM   16  C18 UNL     1     108.933  19.870  18.833  1.00  0.00     0.063 A 
HETATM   17  C19 UNL     1     108.269  19.498  19.986  1.00  0.00     0.052 A 
HETATM   18  N6  UNL     1     108.796  19.597  21.204  1.00  0.00    -0.329 N 
ATOM     19  H6  UNL     1     109.743  19.967  21.287  1.00  0.00     0.168 HD
ENDROOT
BRANCH  12  20
HETATM   20  N4  UNL     1     107.889  19.896  13.995  1.00  0.00    -0.226 N 
ATOM     21  H4  UNL     1     108.672  19.508  13.467  1.00  0.00     0.177 HD
BRANCH  20  22
HETATM   22  C7  UNL     1     106.829  20.603  13.310  1.00  0.00     0.142 C 
BRANCH  22  23
HETATM   23  C8  UNL     1     106.022  19.574  12.535  1.00  0.00     0.058 C 
BRANCH  23  24
HETATM   24  C9  UNL     1     104.960  19.017  13.397  1.00  0.00    -0.057 A 
HETATM   25  C10 UNL     1     104.951  17.671  13.676  1.00  0.00     0.007 A 
HETATM   26  C11 UNL     1     103.986  17.079  14.475  1.00  0.00     0.007 A 
HETATM   27  C12 UNL     1     103.010  17.894  14.998  1.00  0.00    -0.056 A 
HETATM   28  C15 UNL     1     103.013  19.240  14.722  1.00  0.00     0.007 A 
HETATM   29  C16 UNL     1     103.988  19.821  13.918  1.00  0.00     0.007 A 
BRANCH  27  30
HETATM   30  C13 UNL     1     101.966  17.292  15.854  1.00  0.00     0.064 C 
BRANCH  30  31
HETATM   31  C14 UNL     1     102.645  16.926  17.177  1.00  0.00     0.168 C 
BRANCH  31  32
HETATM   32  O2  UNL     1     102.221  17.881  18.116  1.00  0.00    -0.401 OA
ATOM     33  H2  UNL     1     101.637  17.428  18.712  1.00  0.00     0.209 HD
ENDBRANCH  31  32
ENDBRANCH  30  31
ENDBRANCH  27  30
ENDBRANCH  23  24
ENDBRANCH  22  23
ENDBRANCH  20  22
ENDBRANCH  12  20
TORSDOF 7
ENDMDL
