MODEL 5
REMARK VINA RESULT: -8.782716042      4.094      6.744
REMARK  7 active torsions:
REMARK  status: ('A' for Active; 'I' for Inactive)
REMARK    1  A    between atoms: C6_12  and  N4_13 
REMARK    2  A    between atoms: N4_13  and  C7_15 
REMARK    3  A    between atoms: C7_15  and  C8_16 
REMARK    4  A    between atoms: C8_16  and  C9_17 
REMARK    5  A    between atoms: C12_20  and  C13_21 
REMARK    6  A    between atoms: C13_21  and  C14_22 
REMARK    7  A    between atoms: C14_22  and  O2_23 
ROOT
HETATM    1  N1  UNL     1     108.989  19.264  21.915  1.00  0.00    -0.063 NA
HETATM    2  C1  UNL     1     108.227  19.167  20.732  1.00  0.00     0.195 A 
HETATM    3  N2  UNL     1     106.967  18.669  20.714  1.00  0.00    -0.297 N 
ATOM      4  H2  UNL     1     106.534  18.346  21.579  1.00  0.00     0.171 HD
HETATM    5  C2  UNL     1     106.288  18.601  19.556  1.00  0.00     0.260 A 
HETATM    6  O1  UNL     1     105.117  18.138  19.543  1.00  0.00    -0.267 OA
HETATM    7  C3  UNL     1     106.814  19.017  18.357  1.00  0.00     0.061 A 
HETATM    8  C4  UNL     1     106.111  18.943  17.173  1.00  0.00     0.052 A 
HETATM    9  C5  UNL     1     106.673  19.373  15.984  1.00  0.00     0.077 A 
HETATM   10  N3  UNL     1     106.242  19.424  14.699  1.00  0.00    -0.190 N 
ATOM     11  H3  UNL     1     105.325  19.114  14.376  1.00  0.00     0.184 HD
HETATM   12  C6  UNL     1     107.202  19.941  13.913  1.00  0.00     0.679 A 
HETATM   13  N5  UNL     1     108.238  20.213  14.715  1.00  0.00    -0.190 N 
ATOM     14  H5  UNL     1     109.121  20.617  14.402  1.00  0.00     0.184 HD
HETATM   15  C17 UNL     1     107.958  19.881  15.992  1.00  0.00     0.078 A 
HETATM   16  C18 UNL     1     108.642  19.946  17.189  1.00  0.00     0.063 A 
HETATM   17  C19 UNL     1     108.101  19.523  18.387  1.00  0.00     0.052 A 
HETATM   18  N6  UNL     1     108.749  19.579  19.548  1.00  0.00    -0.329 N 
ATOM     19  H6  UNL     1     109.697  19.955  19.549  1.00  0.00     0.168 HD
ENDROOT
BRANCH  12  20
HETATM   20  N4  UNL     1     107.110  20.152  12.486  1.00  0.00    -0.226 N 
ATOM     21  H4  UNL     1     106.246  19.937  11.990  1.00  0.00     0.177 HD
BRANCH  20  22
HETATM   22  C7  UNL     1     108.253  20.671  11.767  1.00  0.00     0.142 C 
BRANCH  22  23
HETATM   23  C8  UNL     1     109.088  19.481  11.321  1.00  0.00     0.058 C 
BRANCH  23  24
HETATM   24  C9  UNL     1     110.516  19.743  11.590  1.00  0.00    -0.057 A 
HETATM   25  C10 UNL     1     110.922  21.018  11.905  1.00  0.00     0.007 A 
HETATM   26  C11 UNL     1     112.245  21.339  12.168  1.00  0.00     0.007 A 
HETATM   27  C12 UNL     1     113.167  20.321  12.107  1.00  0.00    -0.056 A 
HETATM   28  C15 UNL     1     112.768  19.044  11.792  1.00  0.00     0.007 A 
HETATM   29  C16 UNL     1     111.437  18.738  11.530  1.00  0.00     0.007 A 
BRANCH  27  30
HETATM   30  C13 UNL     1     114.587  20.632  12.382  1.00  0.00     0.064 C 
BRANCH  30  31
HETATM   31  C14 UNL     1     114.663  22.142  12.624  1.00  0.00     0.168 C 
BRANCH  31  32
HETATM   32  O2  UNL     1     115.185  22.309  13.917  1.00  0.00    -0.401 OA
ATOM     33  H2  UNL     1     114.497  22.047  14.518  1.00  0.00     0.209 HD
ENDBRANCH  31  32
ENDBRANCH  30  31
ENDBRANCH  27  30
ENDBRANCH  23  24
ENDBRANCH  22  23
ENDBRANCH  20  22
ENDBRANCH  12  20
TORSDOF 7
ENDMDL
