MODEL 4
REMARK VINA RESULT: -8.794417532      3.913      6.156
REMARK  7 active torsions:
REMARK  status: ('A' for Active; 'I' for Inactive)
REMARK    1  A    between atoms: C6_12  and  N4_13 
REMARK    2  A    between atoms: N4_13  and  C7_15 
REMARK    3  A    between atoms: C7_15  and  C8_16 
REMARK    4  A    between atoms: C8_16  and  C9_17 
REMARK    5  A    between atoms: C12_20  and  C13_21 
REMARK    6  A    between atoms: C13_21  and  C14_22 
REMARK    7  A    between atoms: C14_22  and  O2_23 
ROOT
HETATM    1  N1  UNL     1     106.053  18.367  23.071  1.00  0.00    -0.063 NA
HETATM    2  C1  UNL     1     106.744  18.698  21.886  1.00  0.00     0.195 A 
HETATM    3  N2  UNL     1     108.042  19.087  21.883  1.00  0.00    -0.297 N 
ATOM      4  H2  UNL     1     108.558  19.149  22.760  1.00  0.00     0.171 HD
HETATM    5  C2  UNL     1     108.650  19.389  20.722  1.00  0.00     0.260 A 
HETATM    6  O1  UNL     1     109.856  19.750  20.723  1.00  0.00    -0.267 OA
HETATM    7  C3  UNL     1     108.010  19.328  19.507  1.00  0.00     0.061 A 
HETATM    8  C4  UNL     1     108.640  19.641  18.321  1.00  0.00     0.052 A 
HETATM    9  C5  UNL     1     107.966  19.567  17.116  1.00  0.00     0.077 A 
HETATM   10  N3  UNL     1     108.307  19.806  15.825  1.00  0.00    -0.190 N 
ATOM     11  H3  UNL     1     109.227  20.114  15.510  1.00  0.00     0.184 HD
HETATM   12  C6  UNL     1     107.254  19.576  15.022  1.00  0.00     0.679 A 
HETATM   13  N5  UNL     1     106.250  19.193  15.819  1.00  0.00    -0.190 N 
ATOM     14  H5  UNL     1     105.315  18.949  15.493  1.00  0.00     0.184 HD
HETATM   15  C17 UNL     1     106.641  19.173  17.110  1.00  0.00     0.078 A 
HETATM   16  C18 UNL     1     106.032  18.864  18.309  1.00  0.00     0.063 A 
HETATM   17  C19 UNL     1     106.686  18.931  19.523  1.00  0.00     0.052 A 
HETATM   18  N6  UNL     1     106.111  18.637  20.686  1.00  0.00    -0.329 N 
ATOM     19  H6  UNL     1     105.133  18.346  20.677  1.00  0.00     0.168 HD
ENDROOT
BRANCH  12  20
HETATM   20  N4  UNL     1     107.234  19.722  13.584  1.00  0.00    -0.226 N 
ATOM     21  H4  UNL     1     106.573  19.185  13.023  1.00  0.00     0.177 HD
BRANCH  20  22
HETATM   22  C7  UNL     1     108.157  20.635  12.946  1.00  0.00     0.142 C 
BRANCH  22  23
HETATM   23  C8  UNL     1     108.895  19.857  11.868  1.00  0.00     0.058 C 
BRANCH  23  24
HETATM   24  C9  UNL     1     110.342  20.142  11.947  1.00  0.00    -0.057 A 
HETATM   25  C10 UNL     1     111.244  19.131  11.713  1.00  0.00     0.007 A 
HETATM   26  C11 UNL     1     112.615  19.324  11.770  1.00  0.00     0.007 A 
HETATM   27  C12 UNL     1     113.065  20.587  12.074  1.00  0.00    -0.056 A 
HETATM   28  C15 UNL     1     112.168  21.602  12.310  1.00  0.00     0.007 A 
HETATM   29  C16 UNL     1     110.794  21.393  12.249  1.00  0.00     0.007 A 
BRANCH  27  30
HETATM   30  C13 UNL     1     114.522  20.824  12.144  1.00  0.00     0.064 C 
BRANCH  30  31
HETATM   31  C14 UNL     1     114.706  22.290  12.549  1.00  0.00     0.168 C 
BRANCH  31  32
HETATM   32  O2  UNL     1     115.214  22.277  13.858  1.00  0.00    -0.401 OA
ATOM     33  H2  UNL     1     114.830  21.522  14.287  1.00  0.00     0.209 HD
ENDBRANCH  31  32
ENDBRANCH  30  31
ENDBRANCH  27  30
ENDBRANCH  23  24
ENDBRANCH  22  23
ENDBRANCH  20  22
ENDBRANCH  12  20
TORSDOF 7
ENDMDL
