MODEL 1
REMARK VINA RESULT: -13.175979508      0.000      0.000
REMARK  9 active torsions:
REMARK  status: ('A' for Active; 'I' for Inactive)
REMARK    1  A    between atoms: C2_2  and  O1_4 
REMARK    2  A    between atoms: C2_2  and  C4_6 
REMARK    3  A    between atoms: N1_8  and  C6_9 
REMARK    4  A    between atoms: C9_12  and  C10_13 
REMARK    5  A    between atoms: C13_17  and  C14_18 
REMARK    6  A    between atoms: C14_18  and  O2_19 
REMARK    7  A    between atoms: C15_21  and  S1_22 
REMARK    8  A    between atoms: C20_30  and  C21_31 
REMARK    9  A    between atoms: C21_31  and  C24_34 
ROOT
HETATM    1  C4  UNL     1      39.701  24.711  23.220  1.00  0.00     0.060 A 
HETATM    2  C5  UNL     1      39.760  23.420  22.843  1.00  0.00     0.127 A 
HETATM    3  N1  UNL     1      38.443  23.089  22.456  1.00  0.00    -0.306 N 
HETATM    4  C20 UNL     1      37.656  24.104  22.574  1.00  0.00     0.101 A 
HETATM    5  N2  UNL     1      38.481  25.122  23.065  1.00  0.00    -0.344 N 
ATOM      6  H2  UNL     1      38.163  26.068  23.275  1.00  0.00     0.167 HD
ENDROOT
BRANCH   3   7
HETATM    7  C6  UNL     1      38.233  21.746  22.061  1.00  0.00     0.079 A 
HETATM    8  C7  UNL     1      38.138  21.590  20.663  1.00  0.00     0.034 A 
HETATM    9  C8  UNL     1      37.819  20.377  20.131  1.00  0.00     0.014 A 
HETATM   10  C9  UNL     1      37.572  19.288  20.932  1.00  0.00    -0.023 A 
HETATM   11  C18 UNL     1      37.675  19.431  22.333  1.00  0.00     0.057 A 
HETATM   12  C19 UNL     1      38.014  20.715  22.827  1.00  0.00     0.144 A 
HETATM   13  F2  UNL     1      38.040  20.801  24.185  1.00  0.00    -0.204 F 
BRANCH  10  14
HETATM   14  C10 UNL     1      36.998  18.075  20.293  1.00  0.00    -0.021 A 
HETATM   15  C11 UNL     1      36.131  18.059  19.293  1.00  0.00     0.055 A 
HETATM   16  C12 UNL     1      35.749  16.820  18.762  1.00  0.00     0.127 A 
HETATM   17  F1  UNL     1      34.823  16.789  17.766  1.00  0.00    -0.205 F 
HETATM   18  C13 UNL     1      36.252  15.614  19.250  1.00  0.00     0.025 A 
HETATM   19  C15 UNL     1      37.134  15.615  20.271  1.00  0.00     0.071 A 
HETATM   20  C17 UNL     1      37.493  16.872  20.774  1.00  0.00     0.036 A 
BRANCH  18  21
HETATM   21  C14 UNL     1      35.875  14.398  18.491  1.00  0.00     0.207 C 
BRANCH  21  22
HETATM   22  O2  UNL     1      36.914  14.030  17.610  1.00  0.00    -0.396 OA
ATOM     23  H2  UNL     1      37.667  13.722  18.101  1.00  0.00     0.209 HD
ENDBRANCH  21  22
ENDBRANCH  18  21
BRANCH  19  24
HETATM   24  S1  UNL     1      37.911  14.244  20.994  1.00  0.00     0.172 S 
HETATM   25  C16 UNL     1      38.835  14.598  22.437  1.00  0.00     0.167 C 
HETATM   26  O3  UNL     1      36.932  13.128  21.358  1.00  0.00    -0.223 OA
HETATM   27  O4  UNL     1      38.852  13.666  19.936  1.00  0.00    -0.223 OA
ENDBRANCH  19  24
ENDBRANCH  10  14
ENDBRANCH   3   7
BRANCH   4  28
HETATM   28  C21 UNL     1      36.217  24.298  22.390  1.00  0.00     0.042 C 
HETATM   29  C22 UNL     1      36.081  25.866  22.183  1.00  0.00     0.029 C 
HETATM   30  C23 UNL     1      35.445  24.167  23.697  1.00  0.00     0.029 C 
BRANCH  28  31
HETATM   31  C24 UNL     1      35.531  23.778  21.216  1.00  0.00     0.001 A 
HETATM   32  C25 UNL     1      34.744  22.639  21.258  1.00  0.00     0.043 A 
HETATM   33 CL1  UNL     1      34.523  21.807  22.782  1.00  0.00    -0.084 Cl
HETATM   34  C26 UNL     1      34.109  22.056  20.164  1.00  0.00     0.024 A 
HETATM   35  C27 UNL     1      34.272  22.679  18.930  1.00  0.00     0.003 A 
HETATM   36  C28 UNL     1      35.033  23.795  18.823  1.00  0.00     0.024 A 
HETATM   37  C29 UNL     1      35.650  24.328  19.975  1.00  0.00     0.043 A 
HETATM   38 CL2  UNL     1      36.560  25.775  19.721  1.00  0.00    -0.084 Cl
ENDBRANCH  28  31
ENDBRANCH   4  28
BRANCH   1  39
HETATM   39  C2  UNL     1      40.882  25.457  23.761  1.00  0.00     0.094 C 
HETATM   40  C1  UNL     1      40.859  25.352  25.308  1.00  0.00     0.052 C 
HETATM   41  C3  UNL     1      40.765  26.943  23.503  1.00  0.00     0.052 C 
BRANCH  39  42
HETATM   42  O1  UNL     1      42.092  25.029  23.357  1.00  0.00    -0.384 OA
ATOM     43  H1  UNL     1      42.002  24.109  23.140  1.00  0.00     0.211 HD
ENDBRANCH  39  42
ENDBRANCH   1  39
TORSDOF 9
ENDMDL
