MODEL 12
REMARK VINA RESULT: -9.040553798      6.070      8.895
REMARK  9 active torsions:
REMARK  status: ('A' for Active; 'I' for Inactive)
REMARK    1  A    between atoms: C2_2  and  O1_4 
REMARK    2  A    between atoms: C2_2  and  C4_6 
REMARK    3  A    between atoms: N1_8  and  C6_9 
REMARK    4  A    between atoms: C9_12  and  C10_13 
REMARK    5  A    between atoms: C13_17  and  C14_18 
REMARK    6  A    between atoms: C14_18  and  O2_19 
REMARK    7  A    between atoms: C15_21  and  S1_22 
REMARK    8  A    between atoms: C20_30  and  C21_31 
REMARK    9  A    between atoms: C21_31  and  C24_34 
ROOT
HETATM    1  C4  UNL     1      35.110  22.716  21.100  1.00  0.00     0.060 A 
HETATM    2  C5  UNL     1      36.046  22.765  20.135  1.00  0.00     0.127 A 
HETATM    3  N1  UNL     1      36.819  23.909  20.428  1.00  0.00    -0.306 N 
HETATM    4  C20 UNL     1      36.392  24.495  21.496  1.00  0.00     0.101 A 
HETATM    5  N2  UNL     1      35.302  23.717  21.901  1.00  0.00    -0.344 N 
ATOM      6  H2  UNL     1      34.731  23.913  22.723  1.00  0.00     0.167 HD
ENDROOT
BRANCH   3   7
HETATM    7  C6  UNL     1      37.855  24.209  19.512  1.00  0.00     0.079 A 
HETATM    8  C7  UNL     1      37.377  24.640  18.258  1.00  0.00     0.034 A 
HETATM    9  C8  UNL     1      38.246  24.854  17.232  1.00  0.00     0.014 A 
HETATM   10  C9  UNL     1      39.596  24.647  17.383  1.00  0.00    -0.023 A 
HETATM   11  C18 UNL     1      40.088  24.225  18.639  1.00  0.00     0.057 A 
HETATM   12  C19 UNL     1      39.135  24.023  19.668  1.00  0.00     0.144 A 
HETATM   13  F2  UNL     1      39.665  23.562  20.834  1.00  0.00    -0.204 F 
BRANCH  10  14
HETATM   14  C10 UNL     1      40.441  24.667  16.161  1.00  0.00    -0.021 A 
HETATM   15  C11 UNL     1      41.406  23.810  15.869  1.00  0.00     0.055 A 
HETATM   16  C12 UNL     1      42.055  23.932  14.633  1.00  0.00     0.127 A 
HETATM   17  F1  UNL     1      43.081  23.088  14.342  1.00  0.00    -0.205 F 
HETATM   18  C13 UNL     1      41.716  24.921  13.709  1.00  0.00     0.025 A 
HETATM   19  C15 UNL     1      40.736  25.803  13.995  1.00  0.00     0.071 A 
HETATM   20  C17 UNL     1      40.110  25.647  15.238  1.00  0.00     0.036 A 
BRANCH  18  21
HETATM   21  C14 UNL     1      42.383  24.832  12.388  1.00  0.00     0.207 C 
BRANCH  21  22
HETATM   22  O2  UNL     1      41.505  24.271  11.435  1.00  0.00    -0.396 OA
ATOM     23  H2  UNL     1      41.924  24.236  10.583  1.00  0.00     0.209 HD
ENDBRANCH  21  22
ENDBRANCH  18  21
BRANCH  19  24
HETATM   24  S1  UNL     1      40.130  27.070  12.978  1.00  0.00     0.172 S 
HETATM   25  C16 UNL     1      41.279  28.343  12.626  1.00  0.00     0.167 C 
HETATM   26  O3  UNL     1      39.610  26.559  11.635  1.00  0.00    -0.223 OA
HETATM   27  O4  UNL     1      38.929  27.677  13.705  1.00  0.00    -0.223 OA
ENDBRANCH  19  24
ENDBRANCH  10  14
ENDBRANCH   3   7
BRANCH   4  28
HETATM   28  C21 UNL     1      36.764  25.727  22.193  1.00  0.00     0.042 C 
HETATM   29  C22 UNL     1      35.676  25.841  23.343  1.00  0.00     0.029 C 
HETATM   30  C23 UNL     1      36.395  26.974  21.398  1.00  0.00     0.029 C 
BRANCH  28  31
HETATM   31  C24 UNL     1      38.007  25.823  22.944  1.00  0.00     0.001 A 
HETATM   32  C25 UNL     1      38.775  26.975  22.967  1.00  0.00     0.043 A 
HETATM   33 CL1  UNL     1      38.222  28.391  22.100  1.00  0.00    -0.084 Cl
HETATM   34  C26 UNL     1      40.000  27.116  23.616  1.00  0.00     0.024 A 
HETATM   35  C27 UNL     1      40.484  26.008  24.305  1.00  0.00     0.003 A 
HETATM   36  C28 UNL     1      39.780  24.850  24.317  1.00  0.00     0.024 A 
HETATM   37  C29 UNL     1      38.546  24.779  23.634  1.00  0.00     0.043 A 
HETATM   38 CL2  UNL     1      37.723  23.265  23.756  1.00  0.00    -0.084 Cl
ENDBRANCH  28  31
ENDBRANCH   4  28
BRANCH   1  39
HETATM   39  C2  UNL     1      34.033  21.675  21.140  1.00  0.00     0.094 C 
HETATM   40  C1  UNL     1      32.964  22.038  20.077  1.00  0.00     0.052 C 
HETATM   41  C3  UNL     1      33.268  21.718  22.444  1.00  0.00     0.052 C 
BRANCH  39  42
HETATM   42  O1  UNL     1      34.419  20.410  20.892  1.00  0.00    -0.384 OA
ATOM     43  H1  UNL     1      35.323  20.336  21.176  1.00  0.00     0.211 HD
ENDBRANCH  39  42
ENDBRANCH   1  39
TORSDOF 9
ENDMDL
