MODEL 2
REMARK VINA RESULT: -13.060528302      0.123      1.422
REMARK  9 active torsions:
REMARK  status: ('A' for Active; 'I' for Inactive)
REMARK    1  A    between atoms: C2_2  and  O1_4 
REMARK    2  A    between atoms: C2_2  and  C4_6 
REMARK    3  A    between atoms: N1_8  and  C6_9 
REMARK    4  A    between atoms: C9_12  and  C10_13 
REMARK    5  A    between atoms: C13_17  and  C14_18 
REMARK    6  A    between atoms: C14_18  and  O2_19 
REMARK    7  A    between atoms: C15_21  and  S1_22 
REMARK    8  A    between atoms: C20_30  and  C21_31 
REMARK    9  A    between atoms: C21_31  and  C24_34 
ROOT
HETATM    1  C4  UNL     1      39.652  24.719  23.206  1.00  0.00     0.060 A 
HETATM    2  C5  UNL     1      39.719  23.426  22.838  1.00  0.00     0.127 A 
HETATM    3  N1  UNL     1      38.413  23.095  22.418  1.00  0.00    -0.306 N 
HETATM    4  C20 UNL     1      37.624  24.112  22.510  1.00  0.00     0.101 A 
HETATM    5  N2  UNL     1      38.437  25.131  23.018  1.00  0.00    -0.344 N 
ATOM      6  H2  UNL     1      38.115  26.079  23.214  1.00  0.00     0.167 HD
ENDROOT
BRANCH   3   7
HETATM    7  C6  UNL     1      38.211  21.751  22.023  1.00  0.00     0.079 A 
HETATM    8  C7  UNL     1      38.108  21.594  20.627  1.00  0.00     0.034 A 
HETATM    9  C8  UNL     1      37.796  20.378  20.096  1.00  0.00     0.014 A 
HETATM   10  C9  UNL     1      37.563  19.287  20.898  1.00  0.00    -0.023 A 
HETATM   11  C18 UNL     1      37.674  19.430  22.300  1.00  0.00     0.057 A 
HETATM   12  C19 UNL     1      38.006  20.718  22.791  1.00  0.00     0.144 A 
HETATM   13  F2  UNL     1      38.040  20.804  24.149  1.00  0.00    -0.204 F 
BRANCH  10  14
HETATM   14  C10 UNL     1      36.995  18.069  20.264  1.00  0.00    -0.021 A 
HETATM   15  C11 UNL     1      36.141  18.046  19.254  1.00  0.00     0.055 A 
HETATM   16  C12 UNL     1      35.763  16.803  18.728  1.00  0.00     0.127 A 
HETATM   17  F1  UNL     1      34.849  16.764  17.722  1.00  0.00    -0.205 F 
HETATM   18  C13 UNL     1      36.258  15.600  19.233  1.00  0.00     0.025 A 
HETATM   19  C15 UNL     1      37.127  15.609  20.265  1.00  0.00     0.071 A 
HETATM   20  C17 UNL     1      37.482  16.870  20.761  1.00  0.00     0.036 A 
BRANCH  18  21
HETATM   21  C14 UNL     1      35.888  14.378  18.481  1.00  0.00     0.207 C 
BRANCH  21  22
HETATM   22  O2  UNL     1      36.944  13.992  17.628  1.00  0.00    -0.396 OA
ATOM     23  H2  UNL     1      36.734  14.207  16.727  1.00  0.00     0.209 HD
ENDBRANCH  21  22
ENDBRANCH  18  21
BRANCH  19  24
HETATM   24  S1  UNL     1      37.893  14.243  21.009  1.00  0.00     0.172 S 
HETATM   25  C16 UNL     1      38.789  14.607  22.467  1.00  0.00     0.167 C 
HETATM   26  O3  UNL     1      36.910  13.127  21.360  1.00  0.00    -0.223 OA
HETATM   27  O4  UNL     1      38.855  13.662  19.971  1.00  0.00    -0.223 OA
ENDBRANCH  19  24
ENDBRANCH  10  14
ENDBRANCH   3   7
BRANCH   4  28
HETATM   28  C21 UNL     1      36.191  24.306  22.287  1.00  0.00     0.042 C 
HETATM   29  C22 UNL     1      36.087  25.836  21.875  1.00  0.00     0.029 C 
HETATM   30  C23 UNL     1      35.406  24.363  23.592  1.00  0.00     0.029 C 
BRANCH  28  31
HETATM   31  C24 UNL     1      35.503  23.650  21.184  1.00  0.00     0.001 A 
HETATM   32  C25 UNL     1      35.541  24.138  19.889  1.00  0.00     0.043 A 
HETATM   33 CL1  UNL     1      36.480  25.574  19.541  1.00  0.00    -0.084 Cl
HETATM   34  C26 UNL     1      34.861  23.595  18.802  1.00  0.00     0.024 A 
HETATM   35  C27 UNL     1      34.090  22.460  19.038  1.00  0.00     0.003 A 
HETATM   36  C28 UNL     1      34.010  21.936  20.286  1.00  0.00     0.024 A 
HETATM   37  C29 UNL     1      34.725  22.543  21.341  1.00  0.00     0.043 A 
HETATM   38 CL2  UNL     1      34.577  21.761  22.876  1.00  0.00    -0.084 Cl
ENDBRANCH  28  31
ENDBRANCH   4  28
BRANCH   1  39
HETATM   39  C2  UNL     1      40.819  25.467  23.774  1.00  0.00     0.094 C 
HETATM   40  C1  UNL     1      40.755  25.369  25.321  1.00  0.00     0.052 C 
HETATM   41  C3  UNL     1      40.711  26.951  23.506  1.00  0.00     0.052 C 
BRANCH  39  42
HETATM   42  O1  UNL     1      42.040  25.035  23.404  1.00  0.00    -0.384 OA
ATOM     43  H1  UNL     1      42.099  24.122  23.659  1.00  0.00     0.211 HD
ENDBRANCH  39  42
ENDBRANCH   1  39
TORSDOF 9
ENDMDL
