MODEL 16
REMARK VINA RESULT: -8.836255033      3.393      8.928
REMARK  9 active torsions:
REMARK  status: ('A' for Active; 'I' for Inactive)
REMARK    1  A    between atoms: C2_2  and  O1_4 
REMARK    2  A    between atoms: C2_2  and  C4_6 
REMARK    3  A    between atoms: N1_8  and  C6_9 
REMARK    4  A    between atoms: C9_12  and  C10_13 
REMARK    5  A    between atoms: C13_17  and  C14_18 
REMARK    6  A    between atoms: C14_18  and  O2_19 
REMARK    7  A    between atoms: C15_21  and  S1_22 
REMARK    8  A    between atoms: C20_30  and  C21_31 
REMARK    9  A    between atoms: C21_31  and  C24_34 
ROOT
HETATM    1  C4  UNL     1      35.946  18.683  19.532  1.00  0.00     0.060 A 
HETATM    2  C5  UNL     1      37.106  19.328  19.751  1.00  0.00     0.127 A 
HETATM    3  N1  UNL     1      36.735  20.635  20.132  1.00  0.00    -0.306 N 
HETATM    4  C20 UNL     1      35.451  20.764  20.155  1.00  0.00     0.101 A 
HETATM    5  N2  UNL     1      34.974  19.508  19.766  1.00  0.00    -0.344 N 
ATOM      6  H2  UNL     1      33.985  19.271  19.678  1.00  0.00     0.167 HD
ENDROOT
BRANCH   3   7
HETATM    7  C6  UNL     1      37.800  21.536  20.372  1.00  0.00     0.079 A 
HETATM    8  C7  UNL     1      38.359  21.401  21.658  1.00  0.00     0.034 A 
HETATM    9  C8  UNL     1      39.314  22.275  22.084  1.00  0.00     0.014 A 
HETATM   10  C9  UNL     1      39.744  23.308  21.286  1.00  0.00    -0.023 A 
HETATM   11  C18 UNL     1      39.197  23.447  19.990  1.00  0.00     0.057 A 
HETATM   12  C19 UNL     1      38.212  22.505  19.603  1.00  0.00     0.144 A 
HETATM   13  F2  UNL     1      37.683  22.728  18.369  1.00  0.00    -0.204 F 
BRANCH  10  14
HETATM   14  C10 UNL     1      40.601  24.352  21.906  1.00  0.00    -0.021 A 
HETATM   15  C11 UNL     1      40.837  24.495  23.200  1.00  0.00     0.055 A 
HETATM   16  C12 UNL     1      41.733  25.493  23.607  1.00  0.00     0.127 A 
HETATM   17  F1  UNL     1      41.947  25.682  24.937  1.00  0.00    -0.205 F 
HETATM   18  C13 UNL     1      42.378  26.331  22.697  1.00  0.00     0.025 A 
HETATM   19  C15 UNL     1      42.144  26.197  21.375  1.00  0.00     0.071 A 
HETATM   20  C17 UNL     1      41.245  25.188  21.007  1.00  0.00     0.036 A 
BRANCH  18  21
HETATM   21  C14 UNL     1      43.409  27.233  23.263  1.00  0.00     0.207 C 
BRANCH  21  22
HETATM   22  O2  UNL     1      44.685  26.640  23.163  1.00  0.00    -0.396 OA
ATOM     23  H2  UNL     1      45.363  27.290  23.308  1.00  0.00     0.209 HD
ENDBRANCH  21  22
ENDBRANCH  18  21
BRANCH  19  24
HETATM   24  S1  UNL     1      42.869  27.095  20.081  1.00  0.00     0.172 S 
HETATM   25  C16 UNL     1      42.504  28.806  20.079  1.00  0.00     0.167 C 
HETATM   26  O3  UNL     1      44.392  26.967  20.048  1.00  0.00    -0.223 OA
HETATM   27  O4  UNL     1      42.355  26.479  18.780  1.00  0.00    -0.223 OA
ENDBRANCH  19  24
ENDBRANCH  10  14
ENDBRANCH   3   7
BRANCH   4  28
HETATM   28  C21 UNL     1      34.550  21.892  20.400  1.00  0.00     0.042 C 
HETATM   29  C22 UNL     1      33.609  21.364  21.564  1.00  0.00     0.029 C 
HETATM   30  C23 UNL     1      33.503  22.042  19.303  1.00  0.00     0.029 C 
BRANCH  28  31
HETATM   31  C24 UNL     1      35.043  23.144  20.955  1.00  0.00     0.001 A 
HETATM   32  C25 UNL     1      35.241  24.274  20.179  1.00  0.00     0.043 A 
HETATM   33 CL1  UNL     1      34.849  24.223  18.475  1.00  0.00    -0.084 Cl
HETATM   34  C26 UNL     1      35.763  25.483  20.634  1.00  0.00     0.024 A 
HETATM   35  C27 UNL     1      36.103  25.561  21.981  1.00  0.00     0.003 A 
HETATM   36  C28 UNL     1      35.935  24.487  22.791  1.00  0.00     0.024 A 
HETATM   37  C29 UNL     1      35.403  23.293  22.260  1.00  0.00     0.043 A 
HETATM   38 CL2  UNL     1      35.199  22.008  23.398  1.00  0.00    -0.084 Cl
ENDBRANCH  28  31
ENDBRANCH   4  28
BRANCH   1  39
HETATM   39  C2  UNL     1      35.878  17.265  19.051  1.00  0.00     0.094 C 
HETATM   40  C1  UNL     1      34.440  16.736  19.291  1.00  0.00     0.052 C 
HETATM   41  C3  UNL     1      36.739  16.352  19.894  1.00  0.00     0.052 C 
BRANCH  39  42
HETATM   42  O1  UNL     1      36.158  17.064  17.749  1.00  0.00    -0.384 OA
ATOM     43  H1  UNL     1      36.999  17.471  17.582  1.00  0.00     0.211 HD
ENDBRANCH  39  42
ENDBRANCH   1  39
TORSDOF 9
ENDMDL
