MODEL 11
REMARK VINA RESULT: -9.109742611      1.616      2.028
REMARK  9 active torsions:
REMARK  status: ('A' for Active; 'I' for Inactive)
REMARK    1  A    between atoms: C2_2  and  O1_4 
REMARK    2  A    between atoms: C2_2  and  C4_6 
REMARK    3  A    between atoms: N1_8  and  C6_9 
REMARK    4  A    between atoms: C9_12  and  C10_13 
REMARK    5  A    between atoms: C13_17  and  C14_18 
REMARK    6  A    between atoms: C14_18  and  O2_19 
REMARK    7  A    between atoms: C15_21  and  S1_22 
REMARK    8  A    between atoms: C20_30  and  C21_31 
REMARK    9  A    between atoms: C21_31  and  C24_34 
ROOT
HETATM    1  C4  UNL     1      39.885  23.990  22.116  1.00  0.00     0.060 A 
HETATM    2  C5  UNL     1      39.588  22.781  21.605  1.00  0.00     0.127 A 
HETATM    3  N1  UNL     1      38.189  22.793  21.416  1.00  0.00    -0.306 N 
HETATM    4  C20 UNL     1      37.684  23.927  21.771  1.00  0.00     0.101 A 
HETATM    5  N2  UNL     1      38.784  24.668  22.215  1.00  0.00    -0.344 N 
ATOM      6  H2  UNL     1      38.728  25.622  22.571  1.00  0.00     0.167 HD
ENDROOT
BRANCH   3   7
HETATM    7  C6  UNL     1      37.619  21.594  20.927  1.00  0.00     0.079 A 
HETATM    8  C7  UNL     1      37.763  20.510  21.816  1.00  0.00     0.034 A 
HETATM    9  C8  UNL     1      37.372  19.261  21.441  1.00  0.00     0.014 A 
HETATM   10  C9  UNL     1      36.842  19.022  20.195  1.00  0.00    -0.023 A 
HETATM   11  C18 UNL     1      36.683  20.103  19.300  1.00  0.00     0.057 A 
HETATM   12  C19 UNL     1      37.105  21.379  19.749  1.00  0.00     0.144 A 
HETATM   13  F2  UNL     1      36.979  22.366  18.821  1.00  0.00    -0.204 F 
BRANCH  10  14
HETATM   14  C10 UNL     1      36.668  17.607  19.777  1.00  0.00    -0.021 A 
HETATM   15  C11 UNL     1      36.036  17.189  18.692  1.00  0.00     0.055 A 
HETATM   16  C12 UNL     1      36.031  15.816  18.410  1.00  0.00     0.127 A 
HETATM   17  F1  UNL     1      35.344  15.370  17.324  1.00  0.00    -0.205 F 
HETATM   18  C13 UNL     1      36.668  14.886  19.231  1.00  0.00     0.025 A 
HETATM   19  C15 UNL     1      37.313  15.297  20.342  1.00  0.00     0.071 A 
HETATM   20  C17 UNL     1      37.299  16.676  20.589  1.00  0.00     0.036 A 
BRANCH  18  21
HETATM   21  C14 UNL     1      36.707  13.493  18.726  1.00  0.00     0.207 C 
BRANCH  21  22
HETATM   22  O2  UNL     1      37.416  13.435  17.507  1.00  0.00    -0.396 OA
ATOM     23  H2  UNL     1      37.803  12.575  17.392  1.00  0.00     0.209 HD
ENDBRANCH  21  22
ENDBRANCH  18  21
BRANCH  19  24
HETATM   24  S1  UNL     1      38.202  14.322  21.466  1.00  0.00     0.172 S 
HETATM   25  C16 UNL     1      39.703  13.668  20.848  1.00  0.00     0.167 C 
HETATM   26  O3  UNL     1      38.542  15.063  22.759  1.00  0.00    -0.223 OA
HETATM   27  O4  UNL     1      37.285  13.163  21.860  1.00  0.00    -0.223 OA
ENDBRANCH  19  24
ENDBRANCH  10  14
ENDBRANCH   3   7
BRANCH   4  28
HETATM   28  C21 UNL     1      36.318  24.446  21.855  1.00  0.00     0.042 C 
HETATM   29  C22 UNL     1      36.131  25.214  20.478  1.00  0.00     0.029 C 
HETATM   30  C23 UNL     1      36.210  25.634  22.803  1.00  0.00     0.029 C 
BRANCH  28  31
HETATM   31  C24 UNL     1      35.170  23.550  21.858  1.00  0.00     0.001 A 
HETATM   32  C25 UNL     1      34.797  22.824  22.976  1.00  0.00     0.043 A 
HETATM   33 CL1  UNL     1      35.704  23.011  24.461  1.00  0.00    -0.084 Cl
HETATM   34  C26 UNL     1      33.749  21.908  23.031  1.00  0.00     0.024 A 
HETATM   35  C27 UNL     1      33.011  21.718  21.867  1.00  0.00     0.003 A 
HETATM   36  C28 UNL     1      33.329  22.398  20.738  1.00  0.00     0.024 A 
HETATM   37  C29 UNL     1      34.408  23.308  20.756  1.00  0.00     0.043 A 
HETATM   38 CL2  UNL     1      34.691  24.144  19.269  1.00  0.00    -0.084 Cl
ENDBRANCH  28  31
ENDBRANCH   4  28
BRANCH   1  39
HETATM   39  C2  UNL     1      41.271  24.386  22.521  1.00  0.00     0.094 C 
HETATM   40  C1  UNL     1      41.255  24.751  24.028  1.00  0.00     0.052 C 
HETATM   41  C3  UNL     1      41.700  25.671  21.848  1.00  0.00     0.052 C 
BRANCH  39  42
HETATM   42  O1  UNL     1      42.229  23.455  22.353  1.00  0.00    -0.384 OA
ATOM     43  H1  UNL     1      42.239  22.923  23.140  1.00  0.00     0.211 HD
ENDBRANCH  39  42
ENDBRANCH   1  39
TORSDOF 9
ENDMDL
