MODEL 4
REMARK VINA RESULT: -12.557327051      0.832      1.178
REMARK  9 active torsions:
REMARK  status: ('A' for Active; 'I' for Inactive)
REMARK    1  A    between atoms: C2_2  and  O1_4 
REMARK    2  A    between atoms: C2_2  and  C4_6 
REMARK    3  A    between atoms: N1_8  and  C6_9 
REMARK    4  A    between atoms: C9_12  and  C10_13 
REMARK    5  A    between atoms: C13_17  and  C14_18 
REMARK    6  A    between atoms: C14_18  and  O2_19 
REMARK    7  A    between atoms: C15_21  and  S1_22 
REMARK    8  A    between atoms: C20_30  and  C21_31 
REMARK    9  A    between atoms: C21_31  and  C24_34 
ROOT
HETATM    1  C4  UNL     1      39.862  24.846  22.899  1.00  0.00     0.060 A 
HETATM    2  C5  UNL     1      39.844  23.519  22.671  1.00  0.00     0.127 A 
HETATM    3  N1  UNL     1      38.581  23.261  22.096  1.00  0.00    -0.306 N 
HETATM    4  C20 UNL     1      37.897  24.349  21.972  1.00  0.00     0.101 A 
HETATM    5  N2  UNL     1      38.734  25.341  22.494  1.00  0.00    -0.344 N 
ATOM      6  H2  UNL     1      38.489  26.330  22.548  1.00  0.00     0.167 HD
ENDROOT
BRANCH   3   7
HETATM    7  C6  UNL     1      38.297  21.905  21.808  1.00  0.00     0.079 A 
HETATM    8  C7  UNL     1      38.319  21.617  20.429  1.00  0.00     0.034 A 
HETATM    9  C8  UNL     1      37.951  20.384  19.982  1.00  0.00     0.014 A 
HETATM   10  C9  UNL     1      37.540  19.401  20.851  1.00  0.00    -0.023 A 
HETATM   11  C18 UNL     1      37.524  19.676  22.237  1.00  0.00     0.057 A 
HETATM   12  C19 UNL     1      37.922  20.975  22.641  1.00  0.00     0.144 A 
HETATM   13  F2  UNL     1      37.829  21.195  23.981  1.00  0.00    -0.204 F 
BRANCH  10  14
HETATM   14  C10 UNL     1      36.928  18.177  20.274  1.00  0.00    -0.021 A 
HETATM   15  C11 UNL     1      36.017  18.141  19.315  1.00  0.00     0.055 A 
HETATM   16  C12 UNL     1      35.602  16.891  18.836  1.00  0.00     0.127 A 
HETATM   17  F1  UNL     1      34.631  16.840  17.885  1.00  0.00    -0.205 F 
HETATM   18  C13 UNL     1      36.117  15.694  19.336  1.00  0.00     0.025 A 
HETATM   19  C15 UNL     1      37.043  15.716  20.315  1.00  0.00     0.071 A 
HETATM   20  C17 UNL     1      37.435  16.983  20.766  1.00  0.00     0.036 A 
BRANCH  18  21
HETATM   21  C14 UNL     1      35.696  14.461  18.629  1.00  0.00     0.207 C 
BRANCH  21  22
HETATM   22  O2  UNL     1      36.718  14.024  17.759  1.00  0.00    -0.396 OA
ATOM     23  H2  UNL     1      37.271  14.755  17.509  1.00  0.00     0.209 HD
ENDBRANCH  21  22
ENDBRANCH  18  21
BRANCH  19  24
HETATM   24  S1  UNL     1      37.842  14.359  21.041  1.00  0.00     0.172 S 
HETATM   25  C16 UNL     1      38.794  14.737  22.459  1.00  0.00     0.167 C 
HETATM   26  O3  UNL     1      36.876  13.243  21.441  1.00  0.00    -0.223 OA
HETATM   27  O4  UNL     1      38.763  13.770  19.971  1.00  0.00    -0.223 OA
ENDBRANCH  19  24
ENDBRANCH  10  14
ENDBRANCH   3   7
BRANCH   4  28
HETATM   28  C21 UNL     1      36.536  24.644  21.521  1.00  0.00     0.042 C 
HETATM   29  C22 UNL     1      36.722  24.960  19.976  1.00  0.00     0.029 C 
HETATM   30  C23 UNL     1      36.060  26.016  21.984  1.00  0.00     0.029 C 
BRANCH  28  31
HETATM   31  C24 UNL     1      35.510  23.613  21.496  1.00  0.00     0.001 A 
HETATM   32  C25 UNL     1      34.924  23.119  22.649  1.00  0.00     0.043 A 
HETATM   33 CL1  UNL     1      35.396  23.778  24.200  1.00  0.00    -0.084 Cl
HETATM   34  C26 UNL     1      33.981  22.094  22.701  1.00  0.00     0.024 A 
HETATM   35  C27 UNL     1      33.590  21.531  21.490  1.00  0.00     0.003 A 
HETATM   36  C28 UNL     1      34.129  21.970  20.326  1.00  0.00     0.024 A 
HETATM   37  C29 UNL     1      35.082  23.010  20.351  1.00  0.00     0.043 A 
HETATM   38 CL2  UNL     1      35.667  23.511  18.803  1.00  0.00    -0.084 Cl
ENDBRANCH  28  31
ENDBRANCH   4  28
BRANCH   1  39
HETATM   39  C2  UNL     1      41.011  25.544  23.559  1.00  0.00     0.094 C 
HETATM   40  C1  UNL     1      40.885  25.349  25.093  1.00  0.00     0.052 C 
HETATM   41  C3  UNL     1      40.924  27.044  23.383  1.00  0.00     0.052 C 
BRANCH  39  42
HETATM   42  O1  UNL     1      42.242  25.126  23.210  1.00  0.00    -0.384 OA
ATOM     43  H1  UNL     1      42.132  24.505  22.500  1.00  0.00     0.211 HD
ENDBRANCH  39  42
ENDBRANCH   1  39
TORSDOF 9
ENDMDL
