MODEL 15
REMARK VINA RESULT: -8.975540944      3.580      9.046
REMARK  9 active torsions:
REMARK  status: ('A' for Active; 'I' for Inactive)
REMARK    1  A    between atoms: C2_2  and  O1_4 
REMARK    2  A    between atoms: C2_2  and  C4_6 
REMARK    3  A    between atoms: N1_8  and  C6_9 
REMARK    4  A    between atoms: C9_12  and  C10_13 
REMARK    5  A    between atoms: C13_17  and  C14_18 
REMARK    6  A    between atoms: C14_18  and  O2_19 
REMARK    7  A    between atoms: C15_21  and  S1_22 
REMARK    8  A    between atoms: C20_30  and  C21_31 
REMARK    9  A    between atoms: C21_31  and  C24_34 
ROOT
HETATM    1  C4  UNL     1      36.015  18.819  19.582  1.00  0.00     0.060 A 
HETATM    2  C5  UNL     1      37.163  19.505  19.729  1.00  0.00     0.127 A 
HETATM    3  N1  UNL     1      36.769  20.800  20.129  1.00  0.00    -0.306 N 
HETATM    4  C20 UNL     1      35.485  20.884  20.230  1.00  0.00     0.101 A 
HETATM    5  N2  UNL     1      35.031  19.610  19.873  1.00  0.00    -0.344 N 
ATOM      6  H2  UNL     1      34.048  19.337  19.845  1.00  0.00     0.167 HD
ENDROOT
BRANCH   3   7
HETATM    7  C6  UNL     1      37.813  21.740  20.303  1.00  0.00     0.079 A 
HETATM    8  C7  UNL     1      38.350  21.736  21.606  1.00  0.00     0.034 A 
HETATM    9  C8  UNL     1      39.281  22.663  21.965  1.00  0.00     0.014 A 
HETATM   10  C9  UNL     1      39.709  23.625  21.081  1.00  0.00    -0.023 A 
HETATM   11  C18 UNL     1      39.185  23.632  19.769  1.00  0.00     0.057 A 
HETATM   12  C19 UNL     1      38.224  22.640  19.455  1.00  0.00     0.144 A 
HETATM   13  F2  UNL     1      37.715  22.737  18.196  1.00  0.00    -0.204 F 
BRANCH  10  14
HETATM   14  C10 UNL     1      40.535  24.739  21.617  1.00  0.00    -0.021 A 
HETATM   15  C11 UNL     1      41.813  24.667  21.951  1.00  0.00     0.055 A 
HETATM   16  C12 UNL     1      42.459  25.838  22.371  1.00  0.00     0.127 A 
HETATM   17  F1  UNL     1      43.760  25.768  22.763  1.00  0.00    -0.205 F 
HETATM   18  C13 UNL     1      41.800  27.066  22.444  1.00  0.00     0.025 A 
HETATM   19  C15 UNL     1      40.497  27.152  22.109  1.00  0.00     0.071 A 
HETATM   20  C17 UNL     1      39.887  25.962  21.693  1.00  0.00     0.036 A 
BRANCH  18  21
HETATM   21  C14 UNL     1      42.648  28.240  22.758  1.00  0.00     0.207 C 
BRANCH  21  22
HETATM   22  O2  UNL     1      43.020  28.905  21.570  1.00  0.00    -0.396 OA
ATOM     23  H2  UNL     1      43.926  29.186  21.620  1.00  0.00     0.209 HD
ENDBRANCH  21  22
ENDBRANCH  18  21
BRANCH  19  24
HETATM   24  S1  UNL     1      39.508  28.576  22.085  1.00  0.00     0.172 S 
HETATM   25  C16 UNL     1      39.288  29.346  23.641  1.00  0.00     0.167 C 
HETATM   26  O3  UNL     1      40.032  29.649  21.130  1.00  0.00    -0.223 OA
HETATM   27  O4  UNL     1      38.140  28.150  21.548  1.00  0.00    -0.223 OA
ENDBRANCH  19  24
ENDBRANCH  10  14
ENDBRANCH   3   7
BRANCH   4  28
HETATM   28  C21 UNL     1      34.561  21.979  20.527  1.00  0.00     0.042 C 
HETATM   29  C22 UNL     1      33.615  21.369  21.647  1.00  0.00     0.029 C 
HETATM   30  C23 UNL     1      33.524  22.173  19.426  1.00  0.00     0.029 C 
BRANCH  28  31
HETATM   31  C24 UNL     1      35.024  23.206  21.159  1.00  0.00     0.001 A 
HETATM   32  C25 UNL     1      35.250  23.300  22.522  1.00  0.00     0.043 A 
HETATM   33 CL1  UNL     1      35.015  21.889  23.529  1.00  0.00    -0.084 Cl
HETATM   34  C26 UNL     1      35.635  24.456  23.198  1.00  0.00     0.024 A 
HETATM   35  C27 UNL     1      35.818  25.606  22.435  1.00  0.00     0.003 A 
HETATM   36  C28 UNL     1      35.610  25.578  21.096  1.00  0.00     0.024 A 
HETATM   37  C29 UNL     1      35.216  24.371  20.479  1.00  0.00     0.043 A 
HETATM   38 CL2  UNL     1      35.021  24.450  18.764  1.00  0.00    -0.084 Cl
ENDBRANCH  28  31
ENDBRANCH   4  28
BRANCH   1  39
HETATM   39  C2  UNL     1      35.970  17.398  19.108  1.00  0.00     0.094 C 
HETATM   40  C1  UNL     1      34.541  16.847  19.353  1.00  0.00     0.052 C 
HETATM   41  C3  UNL     1      36.847  16.503  19.955  1.00  0.00     0.052 C 
BRANCH  39  42
HETATM   42  O1  UNL     1      36.251  17.195  17.808  1.00  0.00    -0.384 OA
ATOM     43  H1  UNL     1      37.195  17.119  17.737  1.00  0.00     0.211 HD
ENDBRANCH  39  42
ENDBRANCH   1  39
TORSDOF 9
ENDMDL
