MODEL 1
REMARK VINA RESULT: -7.910720380      0.000      0.000
REMARK  1 active torsions:
REMARK  status: ('A' for Active; 'I' for Inactive)
REMARK    1  A    between atoms: C8_10  and  C9_11 
ROOT
HETATM    1  C1  UNL     1      19.807  10.751  18.525  1.00  0.00     0.049 C 
HETATM    2  C2  UNL     1      19.118  11.925  17.978  1.00  0.00    -0.046 A 
HETATM    3  C3  UNL     1      18.204  11.743  16.961  1.00  0.00     0.012 A 
HETATM    4  C4  UNL     1      17.545  12.829  16.432  1.00  0.00     0.050 A 
HETATM    5  C5  UNL     1      17.773  14.121  16.896  1.00  0.00     0.112 A 
HETATM    6  N1  UNL     1      17.250  15.305  16.549  1.00  0.00    -0.344 N 
ATOM      7  H1  UNL     1      16.549  15.442  15.821  1.00  0.00     0.167 HD
HETATM    8  C6  UNL     1      17.782  16.285  17.296  1.00  0.00     0.036 A 
HETATM    9  C7  UNL     1      17.473  17.744  17.204  1.00  0.00     0.070 C 
HETATM   10  C8  UNL     1      18.682  15.624  18.144  1.00  0.00     0.091 A 
HETATM   11  N4  UNL     1      18.667  14.290  17.888  1.00  0.00    -0.304 N 
HETATM   12  C12 UNL     1      19.318  13.218  18.411  1.00  0.00     0.105 A 
ENDROOT
BRANCH  10  13
HETATM   13  C9  UNL     1      19.448  16.318  19.162  1.00  0.00     0.078 A 
HETATM   14  C10 UNL     1      20.675  16.004  19.677  1.00  0.00     0.052 A 
HETATM   15  C11 UNL     1      21.074  16.990  20.584  1.00  0.00     0.109 A 
HETATM   16  N2  UNL     1      20.076  17.869  20.587  1.00  0.00    -0.311 N 
HETATM   17  N3  UNL     1      19.119  17.490  19.761  1.00  0.00    -0.299 N 
ATOM     18  H2  UNL     1      20.053  18.719  21.150  1.00  0.00     0.186 HD
ATOM     19  H3  UNL     1      18.255  18.005  19.596  1.00  0.00     0.187 HD
ENDBRANCH  10  13
TORSDOF 1
ENDMDL
