MODEL 11
REMARK VINA RESULT: -6.946412452      1.845      4.643
REMARK  1 active torsions:
REMARK  status: ('A' for Active; 'I' for Inactive)
REMARK    1  A    between atoms: C8_10  and  C9_11 
ROOT
HETATM    1  C1  UNL     1      23.377  12.999  20.606  1.00  0.00     0.049 C 
HETATM    2  C2  UNL     1      22.448  14.102  20.340  1.00  0.00    -0.046 A 
HETATM    3  C3  UNL     1      22.739  15.351  20.847  1.00  0.00     0.012 A 
HETATM    4  C4  UNL     1      21.883  16.402  20.610  1.00  0.00     0.050 A 
HETATM    5  C5  UNL     1      20.718  16.244  19.866  1.00  0.00     0.112 A 
HETATM    6  N1  UNL     1      19.759  17.107  19.503  1.00  0.00    -0.344 N 
ATOM      7  H1  UNL     1      19.742  18.096  19.750  1.00  0.00     0.167 HD
HETATM    8  C6  UNL     1      18.826  16.484  18.768  1.00  0.00     0.036 A 
HETATM    9  C7  UNL     1      17.591  17.095  18.190  1.00  0.00     0.070 C 
HETATM   10  C8  UNL     1      19.273  15.156  18.695  1.00  0.00     0.091 A 
HETATM   11  N4  UNL     1      20.440  15.021  19.375  1.00  0.00    -0.304 N 
HETATM   12  C12 UNL     1      21.286  13.983  19.608  1.00  0.00     0.105 A 
ENDROOT
BRANCH  10  13
HETATM   13  C9  UNL     1      18.569  14.137  17.940  1.00  0.00     0.078 A 
HETATM   14  C10 UNL     1      17.959  14.240  16.721  1.00  0.00     0.052 A 
HETATM   15  C11 UNL     1      17.470  12.989  16.329  1.00  0.00     0.109 A 
HETATM   16  N2  UNL     1      17.802  12.172  17.324  1.00  0.00    -0.311 N 
HETATM   17  N3  UNL     1      18.445  12.827  18.271  1.00  0.00    -0.299 N 
ATOM     18  H2  UNL     1      17.590  11.175  17.350  1.00  0.00     0.186 HD
ATOM     19  H3  UNL     1      18.798  12.409  19.132  1.00  0.00     0.187 HD
ENDBRANCH  10  13
TORSDOF 1
ENDMDL
