MODEL 8
REMARK VINA RESULT: -7.253688359      1.044      1.084
REMARK  1 active torsions:
REMARK  status: ('A' for Active; 'I' for Inactive)
REMARK    1  A    between atoms: C8_10  and  C9_11 
ROOT
HETATM    1  C1  UNL     1      20.508  10.302  18.136  1.00  0.00     0.049 C 
HETATM    2  C2  UNL     1      19.676  11.393  17.616  1.00  0.00    -0.046 A 
HETATM    3  C3  UNL     1      18.855  11.143  16.537  1.00  0.00     0.012 A 
HETATM    4  C4  UNL     1      18.064  12.150  16.031  1.00  0.00     0.050 A 
HETATM    5  C5  UNL     1      18.066  13.428  16.582  1.00  0.00     0.112 A 
HETATM    6  N1  UNL     1      17.386  14.540  16.272  1.00  0.00    -0.344 N 
ATOM      7  H1  UNL     1      16.711  14.618  15.513  1.00  0.00     0.167 HD
HETATM    8  C6  UNL     1      17.721  15.538  17.106  1.00  0.00     0.036 A 
HETATM    9  C7  UNL     1      17.196  16.936  17.079  1.00  0.00     0.070 C 
HETATM   10  C8  UNL     1      18.668  14.965  17.968  1.00  0.00     0.091 A 
HETATM   11  N4  UNL     1      18.872  13.664  17.635  1.00  0.00    -0.304 N 
HETATM   12  C12 UNL     1      19.652  12.670  18.134  1.00  0.00     0.105 A 
ENDROOT
BRANCH  10  13
HETATM   13  C9  UNL     1      19.264  15.697  19.069  1.00  0.00     0.078 A 
HETATM   14  C10 UNL     1      19.851  16.932  19.061  1.00  0.00     0.052 A 
HETATM   15  C11 UNL     1      20.222  17.288  20.361  1.00  0.00     0.109 A 
HETATM   16  N2  UNL     1      19.846  16.258  21.112  1.00  0.00    -0.311 N 
HETATM   17  N3  UNL     1      19.285  15.321  20.372  1.00  0.00    -0.299 N 
ATOM     18  H2  UNL     1      19.974  16.199  22.122  1.00  0.00     0.186 HD
ATOM     19  H3  UNL     1      18.918  14.438  20.728  1.00  0.00     0.187 HD
ENDBRANCH  10  13
TORSDOF 1
ENDMDL
