MODEL 10
REMARK VINA RESULT: -6.999335881      1.813      3.939
REMARK  1 active torsions:
REMARK  status: ('A' for Active; 'I' for Inactive)
REMARK    1  A    between atoms: C8_10  and  C9_11 
ROOT
HETATM    1  C1  UNL     1      17.137  18.111  17.511  1.00  0.00     0.049 C 
HETATM    2  C2  UNL     1      17.673  16.747  17.576  1.00  0.00    -0.046 A 
HETATM    3  C3  UNL     1      17.078  15.764  16.813  1.00  0.00     0.012 A 
HETATM    4  C4  UNL     1      17.564  14.477  16.857  1.00  0.00     0.050 A 
HETATM    5  C5  UNL     1      18.649  14.131  17.656  1.00  0.00     0.112 A 
HETATM    6  N1  UNL     1      19.290  12.970  17.846  1.00  0.00    -0.344 N 
ATOM      7  H1  UNL     1      19.046  12.089  17.395  1.00  0.00     0.167 HD
HETATM    8  C6  UNL     1      20.300  13.133  18.715  1.00  0.00     0.036 A 
HETATM    9  C7  UNL     1      21.239  12.076  19.200  1.00  0.00     0.070 C 
HETATM   10  C8  UNL     1      20.245  14.492  19.058  1.00  0.00     0.091 A 
HETATM   11  N4  UNL     1      19.224  15.096  18.398  1.00  0.00    -0.304 N 
HETATM   12  C12 UNL     1      18.745  16.367  18.355  1.00  0.00     0.105 A 
ENDROOT
BRANCH  10  13
HETATM   13  C9  UNL     1      21.205  15.109  19.953  1.00  0.00     0.078 A 
HETATM   14  C10 UNL     1      20.975  15.883  21.057  1.00  0.00     0.052 A 
HETATM   15  C11 UNL     1      22.190  16.204  21.671  1.00  0.00     0.109 A 
HETATM   16  N2  UNL     1      23.113  15.613  20.919  1.00  0.00    -0.311 N 
HETATM   17  N3  UNL     1      22.553  14.970  19.913  1.00  0.00    -0.299 N 
ATOM     18  H2  UNL     1      24.117  15.652  21.096  1.00  0.00     0.186 HD
ATOM     19  H3  UNL     1      23.062  14.442  19.203  1.00  0.00     0.187 HD
ENDBRANCH  10  13
TORSDOF 1
ENDMDL
