MODEL 2
REMARK VINA RESULT: -7.652550053      1.383      4.593
REMARK  1 active torsions:
REMARK  status: ('A' for Active; 'I' for Inactive)
REMARK    1  A    between atoms: C8_10  and  C9_11 
ROOT
HETATM    1  C1  UNL     1      22.784  14.293  20.731  1.00  0.00     0.049 C 
HETATM    2  C2  UNL     1      21.708  15.166  20.251  1.00  0.00    -0.046 A 
HETATM    3  C3  UNL     1      21.665  16.471  20.697  1.00  0.00     0.012 A 
HETATM    4  C4  UNL     1      20.664  17.310  20.262  1.00  0.00     0.050 A 
HETATM    5  C5  UNL     1      19.682  16.879  19.375  1.00  0.00     0.112 A 
HETATM    6  N1  UNL     1      18.640  17.507  18.815  1.00  0.00    -0.344 N 
ATOM      7  H1  UNL     1      18.389  18.482  18.980  1.00  0.00     0.167 HD
HETATM    8  C6  UNL     1      17.972  16.671  18.005  1.00  0.00     0.036 A 
HETATM    9  C7  UNL     1      16.745  16.986  17.213  1.00  0.00     0.070 C 
HETATM   10  C8  UNL     1      18.679  15.462  18.099  1.00  0.00     0.091 A 
HETATM   11  N4  UNL     1      19.731  15.604  18.945  1.00  0.00    -0.304 N 
HETATM   12  C12 UNL     1      20.719  14.775  19.375  1.00  0.00     0.105 A 
ENDROOT
BRANCH  10  13
HETATM   13  C9  UNL     1      18.315  14.286  17.332  1.00  0.00     0.078 A 
HETATM   14  C10 UNL     1      18.308  12.975  17.723  1.00  0.00     0.052 A 
HETATM   15  C11 UNL     1      17.812  12.176  16.688  1.00  0.00     0.109 A 
HETATM   16  N2  UNL     1      17.535  13.029  15.707  1.00  0.00    -0.311 N 
HETATM   17  N3  UNL     1      17.824  14.265  16.068  1.00  0.00    -0.299 N 
ATOM     18  H2  UNL     1      17.153  12.765  14.799  1.00  0.00     0.186 HD
ATOM     19  H3  UNL     1      17.695  15.089  15.481  1.00  0.00     0.187 HD
ENDBRANCH  10  13
TORSDOF 1
ENDMDL
