MODEL 17
REMARK VINA RESULT: -6.664191680      1.877      4.913
REMARK  1 active torsions:
REMARK  status: ('A' for Active; 'I' for Inactive)
REMARK    1  A    between atoms: C8_10  and  C9_11 
ROOT
HETATM    1  C1  UNL     1      23.906  13.662  21.515  1.00  0.00     0.049 C 
HETATM    2  C2  UNL     1      22.979  14.728  21.121  1.00  0.00    -0.046 A 
HETATM    3  C3  UNL     1      23.230  16.015  21.546  1.00  0.00     0.012 A 
HETATM    4  C4  UNL     1      22.375  17.033  21.189  1.00  0.00     0.050 A 
HETATM    5  C5  UNL     1      21.251  16.802  20.403  1.00  0.00     0.112 A 
HETATM    6  N1  UNL     1      20.302  17.621  19.929  1.00  0.00    -0.344 N 
ATOM      7  H1  UNL     1      20.261  18.626  20.100  1.00  0.00     0.167 HD
HETATM    8  C6  UNL     1      19.414  16.931  19.198  1.00  0.00     0.036 A 
HETATM    9  C7  UNL     1      18.203  17.479  18.515  1.00  0.00     0.070 C 
HETATM   10  C8  UNL     1      19.879  15.609  19.247  1.00  0.00     0.091 A 
HETATM   11  N4  UNL     1      21.012  15.542  19.992  1.00  0.00    -0.304 N 
HETATM   12  C12 UNL     1      21.857  14.537  20.344  1.00  0.00     0.105 A 
ENDROOT
BRANCH  10  13
HETATM   13  C9  UNL     1      19.225  14.526  18.537  1.00  0.00     0.078 A 
HETATM   14  C10 UNL     1      19.296  13.180  18.769  1.00  0.00     0.052 A 
HETATM   15  C11 UNL     1      18.443  12.503  17.893  1.00  0.00     0.109 A 
HETATM   16  N2  UNL     1      17.884  13.461  17.160  1.00  0.00    -0.311 N 
HETATM   17  N3  UNL     1      18.330  14.647  17.525  1.00  0.00    -0.299 N 
ATOM     18  H2  UNL     1      17.203  13.300  16.418  1.00  0.00     0.186 HD
ATOM     19  H3  UNL     1      18.044  15.532  17.105  1.00  0.00     0.187 HD
ENDBRANCH  10  13
TORSDOF 1
ENDMDL
