MODEL 6
REMARK VINA RESULT: -9.365389739      1.116      1.444
REMARK  14 active torsions:
REMARK  status: ('A' for Active; 'I' for Inactive)
REMARK    1  A    between atoms: C1_2  and  C2_6 
REMARK    2  A    between atoms: C5_9  and  C6_10 
REMARK    3  A    between atoms: C6_10  and  N3_11 
REMARK       I    between atoms: N3_11  and  C7_13 
REMARK    4  A    between atoms: C7_13  and  C8_15 
REMARK    5  A    between atoms: C8_15  and  N4_16 
REMARK       I    between atoms: N4_16  and  C9_18 
REMARK    6  A    between atoms: C9_18  and  C10_20 
REMARK    7  A    between atoms: C10_20  and  C11_21 
REMARK    8  A    between atoms: C10_20  and  N5_30 
REMARK    9  A    between atoms: C11_21  and  O3_22 
REMARK   10  A    between atoms: O3_22  and  C12_23 
REMARK   11  A    between atoms: C12_23  and  C13_24 
REMARK   12  A    between atoms: N5_30  and  S1_32 
REMARK   13  A    between atoms: S1_32  and  C19_35 
REMARK   14  A    between atoms: C19_35  and  C20_36 
ROOT
HETATM    1  C10 UNL     1       5.628   5.617  19.053  1.00  0.00     0.208 C 
ENDROOT
BRANCH   1   2
HETATM    2  C9  UNL     1       6.411   6.876  18.794  1.00  0.00     0.243 C 
HETATM    3  N4  UNL     1       7.709   7.083  19.324  1.00  0.00    -0.350 N 
ATOM      4  H4  UNL     1       8.133   6.357  19.901  1.00  0.00     0.163 HD
HETATM    5  O2  UNL     1       5.926   7.804  18.083  1.00  0.00    -0.271 OA
BRANCH   3   6
HETATM    6  C8  UNL     1       8.447   8.303  19.064  1.00  0.00     0.225 C 
BRANCH   6   7
HETATM    7  C7  UNL     1       8.357   9.144  20.308  1.00  0.00     0.235 C 
HETATM    8  N3  UNL     1       7.949   8.582  21.546  1.00  0.00    -0.355 N 
ATOM      9  H3  UNL     1       7.717   7.589  21.586  1.00  0.00     0.162 HD
HETATM   10  O1  UNL     1       8.642  10.368  20.291  1.00  0.00    -0.272 OA
BRANCH   8  11
HETATM   11  C6  UNL     1       7.852   9.365  22.738  1.00  0.00     0.161 C 
BRANCH  11  12
HETATM   12  C5  UNL     1       8.793   8.836  23.744  1.00  0.00    -0.040 A 
HETATM   13  C4  UNL     1       8.402   8.058  24.804  1.00  0.00     0.010 A 
HETATM   14  C3  UNL     1       9.326   7.590  25.709  1.00  0.00     0.015 A 
HETATM   15  C2  UNL     1      10.667   7.897  25.566  1.00  0.00     0.004 A 
HETATM   16  C27 UNL     1      11.069   8.674  24.512  1.00  0.00     0.015 A 
HETATM   17  C26 UNL     1      10.129   9.139  23.606  1.00  0.00     0.010 A 
BRANCH  15  18
HETATM   18  C1  UNL     1      11.621   7.391  26.526  1.00  0.00     0.120 C 
HETATM   19  N1  UNL     1      13.011   7.463  26.214  1.00  0.00    -0.082 NA
HETATM   20  N2  UNL     1      11.223   6.892  27.636  1.00  0.00    -0.387 N 
ATOM     21  H22 UNL     1      11.896   6.534  28.313  1.00  0.00     0.157 HD
ATOM     22  H21 UNL     1      10.229   6.840  27.859  1.00  0.00     0.157 HD
ENDBRANCH  15  18
ENDBRANCH  11  12
ENDBRANCH   8  11
ENDBRANCH   6   7
ENDBRANCH   3   6
ENDBRANCH   1   2
BRANCH   1  23
HETATM   23  C11 UNL     1       6.323   4.417  18.502  1.00  0.00     0.203 C 
BRANCH  23  24
HETATM   24  O3  UNL     1       7.257   3.964  19.406  1.00  0.00    -0.384 OA
BRANCH  24  25
HETATM   25  C12 UNL     1       7.199   2.611  19.636  1.00  0.00     0.206 C 
BRANCH  25  26
HETATM   26  C13 UNL     1       7.827   1.828  18.551  1.00  0.00    -0.035 A 
HETATM   27  C14 UNL     1       9.213   1.798  18.464  1.00  0.00     0.009 A 
HETATM   28  C15 UNL     1       9.841   1.089  17.472  1.00  0.00     0.001 A 
HETATM   29  C16 UNL     1       9.075   0.401  16.553  1.00  0.00     0.000 A 
HETATM   30  C17 UNL     1       7.703   0.407  16.606  1.00  0.00     0.001 A 
HETATM   31  C18 UNL     1       7.102   1.127  17.613  1.00  0.00     0.009 A 
ENDBRANCH  25  26
ENDBRANCH  24  25
ENDBRANCH  23  24
ENDBRANCH   1  23
BRANCH   1  32
HETATM   32  N5  UNL     1       5.379   5.466  20.454  1.00  0.00    -0.303 N 
ATOM     33  H5  UNL     1       5.988   5.846  21.180  1.00  0.00     0.173 HD
BRANCH  32  34
HETATM   34  S1  UNL     1       3.930   4.564  20.789  1.00  0.00     0.231 S 
HETATM   35  O4  UNL     1       4.224   3.296  21.529  1.00  0.00    -0.206 OA
HETATM   36  O5  UNL     1       3.388   4.153  19.434  1.00  0.00    -0.206 OA
BRANCH  34  37
HETATM   37  C19 UNL     1       2.821   5.615  21.645  1.00  0.00     0.201 C 
BRANCH  37  38
HETATM   38  C20 UNL     1       3.482   6.584  22.543  1.00  0.00    -0.043 A 
HETATM   39  C21 UNL     1       3.389   7.936  22.288  1.00  0.00     0.008 A 
HETATM   40  C22 UNL     1       3.979   8.880  23.093  1.00  0.00     0.001 A 
HETATM   41  C23 UNL     1       4.704   8.503  24.211  1.00  0.00     0.000 A 
HETATM   42  C24 UNL     1       4.807   7.160  24.481  1.00  0.00     0.001 A 
HETATM   43  C25 UNL     1       4.203   6.214  23.655  1.00  0.00     0.008 A 
ENDBRANCH  37  38
ENDBRANCH  34  37
ENDBRANCH  32  34
ENDBRANCH   1  32
TORSDOF 14
ENDMDL
