MODEL 2
REMARK VINA RESULT: -9.756996147      1.412      1.869
REMARK  14 active torsions:
REMARK  status: ('A' for Active; 'I' for Inactive)
REMARK    1  A    between atoms: C1_2  and  C2_6 
REMARK    2  A    between atoms: C5_9  and  C6_10 
REMARK    3  A    between atoms: C6_10  and  N3_11 
REMARK       I    between atoms: N3_11  and  C7_13 
REMARK    4  A    between atoms: C7_13  and  C8_15 
REMARK    5  A    between atoms: C8_15  and  N4_16 
REMARK       I    between atoms: N4_16  and  C9_18 
REMARK    6  A    between atoms: C9_18  and  C10_20 
REMARK    7  A    between atoms: C10_20  and  C11_21 
REMARK    8  A    between atoms: C10_20  and  N5_30 
REMARK    9  A    between atoms: C11_21  and  O3_22 
REMARK   10  A    between atoms: O3_22  and  C12_23 
REMARK   11  A    between atoms: C12_23  and  C13_24 
REMARK   12  A    between atoms: N5_30  and  S1_32 
REMARK   13  A    between atoms: S1_32  and  C19_35 
REMARK   14  A    between atoms: C19_35  and  C20_36 
ROOT
HETATM    1  C10 UNL     1       5.580   4.009  20.661  1.00  0.00     0.208 C 
ENDROOT
BRANCH   1   2
HETATM    2  C9  UNL     1       5.599   5.300  19.887  1.00  0.00     0.243 C 
HETATM    3  N4  UNL     1       6.707   6.183  19.916  1.00  0.00    -0.350 N 
ATOM      4  H4  UNL     1       7.522   5.942  20.479  1.00  0.00     0.163 HD
HETATM    5  O2  UNL     1       4.611   5.640  19.174  1.00  0.00    -0.271 OA
BRANCH   3   6
HETATM    6  C8  UNL     1       6.706   7.422  19.164  1.00  0.00     0.225 C 
BRANCH   6   7
HETATM    7  C7  UNL     1       7.724   8.326  19.803  1.00  0.00     0.235 C 
HETATM    8  N3  UNL     1       7.557   8.792  21.134  1.00  0.00    -0.355 N 
ATOM      9  H3  UNL     1       6.733   8.502  21.660  1.00  0.00     0.162 HD
HETATM   10  O1  UNL     1       8.752   8.695  19.183  1.00  0.00    -0.272 OA
BRANCH   8  11
HETATM   11  C6  UNL     1       8.509   9.656  21.759  1.00  0.00     0.161 C 
BRANCH  11  12
HETATM   12  C5  UNL     1       8.977   9.036  23.014  1.00  0.00    -0.040 A 
HETATM   13  C4  UNL     1      10.224   9.254  23.540  1.00  0.00     0.010 A 
HETATM   14  C3  UNL     1      10.604   8.651  24.717  1.00  0.00     0.015 A 
HETATM   15  C2  UNL     1       9.734   7.813  25.390  1.00  0.00     0.004 A 
HETATM   16  C27 UNL     1       8.485   7.588  24.874  1.00  0.00     0.015 A 
HETATM   17  C26 UNL     1       8.113   8.201  23.687  1.00  0.00     0.010 A 
BRANCH  15  18
HETATM   18  C1  UNL     1      10.152   7.195  26.626  1.00  0.00     0.120 C 
HETATM   19  N1  UNL     1      11.547   7.100  26.908  1.00  0.00    -0.082 NA
HETATM   20  N2  UNL     1       9.283   6.745  27.454  1.00  0.00    -0.387 N 
ATOM     21  H22 UNL     1       9.578   6.308  28.327  1.00  0.00     0.157 HD
ATOM     22  H21 UNL     1       8.286   6.813  27.252  1.00  0.00     0.157 HD
ENDBRANCH  15  18
ENDBRANCH  11  12
ENDBRANCH   8  11
ENDBRANCH   6   7
ENDBRANCH   3   6
ENDBRANCH   1   2
BRANCH   1  23
HETATM   23  C11 UNL     1       6.903   3.321  20.612  1.00  0.00     0.203 C 
BRANCH  23  24
HETATM   24  O3  UNL     1       6.719   1.975  20.385  1.00  0.00    -0.384 OA
BRANCH  24  25
HETATM   25  C12 UNL     1       6.279   1.680  19.118  1.00  0.00     0.206 C 
BRANCH  25  26
HETATM   26  C13 UNL     1       7.358   1.157  18.254  1.00  0.00    -0.035 A 
HETATM   27  C14 UNL     1       8.638   1.036  18.781  1.00  0.00     0.009 A 
HETATM   28  C15 UNL     1       9.672   0.560  18.017  1.00  0.00     0.001 A 
HETATM   29  C16 UNL     1       9.427   0.201  16.707  1.00  0.00     0.000 A 
HETATM   30  C17 UNL     1       8.176   0.307  16.150  1.00  0.00     0.001 A 
HETATM   31  C18 UNL     1       7.159   0.788  16.942  1.00  0.00     0.009 A 
ENDBRANCH  25  26
ENDBRANCH  24  25
ENDBRANCH  23  24
ENDBRANCH   1  23
BRANCH   1  32
HETATM   32  N5  UNL     1       5.177   4.248  22.014  1.00  0.00    -0.303 N 
ATOM     33  H5  UNL     1       5.815   4.557  22.747  1.00  0.00     0.173 HD
BRANCH  32  34
HETATM   34  S1  UNL     1       3.482   3.953  22.275  1.00  0.00     0.231 S 
HETATM   35  O4  UNL     1       3.237   3.233  23.565  1.00  0.00    -0.206 OA
HETATM   36  O5  UNL     1       3.062   3.006  21.170  1.00  0.00    -0.206 OA
BRANCH  34  37
HETATM   37  C19 UNL     1       2.643   5.487  22.177  1.00  0.00     0.201 C 
BRANCH  37  38
HETATM   38  C20 UNL     1       3.268   6.567  22.965  1.00  0.00    -0.043 A 
HETATM   39  C21 UNL     1       3.939   7.589  22.326  1.00  0.00     0.008 A 
HETATM   40  C22 UNL     1       4.535   8.621  23.010  1.00  0.00     0.001 A 
HETATM   41  C23 UNL     1       4.482   8.676  24.393  1.00  0.00     0.000 A 
HETATM   42  C24 UNL     1       3.818   7.668  25.046  1.00  0.00     0.001 A 
HETATM   43  C25 UNL     1       3.219   6.627  24.339  1.00  0.00     0.008 A 
ENDBRANCH  37  38
ENDBRANCH  34  37
ENDBRANCH  32  34
ENDBRANCH   1  32
TORSDOF 14
ENDMDL
