MODEL 8
REMARK VINA RESULT: -9.323888786      1.148      1.544
REMARK  14 active torsions:
REMARK  status: ('A' for Active; 'I' for Inactive)
REMARK    1  A    between atoms: C1_2  and  C2_6 
REMARK    2  A    between atoms: C5_9  and  C6_10 
REMARK    3  A    between atoms: C6_10  and  N3_11 
REMARK       I    between atoms: N3_11  and  C7_13 
REMARK    4  A    between atoms: C7_13  and  C8_15 
REMARK    5  A    between atoms: C8_15  and  N4_16 
REMARK       I    between atoms: N4_16  and  C9_18 
REMARK    6  A    between atoms: C9_18  and  C10_20 
REMARK    7  A    between atoms: C10_20  and  C11_21 
REMARK    8  A    between atoms: C10_20  and  N5_30 
REMARK    9  A    between atoms: C11_21  and  O3_22 
REMARK   10  A    between atoms: O3_22  and  C12_23 
REMARK   11  A    between atoms: C12_23  and  C13_24 
REMARK   12  A    between atoms: N5_30  and  S1_32 
REMARK   13  A    between atoms: S1_32  and  C19_35 
REMARK   14  A    between atoms: C19_35  and  C20_36 
ROOT
HETATM    1  C10 UNL     1       4.844   6.214  18.710  1.00  0.00     0.208 C 
ENDROOT
BRANCH   1   2
HETATM    2  C9  UNL     1       5.999   7.161  18.526  1.00  0.00     0.243 C 
HETATM    3  N4  UNL     1       7.159   7.107  19.338  1.00  0.00    -0.350 N 
ATOM      4  H4  UNL     1       7.220   6.404  20.075  1.00  0.00     0.163 HD
HETATM    5  O2  UNL     1       5.970   8.048  17.624  1.00  0.00    -0.271 OA
BRANCH   3   6
HETATM    6  C8  UNL     1       8.261   8.028  19.145  1.00  0.00     0.225 C 
BRANCH   6   7
HETATM    7  C7  UNL     1       8.298   8.928  20.349  1.00  0.00     0.235 C 
HETATM    8  N3  UNL     1       7.688   8.543  21.573  1.00  0.00    -0.355 N 
ATOM      9  H3  UNL     1       7.223   7.637  21.629  1.00  0.00     0.162 HD
HETATM   10  O1  UNL     1       8.868  10.047  20.312  1.00  0.00    -0.272 OA
BRANCH   8  11
HETATM   11  C6  UNL     1       7.707   9.385  22.727  1.00  0.00     0.161 C 
BRANCH  11  12
HETATM   12  C5  UNL     1       8.709   8.878  23.683  1.00  0.00    -0.040 A 
HETATM   13  C4  UNL     1      10.053   9.120  23.562  1.00  0.00     0.010 A 
HETATM   14  C3  UNL     1      10.942   8.624  24.488  1.00  0.00     0.015 A 
HETATM   15  C2  UNL     1      10.494   7.870  25.557  1.00  0.00     0.004 A 
HETATM   16  C27 UNL     1       9.154   7.620  25.688  1.00  0.00     0.015 A 
HETATM   17  C26 UNL     1       8.267   8.126  24.749  1.00  0.00     0.010 A 
BRANCH  15  18
HETATM   18  C1  UNL     1      11.444   7.362  26.520  1.00  0.00     0.120 C 
HETATM   19  N1  UNL     1      12.837   7.543  26.269  1.00  0.00    -0.082 NA
HETATM   20  N2  UNL     1      11.040   6.767  27.579  1.00  0.00    -0.387 N 
ATOM     21  H22 UNL     1      11.711   6.408  28.259  1.00  0.00     0.157 HD
ATOM     22  H21 UNL     1      10.044   6.638  27.758  1.00  0.00     0.157 HD
ENDBRANCH  15  18
ENDBRANCH  11  12
ENDBRANCH   8  11
ENDBRANCH   6   7
ENDBRANCH   3   6
ENDBRANCH   1   2
BRANCH   1  23
HETATM   23  C11 UNL     1       5.137   4.873  18.126  1.00  0.00     0.203 C 
BRANCH  23  24
HETATM   24  O3  UNL     1       6.483   4.601  18.236  1.00  0.00    -0.384 OA
BRANCH  24  25
HETATM   25  C12 UNL     1       6.768   3.515  19.027  1.00  0.00     0.206 C 
BRANCH  25  26
HETATM   26  C13 UNL     1       7.476   2.450  18.288  1.00  0.00    -0.035 A 
HETATM   27  C14 UNL     1       8.812   2.204  18.582  1.00  0.00     0.009 A 
HETATM   28  C15 UNL     1       9.511   1.229  17.919  1.00  0.00     0.001 A 
HETATM   29  C16 UNL     1       8.870   0.488  16.947  1.00  0.00     0.000 A 
HETATM   30  C17 UNL     1       7.552   0.701  16.628  1.00  0.00     0.001 A 
HETATM   31  C18 UNL     1       6.876   1.687  17.311  1.00  0.00     0.009 A 
ENDBRANCH  25  26
ENDBRANCH  24  25
ENDBRANCH  23  24
ENDBRANCH   1  23
BRANCH   1  32
HETATM   32  N5  UNL     1       4.507   6.106  20.097  1.00  0.00    -0.303 N 
ATOM     33  H5  UNL     1       4.937   5.433  20.731  1.00  0.00     0.173 HD
BRANCH  32  34
HETATM   34  S1  UNL     1       3.285   7.244  20.586  1.00  0.00     0.231 S 
HETATM   35  O4  UNL     1       2.263   6.611  21.479  1.00  0.00    -0.206 OA
HETATM   36  O5  UNL     1       2.559   7.628  19.312  1.00  0.00    -0.206 OA
BRANCH  34  37
HETATM   37  C19 UNL     1       4.084   8.616  21.324  1.00  0.00     0.201 C 
BRANCH  37  38
HETATM   38  C20 UNL     1       3.812   8.767  22.767  1.00  0.00    -0.043 A 
HETATM   39  C21 UNL     1       4.535   8.037  23.687  1.00  0.00     0.008 A 
HETATM   40  C22 UNL     1       4.326   8.143  25.041  1.00  0.00     0.001 A 
HETATM   41  C23 UNL     1       3.364   9.002  25.542  1.00  0.00     0.000 A 
HETATM   42  C24 UNL     1       2.634   9.738  24.641  1.00  0.00     0.001 A 
HETATM   43  C25 UNL     1       2.856   9.620  23.271  1.00  0.00     0.008 A 
ENDBRANCH  37  38
ENDBRANCH  34  37
ENDBRANCH  32  34
ENDBRANCH   1  32
TORSDOF 14
ENDMDL
