MODEL 1
REMARK VINA RESULT: -9.838846900      0.000      0.000
REMARK  14 active torsions:
REMARK  status: ('A' for Active; 'I' for Inactive)
REMARK    1  A    between atoms: C1_2  and  C2_6 
REMARK    2  A    between atoms: C5_9  and  C6_10 
REMARK    3  A    between atoms: C6_10  and  N3_11 
REMARK       I    between atoms: N3_11  and  C7_13 
REMARK    4  A    between atoms: C7_13  and  C8_15 
REMARK    5  A    between atoms: C8_15  and  N4_16 
REMARK       I    between atoms: N4_16  and  C9_18 
REMARK    6  A    between atoms: C9_18  and  C10_20 
REMARK    7  A    between atoms: C10_20  and  C11_21 
REMARK    8  A    between atoms: C10_20  and  N5_30 
REMARK    9  A    between atoms: C11_21  and  O3_22 
REMARK   10  A    between atoms: O3_22  and  C12_23 
REMARK   11  A    between atoms: C12_23  and  C13_24 
REMARK   12  A    between atoms: N5_30  and  S1_32 
REMARK   13  A    between atoms: S1_32  and  C19_35 
REMARK   14  A    between atoms: C19_35  and  C20_36 
ROOT
HETATM    1  C10 UNL     1       6.129   5.074  19.625  1.00  0.00     0.208 C 
ENDROOT
BRANCH   1   2
HETATM    2  C9  UNL     1       6.575   6.394  19.055  1.00  0.00     0.243 C 
HETATM    3  N4  UNL     1       7.700   7.094  19.557  1.00  0.00    -0.350 N 
ATOM      4  H4  UNL     1       8.231   6.695  20.331  1.00  0.00     0.163 HD
HETATM    5  O2  UNL     1       5.949   6.926  18.093  1.00  0.00    -0.271 OA
BRANCH   3   6
HETATM    6  C8  UNL     1       8.113   8.364  18.994  1.00  0.00     0.225 C 
BRANCH   6   7
HETATM    7  C7  UNL     1       8.269   9.323  20.142  1.00  0.00     0.235 C 
HETATM    8  N3  UNL     1       8.257   8.867  21.487  1.00  0.00    -0.355 N 
ATOM      9  H3  UNL     1       8.145   7.870  21.669  1.00  0.00     0.162 HD
HETATM   10  O1  UNL     1       8.414  10.556  19.948  1.00  0.00    -0.272 OA
BRANCH   8  11
HETATM   11  C6  UNL     1       8.397   9.762  22.592  1.00  0.00     0.161 C 
BRANCH  11  12
HETATM   12  C5  UNL     1       9.173   9.100  23.658  1.00  0.00    -0.040 A 
HETATM   13  C4  UNL     1       8.610   8.267  24.590  1.00  0.00     0.010 A 
HETATM   14  C3  UNL     1       9.386   7.674  25.560  1.00  0.00     0.015 A 
HETATM   15  C2  UNL     1      10.748   7.909  25.611  1.00  0.00     0.004 A 
HETATM   16  C27 UNL     1      11.321   8.740  24.686  1.00  0.00     0.015 A 
HETATM   17  C26 UNL     1      10.530   9.332  23.713  1.00  0.00     0.010 A 
BRANCH  15  18
HETATM   18  C1  UNL     1      11.544   7.272  26.635  1.00  0.00     0.120 C 
HETATM   19  N1  UNL     1      12.962   7.243  26.481  1.00  0.00    -0.082 NA
HETATM   20  N2  UNL     1      10.984   6.750  27.662  1.00  0.00    -0.387 N 
ATOM     21  H22 UNL     1      11.546   6.300  28.384  1.00  0.00     0.157 HD
ATOM     22  H21 UNL     1       9.970   6.771  27.771  1.00  0.00     0.157 HD
ENDBRANCH  15  18
ENDBRANCH  11  12
ENDBRANCH   8  11
ENDBRANCH   6   7
ENDBRANCH   3   6
ENDBRANCH   1   2
BRANCH   1  23
HETATM   23  C11 UNL     1       6.862   3.933  19.002  1.00  0.00     0.203 C 
BRANCH  23  24
HETATM   24  O3  UNL     1       6.195   2.756  19.260  1.00  0.00    -0.384 OA
BRANCH  24  25
HETATM   25  C12 UNL     1       7.019   1.716  19.614  1.00  0.00     0.206 C 
BRANCH  25  26
HETATM   26  C13 UNL     1       7.746   1.153  18.457  1.00  0.00    -0.035 A 
HETATM   27  C14 UNL     1       9.113   0.935  18.567  1.00  0.00     0.009 A 
HETATM   28  C15 UNL     1       9.830   0.419  17.519  1.00  0.00     0.001 A 
HETATM   29  C16 UNL     1       9.175   0.117  16.342  1.00  0.00     0.000 A 
HETATM   30  C17 UNL     1       7.825   0.319  16.195  1.00  0.00     0.001 A 
HETATM   31  C18 UNL     1       7.132   0.838  17.265  1.00  0.00     0.009 A 
ENDBRANCH  25  26
ENDBRANCH  24  25
ENDBRANCH  23  24
ENDBRANCH   1  23
BRANCH   1  32
HETATM   32  N5  UNL     1       6.288   5.069  21.047  1.00  0.00    -0.303 N 
ATOM     33  H5  UNL     1       7.094   4.664  21.524  1.00  0.00     0.173 HD
BRANCH  32  34
HETATM   34  S1  UNL     1       4.959   5.824  21.878  1.00  0.00     0.231 S 
HETATM   35  O4  UNL     1       4.381   4.928  22.929  1.00  0.00    -0.206 OA
HETATM   36  O5  UNL     1       3.879   6.006  20.830  1.00  0.00    -0.206 OA
BRANCH  34  37
HETATM   37  C19 UNL     1       5.517   7.357  22.515  1.00  0.00     0.201 C 
BRANCH  37  38
HETATM   38  C20 UNL     1       4.520   8.065  23.342  1.00  0.00    -0.043 A 
HETATM   39  C21 UNL     1       4.531   7.920  24.713  1.00  0.00     0.008 A 
HETATM   40  C22 UNL     1       3.630   8.559  25.530  1.00  0.00     0.001 A 
HETATM   41  C23 UNL     1       2.658   9.389  24.997  1.00  0.00     0.000 A 
HETATM   42  C24 UNL     1       2.631   9.546  23.633  1.00  0.00     0.001 A 
HETATM   43  C25 UNL     1       3.552   8.891  22.817  1.00  0.00     0.008 A 
ENDBRANCH  37  38
ENDBRANCH  34  37
ENDBRANCH  32  34
ENDBRANCH   1  32
TORSDOF 14
ENDMDL
