MODEL 4
REMARK VINA RESULT: -9.728227444      2.626      8.695
REMARK  14 active torsions:
REMARK  status: ('A' for Active; 'I' for Inactive)
REMARK    1  A    between atoms: C1_2  and  C2_6 
REMARK    2  A    between atoms: C5_9  and  C6_10 
REMARK    3  A    between atoms: C6_10  and  N3_11 
REMARK       I    between atoms: N3_11  and  C7_13 
REMARK    4  A    between atoms: C7_13  and  C8_15 
REMARK    5  A    between atoms: C8_15  and  N4_16 
REMARK       I    between atoms: N4_16  and  C9_18 
REMARK    6  A    between atoms: C9_18  and  C10_20 
REMARK    7  A    between atoms: C10_20  and  C11_21 
REMARK    8  A    between atoms: C10_20  and  N5_30 
REMARK    9  A    between atoms: C11_21  and  O3_22 
REMARK   10  A    between atoms: O3_22  and  C12_23 
REMARK   11  A    between atoms: C12_23  and  C13_24 
REMARK   12  A    between atoms: N5_30  and  S1_32 
REMARK   13  A    between atoms: S1_32  and  C19_35 
REMARK   14  A    between atoms: C19_35  and  C20_36 
ROOT
HETATM    1  C10 UNL     1       6.753   7.791  23.068  1.00  0.00     0.208 C 
ENDROOT
BRANCH   1   2
HETATM    2  C9  UNL     1       5.455   7.192  22.600  1.00  0.00     0.243 C 
HETATM    3  N4  UNL     1       5.347   5.836  22.201  1.00  0.00    -0.350 N 
ATOM      4  H4  UNL     1       6.174   5.241  22.231  1.00  0.00     0.163 HD
HETATM    5  O2  UNL     1       4.402   7.892  22.548  1.00  0.00    -0.271 OA
BRANCH   3   6
HETATM    6  C8  UNL     1       4.087   5.278  21.753  1.00  0.00     0.225 C 
BRANCH   6   7
HETATM    7  C7  UNL     1       4.291   3.795  21.606  1.00  0.00     0.235 C 
HETATM    8  N3  UNL     1       5.591   3.245  21.448  1.00  0.00    -0.355 N 
ATOM      9  H3  UNL     1       6.395   3.872  21.438  1.00  0.00     0.162 HD
HETATM   10  O1  UNL     1       3.321   2.997  21.620  1.00  0.00    -0.272 OA
BRANCH   8  11
HETATM   11  C6  UNL     1       5.806   1.840  21.301  1.00  0.00     0.161 C 
BRANCH  11  12
HETATM   12  C5  UNL     1       6.355   1.570  19.959  1.00  0.00    -0.040 A 
HETATM   13  C4  UNL     1       5.581   1.507  18.829  1.00  0.00     0.010 A 
HETATM   14  C3  UNL     1       6.150   1.256  17.602  1.00  0.00     0.015 A 
HETATM   15  C2  UNL     1       7.514   1.060  17.486  1.00  0.00     0.004 A 
HETATM   16  C27 UNL     1       8.298   1.120  18.608  1.00  0.00     0.015 A 
HETATM   17  C26 UNL     1       7.713   1.375  19.840  1.00  0.00     0.010 A 
BRANCH  15  18
HETATM   18  C1  UNL     1       8.090   0.802  16.187  1.00  0.00     0.120 C 
HETATM   19  N1  UNL     1       9.187  -0.105  16.092  1.00  0.00    -0.082 NA
HETATM   20  N2  UNL     1       7.621   1.375  15.143  1.00  0.00    -0.387 N 
ATOM     21  H22 UNL     1       8.028   1.193  14.226  1.00  0.00     0.157 HD
ATOM     22  H21 UNL     1       6.837   2.024  15.211  1.00  0.00     0.157 HD
ENDBRANCH  15  18
ENDBRANCH  11  12
ENDBRANCH   8  11
ENDBRANCH   6   7
ENDBRANCH   3   6
ENDBRANCH   1   2
BRANCH   1  23
HETATM   23  C11 UNL     1       7.063   7.398  24.474  1.00  0.00     0.203 C 
BRANCH  23  24
HETATM   24  O3  UNL     1       8.419   7.200  24.614  1.00  0.00    -0.384 OA
BRANCH  24  25
HETATM   25  C12 UNL     1       9.084   8.273  25.155  1.00  0.00     0.206 C 
BRANCH  25  26
HETATM   26  C13 UNL     1      10.477   7.944  25.524  1.00  0.00    -0.035 A 
HETATM   27  C14 UNL     1      10.707   7.202  26.677  1.00  0.00     0.009 A 
HETATM   28  C15 UNL     1      11.982   6.877  27.062  1.00  0.00     0.001 A 
HETATM   29  C16 UNL     1      13.044   7.298  26.287  1.00  0.00     0.000 A 
HETATM   30  C17 UNL     1      12.857   8.033  25.142  1.00  0.00     0.001 A 
HETATM   31  C18 UNL     1      11.566   8.344  24.782  1.00  0.00     0.009 A 
ENDBRANCH  25  26
ENDBRANCH  24  25
ENDBRANCH  23  24
ENDBRANCH   1  23
BRANCH   1  32
HETATM   32  N5  UNL     1       7.818   7.420  22.187  1.00  0.00    -0.303 N 
ATOM     33  H5  UNL     1       8.187   6.472  22.115  1.00  0.00     0.173 HD
BRANCH  32  34
HETATM   34  S1  UNL     1       8.418   8.759  21.252  1.00  0.00     0.231 S 
HETATM   35  O4  UNL     1       9.694   9.302  21.816  1.00  0.00    -0.206 OA
HETATM   36  O5  UNL     1       7.383   9.854  21.404  1.00  0.00    -0.206 OA
BRANCH  34  37
HETATM   37  C19 UNL     1       8.574   8.233  19.588  1.00  0.00     0.201 C 
BRANCH  37  38
HETATM   38  C20 UNL     1       7.572   7.231  19.177  1.00  0.00    -0.043 A 
HETATM   39  C21 UNL     1       7.916   5.897  19.107  1.00  0.00     0.008 A 
HETATM   40  C22 UNL     1       7.022   4.923  18.734  1.00  0.00     0.001 A 
HETATM   41  C23 UNL     1       5.716   5.249  18.409  1.00  0.00     0.000 A 
HETATM   42  C24 UNL     1       5.354   6.572  18.474  1.00  0.00     0.001 A 
HETATM   43  C25 UNL     1       6.272   7.549  18.853  1.00  0.00     0.008 A 
ENDBRANCH  37  38
ENDBRANCH  34  37
ENDBRANCH  32  34
ENDBRANCH   1  32
TORSDOF 14
ENDMDL
