MODEL 5
REMARK VINA RESULT: -9.549489864      1.503      7.047
REMARK  14 active torsions:
REMARK  status: ('A' for Active; 'I' for Inactive)
REMARK    1  A    between atoms: C1_2  and  C2_6 
REMARK    2  A    between atoms: C5_9  and  C6_10 
REMARK    3  A    between atoms: C6_10  and  N3_11 
REMARK       I    between atoms: N3_11  and  C7_13 
REMARK    4  A    between atoms: C7_13  and  C8_15 
REMARK    5  A    between atoms: C8_15  and  N4_16 
REMARK       I    between atoms: N4_16  and  C9_18 
REMARK    6  A    between atoms: C9_18  and  C10_20 
REMARK    7  A    between atoms: C10_20  and  C11_21 
REMARK    8  A    between atoms: C10_20  and  N5_30 
REMARK    9  A    between atoms: C11_21  and  O3_22 
REMARK   10  A    between atoms: O3_22  and  C12_23 
REMARK   11  A    between atoms: C12_23  and  C13_24 
REMARK   12  A    between atoms: N5_30  and  S1_32 
REMARK   13  A    between atoms: S1_32  and  C19_35 
REMARK   14  A    between atoms: C19_35  and  C20_36 
ROOT
HETATM    1  C10 UNL     1       5.300   4.289  20.582  1.00  0.00     0.208 C 
ENDROOT
BRANCH   1   2
HETATM    2  C9  UNL     1       6.588   4.999  20.263  1.00  0.00     0.243 C 
HETATM    3  N4  UNL     1       6.618   6.250  19.598  1.00  0.00    -0.350 N 
ATOM      4  H4  UNL     1       5.740   6.690  19.323  1.00  0.00     0.163 HD
HETATM    5  O2  UNL     1       7.702   4.493  20.586  1.00  0.00    -0.271 OA
BRANCH   3   6
HETATM    6  C8  UNL     1       7.869   6.918  19.299  1.00  0.00     0.225 C 
BRANCH   6   7
HETATM    7  C7  UNL     1       8.027   8.025  20.306  1.00  0.00     0.235 C 
HETATM    8  N3  UNL     1       7.353   7.983  21.554  1.00  0.00    -0.355 N 
ATOM      9  H3  UNL     1       6.756   7.183  21.767  1.00  0.00     0.162 HD
HETATM   10  O1  UNL     1       8.760   9.019  20.075  1.00  0.00    -0.272 OA
BRANCH   8  11
HETATM   11  C6  UNL     1       7.485   9.026  22.523  1.00  0.00     0.161 C 
BRANCH  11  12
HETATM   12  C5  UNL     1       8.465   8.616  23.547  1.00  0.00    -0.040 A 
HETATM   13  C4  UNL     1       8.147   7.814  24.612  1.00  0.00     0.010 A 
HETATM   14  C3  UNL     1       9.105   7.461  25.535  1.00  0.00     0.015 A 
HETATM   15  C2  UNL     1      10.406   7.912  25.405  1.00  0.00     0.004 A 
HETATM   16  C27 UNL     1      10.735   8.715  24.345  1.00  0.00     0.015 A 
HETATM   17  C26 UNL     1       9.761   9.063  23.421  1.00  0.00     0.010 A 
BRANCH  15  18
HETATM   18  C1  UNL     1      11.396   7.526  26.382  1.00  0.00     0.120 C 
HETATM   19  N1  UNL     1      12.777   7.681  26.058  1.00  0.00    -0.082 NA
HETATM   20  N2  UNL     1      11.039   7.058  27.520  1.00  0.00    -0.387 N 
ATOM     21  H22 UNL     1      11.738   6.785  28.210  1.00  0.00     0.157 HD
ATOM     22  H21 UNL     1      10.051   6.947  27.752  1.00  0.00     0.157 HD
ENDBRANCH  15  18
ENDBRANCH  11  12
ENDBRANCH   8  11
ENDBRANCH   6   7
ENDBRANCH   3   6
ENDBRANCH   1   2
BRANCH   1  23
HETATM   23  C11 UNL     1       4.611   4.904  21.754  1.00  0.00     0.203 C 
BRANCH  23  24
HETATM   24  O3  UNL     1       4.913   6.246  21.819  1.00  0.00    -0.384 OA
BRANCH  24  25
HETATM   25  C12 UNL     1       3.812   7.067  21.778  1.00  0.00     0.206 C 
BRANCH  25  26
HETATM   26  C13 UNL     1       3.674   7.888  22.999  1.00  0.00    -0.035 A 
HETATM   27  C14 UNL     1       2.881   9.027  22.954  1.00  0.00     0.009 A 
HETATM   28  C15 UNL     1       2.727   9.822  24.060  1.00  0.00     0.001 A 
HETATM   29  C16 UNL     1       3.374   9.477  25.229  1.00  0.00     0.000 A 
HETATM   30  C17 UNL     1       4.167   8.359  25.313  1.00  0.00     0.001 A 
HETATM   31  C18 UNL     1       4.303   7.580  24.186  1.00  0.00     0.009 A 
ENDBRANCH  25  26
ENDBRANCH  24  25
ENDBRANCH  23  24
ENDBRANCH   1  23
BRANCH   1  32
HETATM   32  N5  UNL     1       4.444   4.274  19.435  1.00  0.00    -0.303 N 
ATOM     33  H5  UNL     1       3.570   4.798  19.376  1.00  0.00     0.173 HD
BRANCH  32  34
HETATM   34  S1  UNL     1       5.051   3.268  18.152  1.00  0.00     0.231 S 
HETATM   35  O4  UNL     1       6.070   3.984  17.320  1.00  0.00    -0.206 OA
HETATM   36  O5  UNL     1       3.864   3.009  17.246  1.00  0.00    -0.206 OA
BRANCH  34  37
HETATM   37  C19 UNL     1       5.665   1.791  18.865  1.00  0.00     0.201 C 
BRANCH  37  38
HETATM   38  C20 UNL     1       6.921   1.306  18.259  1.00  0.00    -0.043 A 
HETATM   39  C21 UNL     1       6.932   0.860  16.954  1.00  0.00     0.008 A 
HETATM   40  C22 UNL     1       8.073   0.403  16.341  1.00  0.00     0.001 A 
HETATM   41  C23 UNL     1       9.278   0.373  17.021  1.00  0.00     0.000 A 
HETATM   42  C24 UNL     1       9.287   0.813  18.322  1.00  0.00     0.001 A 
HETATM   43  C25 UNL     1       8.121   1.274  18.932  1.00  0.00     0.008 A 
ENDBRANCH  37  38
ENDBRANCH  34  37
ENDBRANCH  32  34
ENDBRANCH   1  32
TORSDOF 14
ENDMDL
