MODEL 3
REMARK VINA RESULT: -9.751548380      1.573      7.186
REMARK  14 active torsions:
REMARK  status: ('A' for Active; 'I' for Inactive)
REMARK    1  A    between atoms: C1_2  and  C2_6 
REMARK    2  A    between atoms: C5_9  and  C6_10 
REMARK    3  A    between atoms: C6_10  and  N3_11 
REMARK       I    between atoms: N3_11  and  C7_13 
REMARK    4  A    between atoms: C7_13  and  C8_15 
REMARK    5  A    between atoms: C8_15  and  N4_16 
REMARK       I    between atoms: N4_16  and  C9_18 
REMARK    6  A    between atoms: C9_18  and  C10_20 
REMARK    7  A    between atoms: C10_20  and  C11_21 
REMARK    8  A    between atoms: C10_20  and  N5_30 
REMARK    9  A    between atoms: C11_21  and  O3_22 
REMARK   10  A    between atoms: O3_22  and  C12_23 
REMARK   11  A    between atoms: C12_23  and  C13_24 
REMARK   12  A    between atoms: N5_30  and  S1_32 
REMARK   13  A    between atoms: S1_32  and  C19_35 
REMARK   14  A    between atoms: C19_35  and  C20_36 
ROOT
HETATM    1  C10 UNL     1       4.657   4.551  21.267  1.00  0.00     0.208 C 
ENDROOT
BRANCH   1   2
HETATM    2  C9  UNL     1       4.611   5.960  20.742  1.00  0.00     0.243 C 
HETATM    3  N4  UNL     1       5.764   6.625  20.256  1.00  0.00    -0.350 N 
ATOM      4  H4  UNL     1       6.659   6.137  20.259  1.00  0.00     0.163 HD
HETATM    5  O2  UNL     1       3.523   6.605  20.717  1.00  0.00    -0.271 OA
BRANCH   3   6
HETATM    6  C8  UNL     1       5.699   7.983  19.755  1.00  0.00     0.225 C 
BRANCH   6   7
HETATM    7  C7  UNL     1       6.972   8.667  20.171  1.00  0.00     0.235 C 
HETATM    8  N3  UNL     1       7.144   9.157  21.493  1.00  0.00    -0.355 N 
ATOM      9  H3  UNL     1       6.388   9.035  22.167  1.00  0.00     0.162 HD
HETATM   10  O1  UNL     1       7.923   8.826  19.364  1.00  0.00    -0.272 OA
BRANCH   8  11
HETATM   11  C6  UNL     1       8.344   9.814  21.907  1.00  0.00     0.161 C 
BRANCH  11  12
HETATM   12  C5  UNL     1       8.867   9.153  23.118  1.00  0.00    -0.040 A 
HETATM   13  C4  UNL     1      10.159   9.295  23.553  1.00  0.00     0.010 A 
HETATM   14  C3  UNL     1      10.589   8.656  24.694  1.00  0.00     0.015 A 
HETATM   15  C2  UNL     1       9.725   7.858  25.420  1.00  0.00     0.004 A 
HETATM   16  C27 UNL     1       8.432   7.707  24.995  1.00  0.00     0.015 A 
HETATM   17  C26 UNL     1       8.009   8.357  23.845  1.00  0.00     0.010 A 
BRANCH  15  18
HETATM   18  C1  UNL     1      10.197   7.200  26.617  1.00  0.00     0.120 C 
HETATM   19  N1  UNL     1      11.603   7.100  26.835  1.00  0.00    -0.082 NA
HETATM   20  N2  UNL     1       9.366   6.722  27.466  1.00  0.00    -0.387 N 
ATOM     21  H22 UNL     1       9.699   6.257  28.310  1.00  0.00     0.157 HD
ATOM     22  H21 UNL     1       8.361   6.793  27.309  1.00  0.00     0.157 HD
ENDBRANCH  15  18
ENDBRANCH  11  12
ENDBRANCH   8  11
ENDBRANCH   6   7
ENDBRANCH   3   6
ENDBRANCH   1   2
BRANCH   1  23
HETATM   23  C11 UNL     1       3.511   4.268  22.180  1.00  0.00     0.203 C 
BRANCH  23  24
HETATM   24  O3  UNL     1       3.758   4.817  23.420  1.00  0.00    -0.384 OA
BRANCH  24  25
HETATM   25  C12 UNL     1       2.669   5.441  23.978  1.00  0.00     0.206 C 
BRANCH  25  26
HETATM   26  C13 UNL     1       2.978   6.812  24.433  1.00  0.00    -0.035 A 
HETATM   27  C14 UNL     1       1.954   7.591  24.958  1.00  0.00     0.009 A 
HETATM   28  C15 UNL     1       2.191   8.870  25.388  1.00  0.00     0.001 A 
HETATM   29  C16 UNL     1       3.469   9.383  25.294  1.00  0.00     0.000 A 
HETATM   30  C17 UNL     1       4.508   8.645  24.782  1.00  0.00     0.001 A 
HETATM   31  C18 UNL     1       4.238   7.364  24.358  1.00  0.00     0.009 A 
ENDBRANCH  25  26
ENDBRANCH  24  25
ENDBRANCH  23  24
ENDBRANCH   1  23
BRANCH   1  32
HETATM   32  N5  UNL     1       4.689   3.617  20.182  1.00  0.00    -0.303 N 
ATOM     33  H5  UNL     1       3.852   3.211  19.763  1.00  0.00     0.173 HD
BRANCH  32  34
HETATM   34  S1  UNL     1       6.305   3.248  19.656  1.00  0.00     0.231 S 
HETATM   35  O4  UNL     1       7.331   3.739  20.630  1.00  0.00    -0.206 OA
HETATM   36  O5  UNL     1       6.507   4.046  18.384  1.00  0.00    -0.206 OA
BRANCH  34  37
HETATM   37  C19 UNL     1       6.403   1.523  19.370  1.00  0.00     0.201 C 
BRANCH  37  38
HETATM   38  C20 UNL     1       7.413   1.135  18.365  1.00  0.00    -0.043 A 
HETATM   39  C21 UNL     1       8.747   1.080  18.713  1.00  0.00     0.008 A 
HETATM   40  C22 UNL     1       9.727   0.721  17.819  1.00  0.00     0.001 A 
HETATM   41  C23 UNL     1       9.407   0.394  16.512  1.00  0.00     0.000 A 
HETATM   42  C24 UNL     1       8.084   0.443  16.148  1.00  0.00     0.001 A 
HETATM   43  C25 UNL     1       7.100   0.810  17.065  1.00  0.00     0.008 A 
ENDBRANCH  37  38
ENDBRANCH  34  37
ENDBRANCH  32  34
ENDBRANCH   1  32
TORSDOF 14
ENDMDL
