MODEL 5
REMARK VINA RESULT: -8.714228216      1.064      1.344
REMARK  5 active torsions:
REMARK  status: ('A' for Active; 'I' for Inactive)
REMARK    1  A    between atoms: N1_2  and  C3_4 
REMARK    2  A    between atoms: N2_6  and  C5_7 
REMARK    3  A    between atoms: C15_18  and  C16_19 
REMARK    4  A    between atoms: C19_22  and  N3_23 
REMARK    5  A    between atoms: N4_26  and  S1_27 
ROOT
HETATM    1  C3  UNL     1     -18.657 -24.206  25.271  1.00  0.00     0.260 C 
HETATM    2  C4  UNL     1     -18.201 -23.964  23.856  1.00  0.00     0.309 C 
HETATM    3  N2  UNL     1     -16.976 -24.721  23.690  1.00  0.00     0.100 N 
HETATM    4  C14 UNL     1     -16.375 -24.853  24.974  1.00  0.00     0.285 C 
HETATM    5  C15 UNL     1     -17.413 -24.600  26.032  1.00  0.00     0.082 C 
ENDROOT
BRANCH   5   6
HETATM    6  C16 UNL     1     -17.653 -25.772  26.895  1.00  0.00    -0.050 A 
HETATM    7  C17 UNL     1     -16.622 -26.318  27.591  1.00  0.00     0.010 A 
HETATM    8  C18 UNL     1     -16.827 -27.408  28.400  1.00  0.00     0.030 A 
HETATM    9  C19 UNL     1     -18.084 -27.984  28.529  1.00  0.00     0.030 A 
HETATM   10  C25 UNL     1     -19.103 -27.418  27.820  1.00  0.00     0.030 A 
HETATM   11  C26 UNL     1     -18.913 -26.315  26.999  1.00  0.00     0.010 A 
BRANCH   9  12
HETATM   12  N3  UNL     1     -18.289 -29.098  29.362  1.00  0.00    -0.379 N 
HETATM   13  C20 UNL     1     -19.586 -29.502  29.813  1.00  0.00     0.138 C 
HETATM   14  C21 UNL     1     -19.773 -30.966  29.385  1.00  0.00     0.127 C 
HETATM   15  N4  UNL     1     -18.680 -31.743  29.873  1.00  0.00    -0.208 NA
HETATM   16  C23 UNL     1     -17.714 -31.026  30.663  1.00  0.00     0.127 C 
HETATM   17  C24 UNL     1     -17.148 -29.913  29.821  1.00  0.00     0.138 C 
BRANCH  15  18
HETATM   18  S1  UNL     1     -19.300 -33.130  30.687  1.00  0.00     0.207 S 
HETATM   19  C22 UNL     1     -20.435 -32.589  31.926  1.00  0.00     0.180 C 
HETATM   20  O1  UNL     1     -18.193 -33.971  31.263  1.00  0.00    -0.212 OA
HETATM   21  O2  UNL     1     -20.048 -33.945  29.642  1.00  0.00    -0.212 OA
ENDBRANCH  15  18
ENDBRANCH   9  12
ENDBRANCH   5   6
BRANCH   1  22
HETATM   22  N1  UNL     1     -19.333 -23.075  25.854  1.00  0.00     0.087 N 
HETATM   23  C1  UNL     1     -18.498 -21.935  26.065  1.00  0.00     0.310 C 
HETATM   24  C2  UNL     1     -20.533 -22.759  25.094  1.00  0.00     0.310 C 
ENDBRANCH   1  22
BRANCH   3  25
HETATM   25  C5  UNL     1     -16.184 -24.106  22.674  1.00  0.00     0.260 C 
HETATM   26  C6  UNL     1     -15.073 -23.235  23.154  1.00  0.00     0.045 C 
HETATM   27  C7  UNL     1     -13.787 -23.928  22.858  1.00  0.00     0.042 C 
HETATM   28  C8  UNL     1     -14.150 -24.968  21.877  1.00  0.00    -0.047 A 
HETATM   29  C9  UNL     1     -13.311 -25.790  21.108  1.00  0.00     0.008 A 
HETATM   30  C13 UNL     1     -15.516 -25.068  21.775  1.00  0.00     0.020 A 
HETATM   31  C10 UNL     1     -13.840 -26.707  20.243  1.00  0.00     0.004 A 
HETATM   32  C11 UNL     1     -15.207 -26.831  20.118  1.00  0.00     0.043 A 
HETATM   33  C12 UNL     1     -16.014 -26.015  20.882  1.00  0.00     0.125 A 
HETATM   34  F1  UNL     1     -17.369 -26.104  20.790  1.00  0.00    -0.205 F 
ENDBRANCH   3  25
TORSDOF 5
ENDMDL
