MODEL 1
REMARK VINA RESULT: -8.994047993      0.000      0.000
REMARK  5 active torsions:
REMARK  status: ('A' for Active; 'I' for Inactive)
REMARK    1  A    between atoms: N1_2  and  C3_4 
REMARK    2  A    between atoms: N2_6  and  C5_7 
REMARK    3  A    between atoms: C15_18  and  C16_19 
REMARK    4  A    between atoms: C19_22  and  N3_23 
REMARK    5  A    between atoms: N4_26  and  S1_27 
ROOT
HETATM    1  C3  UNL     1     -18.304 -24.137  24.824  1.00  0.00     0.260 C 
HETATM    2  C4  UNL     1     -17.744 -24.026  23.429  1.00  0.00     0.309 C 
HETATM    3  N2  UNL     1     -16.550 -24.847  23.405  1.00  0.00     0.100 N 
HETATM    4  C14 UNL     1     -16.042 -24.907  24.734  1.00  0.00     0.285 C 
HETATM    5  C15 UNL     1     -17.134 -24.527  25.696  1.00  0.00     0.082 C 
ENDROOT
BRANCH   5   6
HETATM    6  C16 UNL     1     -17.488 -25.617  26.625  1.00  0.00    -0.050 A 
HETATM    7  C17 UNL     1     -16.534 -26.149  27.432  1.00  0.00     0.010 A 
HETATM    8  C18 UNL     1     -16.846 -27.164  28.303  1.00  0.00     0.030 A 
HETATM    9  C19 UNL     1     -18.135 -27.675  28.384  1.00  0.00     0.030 A 
HETATM   10  C25 UNL     1     -19.075 -27.123  27.563  1.00  0.00     0.030 A 
HETATM   11  C26 UNL     1     -18.776 -26.096  26.678  1.00  0.00     0.010 A 
BRANCH   9  12
HETATM   12  N3  UNL     1     -18.449 -28.710  29.281  1.00  0.00    -0.379 N 
HETATM   13  C20 UNL     1     -19.305 -29.804  28.935  1.00  0.00     0.138 C 
HETATM   14  C21 UNL     1     -18.509 -31.094  29.187  1.00  0.00     0.127 C 
HETATM   15  N4  UNL     1     -18.021 -31.092  30.529  1.00  0.00    -0.208 NA
HETATM   16  C23 UNL     1     -18.407 -29.958  31.326  1.00  0.00     0.127 C 
HETATM   17  C24 UNL     1     -17.900 -28.711  30.650  1.00  0.00     0.138 C 
BRANCH  15  18
HETATM   18  S1  UNL     1     -18.429 -32.593  31.273  1.00  0.00     0.207 S 
HETATM   19  C22 UNL     1     -17.971 -33.901  30.178  1.00  0.00     0.180 C 
HETATM   20  O1  UNL     1     -19.887 -32.647  31.638  1.00  0.00    -0.212 OA
HETATM   21  O2  UNL     1     -17.596 -32.685  32.543  1.00  0.00    -0.212 OA
ENDBRANCH  15  18
ENDBRANCH   9  12
ENDBRANCH   5   6
BRANCH   1  22
HETATM   22  N1  UNL     1     -18.960 -22.936  25.272  1.00  0.00     0.087 N 
HETATM   23  C1  UNL     1     -20.351 -23.096  25.556  1.00  0.00     0.310 C 
HETATM   24  C2  UNL     1     -18.225 -22.345  26.380  1.00  0.00     0.310 C 
ENDBRANCH   1  22
BRANCH   3  25
HETATM   25  C5  UNL     1     -15.663 -24.348  22.405  1.00  0.00     0.260 C 
HETATM   26  C6  UNL     1     -14.560 -23.470  22.892  1.00  0.00     0.045 C 
HETATM   27  C7  UNL     1     -13.281 -24.224  22.758  1.00  0.00     0.042 C 
HETATM   28  C8  UNL     1     -13.607 -25.336  21.845  1.00  0.00    -0.047 A 
HETATM   29  C9  UNL     1     -12.743 -26.247  21.217  1.00  0.00     0.008 A 
HETATM   30  C13 UNL     1     -14.964 -25.405  21.647  1.00  0.00     0.020 A 
HETATM   31  C10 UNL     1     -13.238 -27.222  20.397  1.00  0.00     0.004 A 
HETATM   32  C11 UNL     1     -14.596 -27.317  20.178  1.00  0.00     0.043 A 
HETATM   33  C12 UNL     1     -15.428 -26.414  20.803  1.00  0.00     0.125 A 
HETATM   34  F1  UNL     1     -16.775 -26.471  20.615  1.00  0.00    -0.205 F 
ENDBRANCH   3  25
TORSDOF 5
ENDMDL
