MODEL 2
REMARK VINA RESULT: -8.793515194      1.021      1.522
REMARK  5 active torsions:
REMARK  status: ('A' for Active; 'I' for Inactive)
REMARK    1  A    between atoms: N1_2  and  C3_4 
REMARK    2  A    between atoms: N2_6  and  C5_7 
REMARK    3  A    between atoms: C15_18  and  C16_19 
REMARK    4  A    between atoms: C19_22  and  N3_23 
REMARK    5  A    between atoms: N4_26  and  S1_27 
ROOT
HETATM    1  C3  UNL     1     -18.566 -23.983  25.751  1.00  0.00     0.260 C 
HETATM    2  C4  UNL     1     -18.220 -23.652  24.323  1.00  0.00     0.309 C 
HETATM    3  N2  UNL     1     -17.139 -24.543  23.951  1.00  0.00     0.100 N 
HETATM    4  C14 UNL     1     -16.441 -24.893  25.142  1.00  0.00     0.285 C 
HETATM    5  C15 UNL     1     -17.324 -24.620  26.328  1.00  0.00     0.082 C 
ENDROOT
BRANCH   5   6
HETATM    6  C16 UNL     1     -17.645 -25.836  27.099  1.00  0.00    -0.050 A 
HETATM    7  C17 UNL     1     -18.932 -26.268  27.169  1.00  0.00     0.010 A 
HETATM    8  C18 UNL     1     -19.249 -27.398  27.882  1.00  0.00     0.030 A 
HETATM    9  C19 UNL     1     -18.273 -28.127  28.550  1.00  0.00     0.030 A 
HETATM   10  C25 UNL     1     -16.990 -27.673  28.464  1.00  0.00     0.030 A 
HETATM   11  C26 UNL     1     -16.652 -26.533  27.746  1.00  0.00     0.010 A 
BRANCH   9  12
HETATM   12  N3  UNL     1     -18.604 -29.285  29.274  1.00  0.00    -0.379 N 
HETATM   13  C20 UNL     1     -18.684 -30.582  28.672  1.00  0.00     0.138 C 
HETATM   14  C21 UNL     1     -17.729 -31.499  29.451  1.00  0.00     0.127 C 
HETATM   15  N4  UNL     1     -18.052 -31.442  30.841  1.00  0.00    -0.208 NA
HETATM   16  C23 UNL     1     -19.180 -30.616  31.182  1.00  0.00     0.127 C 
HETATM   17  C24 UNL     1     -18.893 -29.212  30.718  1.00  0.00     0.138 C 
BRANCH  15  18
HETATM   18  S1  UNL     1     -18.205 -33.050  31.444  1.00  0.00     0.207 S 
HETATM   19  C22 UNL     1     -19.919 -33.391  31.697  1.00  0.00     0.180 C 
HETATM   20  O1  UNL     1     -17.399 -33.245  32.699  1.00  0.00    -0.212 OA
HETATM   21  O2  UNL     1     -17.664 -33.971  30.359  1.00  0.00    -0.212 OA
ENDBRANCH  15  18
ENDBRANCH   9  12
ENDBRANCH   5   6
BRANCH   1  22
HETATM   22  N1  UNL     1     -19.013 -22.842  26.509  1.00  0.00     0.087 N 
HETATM   23  C1  UNL     1     -18.166 -21.697  26.402  1.00  0.00     0.310 C 
HETATM   24  C2  UNL     1     -20.402 -22.544  26.199  1.00  0.00     0.310 C 
ENDBRANCH   1  22
BRANCH   3  25
HETATM   25  C5  UNL     1     -16.369 -23.932  22.916  1.00  0.00     0.260 C 
HETATM   26  C6  UNL     1     -15.177 -23.155  23.363  1.00  0.00     0.045 C 
HETATM   27  C7  UNL     1     -13.958 -23.912  22.961  1.00  0.00     0.042 C 
HETATM   28  C8  UNL     1     -14.445 -24.881  21.961  1.00  0.00    -0.047 A 
HETATM   29  C9  UNL     1     -13.706 -25.717  21.108  1.00  0.00     0.008 A 
HETATM   30  C13 UNL     1     -15.817 -24.891  21.938  1.00  0.00     0.020 A 
HETATM   31  C10 UNL     1     -14.342 -26.559  20.239  1.00  0.00     0.004 A 
HETATM   32  C11 UNL     1     -15.720 -26.592  20.193  1.00  0.00     0.043 A 
HETATM   33  C12 UNL     1     -16.427 -25.764  21.037  1.00  0.00     0.125 A 
HETATM   34  F1  UNL     1     -17.788 -25.764  21.024  1.00  0.00    -0.205 F 
ENDBRANCH   3  25
TORSDOF 5
ENDMDL
