MODEL 12
REMARK VINA RESULT: -8.626961205      4.686      5.309
REMARK  5 active torsions:
REMARK  status: ('A' for Active; 'I' for Inactive)
REMARK    1  A    between atoms: N1_2  and  C3_4 
REMARK    2  A    between atoms: N2_6  and  C5_7 
REMARK    3  A    between atoms: C15_18  and  C16_19 
REMARK    4  A    between atoms: C19_22  and  N3_23 
REMARK    5  A    between atoms: N4_26  and  S1_27 
ROOT
HETATM    1  C3  UNL     1     -17.616 -24.920  23.393  1.00  0.00     0.260 C 
HETATM    2  C4  UNL     1     -16.430 -25.357  22.573  1.00  0.00     0.309 C 
HETATM    3  N2  UNL     1     -15.284 -24.649  23.108  1.00  0.00     0.100 N 
HETATM    4  C14 UNL     1     -15.761 -23.443  23.697  1.00  0.00     0.285 C 
HETATM    5  C15 UNL     1     -17.235 -23.576  23.965  1.00  0.00     0.082 C 
ENDROOT
BRANCH   5   6
HETATM    6  C16 UNL     1     -17.570 -23.481  25.399  1.00  0.00    -0.050 A 
HETATM    7  C17 UNL     1     -17.272 -24.514  26.230  1.00  0.00     0.010 A 
HETATM    8  C18 UNL     1     -17.578 -24.443  27.567  1.00  0.00     0.030 A 
HETATM    9  C19 UNL     1     -18.197 -23.323  28.107  1.00  0.00     0.030 A 
HETATM   10  C25 UNL     1     -18.486 -22.300  27.252  1.00  0.00     0.030 A 
HETATM   11  C26 UNL     1     -18.183 -22.355  25.898  1.00  0.00     0.010 A 
BRANCH   9  12
HETATM   12  N3  UNL     1     -18.503 -23.255  29.476  1.00  0.00    -0.379 N 
HETATM   13  C20 UNL     1     -17.956 -24.162  30.441  1.00  0.00     0.138 C 
HETATM   14  C21 UNL     1     -17.257 -23.310  31.511  1.00  0.00     0.127 C 
HETATM   15  N4  UNL     1     -18.178 -22.347  32.022  1.00  0.00    -0.208 NA
HETATM   16  C23 UNL     1     -19.510 -22.416  31.482  1.00  0.00     0.127 C 
HETATM   17  C24 UNL     1     -19.425 -22.225  29.990  1.00  0.00     0.138 C 
BRANCH  15  18
HETATM   18  S1  UNL     1     -18.159 -22.415  33.745  1.00  0.00     0.207 S 
HETATM   19  C22 UNL     1     -18.646 -24.038  34.244  1.00  0.00     0.180 C 
HETATM   20  O1  UNL     1     -19.037 -21.352  34.347  1.00  0.00    -0.212 OA
HETATM   21  O2  UNL     1     -16.719 -22.169  34.170  1.00  0.00    -0.212 OA
ENDBRANCH  15  18
ENDBRANCH   9  12
ENDBRANCH   5   6
BRANCH   1  22
HETATM   22  N1  UNL     1     -18.845 -24.880  22.642  1.00  0.00     0.087 N 
HETATM   23  C1  UNL     1     -19.047 -23.670  21.910  1.00  0.00     0.310 C 
HETATM   24  C2  UNL     1     -18.966 -26.067  21.810  1.00  0.00     0.310 C 
ENDBRANCH   1  22
BRANCH   3  25
HETATM   25  C5  UNL     1     -14.302 -24.512  22.081  1.00  0.00     0.260 C 
HETATM   26  C6  UNL     1     -13.020 -23.867  22.489  1.00  0.00     0.045 C 
HETATM   27  C7  UNL     1     -11.961 -24.915  22.494  1.00  0.00     0.042 C 
HETATM   28  C8  UNL     1     -12.545 -26.028  21.721  1.00  0.00    -0.047 A 
HETATM   29  C9  UNL     1     -11.925 -27.194  21.243  1.00  0.00     0.008 A 
HETATM   30  C13 UNL     1     -13.877 -25.796  21.488  1.00  0.00     0.020 A 
HETATM   31  C10 UNL     1     -12.639 -28.122  20.538  1.00  0.00     0.004 A 
HETATM   32  C11 UNL     1     -13.979 -27.917  20.288  1.00  0.00     0.043 A 
HETATM   33  C12 UNL     1     -14.570 -26.767  20.765  1.00  0.00     0.125 A 
HETATM   34  F1  UNL     1     -15.891 -26.525  20.541  1.00  0.00    -0.205 F 
ENDBRANCH   3  25
TORSDOF 5
ENDMDL
