MODEL 1
REMARK VINA RESULT: -9.679375500      0.000      0.000
REMARK  7 active torsions:
REMARK  status: ('A' for Active; 'I' for Inactive)
REMARK    1  A    between atoms: C3_4  and  N1_5 
REMARK    2  A    between atoms: N1_5  and  C4_7 
REMARK    3  A    between atoms: C4_7  and  C5_8 
REMARK    4  A    between atoms: C5_8  and  C6_9 
REMARK    5  A    between atoms: C6_9  and  N2_10 
REMARK    6  A    between atoms: N2_10  and  C7_12 
REMARK    7  A    between atoms: C7_12  and  C8_13 
ROOT
HETATM    1  N1  UNL     1      14.709 -28.397  42.638  1.00  0.00    -0.356 N 
ATOM      2  H1  UNL     1      13.797 -28.641  42.253  1.00  0.00     0.166 HD
ENDROOT
BRANCH   1   3
HETATM    3  C3  UNL     1      15.022 -29.168  43.745  1.00  0.00     0.108 A 
HETATM    4  C2  UNL     1      15.817 -28.872  44.825  1.00  0.00     0.104 A 
HETATM    5  C1  UNL     1      16.069 -29.803  45.820  1.00  0.00     0.188 A 
HETATM    6  O1  UNL     1      16.825 -29.485  46.812  1.00  0.00    -0.287 OA
HETATM    7  C19 UNL     1      15.528 -31.071  45.778  1.00  0.00     0.041 A 
HETATM    8  C14 UNL     1      14.717 -31.373  44.690  1.00  0.00     0.048 A 
HETATM    9  C18 UNL     1      15.769 -32.022  46.731  1.00  0.00     0.018 A 
HETATM   10  N3  UNL     1      14.495 -30.454  43.742  1.00  0.00    -0.342 N 
HETATM   11  C15 UNL     1      14.156 -32.656  44.592  1.00  0.00     0.030 A 
ATOM     12  H3  UNL     1      13.896 -30.717  42.959  1.00  0.00     0.167 HD
HETATM   13  C16 UNL     1      14.414 -33.598  45.561  1.00  0.00     0.002 A 
HETATM   14  C17 UNL     1      15.213 -33.307  46.637  1.00  0.00     0.001 A 
ENDBRANCH   1   3
BRANCH   1  15
HETATM   15  C4  UNL     1      15.318 -27.381  41.921  1.00  0.00     0.064 C 
BRANCH  15  16
HETATM   16  C5  UNL     1      15.906 -27.618  40.581  1.00  0.00     0.064 C 
BRANCH  16  17
HETATM   17  C6  UNL     1      15.051 -27.291  39.449  1.00  0.00     0.124 C 
BRANCH  17  18
HETATM   18  N2  UNL     1      14.603 -28.378  38.533  1.00  0.00    -0.398 N 
ATOM     19  H2  UNL     1      13.818 -29.008  38.701  1.00  0.00     0.158 HD
BRANCH  18  20
HETATM   20  C7  UNL     1      15.427 -28.395  37.413  1.00  0.00     0.094 C 
BRANCH  20  21
HETATM   21  C8  UNL     1      16.033 -29.663  37.016  1.00  0.00    -0.018 A 
HETATM   22  C9  UNL     1      17.226 -29.977  37.730  1.00  0.00     0.036 A 
HETATM   23  C10 UNL     1      17.802 -31.199  37.478  1.00  0.00     0.036 A 
HETATM   24 CL1  UNL     1      19.272 -31.687  38.361  1.00  0.00    -0.084 Cl
HETATM   25  C11 UNL     1      17.256 -32.092  36.569  1.00  0.00     0.047 A 
HETATM   26  C12 UNL     1      16.119 -31.775  35.893  1.00  0.00     0.036 A 
HETATM   27 CL2  UNL     1      15.436 -32.874  34.730  1.00  0.00    -0.084 Cl
HETATM   28  C13 UNL     1      15.516 -30.555  36.125  1.00  0.00     0.036 A 
ENDBRANCH  20  21
ENDBRANCH  18  20
ENDBRANCH  17  18
ENDBRANCH  16  17
ENDBRANCH  15  16
ENDBRANCH   1  15
TORSDOF 7
ENDMDL
