MODEL 3
REMARK VINA RESULT: -9.640808308      1.190      2.142
REMARK  7 active torsions:
REMARK  status: ('A' for Active; 'I' for Inactive)
REMARK    1  A    between atoms: C3_4  and  N1_5 
REMARK    2  A    between atoms: N1_5  and  C4_7 
REMARK    3  A    between atoms: C4_7  and  C5_8 
REMARK    4  A    between atoms: C5_8  and  C6_9 
REMARK    5  A    between atoms: C6_9  and  N2_10 
REMARK    6  A    between atoms: N2_10  and  C7_12 
REMARK    7  A    between atoms: C7_12  and  C8_13 
ROOT
HETATM    1  N1  UNL     1      14.759 -28.379  42.655  1.00  0.00    -0.356 N 
ATOM      2  H1  UNL     1      13.932 -28.718  42.164  1.00  0.00     0.166 HD
ENDROOT
BRANCH   1   3
HETATM    3  C3  UNL     1      15.057 -29.160  43.758  1.00  0.00     0.108 A 
HETATM    4  C2  UNL     1      15.848 -28.880  44.846  1.00  0.00     0.104 A 
HETATM    5  C1  UNL     1      16.084 -29.820  45.836  1.00  0.00     0.188 A 
HETATM    6  O1  UNL     1      16.837 -29.516  46.835  1.00  0.00    -0.287 OA
HETATM    7  C19 UNL     1      15.532 -31.083  45.781  1.00  0.00     0.041 A 
HETATM    8  C14 UNL     1      14.726 -31.370  44.686  1.00  0.00     0.048 A 
HETATM    9  C18 UNL     1      15.758 -32.042  46.729  1.00  0.00     0.018 A 
HETATM   10  N3  UNL     1      14.519 -30.442  43.742  1.00  0.00    -0.342 N 
HETATM   11  C15 UNL     1      14.155 -32.646  44.575  1.00  0.00     0.030 A 
ATOM     12  H3  UNL     1      13.923 -30.694  42.954  1.00  0.00     0.167 HD
HETATM   13  C16 UNL     1      14.397 -33.598  45.538  1.00  0.00     0.002 A 
HETATM   14  C17 UNL     1      15.192 -33.322  46.622  1.00  0.00     0.001 A 
ENDBRANCH   1   3
BRANCH   1  15
HETATM   15  C4  UNL     1      15.296 -27.256  42.048  1.00  0.00     0.064 C 
BRANCH  15  16
HETATM   16  C5  UNL     1      15.592 -27.222  40.596  1.00  0.00     0.064 C 
BRANCH  16  17
HETATM   17  C6  UNL     1      16.935 -26.794  40.235  1.00  0.00     0.124 C 
BRANCH  17  18
HETATM   18  N2  UNL     1      17.462 -27.104  38.876  1.00  0.00    -0.398 N 
ATOM     19  H2  UNL     1      17.158 -26.663  38.008  1.00  0.00     0.158 HD
BRANCH  18  20
HETATM   20  C7  UNL     1      18.436 -28.092  38.982  1.00  0.00     0.094 C 
BRANCH  20  21
HETATM   21  C8  UNL     1      18.172 -29.394  38.377  1.00  0.00    -0.018 A 
HETATM   22  C9  UNL     1      17.281 -29.341  37.266  1.00  0.00     0.036 A 
HETATM   23  C10 UNL     1      17.059 -30.514  36.585  1.00  0.00     0.036 A 
HETATM   24 CL1  UNL     1      15.991 -30.524  35.157  1.00  0.00    -0.084 Cl
HETATM   25  C11 UNL     1      17.668 -31.702  36.956  1.00  0.00     0.047 A 
HETATM   26  C12 UNL     1      18.513 -31.738  38.022  1.00  0.00     0.036 A 
HETATM   27 CL2  UNL     1      19.265 -33.226  38.516  1.00  0.00    -0.084 Cl
HETATM   28  C13 UNL     1      18.757 -30.575  38.725  1.00  0.00     0.036 A 
ENDBRANCH  20  21
ENDBRANCH  18  20
ENDBRANCH  17  18
ENDBRANCH  16  17
ENDBRANCH  15  16
ENDBRANCH   1  15
TORSDOF 7
ENDMDL
