MODEL 8
REMARK VINA RESULT: -8.793753870      3.723      8.280
REMARK  7 active torsions:
REMARK  status: ('A' for Active; 'I' for Inactive)
REMARK    1  A    between atoms: C3_4  and  N1_5 
REMARK    2  A    between atoms: N1_5  and  C4_7 
REMARK    3  A    between atoms: C4_7  and  C5_8 
REMARK    4  A    between atoms: C5_8  and  C6_9 
REMARK    5  A    between atoms: C6_9  and  N2_10 
REMARK    6  A    between atoms: N2_10  and  C7_12 
REMARK    7  A    between atoms: C7_12  and  C8_13 
ROOT
HETATM    1  N1  UNL     1      15.065 -27.635  39.452  1.00  0.00    -0.356 N 
ATOM      2  H1  UNL     1      14.050 -27.735  39.490  1.00  0.00     0.166 HD
ENDROOT
BRANCH   1   3
HETATM    3  C3  UNL     1      15.638 -28.535  38.571  1.00  0.00     0.108 A 
HETATM    4  C2  UNL     1      15.227 -28.921  37.318  1.00  0.00     0.104 A 
HETATM    5  C1  UNL     1      15.902 -29.895  36.599  1.00  0.00     0.188 A 
HETATM    6  O1  UNL     1      15.478 -30.230  35.430  1.00  0.00    -0.287 OA
HETATM    7  C19 UNL     1      17.022 -30.520  37.103  1.00  0.00     0.041 A 
HETATM    8  C14 UNL     1      17.446 -30.129  38.368  1.00  0.00     0.048 A 
HETATM    9  C18 UNL     1      17.702 -31.498  36.430  1.00  0.00     0.018 A 
HETATM   10  N3  UNL     1      16.771 -29.188  39.041  1.00  0.00    -0.342 N 
HETATM   11  C15 UNL     1      18.571 -30.748  38.932  1.00  0.00     0.030 A 
ATOM     12  H3  UNL     1      17.114 -28.932  39.967  1.00  0.00     0.167 HD
HETATM   13  C16 UNL     1      19.239 -31.732  38.240  1.00  0.00     0.002 A 
HETATM   14  C17 UNL     1      18.827 -32.123  36.991  1.00  0.00     0.001 A 
ENDBRANCH   1   3
BRANCH   1  15
HETATM   15  C4  UNL     1      15.516 -26.633  40.295  1.00  0.00     0.064 C 
BRANCH  15  16
HETATM   16  C5  UNL     1      15.484 -26.783  41.770  1.00  0.00     0.064 C 
BRANCH  16  17
HETATM   17  C6  UNL     1      16.045 -28.021  42.291  1.00  0.00     0.124 C 
BRANCH  17  18
HETATM   18  N2  UNL     1      15.130 -29.089  42.785  1.00  0.00    -0.398 N 
ATOM     19  H2  UNL     1      14.808 -29.891  42.243  1.00  0.00     0.158 HD
BRANCH  18  20
HETATM   20  C7  UNL     1      14.784 -28.814  44.104  1.00  0.00     0.094 C 
BRANCH  20  21
HETATM   21  C8  UNL     1      15.082 -29.816  45.123  1.00  0.00    -0.018 A 
HETATM   22  C9  UNL     1      14.690 -31.138  44.760  1.00  0.00     0.036 A 
HETATM   23  C10 UNL     1      15.023 -32.149  45.628  1.00  0.00     0.036 A 
HETATM   24 CL1  UNL     1      14.606 -33.837  45.227  1.00  0.00    -0.084 Cl
HETATM   25  C11 UNL     1      15.707 -31.906  46.808  1.00  0.00     0.047 A 
HETATM   26  C12 UNL     1      16.071 -30.639  47.142  1.00  0.00     0.036 A 
HETATM   27 CL2  UNL     1      16.907 -30.313  48.632  1.00  0.00    -0.084 Cl
HETATM   28  C13 UNL     1      15.752 -29.601  46.290  1.00  0.00     0.036 A 
ENDBRANCH  20  21
ENDBRANCH  18  20
ENDBRANCH  17  18
ENDBRANCH  16  17
ENDBRANCH  15  16
ENDBRANCH   1  15
TORSDOF 7
ENDMDL
