MODEL 4
REMARK VINA RESULT: -9.508671686      0.718      1.916
REMARK  7 active torsions:
REMARK  status: ('A' for Active; 'I' for Inactive)
REMARK    1  A    between atoms: C3_4  and  N1_5 
REMARK    2  A    between atoms: N1_5  and  C4_7 
REMARK    3  A    between atoms: C4_7  and  C5_8 
REMARK    4  A    between atoms: C5_8  and  C6_9 
REMARK    5  A    between atoms: C6_9  and  N2_10 
REMARK    6  A    between atoms: N2_10  and  C7_12 
REMARK    7  A    between atoms: C7_12  and  C8_13 
ROOT
HETATM    1  N1  UNL     1      14.753 -28.363  42.679  1.00  0.00    -0.356 N 
ATOM      2  H1  UNL     1      13.777 -28.461  42.401  1.00  0.00     0.166 HD
ENDROOT
BRANCH   1   3
HETATM    3  C3  UNL     1      15.057 -29.150  43.776  1.00  0.00     0.108 A 
HETATM    4  C2  UNL     1      15.857 -28.878  44.859  1.00  0.00     0.104 A 
HETATM    5  C1  UNL     1      16.098 -29.825  45.842  1.00  0.00     0.188 A 
HETATM    6  O1  UNL     1      16.860 -29.529  46.836  1.00  0.00    -0.287 OA
HETATM    7  C19 UNL     1      15.541 -31.084  45.785  1.00  0.00     0.041 A 
HETATM    8  C14 UNL     1      14.724 -31.363  44.695  1.00  0.00     0.048 A 
HETATM    9  C18 UNL     1      15.770 -32.050  46.727  1.00  0.00     0.018 A 
HETATM   10  N3  UNL     1      14.513 -30.430  43.758  1.00  0.00    -0.342 N 
HETATM   11  C15 UNL     1      14.146 -32.637  44.583  1.00  0.00     0.030 A 
ATOM     12  H3  UNL     1      13.910 -30.676  42.973  1.00  0.00     0.167 HD
HETATM   13  C16 UNL     1      14.393 -33.594  45.539  1.00  0.00     0.002 A 
HETATM   14  C17 UNL     1      15.197 -33.326  46.618  1.00  0.00     0.001 A 
ENDBRANCH   1   3
BRANCH   1  15
HETATM   15  C4  UNL     1      15.435 -27.476  41.863  1.00  0.00     0.064 C 
BRANCH  15  16
HETATM   16  C5  UNL     1      16.332 -27.946  40.779  1.00  0.00     0.064 C 
BRANCH  16  17
HETATM   17  C6  UNL     1      15.998 -27.486  39.440  1.00  0.00     0.124 C 
BRANCH  17  18
HETATM   18  N2  UNL     1      17.063 -27.430  38.399  1.00  0.00    -0.398 N 
ATOM     19  H2  UNL     1      17.984 -27.009  38.516  1.00  0.00     0.158 HD
BRANCH  18  20
HETATM   20  C7  UNL     1      16.596 -28.044  37.241  1.00  0.00     0.094 C 
BRANCH  20  21
HETATM   21  C8  UNL     1      16.867 -29.467  37.052  1.00  0.00    -0.018 A 
HETATM   22  C9  UNL     1      15.999 -30.096  36.112  1.00  0.00     0.036 A 
HETATM   23  C10 UNL     1      16.253 -31.412  35.811  1.00  0.00     0.036 A 
HETATM   24 CL1  UNL     1      15.241 -32.261  34.612  1.00  0.00    -0.084 Cl
HETATM   25  C11 UNL     1      17.302 -32.108  36.393  1.00  0.00     0.047 A 
HETATM   26  C12 UNL     1      18.118 -31.494  37.291  1.00  0.00     0.036 A 
HETATM   27 CL2  UNL     1      19.422 -32.360  38.049  1.00  0.00    -0.084 Cl
HETATM   28  C13 UNL     1      17.890 -30.171  37.613  1.00  0.00     0.036 A 
ENDBRANCH  20  21
ENDBRANCH  18  20
ENDBRANCH  17  18
ENDBRANCH  16  17
ENDBRANCH  15  16
ENDBRANCH   1  15
TORSDOF 7
ENDMDL
