MODEL 2
REMARK VINA RESULT: -9.672846871      1.412      1.746
REMARK  7 active torsions:
REMARK  status: ('A' for Active; 'I' for Inactive)
REMARK    1  A    between atoms: C3_4  and  N1_5 
REMARK    2  A    between atoms: N1_5  and  C4_7 
REMARK    3  A    between atoms: C4_7  and  C5_8 
REMARK    4  A    between atoms: C5_8  and  C6_9 
REMARK    5  A    between atoms: C6_9  and  N2_10 
REMARK    6  A    between atoms: N2_10  and  C7_12 
REMARK    7  A    between atoms: C7_12  and  C8_13 
ROOT
HETATM    1  N1  UNL     1      14.752 -28.371  42.669  1.00  0.00    -0.356 N 
ATOM      2  H1  UNL     1      13.802 -28.533  42.333  1.00  0.00     0.166 HD
ENDROOT
BRANCH   1   3
HETATM    3  C3  UNL     1      15.052 -29.161  43.764  1.00  0.00     0.108 A 
HETATM    4  C2  UNL     1      15.852 -28.894  44.848  1.00  0.00     0.104 A 
HETATM    5  C1  UNL     1      16.089 -29.843  45.830  1.00  0.00     0.188 A 
HETATM    6  O1  UNL     1      16.850 -29.551  46.826  1.00  0.00    -0.287 OA
HETATM    7  C19 UNL     1      15.529 -31.101  45.769  1.00  0.00     0.041 A 
HETATM    8  C14 UNL     1      14.713 -31.375  44.678  1.00  0.00     0.048 A 
HETATM    9  C18 UNL     1      15.755 -32.069  46.709  1.00  0.00     0.018 A 
HETATM   10  N3  UNL     1      14.506 -30.440  43.742  1.00  0.00    -0.342 N 
HETATM   11  C15 UNL     1      14.133 -32.647  44.561  1.00  0.00     0.030 A 
ATOM     12  H3  UNL     1      13.903 -30.682  42.956  1.00  0.00     0.167 HD
HETATM   13  C16 UNL     1      14.375 -33.608  45.516  1.00  0.00     0.002 A 
HETATM   14  C17 UNL     1      15.179 -33.344  46.596  1.00  0.00     0.001 A 
ENDBRANCH   1   3
BRANCH   1  15
HETATM   15  C4  UNL     1      15.410 -27.416  41.912  1.00  0.00     0.064 C 
BRANCH  15  16
HETATM   16  C5  UNL     1      16.427 -27.790  40.899  1.00  0.00     0.064 C 
BRANCH  16  17
HETATM   17  C6  UNL     1      17.789 -27.929  41.394  1.00  0.00     0.124 C 
BRANCH  17  18
HETATM   18  N2  UNL     1      18.825 -28.549  40.520  1.00  0.00    -0.398 N 
ATOM     19  H2  UNL     1      19.642 -29.066  40.845  1.00  0.00     0.158 HD
BRANCH  18  20
HETATM   20  C7  UNL     1      18.499 -28.307  39.189  1.00  0.00     0.094 C 
BRANCH  20  21
HETATM   21  C8  UNL     1      18.217 -29.450  38.325  1.00  0.00    -0.018 A 
HETATM   22  C9  UNL     1      18.840 -30.660  38.752  1.00  0.00     0.036 A 
HETATM   23  C10 UNL     1      18.546 -31.798  38.043  1.00  0.00     0.036 A 
HETATM   24 CL1  UNL     1      19.249 -33.361  38.539  1.00  0.00    -0.084 Cl
HETATM   25  C11 UNL     1      17.685 -31.783  36.957  1.00  0.00     0.047 A 
HETATM   26  C12 UNL     1      17.102 -30.620  36.559  1.00  0.00     0.036 A 
HETATM   27 CL2  UNL     1      16.041 -30.579  35.182  1.00  0.00    -0.084 Cl
HETATM   28  C13 UNL     1      17.377 -29.458  37.253  1.00  0.00     0.036 A 
ENDBRANCH  20  21
ENDBRANCH  18  20
ENDBRANCH  17  18
ENDBRANCH  16  17
ENDBRANCH  15  16
ENDBRANCH   1  15
TORSDOF 7
ENDMDL
