MODEL 11
REMARK VINA RESULT: -8.615279748      3.695      7.967
REMARK  7 active torsions:
REMARK  status: ('A' for Active; 'I' for Inactive)
REMARK    1  A    between atoms: C3_4  and  N1_5 
REMARK    2  A    between atoms: N1_5  and  C4_7 
REMARK    3  A    between atoms: C4_7  and  C5_8 
REMARK    4  A    between atoms: C5_8  and  C6_9 
REMARK    5  A    between atoms: C6_9  and  N2_10 
REMARK    6  A    between atoms: N2_10  and  C7_12 
REMARK    7  A    between atoms: C7_12  and  C8_13 
ROOT
HETATM    1  N1  UNL     1      15.779 -26.943  38.341  1.00  0.00    -0.356 N 
ATOM      2  H1  UNL     1      16.140 -26.110  37.875  1.00  0.00     0.166 HD
ENDROOT
BRANCH   1   3
HETATM    3  C3  UNL     1      16.251 -28.105  37.755  1.00  0.00     0.108 A 
HETATM    4  C2  UNL     1      15.873 -28.715  36.584  1.00  0.00     0.104 A 
HETATM    5  C1  UNL     1      16.419 -29.923  36.183  1.00  0.00     0.188 A 
HETATM    6  O1  UNL     1      16.031 -30.462  35.081  1.00  0.00    -0.287 OA
HETATM    7  C19 UNL     1      17.375 -30.570  36.938  1.00  0.00     0.041 A 
HETATM    8  C14 UNL     1      17.766 -29.954  38.121  1.00  0.00     0.048 A 
HETATM    9  C18 UNL     1      17.923 -31.772  36.584  1.00  0.00     0.018 A 
HETATM   10  N3  UNL     1      17.217 -28.788  38.484  1.00  0.00    -0.342 N 
HETATM   11  C15 UNL     1      18.724 -30.581  38.933  1.00  0.00     0.030 A 
ATOM     12  H3  UNL     1      17.530 -28.371  39.361  1.00  0.00     0.167 HD
HETATM   13  C16 UNL     1      19.261 -31.791  38.559  1.00  0.00     0.002 A 
HETATM   14  C17 UNL     1      18.879 -32.405  37.393  1.00  0.00     0.001 A 
ENDBRANCH   1   3
BRANCH   1  15
HETATM   15  C4  UNL     1      14.943 -26.622  39.397  1.00  0.00     0.064 C 
BRANCH  15  16
HETATM   16  C5  UNL     1      15.479 -26.216  40.719  1.00  0.00     0.064 C 
BRANCH  16  17
HETATM   17  C6  UNL     1      15.961 -27.298  41.564  1.00  0.00     0.124 C 
BRANCH  17  18
HETATM   18  N2  UNL     1      14.978 -28.194  42.237  1.00  0.00    -0.398 N 
ATOM     19  H2  UNL     1      14.285 -28.774  41.765  1.00  0.00     0.158 HD
BRANCH  18  20
HETATM   20  C7  UNL     1      15.159 -28.111  43.614  1.00  0.00     0.094 C 
BRANCH  20  21
HETATM   21  C8  UNL     1      15.230 -29.351  44.381  1.00  0.00    -0.018 A 
HETATM   22  C9  UNL     1      15.856 -29.204  45.654  1.00  0.00     0.036 A 
HETATM   23  C10 UNL     1      15.876 -30.307  46.472  1.00  0.00     0.036 A 
HETATM   24 CL1  UNL     1      16.601 -30.194  48.098  1.00  0.00    -0.084 Cl
HETATM   25  C11 UNL     1      15.318 -31.515  46.086  1.00  0.00     0.047 A 
HETATM   26  C12 UNL     1      14.728 -31.641  44.867  1.00  0.00     0.036 A 
HETATM   27 CL2  UNL     1      14.046 -33.158  44.358  1.00  0.00    -0.084 Cl
HETATM   28  C13 UNL     1      14.691 -30.550  44.022  1.00  0.00     0.036 A 
ENDBRANCH  20  21
ENDBRANCH  18  20
ENDBRANCH  17  18
ENDBRANCH  16  17
ENDBRANCH  15  16
ENDBRANCH   1  15
TORSDOF 7
ENDMDL
