MODEL 9
REMARK VINA RESULT: -8.760379079      6.508      8.577
REMARK  7 active torsions:
REMARK  status: ('A' for Active; 'I' for Inactive)
REMARK    1  A    between atoms: C3_4  and  N1_5 
REMARK    2  A    between atoms: N1_5  and  C4_7 
REMARK    3  A    between atoms: C4_7  and  C5_8 
REMARK    4  A    between atoms: C5_8  and  C6_9 
REMARK    5  A    between atoms: C6_9  and  N2_10 
REMARK    6  A    between atoms: N2_10  and  C7_12 
REMARK    7  A    between atoms: C7_12  and  C8_13 
ROOT
HETATM    1  N1  UNL     1      14.893 -27.924  36.504  1.00  0.00    -0.356 N 
ATOM      2  H1  UNL     1      13.991 -28.070  36.957  1.00  0.00     0.166 HD
ENDROOT
BRANCH   1   3
HETATM    3  C3  UNL     1      15.649 -29.084  36.477  1.00  0.00     0.108 A 
HETATM    4  C2  UNL     1      15.538 -30.187  35.665  1.00  0.00     0.104 A 
HETATM    5  C1  UNL     1      16.354 -31.295  35.828  1.00  0.00     0.188 A 
HETATM    6  O1  UNL     1      16.211 -32.309  35.048  1.00  0.00    -0.287 OA
HETATM    7  C19 UNL     1      17.321 -31.343  36.809  1.00  0.00     0.041 A 
HETATM    8  C14 UNL     1      17.442 -30.227  37.629  1.00  0.00     0.048 A 
HETATM    9  C18 UNL     1      18.131 -32.427  37.011  1.00  0.00     0.018 A 
HETATM   10  N3  UNL     1      16.637 -29.173  37.451  1.00  0.00    -0.342 N 
HETATM   11  C15 UNL     1      18.400 -30.234  38.654  1.00  0.00     0.030 A 
ATOM     12  H3  UNL     1      16.756 -28.375  38.076  1.00  0.00     0.167 HD
HETATM   13  C16 UNL     1      19.203 -31.336  38.842  1.00  0.00     0.002 A 
HETATM   14  C17 UNL     1      19.089 -32.440  38.037  1.00  0.00     0.001 A 
ENDBRANCH   1   3
BRANCH   1  15
HETATM   15  C4  UNL     1      15.049 -26.618  36.072  1.00  0.00     0.064 C 
BRANCH  15  16
HETATM   16  C5  UNL     1      16.299 -25.859  36.321  1.00  0.00     0.064 C 
BRANCH  16  17
HETATM   17  C6  UNL     1      16.466 -24.644  35.537  1.00  0.00     0.124 C 
BRANCH  17  18
HETATM   18  N2  UNL     1      17.341 -24.667  34.330  1.00  0.00    -0.398 N 
ATOM     19  H2  UNL     1      18.292 -24.303  34.281  1.00  0.00     0.158 HD
BRANCH  18  20
HETATM   20  C7  UNL     1      16.650 -25.266  33.281  1.00  0.00     0.094 C 
BRANCH  20  21
HETATM   21  C8  UNL     1      15.495 -24.569  32.723  1.00  0.00    -0.018 A 
HETATM   22  C9  UNL     1      15.798 -23.272  32.214  1.00  0.00     0.036 A 
HETATM   23  C10 UNL     1      14.781 -22.593  31.588  1.00  0.00     0.036 A 
HETATM   24 CL1  UNL     1      15.089 -20.983  30.885  1.00  0.00    -0.084 Cl
HETATM   25  C11 UNL     1      13.512 -23.135  31.454  1.00  0.00     0.047 A 
HETATM   26  C12 UNL     1      13.238 -24.371  31.949  1.00  0.00     0.036 A 
HETATM   27 CL2  UNL     1      11.644 -25.054  31.812  1.00  0.00    -0.084 Cl
HETATM   28  C13 UNL     1      14.239 -25.080  32.583  1.00  0.00     0.036 A 
ENDBRANCH  20  21
ENDBRANCH  18  20
ENDBRANCH  17  18
ENDBRANCH  16  17
ENDBRANCH  15  16
ENDBRANCH   1  15
TORSDOF 7
ENDMDL
