MODEL 5
REMARK VINA RESULT: -9.092296730      1.539      2.156
REMARK  7 active torsions:
REMARK  status: ('A' for Active; 'I' for Inactive)
REMARK    1  A    between atoms: C3_4  and  N1_5 
REMARK    2  A    between atoms: N1_5  and  C4_7 
REMARK    3  A    between atoms: C4_7  and  C5_8 
REMARK    4  A    between atoms: C5_8  and  C6_9 
REMARK    5  A    between atoms: C6_9  and  N2_10 
REMARK    6  A    between atoms: N2_10  and  C7_12 
REMARK    7  A    between atoms: C7_12  and  C8_13 
ROOT
HETATM    1  N1  UNL     1      14.711 -28.382  42.700  1.00  0.00    -0.356 N 
ATOM      2  H1  UNL     1      13.791 -28.614  42.326  1.00  0.00     0.166 HD
ENDROOT
BRANCH   1   3
HETATM    3  C3  UNL     1      15.031 -29.161  43.798  1.00  0.00     0.108 A 
HETATM    4  C2  UNL     1      15.841 -28.878  44.871  1.00  0.00     0.104 A 
HETATM    5  C1  UNL     1      16.097 -29.818  45.857  1.00  0.00     0.188 A 
HETATM    6  O1  UNL     1      16.867 -29.511  46.842  1.00  0.00    -0.287 OA
HETATM    7  C19 UNL     1      15.546 -31.081  45.814  1.00  0.00     0.041 A 
HETATM    8  C14 UNL     1      14.720 -31.370  44.734  1.00  0.00     0.048 A 
HETATM    9  C18 UNL     1      15.791 -32.039  46.758  1.00  0.00     0.018 A 
HETATM   10  N3  UNL     1      14.494 -30.444  43.794  1.00  0.00    -0.342 N 
HETATM   11  C15 UNL     1      14.148 -32.648  44.634  1.00  0.00     0.030 A 
ATOM     12  H3  UNL     1      13.884 -30.697  43.017  1.00  0.00     0.167 HD
HETATM   13  C16 UNL     1      14.410 -33.598  45.594  1.00  0.00     0.002 A 
HETATM   14  C17 UNL     1      15.224 -33.320  46.662  1.00  0.00     0.001 A 
ENDBRANCH   1   3
BRANCH   1  15
HETATM   15  C4  UNL     1      15.320 -27.367  41.980  1.00  0.00     0.064 C 
BRANCH  15  16
HETATM   16  C5  UNL     1      16.011 -27.631  40.695  1.00  0.00     0.064 C 
BRANCH  16  17
HETATM   17  C6  UNL     1      17.309 -28.283  40.798  1.00  0.00     0.124 C 
BRANCH  17  18
HETATM   18  N2  UNL     1      18.271 -28.180  39.665  1.00  0.00    -0.398 N 
ATOM     19  H2  UNL     1      18.842 -27.364  39.445  1.00  0.00     0.158 HD
BRANCH  18  20
HETATM   20  C7  UNL     1      18.265 -29.376  38.956  1.00  0.00     0.094 C 
BRANCH  20  21
HETATM   21  C8  UNL     1      17.435 -29.470  37.758  1.00  0.00    -0.018 A 
HETATM   22  C9  UNL     1      17.249 -30.804  37.291  1.00  0.00     0.036 A 
HETATM   23  C10 UNL     1      16.403 -30.980  36.224  1.00  0.00     0.036 A 
HETATM   24 CL1  UNL     1      16.082 -32.622  35.607  1.00  0.00    -0.084 Cl
HETATM   25  C11 UNL     1      15.755 -29.915  35.619  1.00  0.00     0.047 A 
HETATM   26  C12 UNL     1      15.946 -28.647  36.073  1.00  0.00     0.036 A 
HETATM   27 CL2  UNL     1      15.162 -27.296  35.308  1.00  0.00    -0.084 Cl
HETATM   28  C13 UNL     1      16.790 -28.437  37.146  1.00  0.00     0.036 A 
ENDBRANCH  20  21
ENDBRANCH  18  20
ENDBRANCH  17  18
ENDBRANCH  16  17
ENDBRANCH  15  16
ENDBRANCH   1  15
TORSDOF 7
ENDMDL
