MODEL 3
REMARK VINA RESULT: -7.722642516      9.127     11.369
REMARK  6 active torsions:
REMARK  status: ('A' for Active; 'I' for Inactive)
REMARK    1  A    between atoms: N4_10  and  C5_11 
REMARK    2  A    between atoms: C6_13  and  C7_14 
REMARK    3  A    between atoms: C7_14  and  O2_15 
REMARK    4  A    between atoms: O2_15  and  P1_16 
REMARK    5  A    between atoms: C8_20  and  O6_21 
REMARK    6  A    between atoms: C9_23  and  O7_24 
ROOT
HETATM    1  C5  UNL     1      -0.901   0.873  20.229  1.00  0.00     0.262 C 
HETATM    2  O1  UNL     1      -2.292   1.104  20.328  1.00  0.00    -0.353 OA
HETATM    3  C6  UNL     1      -2.465   2.075  19.333  1.00  0.00     0.180 C 
HETATM    4  C8  UNL     1      -1.632   1.601  18.145  1.00  0.00     0.182 C 
HETATM    5  C9  UNL     1      -0.812   0.489  18.766  1.00  0.00     0.198 C 
ENDROOT
BRANCH   1   6
HETATM    6  N4  UNL     1      -0.462  -0.156  21.106  1.00  0.00    -0.297 N 
HETATM    7  C2  UNL     1       0.024   0.037  22.341  1.00  0.00     0.146 A 
HETATM    8  N2  UNL     1       0.256   1.116  23.124  1.00  0.00    -0.314 N 
HETATM    9  C3  UNL     1       0.338  -1.191  22.872  1.00  0.00     0.146 A 
HETATM   10  C1  UNL     1       0.766   1.010  24.358  1.00  0.00     0.196 A 
ATOM     11  H2  UNL     1       0.035   2.043  22.762  1.00  0.00     0.170 HD
HETATM   12  N1  UNL     1       1.007   2.147  25.174  1.00  0.00    -0.063 NA
HETATM   13  N5  UNL     1       1.076  -0.208  24.881  1.00  0.00    -0.295 N 
HETATM   14  C10 UNL     1       0.863  -1.296  24.145  1.00  0.00     0.278 A 
ATOM     15  H5  UNL     1       1.464  -0.286  25.821  1.00  0.00     0.171 HD
HETATM   16  O8  UNL     1       1.146  -2.425  24.620  1.00  0.00    -0.265 OA
HETATM   17  N3  UNL     1       0.033  -2.111  21.942  1.00  0.00    -0.345 N 
HETATM   18  C4  UNL     1      -0.458  -1.458  20.861  1.00  0.00     0.188 A 
ATOM     19  H3  UNL     1       0.150  -3.120  22.033  1.00  0.00     0.167 HD
ENDBRANCH   1   6
BRANCH   5  20
HETATM   20  O7  UNL     1       0.500   0.497  18.308  1.00  0.00    -0.388 OA
ATOM     21  H7  UNL     1       0.596   0.003  17.503  1.00  0.00     0.210 HD
ENDBRANCH   5  20
BRANCH   3  22
HETATM   22  C7  UNL     1      -3.871   2.202  18.882  1.00  0.00     0.217 C 
BRANCH  22  23
HETATM   23  O2  UNL     1      -3.884   3.433  18.183  1.00  0.00    -0.280 OA
BRANCH  23  24
HETATM   24  P1  UNL     1      -5.127   4.300  18.418  1.00  0.00     0.422 P 
HETATM   25  O3  UNL     1      -6.446   5.018  18.750  1.00  0.00    -0.617 OA
HETATM   26  O4  UNL     1      -6.030   3.114  17.661  1.00  0.00    -0.617 OA
HETATM   27  O5  UNL     1      -4.568   5.521  17.488  1.00  0.00    -0.617 OA
ENDBRANCH  23  24
ENDBRANCH  22  23
ENDBRANCH   3  22
BRANCH   4  28
HETATM   28  O6  UNL     1      -0.713   2.613  17.796  1.00  0.00    -0.390 OA
ATOM     29  H6  UNL     1      -1.187   3.421  17.638  1.00  0.00     0.210 HD
ENDBRANCH   4  28
TORSDOF 6
ENDMDL
