MODEL 2
REMARK VINA RESULT: -7.890498733      1.178      1.178
REMARK  6 active torsions:
REMARK  status: ('A' for Active; 'I' for Inactive)
REMARK    1  A    between atoms: N4_10  and  C5_11 
REMARK    2  A    between atoms: C6_13  and  C7_14 
REMARK    3  A    between atoms: C7_14  and  O2_15 
REMARK    4  A    between atoms: O2_15  and  P1_16 
REMARK    5  A    between atoms: C8_20  and  O6_21 
REMARK    6  A    between atoms: C9_23  and  O7_24 
ROOT
HETATM    1  C5  UNL     1       3.619  -7.448  15.933  1.00  0.00     0.262 C 
HETATM    2  O1  UNL     1       2.723  -6.490  15.405  1.00  0.00    -0.353 OA
HETATM    3  C6  UNL     1       2.877  -5.451  16.332  1.00  0.00     0.180 C 
HETATM    4  C8  UNL     1       4.378  -5.351  16.592  1.00  0.00     0.182 C 
HETATM    5  C9  UNL     1       4.890  -6.623  15.948  1.00  0.00     0.198 C 
ENDROOT
BRANCH   1   6
HETATM    6  N4  UNL     1       3.713  -8.606  15.115  1.00  0.00    -0.297 N 
HETATM    7  C2  UNL     1       2.815  -8.974  14.189  1.00  0.00     0.146 A 
HETATM    8  N2  UNL     1       1.644  -8.470  13.735  1.00  0.00    -0.314 N 
HETATM    9  C3  UNL     1       3.252 -10.141  13.611  1.00  0.00     0.146 A 
HETATM   10  C1  UNL     1       0.934  -9.067  12.770  1.00  0.00     0.196 A 
ATOM     11  H2  UNL     1       1.289  -7.605  14.142  1.00  0.00     0.170 HD
HETATM   12  N1  UNL     1      -0.295  -8.532  12.298  1.00  0.00    -0.063 NA
HETATM   13  N5  UNL     1       1.370 -10.223  12.198  1.00  0.00    -0.295 N 
HETATM   14  C10 UNL     1       2.517 -10.753  12.615  1.00  0.00     0.278 A 
ATOM     15  H5  UNL     1       0.827 -10.675  11.462  1.00  0.00     0.171 HD
HETATM   16  O8  UNL     1       2.927 -11.820  12.092  1.00  0.00    -0.265 OA
HETATM   17  N3  UNL     1       4.416 -10.460  14.200  1.00  0.00    -0.345 N 
HETATM   18  C4  UNL     1       4.686  -9.506  15.123  1.00  0.00     0.188 A 
ATOM     19  H3  UNL     1       4.993 -11.274  13.990  1.00  0.00     0.167 HD
ENDBRANCH   1   6
BRANCH   5  20
HETATM   20  O7  UNL     1       5.886  -7.222  16.709  1.00  0.00    -0.388 OA
ATOM     21  H7  UNL     1       6.262  -6.618  17.339  1.00  0.00     0.210 HD
ENDBRANCH   5  20
BRANCH   3  22
HETATM   22  C7  UNL     1       2.415  -4.140  15.819  1.00  0.00     0.217 C 
BRANCH  22  23
HETATM   23  O2  UNL     1       1.069  -4.072  16.252  1.00  0.00    -0.280 OA
BRANCH  23  24
HETATM   24  P1  UNL     1       0.573  -2.666  16.612  1.00  0.00     0.422 P 
HETATM   25  O3  UNL     1       0.041  -1.327  17.150  1.00  0.00    -0.617 OA
HETATM   26  O4  UNL     1      -0.895  -3.351  17.031  1.00  0.00    -0.617 OA
HETATM   27  O5  UNL     1       0.729  -2.116  15.082  1.00  0.00    -0.617 OA
ENDBRANCH  23  24
ENDBRANCH  22  23
ENDBRANCH   3  22
BRANCH   4  28
HETATM   28  O6  UNL     1       4.614  -5.494  17.976  1.00  0.00    -0.390 OA
ATOM     29  H6  UNL     1       5.549  -5.442  18.137  1.00  0.00     0.210 HD
ENDBRANCH   4  28
TORSDOF 6
ENDMDL
