MODEL 1
REMARK VINA RESULT: -7.950440460      0.000      0.000
REMARK  6 active torsions:
REMARK  status: ('A' for Active; 'I' for Inactive)
REMARK    1  A    between atoms: N4_10  and  C5_11 
REMARK    2  A    between atoms: C6_13  and  C7_14 
REMARK    3  A    between atoms: C7_14  and  O2_15 
REMARK    4  A    between atoms: O2_15  and  P1_16 
REMARK    5  A    between atoms: C8_20  and  O6_21 
REMARK    6  A    between atoms: C9_23  and  O7_24 
ROOT
HETATM    1  C5  UNL     1       3.321  -7.344  16.598  1.00  0.00     0.262 C 
HETATM    2  O1  UNL     1       2.377  -6.380  16.176  1.00  0.00    -0.353 OA
HETATM    3  C6  UNL     1       3.003  -5.201  16.602  1.00  0.00     0.180 C 
HETATM    4  C8  UNL     1       4.475  -5.359  16.232  1.00  0.00     0.182 C 
HETATM    5  C9  UNL     1       4.549  -6.829  15.874  1.00  0.00     0.198 C 
ENDROOT
BRANCH   1   6
HETATM    6  N4  UNL     1       2.955  -8.662  16.211  1.00  0.00    -0.297 N 
HETATM    7  C2  UNL     1       2.349  -8.989  15.059  1.00  0.00     0.146 A 
HETATM    8  N2  UNL     1       1.912  -8.304  13.976  1.00  0.00    -0.314 N 
HETATM    9  C3  UNL     1       2.161 -10.350  15.048  1.00  0.00     0.146 A 
HETATM   10  C1  UNL     1       1.323  -8.909  12.937  1.00  0.00     0.196 A 
ATOM     11  H2  UNL     1       2.036  -7.293  13.951  1.00  0.00     0.170 HD
HETATM   12  N1  UNL     1       0.867  -8.184  11.803  1.00  0.00    -0.063 NA
HETATM   13  N5  UNL     1       1.138 -10.258  12.929  1.00  0.00    -0.295 N 
HETATM   14  C10 UNL     1       1.553 -10.969  13.974  1.00  0.00     0.278 A 
ATOM     15  H5  UNL     1       0.690 -10.715  12.135  1.00  0.00     0.171 HD
HETATM   16  O8  UNL     1       1.386 -12.215  13.975  1.00  0.00    -0.265 OA
HETATM   17  N3  UNL     1       2.660 -10.825  16.201  1.00  0.00    -0.345 N 
HETATM   18  C4  UNL     1       3.145  -9.774  16.905  1.00  0.00     0.188 A 
ATOM     19  H3  UNL     1       2.672 -11.802  16.493  1.00  0.00     0.167 HD
ENDBRANCH   1   6
BRANCH   5  20
HETATM   20  O7  UNL     1       5.714  -7.418  16.349  1.00  0.00    -0.388 OA
ATOM     21  H7  UNL     1       6.267  -6.793  16.801  1.00  0.00     0.210 HD
ENDBRANCH   5  20
BRANCH   3  22
HETATM   22  C7  UNL     1       2.489  -3.990  15.920  1.00  0.00     0.217 C 
BRANCH  22  23
HETATM   23  O2  UNL     1       1.110  -3.992  16.238  1.00  0.00    -0.280 OA
BRANCH  23  24
HETATM   24  P1  UNL     1       0.521  -2.619  16.587  1.00  0.00     0.422 P 
HETATM   25  O3  UNL     1      -0.103  -1.316  17.113  1.00  0.00    -0.617 OA
HETATM   26  O4  UNL     1      -0.915  -3.391  16.963  1.00  0.00    -0.617 OA
HETATM   27  O5  UNL     1       0.689  -2.054  15.064  1.00  0.00    -0.617 OA
ENDBRANCH  23  24
ENDBRANCH  22  23
ENDBRANCH   3  22
BRANCH   4  28
HETATM   28  O6  UNL     1       5.260  -5.202  17.394  1.00  0.00    -0.390 OA
ATOM     29  H6  UNL     1       6.125  -5.560  17.234  1.00  0.00     0.210 HD
ENDBRANCH   4  28
TORSDOF 6
ENDMDL
