MODEL 6
REMARK VINA RESULT: -7.207741222      5.851      8.356
REMARK  6 active torsions:
REMARK  status: ('A' for Active; 'I' for Inactive)
REMARK    1  A    between atoms: N4_13  and  C6_14 
REMARK    2  A    between atoms: C7_16  and  C8_17 
REMARK    3  A    between atoms: C8_17  and  O3_18 
REMARK    4  A    between atoms: O3_18  and  P1_19 
REMARK    5  A    between atoms: C9_23  and  O7_24 
REMARK    6  A    between atoms: C10_26  and  O8_27 
ROOT
HETATM    1  C6  UNL     1       3.789  -6.092  17.720  1.00  0.00     0.262 C 
HETATM    2  O2  UNL     1       2.556  -5.503  17.465  1.00  0.00    -0.353 OA
HETATM    3  C7  UNL     1       2.416  -4.502  18.396  1.00  0.00     0.180 C 
HETATM    4  C9  UNL     1       3.793  -4.028  18.778  1.00  0.00     0.182 C 
HETATM    5  C10 UNL     1       4.671  -4.862  17.860  1.00  0.00     0.198 C 
ENDROOT
BRANCH   1   6
HETATM    6  N4  UNL     1       4.210  -6.941  16.632  1.00  0.00    -0.297 N 
HETATM    7  C3  UNL     1       3.520  -8.025  16.233  1.00  0.00     0.144 A 
HETATM    8  N2  UNL     1       2.376  -8.618  16.631  1.00  0.00    -0.336 N 
HETATM    9  C4  UNL     1       4.158  -8.649  15.168  1.00  0.00     0.146 A 
HETATM   10  C2  UNL     1       1.885  -9.719  16.057  1.00  0.00     0.185 A 
ATOM     11  H2  UNL     1       1.860  -8.205  17.409  1.00  0.00     0.168 HD
HETATM   12  N1  UNL     1       2.512 -10.310  15.031  1.00  0.00    -0.318 N 
HETATM   13  C1  UNL     1       3.653  -9.779  14.579  1.00  0.00     0.277 A 
ATOM     14  H1  UNL     1       2.125 -11.151  14.602  1.00  0.00     0.169 HD
HETATM   15  O1  UNL     1       4.240 -10.326  13.624  1.00  0.00    -0.266 OA
HETATM   16  N3  UNL     1       5.267  -7.884  14.950  1.00  0.00    -0.345 N 
HETATM   17  C5  UNL     1       5.276  -6.871  15.835  1.00  0.00     0.188 A 
ATOM     18  H3  UNL     1       5.972  -8.052  14.232  1.00  0.00     0.167 HD
ENDBRANCH   1   6
BRANCH   5  19
HETATM   19  O8  UNL     1       5.895  -5.154  18.413  1.00  0.00    -0.388 OA
ATOM     20  H8  UNL     1       6.617  -4.840  17.882  1.00  0.00     0.210 HD
ENDBRANCH   5  19
BRANCH   3  21
HETATM   21  C8  UNL     1       1.697  -3.333  17.755  1.00  0.00     0.217 C 
BRANCH  21  22
HETATM   22  O3  UNL     1       0.356  -3.419  18.023  1.00  0.00    -0.280 OA
BRANCH  22  23
HETATM   23  P1  UNL     1      -0.434  -2.355  16.995  1.00  0.00     0.422 P 
HETATM   24  O4  UNL     1      -1.375  -3.541  16.721  1.00  0.00    -0.617 OA
HETATM   25  O5  UNL     1       0.106  -2.200  15.475  1.00  0.00    -0.617 OA
HETATM   26  O6  UNL     1       0.440  -1.233  17.570  1.00  0.00    -0.617 OA
ENDBRANCH  22  23
ENDBRANCH  21  22
ENDBRANCH   3  21
BRANCH   4  27
HETATM   27  O7  UNL     1       4.099  -4.445  20.086  1.00  0.00    -0.390 OA
ATOM     28  H7  UNL     1       4.561  -3.754  20.547  1.00  0.00     0.210 HD
ENDBRANCH   4  27
TORSDOF 6
ENDMDL
