MODEL 5
REMARK VINA RESULT: -7.220555709      7.640     10.273
REMARK  6 active torsions:
REMARK  status: ('A' for Active; 'I' for Inactive)
REMARK    1  A    between atoms: N4_13  and  C6_14 
REMARK    2  A    between atoms: C7_16  and  C8_17 
REMARK    3  A    between atoms: C8_17  and  O3_18 
REMARK    4  A    between atoms: O3_18  and  P1_19 
REMARK    5  A    between atoms: C9_23  and  O7_24 
REMARK    6  A    between atoms: C10_26  and  O8_27 
ROOT
HETATM    1  C6  UNL     1       3.947  -8.046  16.100  1.00  0.00     0.262 C 
HETATM    2  O2  UNL     1       3.014  -7.073  15.762  1.00  0.00    -0.353 OA
HETATM    3  C7  UNL     1       3.155  -6.074  16.697  1.00  0.00     0.180 C 
HETATM    4  C9  UNL     1       4.579  -6.096  17.187  1.00  0.00     0.182 C 
HETATM    5  C10 UNL     1       5.184  -7.192  16.324  1.00  0.00     0.198 C 
ENDROOT
BRANCH   1   6
HETATM    6  N4  UNL     1       4.133  -8.999  15.033  1.00  0.00    -0.297 N 
HETATM    7  C3  UNL     1       3.111  -9.572  14.369  1.00  0.00     0.144 A 
HETATM    8  N2  UNL     1       1.767  -9.481  14.441  1.00  0.00    -0.336 N 
HETATM    9  C4  UNL     1       3.584 -10.445  13.398  1.00  0.00     0.146 A 
HETATM   10  C2  UNL     1       0.945 -10.172  13.648  1.00  0.00     0.185 A 
ATOM     11  H2  UNL     1       1.359  -8.854  15.135  1.00  0.00     0.168 HD
HETATM   12  N1  UNL     1       1.416 -11.012  12.716  1.00  0.00    -0.318 N 
HETATM   13  C1  UNL     1       2.739 -11.154  12.584  1.00  0.00     0.277 A 
ATOM     14  H1  UNL     1       0.776 -11.534  12.118  1.00  0.00     0.169 HD
HETATM   15  O1  UNL     1       3.182 -11.934  11.717  1.00  0.00    -0.266 OA
HETATM   16  N3  UNL     1       4.942 -10.368  13.514  1.00  0.00    -0.345 N 
HETATM   17  C5  UNL     1       5.245  -9.499  14.496  1.00  0.00     0.188 A 
ATOM     18  H3  UNL     1       5.615 -10.884  12.948  1.00  0.00     0.167 HD
ENDBRANCH   1   6
BRANCH   5  19
HETATM   19  O8  UNL     1       6.188  -7.879  16.962  1.00  0.00    -0.388 OA
ATOM     20  H8  UNL     1       6.736  -7.313  17.492  1.00  0.00     0.210 HD
ENDBRANCH   5  19
BRANCH   3  21
HETATM   21  C8  UNL     1       2.932  -4.737  16.022  1.00  0.00     0.217 C 
BRANCH  21  22
HETATM   22  O3  UNL     1       1.586  -4.517  15.878  1.00  0.00    -0.280 OA
BRANCH  22  23
HETATM   23  P1  UNL     1       1.302  -2.896  16.197  1.00  0.00     0.422 P 
HETATM   24  O4  UNL     1      -0.083  -3.376  16.664  1.00  0.00    -0.617 OA
HETATM   25  O5  UNL     1       0.766  -1.951  14.993  1.00  0.00    -0.617 OA
HETATM   26  O6  UNL     1       2.789  -2.636  15.928  1.00  0.00    -0.617 OA
ENDBRANCH  22  23
ENDBRANCH  21  22
ENDBRANCH   3  21
BRANCH   4  27
HETATM   27  O7  UNL     1       4.624  -6.580  18.508  1.00  0.00    -0.390 OA
ATOM     28  H7  UNL     1       5.358  -6.192  18.969  1.00  0.00     0.210 HD
ENDBRANCH   4  27
TORSDOF 6
ENDMDL
