MODEL 4
REMARK VINA RESULT: -7.225913426      2.848      4.689
REMARK  6 active torsions:
REMARK  status: ('A' for Active; 'I' for Inactive)
REMARK    1  A    between atoms: N4_13  and  C6_14 
REMARK    2  A    between atoms: C7_16  and  C8_17 
REMARK    3  A    between atoms: C8_17  and  O3_18 
REMARK    4  A    between atoms: O3_18  and  P1_19 
REMARK    5  A    between atoms: C9_23  and  O7_24 
REMARK    6  A    between atoms: C10_26  and  O8_27 
ROOT
HETATM    1  C6  UNL     1       0.539  -3.406  19.676  1.00  0.00     0.262 C 
HETATM    2  O2  UNL     1       0.216  -2.645  18.558  1.00  0.00    -0.353 OA
HETATM    3  C7  UNL     1      -0.960  -2.002  18.866  1.00  0.00     0.180 C 
HETATM    4  C9  UNL     1      -1.012  -1.822  20.360  1.00  0.00     0.182 C 
HETATM    5  C10 UNL     1       0.333  -2.388  20.786  1.00  0.00     0.198 C 
ENDROOT
BRANCH   1   6
HETATM    6  N4  UNL     1       1.900  -3.882  19.622  1.00  0.00    -0.297 N 
HETATM    7  C3  UNL     1       2.653  -3.839  18.508  1.00  0.00     0.144 A 
HETATM    8  N2  UNL     1       2.451  -3.408  17.245  1.00  0.00    -0.336 N 
HETATM    9  C4  UNL     1       3.917  -4.363  18.748  1.00  0.00     0.146 A 
HETATM   10  C2  UNL     1       3.384  -3.475  16.293  1.00  0.00     0.185 A 
ATOM     11  H2  UNL     1       1.542  -3.011  17.008  1.00  0.00     0.168 HD
HETATM   12  N1  UNL     1       4.598  -3.984  16.540  1.00  0.00    -0.318 N 
HETATM   13  C1  UNL     1       4.874  -4.430  17.769  1.00  0.00     0.277 A 
ATOM     14  H1  UNL     1       5.301  -4.029  15.801  1.00  0.00     0.169 HD
HETATM   15  O1  UNL     1       6.004  -4.905  18.003  1.00  0.00    -0.266 OA
HETATM   16  N3  UNL     1       3.883  -4.723  20.064  1.00  0.00    -0.345 N 
HETATM   17  C5  UNL     1       2.669  -4.427  20.564  1.00  0.00     0.188 A 
ATOM     18  H3  UNL     1       4.652  -5.147  20.583  1.00  0.00     0.167 HD
ENDBRANCH   1   6
BRANCH   5  19
HETATM   19  O8  UNL     1       0.298  -2.968  22.031  1.00  0.00    -0.388 OA
ATOM     20  H8  UNL     1       0.781  -2.468  22.678  1.00  0.00     0.210 HD
ENDBRANCH   5  19
BRANCH   3  21
HETATM   21  C8  UNL     1      -0.939  -0.621  18.246  1.00  0.00     0.217 C 
BRANCH  21  22
HETATM   22  O3  UNL     1      -1.343   0.303  19.175  1.00  0.00    -0.280 OA
BRANCH  22  23
HETATM   23  P1  UNL     1      -0.921   1.819  18.596  1.00  0.00     0.422 P 
HETATM   24  O4  UNL     1       0.383   1.131  18.155  1.00  0.00    -0.617 OA
HETATM   25  O5  UNL     1      -0.230   2.874  19.615  1.00  0.00    -0.617 OA
HETATM   26  O6  UNL     1      -2.359   2.271  18.880  1.00  0.00    -0.617 OA
ENDBRANCH  22  23
ENDBRANCH  21  22
ENDBRANCH   3  21
BRANCH   4  27
HETATM   27  O7  UNL     1      -1.981  -2.680  20.913  1.00  0.00    -0.390 OA
ATOM     28  H7  UNL     1      -2.308  -2.317  21.728  1.00  0.00     0.210 HD
ENDBRANCH   4  27
TORSDOF 6
ENDMDL
