MODEL 5
REMARK VINA RESULT: -8.536962295      3.594      7.408
REMARK  6 active torsions:
REMARK  status: ('A' for Active; 'I' for Inactive)
REMARK    1  A    between atoms: C4_5  and  S1_6 
REMARK    2  A    between atoms: S1_6  and  N2_9 
REMARK    3  A    between atoms: N2_9  and  C5_11 
REMARK    4  A    between atoms: C10_19  and  O3_20 
REMARK    5  A    between atoms: O3_20  and  C11_21 
REMARK    6  A    between atoms: C16_27  and  C17_28 
ROOT
HETATM    1  N1  UNL     1      23.123 -27.238   0.082  1.00  0.00    -0.191 NA
HETATM    2  C1  UNL     1      23.231 -27.949   1.001  1.00  0.00     0.102 C 
HETATM    3  C2  UNL     1      23.341 -28.826   2.142  1.00  0.00     0.080 A 
HETATM    4  C3  UNL     1      22.566 -29.964   2.209  1.00  0.00     0.050 A 
HETATM    5  C4  UNL     1      22.620 -30.838   3.259  1.00  0.00     0.081 A 
HETATM    6  C8  UNL     1      23.501 -30.532   4.278  1.00  0.00     0.028 A 
HETATM    7  C9  UNL     1      24.281 -29.391   4.217  1.00  0.00     0.040 A 
HETATM    8  C10 UNL     1      24.233 -28.518   3.176  1.00  0.00     0.097 A 
ENDROOT
BRANCH   8   9
HETATM    9  O3  UNL     1      24.957 -27.371   3.027  1.00  0.00    -0.308 OA
BRANCH   9  10
HETATM   10  C11 UNL     1      26.129 -27.009   3.612  1.00  0.00     0.087 A 
HETATM   11  C12 UNL     1      26.164 -26.831   4.981  1.00  0.00     0.040 A 
HETATM   12  C13 UNL     1      27.317 -26.466   5.642  1.00  0.00     0.026 A 
HETATM   13  C14 UNL     1      28.455 -26.281   4.884  1.00  0.00     0.035 A 
HETATM   14 CL1  UNL     1      29.919 -25.821   5.696  1.00  0.00    -0.084 Cl
HETATM   15  C15 UNL     1      28.417 -26.460   3.518  1.00  0.00     0.039 A 
HETATM   16  C16 UNL     1      27.255 -26.830   2.841  1.00  0.00     0.012 A 
BRANCH  16  17
HETATM   17  C17 UNL     1      27.291 -27.012   1.389  1.00  0.00     0.011 A 
HETATM   18  C18 UNL     1      26.938 -26.088   0.433  1.00  0.00     0.120 A 
HETATM   19  N4  UNL     1      27.128 -26.681  -0.770  1.00  0.00    -0.311 N 
HETATM   20  N5  UNL     1      27.575 -27.906  -0.626  1.00  0.00    -0.311 N 
ATOM     21  H4  UNL     1      26.947 -26.234  -1.669  1.00  0.00     0.186 HD
HETATM   22  C19 UNL     1      27.683 -28.133   0.687  1.00  0.00     0.120 A 
ATOM     23  H5  UNL     1      27.798 -28.562  -1.374  1.00  0.00     0.186 HD
ENDBRANCH  16  17
ENDBRANCH   9  10
ENDBRANCH   8   9
BRANCH   5  24
HETATM   24  S1  UNL     1      21.617 -32.265   3.289  1.00  0.00     0.264 S 
HETATM   25  O1  UNL     1      20.180 -31.787   3.174  1.00  0.00    -0.200 OA
HETATM   26  O2  UNL     1      21.834 -32.973   4.596  1.00  0.00    -0.200 OA
BRANCH  24  27
HETATM   27  N2  UNL     1      22.027 -33.331   2.021  1.00  0.00    -0.260 N 
ATOM     28  H2  UNL     1      21.296 -33.910   1.606  1.00  0.00     0.181 HD
BRANCH  27  29
HETATM   29  C5  UNL     1      23.369 -33.439   1.520  1.00  0.00     0.158 A 
HETATM   30  N3  UNL     1      23.740 -33.499   0.253  1.00  0.00    -0.345 N 
HETATM   31  C6  UNL     1      24.994 -33.595  -0.051  1.00  0.00     0.097 A 
ATOM     32  H3  UNL     1      23.038 -33.469  -0.487  1.00  0.00     0.167 HD
HETATM   33  C7  UNL     1      25.897 -33.631   0.986  1.00  0.00     0.070 A 
HETATM   34  S2  UNL     1      24.859 -33.522   2.343  1.00  0.00    -0.064 SA
ENDBRANCH  27  29
ENDBRANCH  24  27
ENDBRANCH   5  24
TORSDOF 6
ENDMDL
