MODEL 6
REMARK VINA RESULT: -8.382226524      3.815      7.695
REMARK  6 active torsions:
REMARK  status: ('A' for Active; 'I' for Inactive)
REMARK    1  A    between atoms: C4_5  and  S1_6 
REMARK    2  A    between atoms: S1_6  and  N2_9 
REMARK    3  A    between atoms: N2_9  and  C5_11 
REMARK    4  A    between atoms: C10_19  and  O3_20 
REMARK    5  A    between atoms: O3_20  and  C11_21 
REMARK    6  A    between atoms: C16_27  and  C17_28 
ROOT
HETATM    1  N1  UNL     1      22.181 -27.465   1.579  1.00  0.00    -0.191 NA
HETATM    2  C1  UNL     1      22.711 -28.495   1.724  1.00  0.00     0.102 C 
HETATM    3  C2  UNL     1      23.358 -29.769   1.926  1.00  0.00     0.080 A 
HETATM    4  C3  UNL     1      22.615 -30.860   2.323  1.00  0.00     0.050 A 
HETATM    5  C4  UNL     1      23.163 -32.095   2.532  1.00  0.00     0.081 A 
HETATM    6  C8  UNL     1      24.525 -32.214   2.328  1.00  0.00     0.028 A 
HETATM    7  C9  UNL     1      25.276 -31.122   1.930  1.00  0.00     0.040 A 
HETATM    8  C10 UNL     1      24.737 -29.891   1.720  1.00  0.00     0.097 A 
ENDROOT
BRANCH   8   9
HETATM    9  O3  UNL     1      25.393 -28.759   1.331  1.00  0.00    -0.308 OA
BRANCH   9  10
HETATM   10  C11 UNL     1      25.760 -27.680   2.070  1.00  0.00     0.087 A 
HETATM   11  C12 UNL     1      25.865 -27.814   3.440  1.00  0.00     0.040 A 
HETATM   12  C13 UNL     1      26.234 -26.762   4.251  1.00  0.00     0.026 A 
HETATM   13  C14 UNL     1      26.499 -25.552   3.646  1.00  0.00     0.035 A 
HETATM   14 CL1  UNL     1      26.965 -24.213   4.648  1.00  0.00    -0.084 Cl
HETATM   15  C15 UNL     1      26.394 -25.421   2.278  1.00  0.00     0.039 A 
HETATM   16  C16 UNL     1      26.023 -26.480   1.449  1.00  0.00     0.012 A 
BRANCH  16  17
HETATM   17  C17 UNL     1      25.942 -26.271   0.003  1.00  0.00     0.011 A 
HETATM   18  C18 UNL     1      24.830 -25.896  -0.716  1.00  0.00     0.120 A 
HETATM   19  N4  UNL     1      25.211 -25.824  -2.013  1.00  0.00    -0.311 N 
HETATM   20  N5  UNL     1      26.480 -26.127  -2.149  1.00  0.00    -0.311 N 
ATOM     21  H4  UNL     1      24.593 -25.567  -2.784  1.00  0.00     0.186 HD
HETATM   22  C19 UNL     1      26.950 -26.405  -0.930  1.00  0.00     0.120 A 
ATOM     23  H5  UNL     1      27.009 -26.146  -3.021  1.00  0.00     0.186 HD
ENDBRANCH  16  17
ENDBRANCH   9  10
ENDBRANCH   8   9
BRANCH   5  24
HETATM   24  S1  UNL     1      22.173 -33.442   3.031  1.00  0.00     0.264 S 
HETATM   25  O1  UNL     1      22.829 -34.693   2.473  1.00  0.00    -0.200 OA
HETATM   26  O2  UNL     1      20.799 -33.264   2.452  1.00  0.00    -0.200 OA
BRANCH  24  27
HETATM   27  N2  UNL     1      22.040 -33.509   4.731  1.00  0.00    -0.260 N 
ATOM     28  H2  UNL     1      21.111 -33.500   5.155  1.00  0.00     0.181 HD
BRANCH  27  29
HETATM   29  C5  UNL     1      23.193 -33.578   5.584  1.00  0.00     0.158 A 
HETATM   30  N3  UNL     1      23.458 -34.505   6.488  1.00  0.00    -0.345 N 
HETATM   31  C6  UNL     1      24.544 -34.438   7.187  1.00  0.00     0.097 A 
ATOM     32  H3  UNL     1      22.805 -35.276   6.634  1.00  0.00     0.167 HD
HETATM   33  C7  UNL     1      25.387 -33.377   6.948  1.00  0.00     0.070 A 
HETATM   34  S2  UNL     1      24.542 -32.544   5.715  1.00  0.00    -0.064 SA
ENDBRANCH  27  29
ENDBRANCH  24  27
ENDBRANCH   5  24
TORSDOF 6
ENDMDL
