MODEL 4
REMARK VINA RESULT: -8.724746877      7.304     10.480
REMARK  6 active torsions:
REMARK  status: ('A' for Active; 'I' for Inactive)
REMARK    1  A    between atoms: C4_5  and  S1_6 
REMARK    2  A    between atoms: S1_6  and  N2_9 
REMARK    3  A    between atoms: N2_9  and  C5_11 
REMARK    4  A    between atoms: C10_19  and  O3_20 
REMARK    5  A    between atoms: O3_20  and  C11_21 
REMARK    6  A    between atoms: C16_27  and  C17_28 
ROOT
HETATM    1  N1  UNL     1      24.206 -19.550   6.849  1.00  0.00    -0.191 NA
HETATM    2  C1  UNL     1      24.519 -20.672   6.913  1.00  0.00     0.102 C 
HETATM    3  C2  UNL     1      24.893 -22.065   6.970  1.00  0.00     0.080 A 
HETATM    4  C3  UNL     1      25.571 -22.637   5.915  1.00  0.00     0.050 A 
HETATM    5  C4  UNL     1      25.956 -23.949   5.904  1.00  0.00     0.081 A 
HETATM    6  C8  UNL     1      25.632 -24.701   7.017  1.00  0.00     0.028 A 
HETATM    7  C9  UNL     1      24.952 -24.132   8.079  1.00  0.00     0.040 A 
HETATM    8  C10 UNL     1      24.567 -22.829   8.097  1.00  0.00     0.097 A 
ENDROOT
BRANCH   8   9
HETATM    9  O3  UNL     1      23.894 -22.181   9.092  1.00  0.00    -0.308 OA
BRANCH   9  10
HETATM   10  C11 UNL     1      22.722 -22.510   9.695  1.00  0.00     0.087 A 
HETATM   11  C12 UNL     1      22.539 -23.806  10.135  1.00  0.00     0.040 A 
HETATM   12  C13 UNL     1      21.376 -24.210  10.756  1.00  0.00     0.026 A 
HETATM   13  C14 UNL     1      20.384 -23.267  10.928  1.00  0.00     0.035 A 
HETATM   14 CL1  UNL     1      18.912 -23.754  11.708  1.00  0.00    -0.084 Cl
HETATM   15  C15 UNL     1      20.570 -21.974  10.489  1.00  0.00     0.039 A 
HETATM   16  C16 UNL     1      21.743 -21.556   9.860  1.00  0.00     0.012 A 
BRANCH  16  17
HETATM   17  C17 UNL     1      21.875 -20.164   9.429  1.00  0.00     0.011 A 
HETATM   18  C18 UNL     1      22.726 -19.216   9.950  1.00  0.00     0.120 A 
HETATM   19  N4  UNL     1      22.513 -18.076   9.252  1.00  0.00    -0.311 N 
HETATM   20  N5  UNL     1      21.591 -18.251   8.334  1.00  0.00    -0.311 N 
ATOM     21  H4  UNL     1      23.004 -17.197   9.416  1.00  0.00     0.186 HD
HETATM   22  C19 UNL     1      21.185 -19.520   8.423  1.00  0.00     0.120 A 
ATOM     23  H5  UNL     1      21.249 -17.550   7.677  1.00  0.00     0.186 HD
ENDBRANCH  16  17
ENDBRANCH   9  10
ENDBRANCH   8   9
BRANCH   5  24
HETATM   24  S1  UNL     1      26.813 -24.619   4.541  1.00  0.00     0.264 S 
HETATM   25  O1  UNL     1      28.034 -25.328   5.103  1.00  0.00    -0.200 OA
HETATM   26  O2  UNL     1      27.228 -23.493   3.637  1.00  0.00    -0.200 OA
BRANCH  24  27
HETATM   27  N2  UNL     1      25.820 -25.687   3.655  1.00  0.00    -0.260 N 
ATOM     28  H2  UNL     1      25.200 -26.320   4.161  1.00  0.00     0.181 HD
BRANCH  27  29
HETATM   29  C5  UNL     1      25.831 -25.723   2.219  1.00  0.00     0.158 A 
HETATM   30  N3  UNL     1      26.482 -24.907   1.409  1.00  0.00    -0.345 N 
HETATM   31  C6  UNL     1      26.398 -25.061   0.128  1.00  0.00     0.097 A 
ATOM     32  H3  UNL     1      27.053 -24.154   1.795  1.00  0.00     0.167 HD
HETATM   33  C7  UNL     1      25.615 -26.092  -0.337  1.00  0.00     0.070 A 
HETATM   34  S2  UNL     1      25.050 -26.774   1.128  1.00  0.00    -0.064 SA
ENDBRANCH  27  29
ENDBRANCH  24  27
ENDBRANCH   5  24
TORSDOF 6
ENDMDL
