MODEL 9
REMARK VINA RESULT: -5.962852311      8.731     10.100
REMARK  2 active torsions:
REMARK  status: ('A' for Active; 'I' for Inactive)
REMARK    1  A    between atoms: N5_13  and  C6_14 
REMARK    2  A    between atoms: C10_24  and  O6_25 
ROOT
HETATM    1  N1  UNL     1      15.902 -26.521  -5.374  1.00  0.00    -0.080 NA
HETATM    2  C1  UNL     1      15.529 -25.334  -6.063  1.00  0.00     0.148 A 
HETATM    3  N2  UNL     1      15.957 -25.019  -7.293  1.00  0.00    -0.339 N 
ATOM      4  H2  UNL     1      16.588 -25.657  -7.779  1.00  0.00     0.167 HD
HETATM    5  C2  UNL     1      15.576 -23.881  -7.904  1.00  0.00     0.183 A 
HETATM    6  N3  UNL     1      14.746 -23.004  -7.313  1.00  0.00    -0.336 N 
ATOM      7  H3  UNL     1      14.468 -22.147  -7.792  1.00  0.00     0.168 HD
HETATM    8  C3  UNL     1      14.294 -23.276  -6.086  1.00  0.00     0.142 A 
HETATM    9  C4  UNL     1      14.676 -24.436  -5.449  1.00  0.00     0.119 A 
HETATM   10  N4  UNL     1      14.077 -24.436  -4.260  1.00  0.00    -0.346 N 
ATOM     11  H4  UNL     1      14.163 -25.166  -3.551  1.00  0.00     0.167 HD
HETATM   12  C5  UNL     1      13.347 -23.324  -4.147  1.00  0.00     0.188 A 
HETATM   13  N5  UNL     1      13.480 -22.597  -5.287  1.00  0.00    -0.297 N 
ENDROOT
BRANCH  13  14
HETATM   14  C6  UNL     1      12.817 -21.337  -5.489  1.00  0.00     0.262 C 
HETATM   15  O1  UNL     1      12.465 -21.279  -6.857  1.00  0.00    -0.353 OA
HETATM   16  C7  UNL     1      12.128 -19.907  -6.949  1.00  0.00     0.180 C 
HETATM   17  C8  UNL     1      11.830 -19.562  -8.377  1.00  0.00     0.216 C 
HETATM   18  C9  UNL     1      13.428 -19.293  -6.464  1.00  0.00     0.198 C 
HETATM   19  O2  UNL     1      11.819 -18.224  -8.634  1.00  0.00    -0.287 OA
HETATM   20  P1  UNL     1      12.276 -17.319  -7.326  1.00  0.00     0.408 P 
HETATM   21  O3  UNL     1      11.606 -15.823  -7.075  1.00  0.00    -0.624 OA
HETATM   22  O4  UNL     1      13.477 -16.739  -8.058  1.00  0.00    -0.624 OA
HETATM   23  O5  UNL     1      13.227 -17.967  -6.149  1.00  0.00    -0.279 OA
HETATM   24  C10 UNL     1      13.708 -20.147  -5.243  1.00  0.00     0.199 C 
BRANCH  24  25
HETATM   25  O6  UNL     1      13.352 -19.445  -4.100  1.00  0.00    -0.388 OA
ATOM     26  H6  UNL     1      12.884 -19.985  -3.473  1.00  0.00     0.210 HD
ENDBRANCH  24  25
ENDBRANCH  13  14
TORSDOF 2
ENDMDL
