MODEL 6
REMARK VINA RESULT: -6.600729670      2.627      4.142
REMARK  2 active torsions:
REMARK  status: ('A' for Active; 'I' for Inactive)
REMARK    1  A    between atoms: N5_13  and  C6_14 
REMARK    2  A    between atoms: C10_24  and  O6_25 
ROOT
HETATM    1  N1  UNL     1      14.506 -22.758  -7.172  1.00  0.00    -0.080 NA
HETATM    2  C1  UNL     1      14.685 -22.237  -8.483  1.00  0.00     0.148 A 
HETATM    3  N2  UNL     1      13.906 -21.291  -9.023  1.00  0.00    -0.339 N 
ATOM      4  H2  UNL     1      13.135 -20.909  -8.475  1.00  0.00     0.167 HD
HETATM    5  C2  UNL     1      14.116 -20.831 -10.271  1.00  0.00     0.183 A 
HETATM    6  N3  UNL     1      15.117 -21.296 -11.038  1.00  0.00    -0.336 N 
ATOM      7  H3  UNL     1      15.260 -20.935 -11.982  1.00  0.00     0.168 HD
HETATM    8  C3  UNL     1      15.919 -22.241 -10.541  1.00  0.00     0.142 A 
HETATM    9  C4  UNL     1      15.716 -22.722  -9.267  1.00  0.00     0.119 A 
HETATM   10  N4  UNL     1      16.655 -23.640  -9.048  1.00  0.00    -0.346 N 
ATOM     11  H4  UNL     1      16.770 -24.180  -8.190  1.00  0.00     0.167 HD
HETATM   12  C5  UNL     1      17.420 -23.738 -10.137  1.00  0.00     0.188 A 
HETATM   13  N5  UNL     1      16.964 -22.866 -11.073  1.00  0.00    -0.297 N 
ENDROOT
BRANCH  13  14
HETATM   14  C6  UNL     1      17.571 -22.722 -12.367  1.00  0.00     0.262 C 
HETATM   15  O1  UNL     1      18.766 -21.989 -12.176  1.00  0.00    -0.353 OA
HETATM   16  C7  UNL     1      19.060 -21.675 -13.524  1.00  0.00     0.180 C 
HETATM   17  C8  UNL     1      20.253 -20.769 -13.576  1.00  0.00     0.216 C 
HETATM   18  C9  UNL     1      17.775 -20.964 -13.906  1.00  0.00     0.198 C 
HETATM   19  O2  UNL     1      20.424 -20.142 -14.774  1.00  0.00    -0.287 OA
HETATM   20  P1  UNL     1      19.185 -20.438 -15.830  1.00  0.00     0.408 P 
HETATM   21  O3  UNL     1      19.485 -20.530 -17.458  1.00  0.00    -0.624 OA
HETATM   22  O4  UNL     1      18.807 -18.967 -15.909  1.00  0.00    -0.624 OA
HETATM   23  O5  UNL     1      17.692 -20.857 -15.277  1.00  0.00    -0.279 OA
HETATM   24  C10 UNL     1      16.743 -21.913 -13.331  1.00  0.00     0.199 C 
BRANCH  24  25
HETATM   25  O6  UNL     1      16.211 -22.688 -14.353  1.00  0.00    -0.388 OA
ATOM     26  H6  UNL     1      16.595 -22.485 -15.199  1.00  0.00     0.210 HD
ENDBRANCH  24  25
ENDBRANCH  13  14
TORSDOF 2
ENDMDL
