MODEL 1
REMARK VINA RESULT: -8.758836294      0.000      0.000
REMARK  2 active torsions:
REMARK  status: ('A' for Active; 'I' for Inactive)
REMARK    1  A    between atoms: N5_13  and  C6_14 
REMARK    2  A    between atoms: C10_24  and  O6_25 
ROOT
HETATM    1  N1  UNL     1      18.137 -23.997  -9.853  1.00  0.00    -0.080 NA
HETATM    2  C1  UNL     1      18.722 -23.189 -10.865  1.00  0.00     0.148 A 
HETATM    3  N2  UNL     1      20.040 -22.982 -10.986  1.00  0.00    -0.339 N 
ATOM      4  H2  UNL     1      20.676 -23.423 -10.322  1.00  0.00     0.167 HD
HETATM    5  C2  UNL     1      20.547 -22.205 -11.963  1.00  0.00     0.183 A 
HETATM    6  N3  UNL     1      19.757 -21.598 -12.866  1.00  0.00    -0.336 N 
ATOM      7  H3  UNL     1      20.160 -21.013 -13.599  1.00  0.00     0.168 HD
HETATM    8  C3  UNL     1      18.436 -21.775 -12.784  1.00  0.00     0.142 A 
HETATM    9  C4  UNL     1      17.904 -22.566 -11.791  1.00  0.00     0.119 A 
HETATM   10  N4  UNL     1      16.583 -22.558 -11.958  1.00  0.00    -0.346 N 
ATOM     11  H4  UNL     1      15.907 -23.053 -11.376  1.00  0.00     0.167 HD
HETATM   12  C5  UNL     1      16.290 -21.794 -13.013  1.00  0.00     0.188 A 
HETATM   13  N5  UNL     1      17.445 -21.303 -13.532  1.00  0.00    -0.297 N 
ENDROOT
BRANCH  13  14
HETATM   14  C6  UNL     1      17.479 -20.440 -14.681  1.00  0.00     0.262 C 
HETATM   15  O1  UNL     1      18.024 -21.199 -15.743  1.00  0.00    -0.353 OA
HETATM   16  C7  UNL     1      18.274 -20.155 -16.665  1.00  0.00     0.180 C 
HETATM   17  C8  UNL     1      18.987 -20.708 -17.862  1.00  0.00     0.216 C 
HETATM   18  C9  UNL     1      19.168 -19.272 -15.815  1.00  0.00     0.198 C 
HETATM   19  O2  UNL     1      19.565 -19.760 -18.652  1.00  0.00    -0.287 OA
HETATM   20  P1  UNL     1      19.449 -18.239 -18.011  1.00  0.00     0.408 P 
HETATM   21  O3  UNL     1      19.293 -16.926 -19.010  1.00  0.00    -0.624 OA
HETATM   22  O4  UNL     1      20.960 -18.085 -17.923  1.00  0.00    -0.624 OA
HETATM   23  O5  UNL     1      19.270 -18.024 -16.389  1.00  0.00    -0.279 OA
HETATM   24  C10 UNL     1      18.393 -19.255 -14.512  1.00  0.00     0.199 C 
BRANCH  24  25
HETATM   25  O6  UNL     1      17.697 -18.058 -14.408  1.00  0.00    -0.388 OA
ATOM     26  H6  UNL     1      17.844 -17.624 -13.575  1.00  0.00     0.210 HD
ENDBRANCH  24  25
ENDBRANCH  13  14
TORSDOF 2
ENDMDL
