MODEL 5
REMARK VINA RESULT: -6.782064001      1.243      1.536
REMARK  2 active torsions:
REMARK  status: ('A' for Active; 'I' for Inactive)
REMARK    1  A    between atoms: N5_13  and  C6_14 
REMARK    2  A    between atoms: C10_24  and  O6_25 
ROOT
HETATM    1  N1  UNL     1      17.845 -23.593  -8.861  1.00  0.00    -0.080 NA
HETATM    2  C1  UNL     1      18.539 -23.172 -10.028  1.00  0.00     0.148 A 
HETATM    3  N2  UNL     1      19.874 -23.098 -10.117  1.00  0.00    -0.339 N 
ATOM      4  H2  UNL     1      20.441 -23.357  -9.309  1.00  0.00     0.167 HD
HETATM    5  C2  UNL     1      20.486 -22.692 -11.246  1.00  0.00     0.183 A 
HETATM    6  N3  UNL     1      19.790 -22.340 -12.340  1.00  0.00    -0.336 N 
ATOM      7  H3  UNL     1      20.271 -22.035 -13.187  1.00  0.00     0.168 HD
HETATM    8  C3  UNL     1      18.456 -22.397 -12.299  1.00  0.00     0.142 A 
HETATM    9  C4  UNL     1      17.817 -22.810 -11.151  1.00  0.00     0.119 A 
HETATM   10  N4  UNL     1      16.510 -22.767 -11.402  1.00  0.00    -0.346 N 
ATOM     11  H4  UNL     1      15.770 -23.015 -10.744  1.00  0.00     0.167 HD
HETATM   12  C5  UNL     1      16.328 -22.344 -12.655  1.00  0.00     0.188 A 
HETATM   13  N5  UNL     1      17.542 -22.112 -13.219  1.00  0.00    -0.297 N 
ENDROOT
BRANCH  13  14
HETATM   14  C6  UNL     1      17.698 -21.645 -14.569  1.00  0.00     0.262 C 
HETATM   15  O1  UNL     1      19.047 -21.244 -14.707  1.00  0.00    -0.353 OA
HETATM   16  C7  UNL     1      18.954 -20.546 -15.934  1.00  0.00     0.180 C 
HETATM   17  C8  UNL     1      20.273 -19.902 -16.242  1.00  0.00     0.216 C 
HETATM   18  C9  UNL     1      17.886 -19.532 -15.570  1.00  0.00     0.198 C 
HETATM   19  O2  UNL     1      20.212 -18.945 -17.211  1.00  0.00    -0.287 OA
HETATM   20  P1  UNL     1      18.664 -18.639 -17.707  1.00  0.00     0.408 P 
HETATM   21  O3  UNL     1      18.364 -18.222 -19.283  1.00  0.00    -0.624 OA
HETATM   22  O4  UNL     1      18.732 -17.187 -17.259  1.00  0.00    -0.624 OA
HETATM   23  O5  UNL     1      17.387 -18.951 -16.716  1.00  0.00    -0.279 OA
HETATM   24  C10 UNL     1      16.874 -20.423 -14.879  1.00  0.00     0.199 C 
BRANCH  24  25
HETATM   25  O6  UNL     1      15.829 -20.695 -15.752  1.00  0.00    -0.388 OA
ATOM     26  H6  UNL     1      15.457 -21.559 -15.615  1.00  0.00     0.210 HD
ENDBRANCH  24  25
ENDBRANCH  13  14
TORSDOF 2
ENDMDL
