MODEL 3
REMARK VINA RESULT: -7.079009028      1.198      1.463
REMARK  2 active torsions:
REMARK  status: ('A' for Active; 'I' for Inactive)
REMARK    1  A    between atoms: N5_13  and  C6_14 
REMARK    2  A    between atoms: C10_24  and  O6_25 
ROOT
HETATM    1  N1  UNL     1      17.406 -24.348  -9.725  1.00  0.00    -0.080 NA
HETATM    2  C1  UNL     1      18.261 -23.543 -10.526  1.00  0.00     0.148 A 
HETATM    3  N2  UNL     1      19.595 -23.521 -10.405  1.00  0.00    -0.339 N 
ATOM      4  H2  UNL     1      20.040 -24.111  -9.702  1.00  0.00     0.167 HD
HETATM    5  C2  UNL     1      20.363 -22.739 -11.187  1.00  0.00     0.183 A 
HETATM    6  N3  UNL     1      19.831 -21.941 -12.130  1.00  0.00    -0.336 N 
ATOM      7  H3  UNL     1      20.429 -21.356 -12.714  1.00  0.00     0.168 HD
HETATM    8  C3  UNL     1      18.505 -21.930 -12.287  1.00  0.00     0.142 A 
HETATM    9  C4  UNL     1      17.708 -22.724 -11.493  1.00  0.00     0.119 A 
HETATM   10  N4  UNL     1      16.450 -22.507 -11.872  1.00  0.00    -0.346 N 
ATOM     11  H4  UNL     1      15.623 -22.950 -11.471  1.00  0.00     0.167 HD
HETATM   12  C5  UNL     1      16.450 -21.613 -12.864  1.00  0.00     0.188 A 
HETATM   13  N5  UNL     1      17.732 -21.250 -13.126  1.00  0.00    -0.297 N 
ENDROOT
BRANCH  13  14
HETATM   14  C6  UNL     1      18.080 -20.297 -14.144  1.00  0.00     0.262 C 
HETATM   15  O1  UNL     1      17.060 -20.358 -15.122  1.00  0.00    -0.353 OA
HETATM   16  C7  UNL     1      17.691 -19.628 -16.157  1.00  0.00     0.180 C 
HETATM   17  C8  UNL     1      16.830 -19.658 -17.384  1.00  0.00     0.216 C 
HETATM   18  C9  UNL     1      18.955 -20.453 -16.315  1.00  0.00     0.198 C 
HETATM   19  O2  UNL     1      17.475 -19.281 -18.524  1.00  0.00    -0.287 OA
HETATM   20  P1  UNL     1      19.090 -19.015 -18.285  1.00  0.00     0.408 P 
HETATM   21  O3  UNL     1      19.878 -17.846 -19.159  1.00  0.00    -0.624 OA
HETATM   22  O4  UNL     1      19.487 -20.113 -19.259  1.00  0.00    -0.624 OA
HETATM   23  O5  UNL     1      19.886 -19.742 -17.042  1.00  0.00    -0.279 OA
HETATM   24  C10 UNL     1      19.359 -20.633 -14.866  1.00  0.00     0.199 C 
BRANCH  24  25
HETATM   25  O6  UNL     1      20.387 -19.750 -14.562  1.00  0.00    -0.388 OA
ATOM     26  H6  UNL     1      21.228 -20.045 -14.892  1.00  0.00     0.210 HD
ENDBRANCH  24  25
ENDBRANCH  13  14
TORSDOF 2
ENDMDL
