MODEL 8
REMARK VINA RESULT: -6.151692590      5.952      8.415
REMARK  2 active torsions:
REMARK  status: ('A' for Active; 'I' for Inactive)
REMARK    1  A    between atoms: N5_13  and  C6_14 
REMARK    2  A    between atoms: C10_24  and  O6_25 
ROOT
HETATM    1  N1  UNL     1      20.747 -21.858 -13.999  1.00  0.00    -0.080 NA
HETATM    2  C1  UNL     1      19.369 -21.847 -13.650  1.00  0.00     0.148 A 
HETATM    3  N2  UNL     1      18.400 -21.382 -14.450  1.00  0.00    -0.339 N 
ATOM      4  H2  UNL     1      18.649 -21.010 -15.367  1.00  0.00     0.167 HD
HETATM    5  C2  UNL     1      17.107 -21.391 -14.074  1.00  0.00     0.183 A 
HETATM    6  N3  UNL     1      16.722 -21.868 -12.878  1.00  0.00    -0.336 N 
ATOM      7  H3  UNL     1      15.737 -21.868 -12.610  1.00  0.00     0.168 HD
HETATM    8  C3  UNL     1      17.653 -22.343 -12.046  1.00  0.00     0.142 A 
HETATM    9  C4  UNL     1      18.979 -22.338 -12.418  1.00  0.00     0.119 A 
HETATM   10  N4  UNL     1      19.665 -22.863 -11.404  1.00  0.00    -0.346 N 
ATOM     11  H4  UNL     1      20.676 -22.996 -11.375  1.00  0.00     0.167 HD
HETATM   12  C5  UNL     1      18.809 -23.187 -10.431  1.00  0.00     0.188 A 
HETATM   13  N5  UNL     1      17.552 -22.863 -10.829  1.00  0.00    -0.297 N 
ENDROOT
BRANCH  13  14
HETATM   14  C6  UNL     1      16.393 -23.085 -10.007  1.00  0.00     0.262 C 
HETATM   15  O1  UNL     1      15.667 -21.871  -9.994  1.00  0.00    -0.353 OA
HETATM   16  C7  UNL     1      14.773 -22.151  -8.933  1.00  0.00     0.180 C 
HETATM   17  C8  UNL     1      13.955 -20.930  -8.637  1.00  0.00     0.216 C 
HETATM   18  C9  UNL     1      15.771 -22.460  -7.834  1.00  0.00     0.198 C 
HETATM   19  O2  UNL     1      13.306 -20.973  -7.439  1.00  0.00    -0.287 OA
HETATM   20  P1  UNL     1      13.698 -22.312  -6.550  1.00  0.00     0.408 P 
HETATM   21  O3  UNL     1      12.566 -23.017  -5.565  1.00  0.00    -0.624 OA
HETATM   22  O4  UNL     1      14.271 -21.477  -5.415  1.00  0.00    -0.624 OA
HETATM   23  O5  UNL     1      15.131 -23.087  -6.787  1.00  0.00    -0.279 OA
HETATM   24  C10 UNL     1      16.727 -23.379  -8.568  1.00  0.00     0.199 C 
BRANCH  24  25
HETATM   25  O6  UNL     1      16.459 -24.695  -8.219  1.00  0.00    -0.388 OA
ATOM     26  H6  UNL     1      16.244 -24.790  -7.298  1.00  0.00     0.210 HD
ENDBRANCH  24  25
ENDBRANCH  13  14
TORSDOF 2
ENDMDL
