MODEL 2
REMARK VINA RESULT: -7.690489399      0.786      1.157
REMARK  3 active torsions:
REMARK  status: ('A' for Active; 'I' for Inactive)
REMARK    1  A    between atoms: C1_2  and  C2_4 
REMARK       I    between atoms: C2_4  and  N1_6 
REMARK    2  A    between atoms: N1_6  and  C3_8 
REMARK    3  A    between atoms: C6_12  and  C7_13 
ROOT
HETATM    1  C3  UNL     1      35.876 -32.504 -14.682  1.00  0.00     0.095 A 
HETATM    2  S1  UNL     1      35.417 -34.163 -15.017  1.00  0.00    -0.070 SA
HETATM    3  C4  UNL     1      34.305 -33.902 -16.262  1.00  0.00     0.029 A 
HETATM    4  C5  UNL     1      34.308 -32.548 -16.403  1.00  0.00    -0.018 A 
HETATM    5  C6  UNL     1      35.131 -31.829 -15.584  1.00  0.00     0.082 A 
HETATM    6  C8  UNL     1      33.334 -32.072 -17.468  1.00  0.00     0.060 C 
HETATM    7  C9  UNL     1      32.094 -32.928 -17.444  1.00  0.00     0.123 C 
HETATM    8  N2  UNL     1      32.322 -34.307 -17.640  1.00  0.00    -0.397 N 
ATOM      9  H2  UNL     1      31.670 -34.883 -18.171  1.00  0.00     0.158 HD
HETATM   10  C10 UNL     1      33.488 -34.853 -17.074  1.00  0.00     0.102 C 
ENDROOT
BRANCH   1  11
HETATM   11  N1  UNL     1      36.843 -32.181 -13.691  1.00  0.00    -0.311 N 
HETATM   12  C2  UNL     1      37.977 -32.920 -13.358  1.00  0.00     0.323 C 
HETATM   13  O3  UNL     1      38.329 -33.963 -13.933  1.00  0.00    -0.260 OA
ATOM     14  H1  UNL     1      36.691 -31.318 -13.169  1.00  0.00     0.170 HD
BRANCH  12  15
HETATM   15  C1  UNL     1      38.828 -32.427 -12.237  1.00  0.00     0.270 C 
HETATM   16  O1  UNL     1      40.001 -32.857 -12.083  1.00  0.00    -0.640 OA
HETATM   17  O2  UNL     1      38.323 -31.500 -11.371  1.00  0.00    -0.640 OA
ENDBRANCH  12  15
ENDBRANCH   1  11
BRANCH   5  18
HETATM   18  C7  UNL     1      35.416 -30.386 -15.889  1.00  0.00     0.212 C 
HETATM   19  O4  UNL     1      35.489 -29.555 -14.952  1.00  0.00    -0.644 OA
HETATM   20  O5  UNL     1      35.593 -29.885 -17.150  1.00  0.00    -0.644 OA
ENDBRANCH   5  18
TORSDOF 3
ENDMDL
