MODEL 9
REMARK VINA RESULT: -5.006107860      4.056      7.217
REMARK  3 active torsions:
REMARK  status: ('A' for Active; 'I' for Inactive)
REMARK    1  A    between atoms: C1_2  and  C2_4 
REMARK       I    between atoms: C2_4  and  N1_6 
REMARK    2  A    between atoms: N1_6  and  C3_8 
REMARK    3  A    between atoms: C6_12  and  C7_13 
ROOT
HETATM    1  C3  UNL     1      32.623 -33.003 -17.242  1.00  0.00     0.095 A 
HETATM    2  S1  UNL     1      33.666 -31.593 -17.281  1.00  0.00    -0.070 SA
HETATM    3  C4  UNL     1      34.740 -32.001 -16.042  1.00  0.00     0.029 A 
HETATM    4  C5  UNL     1      34.284 -33.214 -15.623  1.00  0.00    -0.018 A 
HETATM    5  C6  UNL     1      33.189 -33.731 -16.255  1.00  0.00     0.082 A 
HETATM    6  C8  UNL     1      35.095 -33.772 -14.465  1.00  0.00     0.060 C 
HETATM    7  C9  UNL     1      35.514 -32.651 -13.549  1.00  0.00     0.123 C 
HETATM    8  N2  UNL     1      36.271 -31.632 -14.168  1.00  0.00    -0.397 N 
ATOM      9  H2  UNL     1      37.034 -31.167 -13.678  1.00  0.00     0.158 HD
HETATM   10  C10 UNL     1      35.927 -31.287 -15.487  1.00  0.00     0.102 C 
ENDROOT
BRANCH   1  11
HETATM   11  N1  UNL     1      31.536 -33.154 -18.144  1.00  0.00    -0.311 N 
HETATM   12  C2  UNL     1      31.601 -33.592 -19.466  1.00  0.00     0.323 C 
HETATM   13  O3  UNL     1      32.642 -33.965 -20.031  1.00  0.00    -0.260 OA
ATOM     14  H1  UNL     1      30.610 -32.917 -17.788  1.00  0.00     0.170 HD
BRANCH  12  15
HETATM   15  C1  UNL     1      30.338 -33.616 -20.258  1.00  0.00     0.270 C 
HETATM   16  O1  UNL     1      29.757 -32.546 -20.576  1.00  0.00    -0.640 OA
HETATM   17  O2  UNL     1      29.810 -34.816 -20.640  1.00  0.00    -0.640 OA
ENDBRANCH  12  15
ENDBRANCH   1  11
BRANCH   5  18
HETATM   18  C7  UNL     1      32.827 -35.177 -16.064  1.00  0.00     0.212 C 
HETATM   19  O4  UNL     1      33.195 -36.027 -16.909  1.00  0.00    -0.644 OA
HETATM   20  O5  UNL     1      32.089 -35.653 -15.015  1.00  0.00    -0.644 OA
ENDBRANCH   5  18
TORSDOF 3
ENDMDL
