MODEL 1
REMARK VINA RESULT: -8.060428131      0.000      0.000
REMARK  3 active torsions:
REMARK  status: ('A' for Active; 'I' for Inactive)
REMARK    1  A    between atoms: C1_2  and  C2_4 
REMARK       I    between atoms: C2_4  and  N1_6 
REMARK    2  A    between atoms: N1_6  and  C3_8 
REMARK    3  A    between atoms: C6_12  and  C7_13 
ROOT
HETATM    1  C3  UNL     1      36.004 -32.684 -15.001  1.00  0.00     0.095 A 
HETATM    2  S1  UNL     1      35.523 -34.316 -15.426  1.00  0.00    -0.070 SA
HETATM    3  C4  UNL     1      34.273 -33.969 -16.509  1.00  0.00     0.029 A 
HETATM    4  C5  UNL     1      34.249 -32.608 -16.529  1.00  0.00    -0.018 A 
HETATM    5  C6  UNL     1      35.155 -31.947 -15.750  1.00  0.00     0.082 A 
HETATM    6  C8  UNL     1      33.155 -32.060 -17.431  1.00  0.00     0.060 C 
HETATM    7  C9  UNL     1      31.933 -32.937 -17.342  1.00  0.00     0.123 C 
HETATM    8  N2  UNL     1      32.149 -34.290 -17.683  1.00  0.00    -0.397 N 
ATOM      9  H2  UNL     1      31.444 -34.829 -18.185  1.00  0.00     0.158 HD
HETATM   10  C10 UNL     1      33.376 -34.861 -17.303  1.00  0.00     0.102 C 
ENDROOT
BRANCH   1  11
HETATM   11  N1  UNL     1      37.075 -32.430 -14.102  1.00  0.00    -0.311 N 
HETATM   12  C2  UNL     1      37.012 -32.418 -12.709  1.00  0.00     0.323 C 
HETATM   13  O3  UNL     1      35.993 -32.681 -12.050  1.00  0.00    -0.260 OA
ATOM     14  H1  UNL     1      37.985 -32.237 -14.519  1.00  0.00     0.170 HD
BRANCH  12  15
HETATM   15  C1  UNL     1      38.249 -32.064 -11.956  1.00  0.00     0.270 C 
HETATM   16  O1  UNL     1      38.303 -31.017 -11.260  1.00  0.00    -0.640 OA
HETATM   17  O2  UNL     1      39.335 -32.890 -12.028  1.00  0.00    -0.640 OA
ENDBRANCH  12  15
ENDBRANCH   1  11
BRANCH   5  18
HETATM   18  C7  UNL     1      35.391 -30.478 -15.957  1.00  0.00     0.212 C 
HETATM   19  O4  UNL     1      35.492 -29.719 -14.964  1.00  0.00    -0.644 OA
HETATM   20  O5  UNL     1      35.493 -29.880 -17.183  1.00  0.00    -0.644 OA
ENDBRANCH   5  18
TORSDOF 3
ENDMDL
