MODEL 3
REMARK VINA RESULT: -6.234328852      1.455      1.760
REMARK  3 active torsions:
REMARK  status: ('A' for Active; 'I' for Inactive)
REMARK    1  A    between atoms: C1_2  and  C2_4 
REMARK       I    between atoms: C2_4  and  N1_6 
REMARK    2  A    between atoms: N1_6  and  C3_8 
REMARK    3  A    between atoms: C6_12  and  C7_13 
ROOT
HETATM    1  C3  UNL     1      34.651 -32.310 -15.497  1.00  0.00     0.095 A 
HETATM    2  S1  UNL     1      34.111 -33.978 -15.560  1.00  0.00    -0.070 SA
HETATM    3  C4  UNL     1      33.562 -34.038 -17.156  1.00  0.00     0.029 A 
HETATM    4  C5  UNL     1      33.806 -32.779 -17.616  1.00  0.00    -0.018 A 
HETATM    5  C6  UNL     1      34.378 -31.890 -16.751  1.00  0.00     0.082 A 
HETATM    6  C8  UNL     1      33.351 -32.587 -19.053  1.00  0.00     0.060 C 
HETATM    7  C9  UNL     1      32.075 -33.353 -19.291  1.00  0.00     0.123 C 
HETATM    8  N2  UNL     1      32.161 -34.740 -19.037  1.00  0.00    -0.397 N 
ATOM      9  H2  UNL     1      31.665 -35.417 -19.615  1.00  0.00     0.158 HD
HETATM   10  C10 UNL     1      32.960 -35.147 -17.954  1.00  0.00     0.102 C 
ENDROOT
BRANCH   1  11
HETATM   11  N1  UNL     1      35.239 -31.758 -14.327  1.00  0.00    -0.311 N 
HETATM   12  C2  UNL     1      36.380 -32.214 -13.669  1.00  0.00     0.323 C 
HETATM   13  O3  UNL     1      37.082 -33.162 -14.058  1.00  0.00    -0.260 OA
ATOM     14  H1  UNL     1      34.777 -30.941 -13.926  1.00  0.00     0.170 HD
BRANCH  12  15
HETATM   15  C1  UNL     1      36.789 -31.520 -12.415  1.00  0.00     0.270 C 
HETATM   16  O1  UNL     1      37.538 -32.089 -11.579  1.00  0.00    -0.640 OA
HETATM   17  O2  UNL     1      36.343 -30.252 -12.176  1.00  0.00    -0.640 OA
ENDBRANCH  12  15
ENDBRANCH   1  11
BRANCH   5  18
HETATM   18  C7  UNL     1      34.954 -30.604 -17.273  1.00  0.00     0.212 C 
HETATM   19  O4  UNL     1      35.568 -29.837 -16.493  1.00  0.00    -0.644 OA
HETATM   20  O5  UNL     1      34.844 -30.180 -18.569  1.00  0.00    -0.644 OA
ENDBRANCH   5  18
TORSDOF 3
ENDMDL
