MODEL 7
REMARK VINA RESULT: -5.221439333      3.367      6.675
REMARK  3 active torsions:
REMARK  status: ('A' for Active; 'I' for Inactive)
REMARK    1  A    between atoms: C1_2  and  C2_4 
REMARK       I    between atoms: C2_4  and  N1_6 
REMARK    2  A    between atoms: N1_6  and  C3_8 
REMARK    3  A    between atoms: C6_12  and  C7_13 
ROOT
HETATM    1  C3  UNL     1      32.691 -32.798 -17.244  1.00  0.00     0.095 A 
HETATM    2  S1  UNL     1      32.550 -33.682 -15.735  1.00  0.00    -0.070 SA
HETATM    3  C4  UNL     1      33.987 -33.200 -14.990  1.00  0.00     0.029 A 
HETATM    4  C5  UNL     1      34.548 -32.366 -15.907  1.00  0.00    -0.018 A 
HETATM    5  C6  UNL     1      33.867 -32.156 -17.072  1.00  0.00     0.082 A 
HETATM    6  C8  UNL     1      35.896 -31.827 -15.456  1.00  0.00     0.060 C 
HETATM    7  C9  UNL     1      36.643 -32.893 -14.697  1.00  0.00     0.123 C 
HETATM    8  N2  UNL     1      35.967 -33.397 -13.564  1.00  0.00    -0.397 N 
ATOM      9  H2  UNL     1      36.471 -33.649 -12.714  1.00  0.00     0.158 HD
HETATM   10  C10 UNL     1      34.571 -33.537 -13.657  1.00  0.00     0.102 C 
ENDROOT
BRANCH   1  11
HETATM   11  N1  UNL     1      31.681 -32.855 -18.242  1.00  0.00    -0.311 N 
HETATM   12  C2  UNL     1      31.620 -33.738 -19.320  1.00  0.00     0.323 C 
HETATM   13  O3  UNL     1      32.439 -34.648 -19.529  1.00  0.00    -0.260 OA
ATOM     14  H1  UNL     1      30.920 -32.181 -18.161  1.00  0.00     0.170 HD
BRANCH  12  15
HETATM   15  C1  UNL     1      30.497 -33.581 -20.288  1.00  0.00     0.270 C 
HETATM   16  O1  UNL     1      30.234 -32.459 -20.793  1.00  0.00    -0.640 OA
HETATM   17  O2  UNL     1      29.749 -34.672 -20.627  1.00  0.00    -0.640 OA
ENDBRANCH  12  15
ENDBRANCH   1  11
BRANCH   5  18
HETATM   18  C7  UNL     1      34.264 -31.026 -17.979  1.00  0.00     0.212 C 
HETATM   19  O4  UNL     1      33.875 -31.021 -19.172  1.00  0.00    -0.644 OA
HETATM   20  O5  UNL     1      35.055 -29.976 -17.601  1.00  0.00    -0.644 OA
ENDBRANCH   5  18
TORSDOF 3
ENDMDL
