MODEL 8
REMARK VINA RESULT: -5.017446146      3.426      6.779
REMARK  3 active torsions:
REMARK  status: ('A' for Active; 'I' for Inactive)
REMARK    1  A    between atoms: C1_2  and  C2_4 
REMARK       I    between atoms: C2_4  and  N1_6 
REMARK    2  A    between atoms: N1_6  and  C3_8 
REMARK    3  A    between atoms: C6_12  and  C7_13 
ROOT
HETATM    1  C3  UNL     1      32.909 -32.110 -18.236  1.00  0.00     0.095 A 
HETATM    2  S1  UNL     1      32.163 -33.190 -17.072  1.00  0.00    -0.070 SA
HETATM    3  C4  UNL     1      33.318 -33.122 -15.842  1.00  0.00     0.029 A 
HETATM    4  C5  UNL     1      34.254 -32.268 -16.342  1.00  0.00    -0.018 A 
HETATM    5  C6  UNL     1      34.031 -31.741 -17.582  1.00  0.00     0.082 A 
HETATM    6  C8  UNL     1      35.431 -32.078 -15.399  1.00  0.00     0.060 C 
HETATM    7  C9  UNL     1      35.742 -33.378 -14.703  1.00  0.00     0.123 C 
HETATM    8  N2  UNL     1      34.670 -33.927 -13.966  1.00  0.00    -0.397 N 
ATOM      9  H2  UNL     1      34.826 -34.408 -13.081  1.00  0.00     0.158 HD
HETATM   10  C10 UNL     1      33.379 -33.781 -14.504  1.00  0.00     0.102 C 
ENDROOT
BRANCH   1  11
HETATM   11  N1  UNL     1      32.289 -31.807 -19.479  1.00  0.00    -0.311 N 
HETATM   12  C2  UNL     1      32.545 -32.411 -20.709  1.00  0.00     0.323 C 
HETATM   13  O3  UNL     1      33.336 -33.354 -20.877  1.00  0.00    -0.260 OA
ATOM     14  H1  UNL     1      31.584 -31.071 -19.470  1.00  0.00     0.170 HD
BRANCH  12  15
HETATM   15  C1  UNL     1      31.822 -31.893 -21.905  1.00  0.00     0.270 C 
HETATM   16  O1  UNL     1      32.456 -31.446 -22.897  1.00  0.00    -0.640 OA
HETATM   17  O2  UNL     1      30.457 -31.905 -21.920  1.00  0.00    -0.640 OA
ENDBRANCH  12  15
ENDBRANCH   1  11
BRANCH   5  18
HETATM   18  C7  UNL     1      34.847 -30.572 -18.057  1.00  0.00     0.212 C 
HETATM   19  O4  UNL     1      35.423 -29.836 -17.220  1.00  0.00    -0.644 OA
HETATM   20  O5  UNL     1      35.004 -30.225 -19.370  1.00  0.00    -0.644 OA
ENDBRANCH   5  18
TORSDOF 3
ENDMDL
