MODEL 4
REMARK VINA RESULT: -5.543113442      4.284      6.110
REMARK  3 active torsions:
REMARK  status: ('A' for Active; 'I' for Inactive)
REMARK    1  A    between atoms: C1_2  and  C2_4 
REMARK       I    between atoms: C2_4  and  N1_6 
REMARK    2  A    between atoms: N1_6  and  C3_8 
REMARK    3  A    between atoms: C6_12  and  C7_13 
ROOT
HETATM    1  C3  UNL     1       6.403 118.704  -5.479  1.00  0.00     0.095 A 
HETATM    2  S1  UNL     1       5.370 119.227  -4.162  1.00  0.00    -0.070 SA
HETATM    3  C4  UNL     1       3.887 118.637  -4.714  1.00  0.00     0.029 A 
HETATM    4  C5  UNL     1       4.209 118.045  -5.897  1.00  0.00    -0.018 A 
HETATM    5  C6  UNL     1       5.518 118.077  -6.285  1.00  0.00     0.082 A 
HETATM    6  C8  UNL     1       2.997 117.462  -6.605  1.00  0.00     0.060 C 
HETATM    7  C9  UNL     1       1.803 118.356  -6.392  1.00  0.00     0.123 C 
HETATM    8  N2  UNL     1       1.461 118.575  -5.040  1.00  0.00    -0.397 N 
ATOM      9  H2  UNL     1       0.488 118.648  -4.743  1.00  0.00     0.158 HD
HETATM   10  C10 UNL     1       2.518 118.689  -4.120  1.00  0.00     0.102 C 
ENDROOT
BRANCH   1  11
HETATM   11  N1  UNL     1       7.803 118.949  -5.475  1.00  0.00    -0.311 N 
HETATM   12  C2  UNL     1       8.515 119.743  -6.373  1.00  0.00     0.323 C 
HETATM   13  O3  UNL     1       7.999 120.399  -7.293  1.00  0.00    -0.260 OA
ATOM     14  H1  UNL     1       8.343 118.497  -4.737  1.00  0.00     0.170 HD
BRANCH  12  15
HETATM   15  C1  UNL     1       9.996 119.813  -6.221  1.00  0.00     0.270 C 
HETATM   16  O1  UNL     1      10.757 119.378  -7.124  1.00  0.00    -0.640 OA
HETATM   17  O2  UNL     1      10.528 120.356  -5.087  1.00  0.00    -0.640 OA
ENDBRANCH  12  15
ENDBRANCH   1  11
BRANCH   5  18
HETATM   18  C7  UNL     1       5.991 117.190  -7.401  1.00  0.00     0.212 C 
HETATM   19  O4  UNL     1       6.610 117.688  -8.372  1.00  0.00    -0.644 OA
HETATM   20  O5  UNL     1       5.780 115.839  -7.453  1.00  0.00    -0.644 OA
ENDBRANCH   5  18
TORSDOF 3
ENDMDL
