MODEL 2
REMARK VINA RESULT: -5.962777486      8.797     10.008
REMARK  3 active torsions:
REMARK  status: ('A' for Active; 'I' for Inactive)
REMARK    1  A    between atoms: C1_2  and  C2_4 
REMARK       I    between atoms: C2_4  and  N1_6 
REMARK    2  A    between atoms: N1_6  and  C3_8 
REMARK    3  A    between atoms: C6_12  and  C7_13 
ROOT
HETATM    1  C3  UNL     1      11.277 122.284  -5.583  1.00  0.00     0.095 A 
HETATM    2  S1  UNL     1      10.686 120.736  -6.160  1.00  0.00    -0.070 SA
HETATM    3  C4  UNL     1      11.414 119.716  -5.027  1.00  0.00     0.029 A 
HETATM    4  C5  UNL     1      12.093 120.579  -4.223  1.00  0.00    -0.018 A 
HETATM    5  C6  UNL     1      12.012 121.911  -4.513  1.00  0.00     0.082 A 
HETATM    6  C8  UNL     1      12.868 119.865  -3.127  1.00  0.00     0.060 C 
HETATM    7  C9  UNL     1      13.426 118.570  -3.658  1.00  0.00     0.123 C 
HETATM    8  N2  UNL     1      12.461 117.675  -4.170  1.00  0.00    -0.397 N 
ATOM      9  H2  UNL     1      12.552 116.668  -4.045  1.00  0.00     0.158 HD
HETATM   10  C10 UNL     1      11.370 118.233  -4.859  1.00  0.00     0.102 C 
ENDROOT
BRANCH   1  11
HETATM   11  N1  UNL     1      10.913 123.505  -6.211  1.00  0.00    -0.311 N 
HETATM   12  C2  UNL     1      11.252 123.915  -7.500  1.00  0.00     0.323 C 
HETATM   13  O3  UNL     1      11.896 123.227  -8.309  1.00  0.00    -0.260 OA
ATOM     14  H1  UNL     1      10.343 124.149  -5.663  1.00  0.00     0.170 HD
BRANCH  12  15
HETATM   15  C1  UNL     1      10.814 125.271  -7.940  1.00  0.00     0.270 C 
HETATM   16  O1  UNL     1      11.642 126.213  -8.042  1.00  0.00    -0.640 OA
HETATM   17  O2  UNL     1       9.498 125.487  -8.234  1.00  0.00    -0.640 OA
ENDBRANCH  12  15
ENDBRANCH   1  11
BRANCH   5  18
HETATM   18  C7  UNL     1      12.469 122.926  -3.504  1.00  0.00     0.212 C 
HETATM   19  O4  UNL     1      11.646 123.748  -3.033  1.00  0.00    -0.644 OA
HETATM   20  O5  UNL     1      13.756 123.041  -3.055  1.00  0.00    -0.644 OA
ENDBRANCH   5  18
TORSDOF 3
ENDMDL
