MODEL 1
REMARK VINA RESULT: -6.555523854      0.000      0.000
REMARK  3 active torsions:
REMARK  status: ('A' for Active; 'I' for Inactive)
REMARK    1  A    between atoms: C1_2  and  C2_4 
REMARK       I    between atoms: C2_4  and  N1_6 
REMARK    2  A    between atoms: N1_6  and  C3_8 
REMARK    3  A    between atoms: C6_12  and  C7_13 
ROOT
HETATM    1  C3  UNL     1       3.210 119.327  -4.033  1.00  0.00     0.095 A 
HETATM    2  S1  UNL     1       4.951 119.542  -4.015  1.00  0.00    -0.070 SA
HETATM    3  C4  UNL     1       5.363 118.626  -5.372  1.00  0.00     0.029 A 
HETATM    4  C5  UNL     1       4.159 118.174  -5.820  1.00  0.00    -0.018 A 
HETATM    5  C6  UNL     1       3.045 118.548  -5.124  1.00  0.00     0.082 A 
HETATM    6  C8  UNL     1       4.291 117.280  -7.042  1.00  0.00     0.060 C 
HETATM    7  C9  UNL     1       5.533 116.434  -6.923  1.00  0.00     0.123 C 
HETATM    8  N2  UNL     1       6.733 117.163  -6.778  1.00  0.00    -0.397 N 
ATOM      9  H2  UNL     1       7.600 116.849  -7.213  1.00  0.00     0.158 HD
HETATM   10  C10 UNL     1       6.684 118.338  -6.008  1.00  0.00     0.102 C 
ENDROOT
BRANCH   1  11
HETATM   11  N1  UNL     1       2.370 119.945  -3.068  1.00  0.00    -0.311 N 
HETATM   12  C2  UNL     1       2.421 121.272  -2.642  1.00  0.00     0.323 C 
HETATM   13  O3  UNL     1       3.199 122.126  -3.098  1.00  0.00    -0.260 OA
ATOM     14  H1  UNL     1       1.654 119.357  -2.642  1.00  0.00     0.170 HD
BRANCH  12  15
HETATM   15  C1  UNL     1       1.480 121.698  -1.567  1.00  0.00     0.270 C 
HETATM   16  O1  UNL     1       1.579 122.836  -1.039  1.00  0.00    -0.640 OA
HETATM   17  O2  UNL     1       0.502 120.839  -1.154  1.00  0.00    -0.640 OA
ENDBRANCH  12  15
ENDBRANCH   1  11
BRANCH   5  18
HETATM   18  C7  UNL     1       1.684 118.352  -5.729  1.00  0.00     0.212 C 
HETATM   19  O4  UNL     1       0.687 118.204  -4.981  1.00  0.00    -0.644 OA
HETATM   20  O5  UNL     1       1.438 118.305  -7.074  1.00  0.00    -0.644 OA
ENDBRANCH   5  18
TORSDOF 3
ENDMDL
