MODEL 5
REMARK VINA RESULT: -5.508613493      8.717     10.246
REMARK  3 active torsions:
REMARK  status: ('A' for Active; 'I' for Inactive)
REMARK    1  A    between atoms: C1_2  and  C2_4 
REMARK       I    between atoms: C2_4  and  N1_6 
REMARK    2  A    between atoms: N1_6  and  C3_8 
REMARK    3  A    between atoms: C6_12  and  C7_13 
ROOT
HETATM    1  C3  UNL     1       9.651 123.630  -7.360  1.00  0.00     0.095 A 
HETATM    2  S1  UNL     1       7.947 123.487  -7.753  1.00  0.00    -0.070 SA
HETATM    3  C4  UNL     1       7.737 124.919  -8.624  1.00  0.00     0.029 A 
HETATM    4  C5  UNL     1       8.978 125.480  -8.603  1.00  0.00    -0.018 A 
HETATM    5  C6  UNL     1       9.968 124.802  -7.951  1.00  0.00     0.082 A 
HETATM    6  C8  UNL     1       9.020 126.823  -9.313  1.00  0.00     0.060 C 
HETATM    7  C9  UNL     1       7.737 127.573  -9.064  1.00  0.00     0.123 C 
HETATM    8  N2  UNL     1       6.567 126.896  -9.472  1.00  0.00    -0.397 N 
ATOM      9  H2  UNL     1       5.777 127.397  -9.875  1.00  0.00     0.158 HD
HETATM   10  C10 UNL     1       6.538 125.501  -9.297  1.00  0.00     0.102 C 
ENDROOT
BRANCH   1  11
HETATM   11  N1  UNL     1      10.336 122.623  -6.627  1.00  0.00    -0.311 N 
HETATM   12  C2  UNL     1      11.055 122.793  -5.445  1.00  0.00     0.323 C 
HETATM   13  O3  UNL     1      11.153 123.869  -4.832  1.00  0.00    -0.260 OA
ATOM     14  H1  UNL     1      10.298 121.677  -7.006  1.00  0.00     0.170 HD
BRANCH  12  15
HETATM   15  C1  UNL     1      11.752 121.606  -4.874  1.00  0.00     0.270 C 
HETATM   16  O1  UNL     1      13.010 121.545  -4.857  1.00  0.00    -0.640 OA
HETATM   17  O2  UNL     1      11.014 120.576  -4.365  1.00  0.00    -0.640 OA
ENDBRANCH  12  15
ENDBRANCH   1  11
BRANCH   5  18
HETATM   18  C7  UNL     1      11.403 125.197  -8.152  1.00  0.00     0.212 C 
HETATM   19  O4  UNL     1      12.260 124.317  -8.407  1.00  0.00    -0.644 OA
HETATM   20  O5  UNL     1      11.870 126.480  -8.058  1.00  0.00    -0.644 OA
ENDBRANCH   5  18
TORSDOF 3
ENDMDL
