MODEL 1
REMARK VINA RESULT: -6.723970316      0.000      0.000
REMARK  3 active torsions:
REMARK  status: ('A' for Active; 'I' for Inactive)
REMARK    1  A    between atoms: C1_2  and  C2_4 
REMARK       I    between atoms: C2_4  and  N1_6 
REMARK    2  A    between atoms: N1_6  and  C3_8 
REMARK    3  A    between atoms: C6_12  and  C7_13 
ROOT
HETATM    1  C3  UNL     1     -43.486  14.466   2.632  1.00  0.00     0.095 A 
HETATM    2  S1  UNL     1     -42.474  13.046   2.820  1.00  0.00    -0.070 SA
HETATM    3  C4  UNL     1     -42.773  12.287   1.341  1.00  0.00     0.029 A 
HETATM    4  C5  UNL     1     -43.640  13.138   0.725  1.00  0.00    -0.018 A 
HETATM    5  C6  UNL     1     -44.000  14.271   1.398  1.00  0.00     0.082 A 
HETATM    6  C8  UNL     1     -44.082  12.631  -0.638  1.00  0.00     0.060 C 
HETATM    7  C9  UNL     1     -44.235  11.133  -0.600  1.00  0.00     0.123 C 
HETATM    8  N2  UNL     1     -43.070  10.428  -0.224  1.00  0.00    -0.397 N 
ATOM      9  H2  UNL     1     -42.831   9.533  -0.649  1.00  0.00     0.158 HD
HETATM   10  C10 UNL     1     -42.253  11.014   0.759  1.00  0.00     0.102 C 
ENDROOT
BRANCH   1  11
HETATM   11  N1  UNL     1     -43.564  15.468   3.637  1.00  0.00    -0.311 N 
HETATM   12  C2  UNL     1     -42.513  15.958   4.412  1.00  0.00     0.323 C 
HETATM   13  O3  UNL     1     -41.328  15.608   4.289  1.00  0.00    -0.260 OA
ATOM     14  H1  UNL     1     -44.484  15.871   3.810  1.00  0.00     0.170 HD
BRANCH  12  15
HETATM   15  C1  UNL     1     -42.830  16.970   5.459  1.00  0.00     0.270 C 
HETATM   16  O1  UNL     1     -41.927  17.428   6.206  1.00  0.00    -0.640 OA
HETATM   17  O2  UNL     1     -44.117  17.402   5.605  1.00  0.00    -0.640 OA
ENDBRANCH  12  15
ENDBRANCH   1  11
BRANCH   5  18
HETATM   18  C7  UNL     1     -44.691  15.387   0.669  1.00  0.00     0.212 C 
HETATM   19  O4  UNL     1     -45.353  16.235   1.314  1.00  0.00    -0.644 OA
HETATM   20  O5  UNL     1     -44.669  15.550  -0.689  1.00  0.00    -0.644 OA
ENDBRANCH   5  18
TORSDOF 3
ENDMDL
