MODEL 3
REMARK VINA RESULT: -5.551502071      1.136      1.374
REMARK  3 active torsions:
REMARK  status: ('A' for Active; 'I' for Inactive)
REMARK    1  A    between atoms: C1_2  and  C2_4 
REMARK       I    between atoms: C2_4  and  N1_6 
REMARK    2  A    between atoms: N1_6  and  C3_8 
REMARK    3  A    between atoms: C6_12  and  C7_13 
ROOT
HETATM    1  C3  UNL     1     -43.541  13.615   2.027  1.00  0.00     0.095 A 
HETATM    2  S1  UNL     1     -42.423  12.263   2.000  1.00  0.00    -0.070 SA
HETATM    3  C4  UNL     1     -42.526  11.844   0.367  1.00  0.00     0.029 A 
HETATM    4  C5  UNL     1     -43.412  12.750  -0.131  1.00  0.00    -0.018 A 
HETATM    5  C6  UNL     1     -43.929  13.670   0.735  1.00  0.00     0.082 A 
HETATM    6  C8  UNL     1     -43.691  12.538  -1.610  1.00  0.00     0.060 C 
HETATM    7  C9  UNL     1     -43.709  11.063  -1.920  1.00  0.00     0.123 C 
HETATM    8  N2  UNL     1     -42.520  10.375  -1.592  1.00  0.00    -0.397 N 
ATOM      9  H2  UNL     1     -42.166   9.619  -2.177  1.00  0.00     0.158 HD
HETATM   10  C10 UNL     1     -41.846  10.776  -0.426  1.00  0.00     0.102 C 
ENDROOT
BRANCH   1  11
HETATM   11  N1  UNL     1     -43.793  14.352   3.215  1.00  0.00    -0.311 N 
HETATM   12  C2  UNL     1     -42.889  15.156   3.909  1.00  0.00     0.323 C 
HETATM   13  O3  UNL     1     -41.723  15.377   3.542  1.00  0.00    -0.260 OA
ATOM     14  H1  UNL     1     -44.735  14.288   3.601  1.00  0.00     0.170 HD
BRANCH  12  15
HETATM   15  C1  UNL     1     -43.349  15.793   5.175  1.00  0.00     0.270 C 
HETATM   16  O1  UNL     1     -42.982  15.344   6.292  1.00  0.00    -0.640 OA
HETATM   17  O2  UNL     1     -44.179  16.876   5.117  1.00  0.00    -0.640 OA
ENDBRANCH  12  15
ENDBRANCH   1  11
BRANCH   5  18
HETATM   18  C7  UNL     1     -44.656  14.873   0.203  1.00  0.00     0.212 C 
HETATM   19  O4  UNL     1     -44.976  14.920  -1.009  1.00  0.00    -0.644 OA
HETATM   20  O5  UNL     1     -44.994  15.964   0.956  1.00  0.00    -0.644 OA
ENDBRANCH   5  18
TORSDOF 3
ENDMDL
