MODEL 6
REMARK VINA RESULT: -5.364728826      7.210      9.684
REMARK  3 active torsions:
REMARK  status: ('A' for Active; 'I' for Inactive)
REMARK    1  A    between atoms: C1_2  and  C2_4 
REMARK       I    between atoms: C2_4  and  N1_6 
REMARK    2  A    between atoms: N1_6  and  C3_8 
REMARK    3  A    between atoms: C6_12  and  C7_13 
ROOT
HETATM    1  C3  UNL     1     -38.798   8.198   2.411  1.00  0.00     0.095 A 
HETATM    2  S1  UNL     1     -39.845   7.097   3.289  1.00  0.00    -0.070 SA
HETATM    3  C4  UNL     1     -38.701   6.355   4.286  1.00  0.00     0.029 A 
HETATM    4  C5  UNL     1     -37.537   6.967   3.933  1.00  0.00    -0.018 A 
HETATM    5  C6  UNL     1     -37.596   7.928   2.964  1.00  0.00     0.082 A 
HETATM    6  C8  UNL     1     -36.340   6.423   4.695  1.00  0.00     0.060 C 
HETATM    7  C9  UNL     1     -36.498   4.939   4.901  1.00  0.00     0.123 C 
HETATM    8  N2  UNL     1     -37.669   4.559   5.591  1.00  0.00    -0.397 N 
ATOM      9  H2  UNL     1     -37.668   3.781   6.251  1.00  0.00     0.158 HD
HETATM   10  C10 UNL     1     -38.837   5.297   5.331  1.00  0.00     0.102 C 
ENDROOT
BRANCH   1  11
HETATM   11  N1  UNL     1     -39.308   9.094   1.433  1.00  0.00    -0.311 N 
HETATM   12  C2  UNL     1     -39.111   9.027   0.054  1.00  0.00     0.323 C 
HETATM   13  O3  UNL     1     -38.485   8.122  -0.522  1.00  0.00    -0.260 OA
ATOM     14  H1  UNL     1     -39.879   9.867   1.775  1.00  0.00     0.170 HD
BRANCH  12  15
HETATM   15  C1  UNL     1     -39.688  10.113  -0.788  1.00  0.00     0.270 C 
HETATM   16  O1  UNL     1     -40.527  10.921  -0.310  1.00  0.00    -0.640 OA
HETATM   17  O2  UNL     1     -39.300  10.228  -2.092  1.00  0.00    -0.640 OA
ENDBRANCH  12  15
ENDBRANCH   1  11
BRANCH   5  18
HETATM   18  C7  UNL     1     -36.429   8.849   2.751  1.00  0.00     0.212 C 
HETATM   19  O4  UNL     1     -35.955   8.994   1.599  1.00  0.00    -0.644 OA
HETATM   20  O5  UNL     1     -35.811   9.553   3.747  1.00  0.00    -0.644 OA
ENDBRANCH   5  18
TORSDOF 3
ENDMDL
