MODEL 4
REMARK VINA RESULT: -5.511247115      4.250      6.121
REMARK  3 active torsions:
REMARK  status: ('A' for Active; 'I' for Inactive)
REMARK    1  A    between atoms: C1_2  and  C2_4 
REMARK       I    between atoms: C2_4  and  N1_6 
REMARK    2  A    between atoms: N1_6  and  C3_8 
REMARK    3  A    between atoms: C6_12  and  C7_13 
ROOT
HETATM    1  C3  UNL     1     -42.152  11.453   1.241  1.00  0.00     0.095 A 
HETATM    2  S1  UNL     1     -42.424  12.535   2.595  1.00  0.00    -0.070 SA
HETATM    3  C4  UNL     1     -43.552  13.582   1.898  1.00  0.00     0.029 A 
HETATM    4  C5  UNL     1     -43.704  13.081   0.640  1.00  0.00    -0.018 A 
HETATM    5  C6  UNL     1     -42.980  11.972   0.309  1.00  0.00     0.082 A 
HETATM    6  C8  UNL     1     -44.669  13.903  -0.199  1.00  0.00     0.060 C 
HETATM    7  C9  UNL     1     -44.512  15.365   0.128  1.00  0.00     0.123 C 
HETATM    8  N2  UNL     1     -44.718  15.695   1.485  1.00  0.00    -0.397 N 
ATOM      9  H2  UNL     1     -45.174  16.565   1.757  1.00  0.00     0.158 HD
HETATM   10  C10 UNL     1     -44.267  14.772   2.446  1.00  0.00     0.102 C 
ENDROOT
BRANCH   1  11
HETATM   11  N1  UNL     1     -41.268  10.344   1.335  1.00  0.00    -0.311 N 
HETATM   12  C2  UNL     1     -40.069  10.170   0.644  1.00  0.00     0.323 C 
HETATM   13  O3  UNL     1     -39.579  11.006  -0.132  1.00  0.00    -0.260 OA
ATOM     14  H1  UNL     1     -41.538   9.598   1.976  1.00  0.00     0.170 HD
BRANCH  12  15
HETATM   15  C1  UNL     1     -39.324   8.895   0.848  1.00  0.00     0.270 C 
HETATM   16  O1  UNL     1     -38.936   8.212  -0.136  1.00  0.00    -0.640 OA
HETATM   17  O2  UNL     1     -39.063   8.468   2.118  1.00  0.00    -0.640 OA
ENDBRANCH  12  15
ENDBRANCH   1  11
BRANCH   5  18
HETATM   18  C7  UNL     1     -43.326  11.194  -0.929  1.00  0.00     0.212 C 
HETATM   19  O4  UNL     1     -42.430  10.927  -1.765  1.00  0.00    -0.644 OA
HETATM   20  O5  UNL     1     -44.585  10.755  -1.236  1.00  0.00    -0.644 OA
ENDBRANCH   5  18
TORSDOF 3
ENDMDL
