MODEL 7
REMARK VINA RESULT: -5.091213989      6.806      8.126
REMARK  3 active torsions:
REMARK  status: ('A' for Active; 'I' for Inactive)
REMARK    1  A    between atoms: C1_2  and  C2_4 
REMARK       I    between atoms: C2_4  and  N1_6 
REMARK    2  A    between atoms: N1_6  and  C3_8 
REMARK    3  A    between atoms: C6_12  and  C7_13 
ROOT
HETATM    1  C3  UNL     1     -37.176  12.761   0.101  1.00  0.00     0.095 A 
HETATM    2  S1  UNL     1     -36.328  14.291  -0.035  1.00  0.00    -0.070 SA
HETATM    3  C4  UNL     1     -37.169  14.967  -1.334  1.00  0.00     0.029 A 
HETATM    4  C5  UNL     1     -38.089  14.010  -1.639  1.00  0.00    -0.018 A 
HETATM    5  C6  UNL     1     -38.092  12.871  -0.886  1.00  0.00     0.082 A 
HETATM    6  C8  UNL     1     -38.955  14.395  -2.827  1.00  0.00     0.060 C 
HETATM    7  C9  UNL     1     -38.128  15.142  -3.841  1.00  0.00     0.123 C 
HETATM    8  N2  UNL     1     -37.506  16.312  -3.352  1.00  0.00    -0.397 N 
ATOM      9  H2  UNL     1     -37.410  17.144  -3.932  1.00  0.00     0.158 HD
HETATM   10  C10 UNL     1     -37.024  16.279  -2.031  1.00  0.00     0.102 C 
ENDROOT
BRANCH   1  11
HETATM   11  N1  UNL     1     -36.843  11.808   1.101  1.00  0.00    -0.311 N 
HETATM   12  C2  UNL     1     -36.404  10.501   0.896  1.00  0.00     0.323 C 
HETATM   13  O3  UNL     1     -36.193   9.998  -0.220  1.00  0.00    -0.260 OA
ATOM     14  H1  UNL     1     -36.935  12.112   2.070  1.00  0.00     0.170 HD
BRANCH  12  15
HETATM   15  C1  UNL     1     -36.170   9.646   2.095  1.00  0.00     0.270 C 
HETATM   16  O1  UNL     1     -36.489   8.428   2.090  1.00  0.00    -0.640 OA
HETATM   17  O2  UNL     1     -35.604  10.196   3.209  1.00  0.00    -0.640 OA
ENDBRANCH  12  15
ENDBRANCH   1  11
BRANCH   5  18
HETATM   18  C7  UNL     1     -39.258  11.928  -0.959  1.00  0.00     0.212 C 
HETATM   19  O4  UNL     1     -40.074  11.873  -0.008  1.00  0.00    -0.644 OA
HETATM   20  O5  UNL     1     -39.501  11.083  -2.007  1.00  0.00    -0.644 OA
ENDBRANCH   5  18
TORSDOF 3
ENDMDL
