MODEL 1
REMARK VINA RESULT: -7.076559720      0.000      0.000
REMARK  3 active torsions:
REMARK  status: ('A' for Active; 'I' for Inactive)
REMARK    1  A    between atoms: C1_2  and  C2_4 
REMARK       I    between atoms: C2_4  and  N1_6 
REMARK    2  A    between atoms: N1_6  and  C3_8 
REMARK    3  A    between atoms: C6_12  and  C7_13 
ROOT
HETATM    1  C3  UNL     1      37.359 -25.416  -4.181  1.00  0.00     0.095 A 
HETATM    2  S1  UNL     1      37.787 -26.141  -2.642  1.00  0.00    -0.070 SA
HETATM    3  C4  UNL     1      37.578 -27.771  -3.031  1.00  0.00     0.029 A 
HETATM    4  C5  UNL     1      37.189 -27.733  -4.335  1.00  0.00    -0.018 A 
HETATM    5  C6  UNL     1      37.085 -26.507  -4.928  1.00  0.00     0.082 A 
HETATM    6  C8  UNL     1      36.906 -29.116  -4.898  1.00  0.00     0.060 C 
HETATM    7  C9  UNL     1      36.268 -29.977  -3.839  1.00  0.00     0.123 C 
HETATM    8  N2  UNL     1      37.030 -30.129  -2.661  1.00  0.00    -0.397 N 
ATOM      9  H2  UNL     1      37.047 -31.011  -2.150  1.00  0.00     0.158 HD
HETATM   10  C10 UNL     1      37.764 -29.013  -2.221  1.00  0.00     0.102 C 
ENDROOT
BRANCH   1  11
HETATM   11  N1  UNL     1      37.401 -24.010  -4.383  1.00  0.00    -0.311 N 
HETATM   12  C2  UNL     1      38.377 -23.293  -5.075  1.00  0.00     0.323 C 
HETATM   13  O3  UNL     1      39.340 -23.809  -5.664  1.00  0.00    -0.260 OA
ATOM     14  H1  UNL     1      36.637 -23.467  -3.979  1.00  0.00     0.170 HD
BRANCH  12  15
HETATM   15  C1  UNL     1      38.258 -21.807  -5.111  1.00  0.00     0.270 C 
HETATM   16  O1  UNL     1      37.887 -21.217  -6.159  1.00  0.00    -0.640 OA
HETATM   17  O2  UNL     1      38.558 -21.084  -3.993  1.00  0.00    -0.640 OA
ENDBRANCH  12  15
ENDBRANCH   1  11
BRANCH   5  18
HETATM   18  C7  UNL     1      36.969 -26.405  -6.422  1.00  0.00     0.212 C 
HETATM   19  O4  UNL     1      36.293 -25.479  -6.931  1.00  0.00    -0.644 OA
HETATM   20  O5  UNL     1      37.547 -27.280  -7.301  1.00  0.00    -0.644 OA
ENDBRANCH   5  18
TORSDOF 3
ENDMDL
