MODEL 2
REMARK VINA RESULT: -6.888125360      2.131      2.511
REMARK  3 active torsions:
REMARK  status: ('A' for Active; 'I' for Inactive)
REMARK    1  A    between atoms: C1_2  and  C2_4 
REMARK       I    between atoms: C2_4  and  N1_6 
REMARK    2  A    between atoms: N1_6  and  C3_8 
REMARK    3  A    between atoms: C6_12  and  C7_13 
ROOT
HETATM    1  C3  UNL     1      37.185 -26.066  -4.364  1.00  0.00     0.095 A 
HETATM    2  S1  UNL     1      36.374 -26.092  -2.809  1.00  0.00    -0.070 SA
HETATM    3  C4  UNL     1      35.385 -27.444  -3.030  1.00  0.00     0.029 A 
HETATM    4  C5  UNL     1      35.697 -27.855  -4.290  1.00  0.00    -0.018 A 
HETATM    5  C6  UNL     1      36.638 -27.139  -4.974  1.00  0.00     0.082 A 
HETATM    6  C8  UNL     1      34.885 -29.064  -4.725  1.00  0.00     0.060 C 
HETATM    7  C9  UNL     1      33.484 -28.961  -4.181  1.00  0.00     0.123 C 
HETATM    8  N2  UNL     1      33.401 -28.857  -2.775  1.00  0.00    -0.397 N 
ATOM      9  H2  UNL     1      32.651 -29.307  -2.253  1.00  0.00     0.158 HD
HETATM   10  C10 UNL     1      34.398 -28.106  -2.126  1.00  0.00     0.102 C 
ENDROOT
BRANCH   1  11
HETATM   11  N1  UNL     1      38.171 -25.091  -4.676  1.00  0.00    -0.311 N 
HETATM   12  C2  UNL     1      39.497 -25.075  -4.244  1.00  0.00     0.323 C 
HETATM   13  O3  UNL     1      40.019 -25.961  -3.549  1.00  0.00    -0.260 OA
ATOM     14  H1  UNL     1      37.879 -24.323  -5.280  1.00  0.00     0.170 HD
BRANCH  12  15
HETATM   15  C1  UNL     1      40.348 -23.917  -4.642  1.00  0.00     0.270 C 
HETATM   16  O1  UNL     1      41.595 -24.045  -4.759  1.00  0.00    -0.640 OA
HETATM   17  O2  UNL     1      39.762 -22.707  -4.882  1.00  0.00    -0.640 OA
ENDBRANCH  12  15
ENDBRANCH   1  11
BRANCH   5  18
HETATM   18  C7  UNL     1      37.249 -27.707  -6.223  1.00  0.00     0.212 C 
HETATM   19  O4  UNL     1      37.194 -27.055  -7.294  1.00  0.00    -0.644 OA
HETATM   20  O5  UNL     1      37.867 -28.925  -6.293  1.00  0.00    -0.644 OA
ENDBRANCH   5  18
TORSDOF 3
ENDMDL
