MODEL 17
REMARK VINA RESULT: -6.421012733      3.458      4.738
REMARK  3 active torsions:
REMARK  status: ('A' for Active; 'I' for Inactive)
REMARK    1  A    between atoms: C1_2  and  C2_4 
REMARK       I    between atoms: C2_4  and  N1_6 
REMARK    2  A    between atoms: N1_6  and  C3_8 
REMARK    3  A    between atoms: C6_12  and  C7_13 
ROOT
HETATM    1  C3  UNL     1      35.194 -27.883  -3.330  1.00  0.00     0.095 A 
HETATM    2  S1  UNL     1      33.719 -27.355  -2.541  1.00  0.00    -0.070 SA
HETATM    3  C4  UNL     1      33.259 -28.804  -1.805  1.00  0.00     0.029 A 
HETATM    4  C5  UNL     1      34.246 -29.667  -2.173  1.00  0.00    -0.018 A 
HETATM    5  C6  UNL     1      35.251 -29.180  -2.959  1.00  0.00     0.082 A 
HETATM    6  C8  UNL     1      34.017 -31.072  -1.641  1.00  0.00     0.060 C 
HETATM    7  C9  UNL     1      32.545 -31.394  -1.666  1.00  0.00     0.123 C 
HETATM    8  N2  UNL     1      31.733 -30.506  -0.928  1.00  0.00    -0.397 N 
ATOM      9  H2  UNL     1      30.920 -30.837  -0.409  1.00  0.00     0.158 HD
HETATM   10  C10 UNL     1      32.091 -29.146  -0.939  1.00  0.00     0.102 C 
ENDROOT
BRANCH   1  11
HETATM   11  N1  UNL     1      35.997 -26.989  -4.089  1.00  0.00    -0.311 N 
HETATM   12  C2  UNL     1      36.165 -26.984  -5.473  1.00  0.00     0.323 C 
HETATM   13  O3  UNL     1      35.579 -27.754  -6.253  1.00  0.00    -0.260 OA
ATOM     14  H1  UNL     1      36.505 -26.275  -3.566  1.00  0.00     0.170 HD
BRANCH  12  15
HETATM   15  C1  UNL     1      37.109 -25.992  -6.060  1.00  0.00     0.270 C 
HETATM   16  O1  UNL     1      36.860 -25.442  -7.165  1.00  0.00    -0.640 OA
HETATM   17  O2  UNL     1      38.255 -25.679  -5.388  1.00  0.00    -0.640 OA
ENDBRANCH  12  15
ENDBRANCH   1  11
BRANCH   5  18
HETATM   18  C7  UNL     1      36.512 -29.976  -3.140  1.00  0.00     0.212 C 
HETATM   19  O4  UNL     1      36.862 -30.332  -4.291  1.00  0.00    -0.644 OA
HETATM   20  O5  UNL     1      37.328 -30.370  -2.115  1.00  0.00    -0.644 OA
ENDBRANCH   5  18
TORSDOF 3
ENDMDL
