MODEL 13
REMARK VINA RESULT: -6.599194344      3.637      5.322
REMARK  3 active torsions:
REMARK  status: ('A' for Active; 'I' for Inactive)
REMARK    1  A    between atoms: C1_2  and  C2_4 
REMARK       I    between atoms: C2_4  and  N1_6 
REMARK    2  A    between atoms: N1_6  and  C3_8 
REMARK    3  A    between atoms: C6_12  and  C7_13 
ROOT
HETATM    1  C3  UNL     1      35.195 -29.073  -3.886  1.00  0.00     0.095 A 
HETATM    2  S1  UNL     1      33.446 -28.940  -3.854  1.00  0.00    -0.070 SA
HETATM    3  C4  UNL     1      33.133 -29.689  -2.373  1.00  0.00     0.029 A 
HETATM    4  C5  UNL     1      34.375 -30.025  -1.925  1.00  0.00    -0.018 A 
HETATM    5  C6  UNL     1      35.441 -29.695  -2.713  1.00  0.00     0.082 A 
HETATM    6  C8  UNL     1      34.335 -30.757  -0.594  1.00  0.00     0.060 C 
HETATM    7  C9  UNL     1      33.133 -31.665  -0.548  1.00  0.00     0.123 C 
HETATM    8  N2  UNL     1      31.893 -31.016  -0.731  1.00  0.00    -0.397 N 
ATOM      9  H2  UNL     1      31.060 -31.308  -0.220  1.00  0.00     0.158 HD
HETATM   10  C10 UNL     1      31.854 -29.950  -1.647  1.00  0.00     0.102 C 
ENDROOT
BRANCH   1  11
HETATM   11  N1  UNL     1      35.965 -28.550  -4.959  1.00  0.00    -0.311 N 
HETATM   12  C2  UNL     1      36.197 -27.204  -5.244  1.00  0.00     0.323 C 
HETATM   13  O3  UNL     1      35.787 -26.260  -4.549  1.00  0.00    -0.260 OA
ATOM     14  H1  UNL     1      36.395 -29.229  -5.587  1.00  0.00     0.170 HD
BRANCH  12  15
HETATM   15  C1  UNL     1      36.987 -26.874  -6.464  1.00  0.00     0.270 C 
HETATM   16  O1  UNL     1      37.749 -27.728  -6.988  1.00  0.00    -0.640 OA
HETATM   17  O2  UNL     1      36.881 -25.629  -7.014  1.00  0.00    -0.640 OA
ENDBRANCH  12  15
ENDBRANCH   1  11
BRANCH   5  18
HETATM   18  C7  UNL     1      36.833 -29.751  -2.150  1.00  0.00     0.212 C 
HETATM   19  O4  UNL     1      37.710 -30.434  -2.729  1.00  0.00    -0.644 OA
HETATM   20  O5  UNL     1      37.229 -29.107  -1.009  1.00  0.00    -0.644 OA
ENDBRANCH   5  18
TORSDOF 3
ENDMDL
