MODEL 3
REMARK VINA RESULT: -6.849552093      1.738      2.219
REMARK  3 active torsions:
REMARK  status: ('A' for Active; 'I' for Inactive)
REMARK    1  A    between atoms: C1_2  and  C2_4 
REMARK       I    between atoms: C2_4  and  N1_6 
REMARK    2  A    between atoms: N1_6  and  C3_8 
REMARK    3  A    between atoms: C6_12  and  C7_13 
ROOT
HETATM    1  C3  UNL     1      37.868 -26.642  -4.187  1.00  0.00     0.095 A 
HETATM    2  S1  UNL     1      37.641 -27.704  -2.810  1.00  0.00    -0.070 SA
HETATM    3  C4  UNL     1      36.280 -28.558  -3.332  1.00  0.00     0.029 A 
HETATM    4  C5  UNL     1      36.025 -28.018  -4.555  1.00  0.00    -0.018 A 
HETATM    5  C6  UNL     1      36.858 -27.029  -4.996  1.00  0.00     0.082 A 
HETATM    6  C8  UNL     1      34.796 -28.622  -5.213  1.00  0.00     0.060 C 
HETATM    7  C9  UNL     1      33.748 -28.910  -4.169  1.00  0.00     0.123 C 
HETATM    8  N2  UNL     1      34.166 -29.776  -3.134  1.00  0.00    -0.397 N 
ATOM      9  H2  UNL     1      33.530 -30.460  -2.725  1.00  0.00     0.158 HD
HETATM   10  C10 UNL     1      35.495 -29.654  -2.691  1.00  0.00     0.102 C 
ENDROOT
BRANCH   1  11
HETATM   11  N1  UNL     1      38.939 -25.710  -4.245  1.00  0.00    -0.311 N 
HETATM   12  C2  UNL     1      38.842 -24.336  -4.459  1.00  0.00     0.323 C 
HETATM   13  O3  UNL     1      37.771 -23.720  -4.583  1.00  0.00    -0.260 OA
ATOM     14  H1  UNL     1      39.879 -26.086  -4.117  1.00  0.00     0.170 HD
BRANCH  12  15
HETATM   15  C1  UNL     1      40.106 -23.551  -4.545  1.00  0.00     0.270 C 
HETATM   16  O1  UNL     1      40.080 -22.293  -4.592  1.00  0.00    -0.640 OA
HETATM   17  O2  UNL     1      41.302 -24.208  -4.573  1.00  0.00    -0.640 OA
ENDBRANCH  12  15
ENDBRANCH   1  11
BRANCH   5  18
HETATM   18  C7  UNL     1      36.828 -26.613  -6.440  1.00  0.00     0.212 C 
HETATM   19  O4  UNL     1      37.394 -27.326  -7.303  1.00  0.00    -0.644 OA
HETATM   20  O5  UNL     1      36.228 -25.474  -6.901  1.00  0.00    -0.644 OA
ENDBRANCH   5  18
TORSDOF 3
ENDMDL
