MODEL 1
REMARK VINA RESULT: -7.147188970      0.000      0.000
REMARK  3 active torsions:
REMARK  status: ('A' for Active; 'I' for Inactive)
REMARK    1  A    between atoms: C1_2  and  C2_4 
REMARK       I    between atoms: C2_4  and  N1_6 
REMARK    2  A    between atoms: N1_6  and  C3_8 
REMARK    3  A    between atoms: C9_17  and  C10_18 
ROOT
HETATM    1  C3  UNL     1      26.815 -13.268 -16.695  1.00  0.00     0.095 A 
HETATM    2  S1  UNL     1      27.650 -12.561 -18.034  1.00  0.00    -0.069 SA
HETATM    3  C4  UNL     1      29.038 -12.026 -17.235  1.00  0.00     0.033 A 
HETATM    4  C5  UNL     1      30.161 -11.358 -17.702  1.00  0.00     0.107 A 
HETATM    5  N2  UNL     1      31.164 -11.032 -16.842  1.00  0.00    -0.374 N 
ATOM      6  H2  UNL     1      32.003 -10.541 -17.152  1.00  0.00     0.164 HD
HETATM    7  C6  UNL     1      30.985 -11.395 -15.560  1.00  0.00     0.088 A 
HETATM    8  C7  UNL     1      29.891 -12.053 -15.075  1.00  0.00     0.031 A 
HETATM    9  C8  UNL     1      28.836 -12.404 -15.941  1.00  0.00     0.004 A 
HETATM   10  C9  UNL     1      27.683 -13.049 -15.657  1.00  0.00     0.086 A 
ENDROOT
BRANCH   1  11
HETATM   11  N1  UNL     1      25.533 -13.907 -16.748  1.00  0.00    -0.311 N 
HETATM   12  C2  UNL     1      24.352 -13.110 -16.546  1.00  0.00     0.323 C 
HETATM   13  O3  UNL     1      24.527 -11.887 -16.333  1.00  0.00    -0.260 OA
ATOM     14  H1  UNL     1      25.459 -14.909 -16.927  1.00  0.00     0.170 HD
BRANCH  12  15
HETATM   15  C1  UNL     1      23.022 -13.704 -16.589  1.00  0.00     0.270 C 
HETATM   16  O1  UNL     1      22.789 -14.893 -16.313  1.00  0.00    -0.640 OA
HETATM   17  O2  UNL     1      21.966 -12.898 -16.955  1.00  0.00    -0.640 OA
ENDBRANCH  12  15
ENDBRANCH   1  11
BRANCH  10  18
HETATM   18  C10 UNL     1      27.288 -13.536 -14.308  1.00  0.00     0.213 C 
HETATM   19  O4  UNL     1      26.701 -12.849 -13.473  1.00  0.00    -0.644 OA
HETATM   20  O5  UNL     1      27.590 -14.833 -13.952  1.00  0.00    -0.644 OA
ENDBRANCH  10  18
TORSDOF 3
ENDMDL
