MODEL 8
REMARK VINA RESULT: -6.467626746      2.723      4.026
REMARK  3 active torsions:
REMARK  status: ('A' for Active; 'I' for Inactive)
REMARK    1  A    between atoms: C1_2  and  C2_4 
REMARK       I    between atoms: C2_4  and  N1_6 
REMARK    2  A    between atoms: N1_6  and  C3_8 
REMARK    3  A    between atoms: C9_17  and  C10_18 
ROOT
HETATM    1  C3  UNL     1      29.570 -12.240 -17.209  1.00  0.00     0.095 A 
HETATM    2  S1  UNL     1      30.127 -10.785 -17.957  1.00  0.00    -0.069 SA
HETATM    3  C4  UNL     1      31.711 -11.250 -18.308  1.00  0.00     0.033 A 
HETATM    4  C5  UNL     1      32.750 -10.564 -18.920  1.00  0.00     0.107 A 
HETATM    5  N2  UNL     1      33.958 -11.170 -19.090  1.00  0.00    -0.374 N 
ATOM      6  H2  UNL     1      34.742 -10.695 -19.536  1.00  0.00     0.164 HD
HETATM    7  C6  UNL     1      34.055 -12.431 -18.635  1.00  0.00     0.088 A 
HETATM    8  C7  UNL     1      33.048 -13.128 -18.030  1.00  0.00     0.031 A 
HETATM    9  C8  UNL     1      31.787 -12.528 -17.840  1.00  0.00     0.004 A 
HETATM   10  C9  UNL     1      30.677 -13.045 -17.269  1.00  0.00     0.086 A 
ENDROOT
BRANCH   1  11
HETATM   11  N1  UNL     1      28.255 -12.464 -16.682  1.00  0.00    -0.311 N 
HETATM   12  C2  UNL     1      28.003 -12.166 -15.297  1.00  0.00     0.323 C 
HETATM   13  O3  UNL     1      28.968 -11.722 -14.631  1.00  0.00    -0.260 OA
ATOM     14  H1  UNL     1      27.512 -12.827 -17.279  1.00  0.00     0.170 HD
BRANCH  12  15
HETATM   15  C1  UNL     1      26.686 -12.373 -14.707  1.00  0.00     0.270 C 
HETATM   16  O1  UNL     1      25.626 -12.014 -15.244  1.00  0.00    -0.640 OA
HETATM   17  O2  UNL     1      26.620 -13.004 -13.484  1.00  0.00    -0.640 OA
ENDBRANCH  12  15
ENDBRANCH   1  11
BRANCH  10  18
HETATM   18  C10 UNL     1      30.570 -14.417 -16.703  1.00  0.00     0.213 C 
HETATM   19  O4  UNL     1      30.554 -14.665 -15.499  1.00  0.00    -0.644 OA
HETATM   20  O5  UNL     1      30.483 -15.489 -17.565  1.00  0.00    -0.644 OA
ENDBRANCH  10  18
TORSDOF 3
ENDMDL
