MODEL 3
REMARK VINA RESULT: -6.845188937      1.017      1.032
REMARK  3 active torsions:
REMARK  status: ('A' for Active; 'I' for Inactive)
REMARK    1  A    between atoms: C1_2  and  C2_4 
REMARK       I    between atoms: C2_4  and  N1_6 
REMARK    2  A    between atoms: N1_6  and  C3_8 
REMARK    3  A    between atoms: C9_17  and  C10_18 
ROOT
HETATM    1  C3  UNL     1      26.244 -12.187 -16.488  1.00  0.00     0.095 A 
HETATM    2  S1  UNL     1      26.974 -11.294 -17.776  1.00  0.00    -0.069 SA
HETATM    3  C4  UNL     1      28.577 -11.313 -17.244  1.00  0.00     0.033 A 
HETATM    4  C5  UNL     1      29.729 -10.775 -17.797  1.00  0.00     0.107 A 
HETATM    5  N2  UNL     1      30.924 -10.929 -17.163  1.00  0.00    -0.374 N 
ATOM      6  H2  UNL     1      31.790 -10.546 -17.542  1.00  0.00     0.164 HD
HETATM    7  C6  UNL     1      30.895 -11.615 -16.007  1.00  0.00     0.088 A 
HETATM    8  C7  UNL     1      29.775 -12.155 -15.442  1.00  0.00     0.031 A 
HETATM    9  C8  UNL     1      28.524 -12.012 -16.075  1.00  0.00     0.004 A 
HETATM   10  C9  UNL     1      27.314 -12.467 -15.679  1.00  0.00     0.086 A 
ENDROOT
BRANCH   1  11
HETATM   11  N1  UNL     1      24.852 -12.509 -16.375  1.00  0.00    -0.311 N 
HETATM   12  C2  UNL     1      24.386 -13.765 -16.902  1.00  0.00     0.323 C 
HETATM   13  O3  UNL     1      25.245 -14.506 -17.435  1.00  0.00    -0.260 OA
ATOM     14  H1  UNL     1      24.204 -11.861 -15.928  1.00  0.00     0.170 HD
BRANCH  12  15
HETATM   15  C1  UNL     1      22.982 -14.147 -16.815  1.00  0.00     0.270 C 
HETATM   16  O1  UNL     1      22.593 -15.323 -16.714  1.00  0.00    -0.640 OA
HETATM   17  O2  UNL     1      22.038 -13.144 -16.848  1.00  0.00    -0.640 OA
ENDBRANCH  12  15
ENDBRANCH   1  11
BRANCH  10  18
HETATM   18  C10 UNL     1      27.061 -13.245 -14.437  1.00  0.00     0.213 C 
HETATM   19  O4  UNL     1      26.572 -12.769 -13.415  1.00  0.00    -0.644 OA
HETATM   20  O5  UNL     1      27.388 -14.584 -14.411  1.00  0.00    -0.644 OA
ENDBRANCH  10  18
TORSDOF 3
ENDMDL
