MODEL 2
REMARK VINA RESULT: -6.990785150      0.219      1.071
REMARK  3 active torsions:
REMARK  status: ('A' for Active; 'I' for Inactive)
REMARK    1  A    between atoms: C1_2  and  C2_4 
REMARK       I    between atoms: C2_4  and  N1_6 
REMARK    2  A    between atoms: N1_6  and  C3_8 
REMARK    3  A    between atoms: C9_17  and  C10_18 
ROOT
HETATM    1  C3  UNL     1      26.895 -13.374 -16.767  1.00  0.00     0.095 A 
HETATM    2  S1  UNL     1      27.724 -12.613 -18.080  1.00  0.00    -0.069 SA
HETATM    3  C4  UNL     1      29.083 -12.051 -17.251  1.00  0.00     0.033 A 
HETATM    4  C5  UNL     1      30.190 -11.338 -17.688  1.00  0.00     0.107 A 
HETATM    5  N2  UNL     1      31.171 -10.997 -16.808  1.00  0.00    -0.374 N 
ATOM      6  H2  UNL     1      31.997 -10.473 -17.096  1.00  0.00     0.164 HD
HETATM    7  C6  UNL     1      30.986 -11.391 -15.536  1.00  0.00     0.088 A 
HETATM    8  C7  UNL     1      29.907 -12.094 -15.080  1.00  0.00     0.031 A 
HETATM    9  C8  UNL     1      28.876 -12.461 -15.968  1.00  0.00     0.004 A 
HETATM   10  C9  UNL     1      27.740 -13.148 -15.713  1.00  0.00     0.086 A 
ENDROOT
BRANCH   1  11
HETATM   11  N1  UNL     1      25.634 -14.052 -16.851  1.00  0.00    -0.311 N 
HETATM   12  C2  UNL     1      24.426 -13.299 -16.639  1.00  0.00     0.323 C 
HETATM   13  O3  UNL     1      24.559 -12.078 -16.390  1.00  0.00    -0.260 OA
ATOM     14  H1  UNL     1      25.595 -15.050 -17.058  1.00  0.00     0.170 HD
BRANCH  12  15
HETATM   15  C1  UNL     1      23.117 -13.936 -16.712  1.00  0.00     0.270 C 
HETATM   16  O1  UNL     1      22.051 -13.308 -16.833  1.00  0.00    -0.640 OA
HETATM   17  O2  UNL     1      23.062 -15.310 -16.642  1.00  0.00    -0.640 OA
ENDBRANCH  12  15
ENDBRANCH   1  11
BRANCH  10  18
HETATM   18  C10 UNL     1      27.343 -13.674 -14.379  1.00  0.00     0.213 C 
HETATM   19  O4  UNL     1      27.519 -14.837 -14.018  1.00  0.00    -0.644 OA
HETATM   20  O5  UNL     1      26.742 -12.823 -13.478  1.00  0.00    -0.644 OA
ENDBRANCH  10  18
TORSDOF 3
ENDMDL
