MODEL 5
REMARK VINA RESULT: -6.720851430      3.142      4.444
REMARK  3 active torsions:
REMARK  status: ('A' for Active; 'I' for Inactive)
REMARK    1  A    between atoms: C1_2  and  C2_4 
REMARK       I    between atoms: C2_4  and  N1_6 
REMARK    2  A    between atoms: N1_6  and  C3_8 
REMARK    3  A    between atoms: C9_17  and  C10_18 
ROOT
HETATM    1  C3  UNL     1      30.485 -12.847 -16.010  1.00  0.00     0.095 A 
HETATM    2  S1  UNL     1      31.549 -11.490 -15.895  1.00  0.00    -0.069 SA
HETATM    3  C4  UNL     1      32.576 -11.841 -17.189  1.00  0.00     0.033 A 
HETATM    4  C5  UNL     1      33.679 -11.165 -17.688  1.00  0.00     0.107 A 
HETATM    5  N2  UNL     1      34.352 -11.662 -18.762  1.00  0.00    -0.374 N 
ATOM      6  H2  UNL     1      35.167 -11.191 -19.155  1.00  0.00     0.164 HD
HETATM    7  C6  UNL     1      33.879 -12.812 -19.275  1.00  0.00     0.088 A 
HETATM    8  C7  UNL     1      32.795 -13.496 -18.803  1.00  0.00     0.031 A 
HETATM    9  C8  UNL     1      32.079 -13.006 -17.693  1.00  0.00     0.004 A 
HETATM   10  C9  UNL     1      30.993 -13.531 -17.083  1.00  0.00     0.086 A 
ENDROOT
BRANCH   1  11
HETATM   11  N1  UNL     1      29.368 -13.114 -15.151  1.00  0.00    -0.311 N 
HETATM   12  C2  UNL     1      28.124 -12.433 -15.400  1.00  0.00     0.323 C 
HETATM   13  O3  UNL     1      28.100 -11.639 -16.370  1.00  0.00    -0.260 OA
ATOM     14  H1  UNL     1      29.454 -13.773 -14.378  1.00  0.00     0.170 HD
BRANCH  12  15
HETATM   15  C1  UNL     1      26.955 -12.664 -14.560  1.00  0.00     0.270 C 
HETATM   16  O1  UNL     1      26.057 -11.824 -14.383  1.00  0.00    -0.640 OA
HETATM   17  O2  UNL     1      26.845 -13.884 -13.929  1.00  0.00    -0.640 OA
ENDBRANCH  12  15
ENDBRANCH   1  11
BRANCH  10  18
HETATM   18  C10 UNL     1      30.314 -14.791 -17.489  1.00  0.00     0.213 C 
HETATM   19  O4  UNL     1      30.208 -15.780 -16.766  1.00  0.00    -0.644 OA
HETATM   20  O5  UNL     1      29.762 -14.875 -18.749  1.00  0.00    -0.644 OA
ENDBRANCH  10  18
TORSDOF 3
ENDMDL
