MODEL 5
REMARK VINA RESULT: -5.271178466      2.966      4.882
REMARK  3 active torsions:
REMARK  status: ('A' for Active; 'I' for Inactive)
REMARK    1  A    between atoms: C1_2  and  C2_4 
REMARK       I    between atoms: C2_4  and  N1_6 
REMARK    2  A    between atoms: N1_6  and  C3_8 
REMARK    3  A    between atoms: C6_12  and  C7_13 
ROOT
HETATM    1  C3  UNL     1      60.507  30.461  16.126  1.00  0.00     0.095 A 
HETATM    2  S1  UNL     1      60.756  31.852  15.086  1.00  0.00    -0.070 SA
HETATM    3  C4  UNL     1      59.970  31.309  13.694  1.00  0.00     0.029 A 
HETATM    4  C5  UNL     1      59.525  30.072  14.050  1.00  0.00    -0.018 A 
HETATM    5  C6  UNL     1      59.801  29.641  15.317  1.00  0.00     0.082 A 
HETATM    6  C8  UNL     1      58.801  29.365  12.916  1.00  0.00     0.060 C 
HETATM    7  C9  UNL     1      59.468  29.690  11.605  1.00  0.00     0.123 C 
HETATM    8  N2  UNL     1      59.530  31.067  11.297  1.00  0.00    -0.397 N 
ATOM      9  H2  UNL     1      59.420  31.403  10.341  1.00  0.00     0.158 HD
HETATM   10  C10 UNL     1      59.751  31.954  12.365  1.00  0.00     0.102 C 
ENDROOT
BRANCH   1  11
HETATM   11  N1  UNL     1      60.980  30.434  17.465  1.00  0.00    -0.311 N 
HETATM   12  C2  UNL     1      62.265  30.749  17.905  1.00  0.00     0.323 C 
HETATM   13  O3  UNL     1      63.179  31.152  17.168  1.00  0.00    -0.260 OA
ATOM     14  H1  UNL     1      60.308  30.156  18.181  1.00  0.00     0.170 HD
BRANCH  12  15
HETATM   15  C1  UNL     1      62.565  30.593  19.356  1.00  0.00     0.270 C 
HETATM   16  O1  UNL     1      63.701  30.211  19.741  1.00  0.00    -0.640 OA
HETATM   17  O2  UNL     1      61.593  30.867  20.275  1.00  0.00    -0.640 OA
ENDBRANCH  12  15
ENDBRANCH   1  11
BRANCH   5  18
HETATM   18  C7  UNL     1      59.086  28.443  15.873  1.00  0.00     0.212 C 
HETATM   19  O4  UNL     1      58.283  28.586  16.826  1.00  0.00    -0.644 OA
HETATM   20  O5  UNL     1      59.257  27.164  15.419  1.00  0.00    -0.644 OA
ENDBRANCH   5  18
TORSDOF 3
ENDMDL
