MODEL 3
REMARK VINA RESULT: -5.493855503      4.243      6.117
REMARK  3 active torsions:
REMARK  status: ('A' for Active; 'I' for Inactive)
REMARK    1  A    between atoms: C1_2  and  C2_4 
REMARK       I    between atoms: C2_4  and  N1_6 
REMARK    2  A    between atoms: N1_6  and  C3_8 
REMARK    3  A    between atoms: C6_12  and  C7_13 
ROOT
HETATM    1  C3  UNL     1      60.144  28.775  11.413  1.00  0.00     0.095 A 
HETATM    2  S1  UNL     1      59.424  27.477  12.349  1.00  0.00    -0.070 SA
HETATM    3  C4  UNL     1      59.165  28.290  13.807  1.00  0.00     0.029 A 
HETATM    4  C5  UNL     1      59.630  29.544  13.550  1.00  0.00    -0.018 A 
HETATM    5  C6  UNL     1      60.130  29.791  12.303  1.00  0.00     0.082 A 
HETATM    6  C8  UNL     1      59.526  30.461  14.758  1.00  0.00     0.060 C 
HETATM    7  C9  UNL     1      59.813  29.682  16.016  1.00  0.00     0.123 C 
HETATM    8  N2  UNL     1      58.966  28.573  16.231  1.00  0.00    -0.397 N 
ATOM      9  H2  UNL     1      58.656  28.315  17.167  1.00  0.00     0.158 HD
HETATM   10  C10 UNL     1      58.569  27.838  15.099  1.00  0.00     0.102 C 
ENDROOT
BRANCH   1  11
HETATM   11  N1  UNL     1      60.533  28.593  10.059  1.00  0.00    -0.311 N 
HETATM   12  C2  UNL     1      61.826  28.668   9.543  1.00  0.00     0.323 C 
HETATM   13  O3  UNL     1      62.844  28.862  10.227  1.00  0.00    -0.260 OA
ATOM     14  H1  UNL     1      59.788  28.386   9.394  1.00  0.00     0.170 HD
BRANCH  12  15
HETATM   15  C1  UNL     1      62.002  28.505   8.072  1.00  0.00     0.270 C 
HETATM   16  O1  UNL     1      62.609  29.376   7.396  1.00  0.00    -0.640 OA
HETATM   17  O2  UNL     1      61.497  27.396   7.456  1.00  0.00    -0.640 OA
ENDBRANCH  12  15
ENDBRANCH   1  11
BRANCH   5  18
HETATM   18  C7  UNL     1      60.365  31.206  11.857  1.00  0.00     0.212 C 
HETATM   19  O4  UNL     1      61.496  31.542  11.431  1.00  0.00    -0.644 OA
HETATM   20  O5  UNL     1      59.419  32.193  11.894  1.00  0.00    -0.644 OA
ENDBRANCH   5  18
TORSDOF 3
ENDMDL
