MODEL 6
REMARK VINA RESULT: -5.259240819      7.590      9.184
REMARK  3 active torsions:
REMARK  status: ('A' for Active; 'I' for Inactive)
REMARK    1  A    between atoms: C1_2  and  C2_4 
REMARK       I    between atoms: C2_4  and  N1_6 
REMARK    2  A    between atoms: N1_6  and  C3_8 
REMARK    3  A    between atoms: C6_12  and  C7_13 
ROOT
HETATM    1  C3  UNL     1      62.857  26.979   6.796  1.00  0.00     0.095 A 
HETATM    2  S1  UNL     1      62.449  28.658   7.103  1.00  0.00    -0.070 SA
HETATM    3  C4  UNL     1      63.431  28.946   8.447  1.00  0.00     0.029 A 
HETATM    4  C5  UNL     1      64.058  27.752   8.636  1.00  0.00    -0.018 A 
HETATM    5  C6  UNL     1      63.761  26.738   7.770  1.00  0.00     0.082 A 
HETATM    6  C8  UNL     1      64.986  27.767   9.839  1.00  0.00     0.060 C 
HETATM    7  C9  UNL     1      64.381  28.600  10.940  1.00  0.00     0.123 C 
HETATM    8  N2  UNL     1      64.100  29.937  10.584  1.00  0.00    -0.397 N 
ATOM      9  H2  UNL     1      64.226  30.700  11.248  1.00  0.00     0.158 HD
HETATM   10  C10 UNL     1      63.638  30.170   9.277  1.00  0.00     0.102 C 
ENDROOT
BRANCH   1  11
HETATM   11  N1  UNL     1      62.290  26.258   5.712  1.00  0.00    -0.311 N 
HETATM   12  C2  UNL     1      61.044  25.633   5.685  1.00  0.00     0.323 C 
HETATM   13  O3  UNL     1      60.222  25.666   6.615  1.00  0.00    -0.260 OA
ATOM     14  H1  UNL     1      62.852  26.190   4.864  1.00  0.00     0.170 HD
BRANCH  12  15
HETATM   15  C1  UNL     1      60.669  24.873   4.458  1.00  0.00     0.270 C 
HETATM   16  O1  UNL     1      59.506  24.949   3.984  1.00  0.00    -0.640 OA
HETATM   17  O2  UNL     1      61.603  24.087   3.847  1.00  0.00    -0.640 OA
ENDBRANCH  12  15
ENDBRANCH   1  11
BRANCH   5  18
HETATM   18  C7  UNL     1      64.631  25.514   7.724  1.00  0.00     0.212 C 
HETATM   19  O4  UNL     1      64.112  24.378   7.842  1.00  0.00    -0.644 OA
HETATM   20  O5  UNL     1      65.991  25.541   7.576  1.00  0.00    -0.644 OA
ENDBRANCH   5  18
TORSDOF 3
ENDMDL
