MODEL 1
REMARK VINA RESULT: -6.240011790      0.000      0.000
REMARK  3 active torsions:
REMARK  status: ('A' for Active; 'I' for Inactive)
REMARK    1  A    between atoms: C1_2  and  C2_4 
REMARK       I    between atoms: C2_4  and  N1_6 
REMARK    2  A    between atoms: N1_6  and  C3_8 
REMARK    3  A    between atoms: C6_12  and  C7_13 
ROOT
HETATM    1  C3  UNL     1      59.103  27.403  14.495  1.00  0.00     0.095 A 
HETATM    2  S1  UNL     1      59.505  27.162  12.805  1.00  0.00    -0.070 SA
HETATM    3  C4  UNL     1      59.887  28.751  12.376  1.00  0.00     0.029 A 
HETATM    4  C5  UNL     1      59.705  29.438  13.538  1.00  0.00    -0.018 A 
HETATM    5  C6  UNL     1      59.304  28.731  14.635  1.00  0.00     0.082 A 
HETATM    6  C8  UNL     1      59.963  30.927  13.379  1.00  0.00     0.060 C 
HETATM    7  C9  UNL     1      59.483  31.387  12.027  1.00  0.00     0.123 C 
HETATM    8  N2  UNL     1      60.069  30.719  10.930  1.00  0.00    -0.397 N 
ATOM      9  H2  UNL     1      60.290  31.210  10.065  1.00  0.00     0.158 HD
HETATM   10  C10 UNL     1      60.336  29.346  11.082  1.00  0.00     0.102 C 
ENDROOT
BRANCH   1  11
HETATM   11  N1  UNL     1      58.724  26.321  15.335  1.00  0.00    -0.311 N 
HETATM   12  C2  UNL     1      59.350  25.078  15.431  1.00  0.00     0.323 C 
HETATM   13  O3  UNL     1      60.380  24.762  14.813  1.00  0.00    -0.260 OA
ATOM     14  H1  UNL     1      57.909  26.468  15.930  1.00  0.00     0.170 HD
BRANCH  12  15
HETATM   15  C1  UNL     1      58.746  24.060  16.336  1.00  0.00     0.270 C 
HETATM   16  O1  UNL     1      59.175  22.876  16.350  1.00  0.00    -0.640 OA
HETATM   17  O2  UNL     1      57.715  24.419  17.156  1.00  0.00    -0.640 OA
ENDBRANCH  12  15
ENDBRANCH   1  11
BRANCH   5  18
HETATM   18  C7  UNL     1      59.386  29.355  15.999  1.00  0.00     0.212 C 
HETATM   19  O4  UNL     1      58.650  28.930  16.922  1.00  0.00    -0.644 OA
HETATM   20  O5  UNL     1      60.214  30.395  16.322  1.00  0.00    -0.644 OA
ENDBRANCH   5  18
TORSDOF 3
ENDMDL
