MODEL 5
REMARK VINA RESULT: -8.539880179      4.241      7.387
REMARK  8 active torsions:
REMARK  status: ('A' for Active; 'I' for Inactive)
REMARK    1  A    between atoms: C2_2  and  N1_3 
REMARK    2  A    between atoms: N1_3  and  C3_5 
REMARK    3  A    between atoms: C10_12  and  C11_13 
REMARK    4  A    between atoms: C16_18  and  C17_19 
REMARK    5  A    between atoms: C17_19  and  O2_21 
REMARK    6  A    between atoms: O2_21  and  C18_22 
REMARK    7  A    between atoms: C24_28  and  N2_29 
REMARK    8  A    between atoms: N2_29  and  C25_31 
ROOT
HETATM    1  C3  UNL     1      -2.610  26.104 -12.007  1.00  0.00     0.036 A 
HETATM    2  C4  UNL     1      -3.814  26.705 -12.248  1.00  0.00     0.067 A 
HETATM    3  C5  UNL     1      -3.952  27.723 -13.218  1.00  0.00     0.085 A 
HETATM    4  C6  UNL     1      -2.857  28.102 -13.919  1.00  0.00    -0.011 A 
HETATM    5  C7  UNL     1      -1.608  27.488 -13.679  1.00  0.00     0.020 A 
HETATM    6  C8  UNL     1      -1.522  26.524 -12.746  1.00  0.00    -0.035 A 
HETATM    7  C9  UNL     1      -0.198  25.868 -12.486  1.00  0.00     0.050 C 
HETATM    8  C10 UNL     1      -2.931  29.173 -14.928  1.00  0.00     0.091 A 
HETATM    9  C20 UNL     1      -4.282  29.704 -15.101  1.00  0.00    -0.011 A 
HETATM   10  C21 UNL     1      -4.479  30.709 -16.056  1.00  0.00     0.020 A 
HETATM   11  C22 UNL     1      -5.718  31.261 -16.251  1.00  0.00    -0.035 A 
HETATM   12  C23 UNL     1      -5.966  32.333 -17.259  1.00  0.00     0.050 C 
HETATM   13  C24 UNL     1      -6.810  30.849 -15.516  1.00  0.00     0.036 A 
HETATM   14  C27 UNL     1      -6.601  29.860 -14.582  1.00  0.00     0.067 A 
HETATM   15  C28 UNL     1      -5.341  29.275 -14.361  1.00  0.00     0.085 A 
HETATM   16  O3  UNL     1      -5.223  28.279 -13.398  1.00  0.00    -0.310 OA
ENDROOT
BRANCH   8  17
HETATM   17  C11 UNL     1      -2.291  28.789 -16.206  1.00  0.00    -0.029 A 
HETATM   18  C12 UNL     1      -2.761  27.641 -16.834  1.00  0.00     0.009 A 
HETATM   19  C13 UNL     1      -2.189  27.231 -17.998  1.00  0.00     0.001 A 
HETATM   20  C14 UNL     1      -1.153  27.957 -18.539  1.00  0.00     0.001 A 
HETATM   21  C15 UNL     1      -0.701  29.082 -17.914  1.00  0.00     0.018 A 
HETATM   22  C16 UNL     1      -1.273  29.534 -16.705  1.00  0.00     0.046 A 
BRANCH  22  23
HETATM   23  C17 UNL     1      -0.713  30.764 -16.164  1.00  0.00     0.293 C 
HETATM   24  O1  UNL     1       0.372  30.725 -15.482  1.00  0.00    -0.259 OA
BRANCH  23  25
HETATM   25  O2  UNL     1      -1.232  32.020 -16.306  1.00  0.00    -0.318 OA
BRANCH  25  26
HETATM   26  C18 UNL     1      -1.106  32.833 -17.440  1.00  0.00     0.174 C 
HETATM   27  C19 UNL     1      -2.282  32.672 -18.379  1.00  0.00     0.034 C 
ENDBRANCH  25  26
ENDBRANCH  23  25
ENDBRANCH  22  23
ENDBRANCH   8  17
BRANCH   1  28
HETATM   28  N1  UNL     1      -2.499  25.081 -11.024  1.00  0.00    -0.390 N 
ATOM     29  H1  UNL     1      -1.649  25.026 -10.463  1.00  0.00     0.159 HD
BRANCH  28  30
HETATM   30  C2  UNL     1      -3.548  24.120 -10.795  1.00  0.00     0.115 C 
HETATM   31  C1  UNL     1      -2.985  22.727 -10.946  1.00  0.00     0.026 C 
ENDBRANCH  28  30
ENDBRANCH   1  28
BRANCH  13  32
HETATM   32  N2  UNL     1      -8.087  31.436 -15.734  1.00  0.00    -0.390 N 
ATOM     33  H2  UNL     1      -8.187  32.307 -16.254  1.00  0.00     0.159 HD
BRANCH  32  34
HETATM   34  C25 UNL     1      -9.250  30.747 -15.188  1.00  0.00     0.115 C 
HETATM   35  C26 UNL     1      -9.971  29.946 -16.221  1.00  0.00     0.026 C 
ENDBRANCH  32  34
ENDBRANCH  13  32
TORSDOF 8
ENDMDL
