MODEL 6
REMARK VINA RESULT: -8.512417519      4.159      7.325
REMARK  8 active torsions:
REMARK  status: ('A' for Active; 'I' for Inactive)
REMARK    1  A    between atoms: C2_2  and  N1_3 
REMARK    2  A    between atoms: N1_3  and  C3_5 
REMARK    3  A    between atoms: C10_12  and  C11_13 
REMARK    4  A    between atoms: C16_18  and  C17_19 
REMARK    5  A    between atoms: C17_19  and  O2_21 
REMARK    6  A    between atoms: O2_21  and  C18_22 
REMARK    7  A    between atoms: C24_28  and  N2_29 
REMARK    8  A    between atoms: N2_29  and  C25_31 
ROOT
HETATM    1  C3  UNL     1      -1.345  25.594 -12.363  1.00  0.00     0.036 A 
HETATM    2  C4  UNL     1      -2.633  26.051 -12.347  1.00  0.00     0.067 A 
HETATM    3  C5  UNL     1      -3.049  27.122 -13.170  1.00  0.00     0.085 A 
HETATM    4  C6  UNL     1      -2.139  27.700 -13.989  1.00  0.00    -0.011 A 
HETATM    5  C7  UNL     1      -0.805  27.237 -14.013  1.00  0.00     0.020 A 
HETATM    6  C8  UNL     1      -0.453  26.216 -13.213  1.00  0.00    -0.035 A 
HETATM    7  C9  UNL     1       0.963  25.719 -13.236  1.00  0.00     0.050 C 
HETATM    8  C10 UNL     1      -2.505  28.835 -14.854  1.00  0.00     0.091 A 
HETATM    9  C20 UNL     1      -3.918  29.197 -14.757  1.00  0.00    -0.011 A 
HETATM   10  C21 UNL     1      -4.388  30.246 -15.556  1.00  0.00     0.020 A 
HETATM   11  C22 UNL     1      -5.698  30.645 -15.495  1.00  0.00    -0.035 A 
HETATM   12  C23 UNL     1      -6.233  31.758 -16.332  1.00  0.00     0.050 C 
HETATM   13  C24 UNL     1      -6.595  30.031 -14.647  1.00  0.00     0.036 A 
HETATM   14  C27 UNL     1      -6.119  29.002 -13.868  1.00  0.00     0.067 A 
HETATM   15  C28 UNL     1      -4.780  28.570 -13.910  1.00  0.00     0.085 A 
HETATM   16  O3  UNL     1      -4.388  27.519 -13.089  1.00  0.00    -0.310 OA
ENDROOT
BRANCH   8  17
HETATM   17  C11 UNL     1      -2.049  28.651 -16.250  1.00  0.00    -0.029 A 
HETATM   18  C12 UNL     1      -2.501  27.521 -16.923  1.00  0.00     0.009 A 
HETATM   19  C13 UNL     1      -2.091  27.292 -18.200  1.00  0.00     0.001 A 
HETATM   20  C14 UNL     1      -1.234  28.179 -18.808  1.00  0.00     0.001 A 
HETATM   21  C15 UNL     1      -0.798  29.284 -18.137  1.00  0.00     0.018 A 
HETATM   22  C16 UNL     1      -1.205  29.551 -16.812  1.00  0.00     0.046 A 
BRANCH  22  23
HETATM   23  C17 UNL     1      -0.686  30.780 -16.229  1.00  0.00     0.293 C 
HETATM   24  O1  UNL     1       0.477  30.788 -15.687  1.00  0.00    -0.259 OA
BRANCH  23  25
HETATM   25  O2  UNL     1      -1.323  31.988 -16.189  1.00  0.00    -0.318 OA
BRANCH  25  26
HETATM   26  C18 UNL     1      -1.514  32.847 -17.279  1.00  0.00     0.174 C 
HETATM   27  C19 UNL     1      -2.866  32.639 -17.927  1.00  0.00     0.034 C 
ENDBRANCH  25  26
ENDBRANCH  23  25
ENDBRANCH  22  23
ENDBRANCH   8  17
BRANCH   1  28
HETATM   28  N1  UNL     1      -0.952  24.514 -11.524  1.00  0.00    -0.390 N 
ATOM     29  H1  UNL     1      -0.514  23.695 -11.947  1.00  0.00     0.159 HD
BRANCH  28  30
HETATM   30  C2  UNL     1      -1.153  24.539 -10.098  1.00  0.00     0.115 C 
HETATM   31  C1  UNL     1      -0.016  25.293  -9.451  1.00  0.00     0.026 C 
ENDBRANCH  28  30
ENDBRANCH   1  28
BRANCH  13  32
HETATM   32  N2  UNL     1      -7.950  30.462 -14.599  1.00  0.00    -0.390 N 
ATOM     33  H2  UNL     1      -8.199  31.381 -14.235  1.00  0.00     0.159 HD
BRANCH  32  34
HETATM   34  C25 UNL     1      -8.969  29.543 -15.089  1.00  0.00     0.115 C 
HETATM   35  C26 UNL     1      -9.835  30.163 -16.136  1.00  0.00     0.026 C 
ENDBRANCH  32  34
ENDBRANCH  13  32
TORSDOF 8
ENDMDL
