MODEL 7
REMARK VINA RESULT: -8.365700179      4.133      7.023
REMARK  8 active torsions:
REMARK  status: ('A' for Active; 'I' for Inactive)
REMARK    1  A    between atoms: C2_2  and  N1_3 
REMARK    2  A    between atoms: N1_3  and  C3_5 
REMARK    3  A    between atoms: C10_12  and  C11_13 
REMARK    4  A    between atoms: C16_18  and  C17_19 
REMARK    5  A    between atoms: C17_19  and  O2_21 
REMARK    6  A    between atoms: O2_21  and  C18_22 
REMARK    7  A    between atoms: C24_28  and  N2_29 
REMARK    8  A    between atoms: N2_29  and  C25_31 
ROOT
HETATM    1  C3  UNL     1      -1.355  25.599 -12.369  1.00  0.00     0.036 A 
HETATM    2  C4  UNL     1      -2.642  26.058 -12.348  1.00  0.00     0.067 A 
HETATM    3  C5  UNL     1      -3.060  27.127 -13.173  1.00  0.00     0.085 A 
HETATM    4  C6  UNL     1      -2.153  27.701 -13.998  1.00  0.00    -0.011 A 
HETATM    5  C7  UNL     1      -0.821  27.235 -14.028  1.00  0.00     0.020 A 
HETATM    6  C8  UNL     1      -0.466  26.215 -13.226  1.00  0.00    -0.035 A 
HETATM    7  C9  UNL     1       0.948  25.715 -13.254  1.00  0.00     0.050 C 
HETATM    8  C10 UNL     1      -2.520  28.834 -14.865  1.00  0.00     0.091 A 
HETATM    9  C20 UNL     1      -3.932  29.200 -14.761  1.00  0.00    -0.011 A 
HETATM   10  C21 UNL     1      -4.404  30.247 -15.561  1.00  0.00     0.020 A 
HETATM   11  C22 UNL     1      -5.713  30.649 -15.495  1.00  0.00    -0.035 A 
HETATM   12  C23 UNL     1      -6.250  31.761 -16.333  1.00  0.00     0.050 C 
HETATM   13  C24 UNL     1      -6.607  30.040 -14.640  1.00  0.00     0.036 A 
HETATM   14  C27 UNL     1      -6.129  29.012 -13.860  1.00  0.00     0.067 A 
HETATM   15  C28 UNL     1      -4.792  28.577 -13.908  1.00  0.00     0.085 A 
HETATM   16  O3  UNL     1      -4.398  27.527 -13.086  1.00  0.00    -0.310 OA
ENDROOT
BRANCH   8  17
HETATM   17  C11 UNL     1      -2.073  28.644 -16.262  1.00  0.00    -0.029 A 
HETATM   18  C12 UNL     1      -2.559  27.532 -16.941  1.00  0.00     0.009 A 
HETATM   19  C13 UNL     1      -2.158  27.298 -18.219  1.00  0.00     0.001 A 
HETATM   20  C14 UNL     1      -1.276  28.163 -18.825  1.00  0.00     0.001 A 
HETATM   21  C15 UNL     1      -0.806  29.251 -18.148  1.00  0.00     0.018 A 
HETATM   22  C16 UNL     1      -1.203  29.522 -16.821  1.00  0.00     0.046 A 
BRANCH  22  23
HETATM   23  C17 UNL     1      -0.648  30.732 -16.232  1.00  0.00     0.293 C 
HETATM   24  O1  UNL     1      -1.299  31.835 -16.308  1.00  0.00    -0.259 OA
BRANCH  23  25
HETATM   25  O2  UNL     1       0.543  30.837 -15.571  1.00  0.00    -0.318 OA
BRANCH  25  26
HETATM   26  C18 UNL     1       1.669  31.538 -16.022  1.00  0.00     0.174 C 
HETATM   27  C19 UNL     1       2.074  32.630 -15.054  1.00  0.00     0.034 C 
ENDBRANCH  25  26
ENDBRANCH  23  25
ENDBRANCH  22  23
ENDBRANCH   8  17
BRANCH   1  28
HETATM   28  N1  UNL     1      -0.961  24.520 -11.529  1.00  0.00    -0.390 N 
ATOM     29  H1  UNL     1      -0.531  23.697 -11.952  1.00  0.00     0.159 HD
BRANCH  28  30
HETATM   30  C2  UNL     1      -1.147  24.553 -10.101  1.00  0.00     0.115 C 
HETATM   31  C1  UNL     1      -0.000  25.303  -9.468  1.00  0.00     0.026 C 
ENDBRANCH  28  30
ENDBRANCH   1  28
BRANCH  13  32
HETATM   32  N2  UNL     1      -7.961  30.474 -14.586  1.00  0.00    -0.390 N 
ATOM     33  H2  UNL     1      -8.207  31.392 -14.218  1.00  0.00     0.159 HD
BRANCH  32  34
HETATM   34  C25 UNL     1      -8.984  29.560 -15.077  1.00  0.00     0.115 C 
HETATM   35  C26 UNL     1      -9.857  30.189 -16.112  1.00  0.00     0.026 C 
ENDBRANCH  32  34
ENDBRANCH  13  32
TORSDOF 8
ENDMDL
