MODEL 2
REMARK VINA RESULT: -6.313596745      0.025      1.824
REMARK  1 active torsions:
REMARK  status: ('A' for Active; 'I' for Inactive)
REMARK    1  A    between atoms: O1_1  and  C1_3 
ROOT
HETATM    1  C1  UNL     1      29.014   2.744 -13.165  1.00  0.00     0.065 A 
HETATM    2  C2  UNL     1      29.245   2.936 -14.512  1.00  0.00     0.036 A 
HETATM    3  C3  UNL     1      30.556   3.113 -14.927  1.00  0.00     0.003 A 
HETATM    4  C4  UNL     1      31.564   3.089 -13.979  1.00  0.00     0.000 A 
HETATM    5  C5  UNL     1      31.308   2.898 -12.655  1.00  0.00     0.003 A 
HETATM    6  C6  UNL     1      30.001   2.719 -12.221  1.00  0.00     0.036 A 
ENDROOT
BRANCH   1   7
HETATM    7  O1  UNL     1      27.703   2.567 -12.748  1.00  0.00    -0.361 OA
ATOM      8  H1  UNL     1      27.431   2.988 -11.941  1.00  0.00     0.217 HD
ENDBRANCH   1   7
TORSDOF 1
ENDMDL
