MODEL 11
REMARK VINA RESULT: -5.345707979      1.115      1.763
REMARK  1 active torsions:
REMARK  status: ('A' for Active; 'I' for Inactive)
REMARK    1  A    between atoms: O1_1  and  C1_3 
ROOT
HETATM    1  C1  UNL     1      29.488   3.183 -14.372  1.00  0.00     0.065 A 
HETATM    2  C2  UNL     1      29.087   2.752 -13.124  1.00  0.00     0.036 A 
HETATM    3  C3  UNL     1      30.062   2.567 -12.156  1.00  0.00     0.003 A 
HETATM    4  C4  UNL     1      31.382   2.822 -12.483  1.00  0.00     0.000 A 
HETATM    5  C5  UNL     1      31.751   3.247 -13.724  1.00  0.00     0.003 A 
HETATM    6  C6  UNL     1      30.789   3.437 -14.706  1.00  0.00     0.036 A 
ENDROOT
BRANCH   1   7
HETATM    7  O1  UNL     1      28.514   3.368 -15.342  1.00  0.00    -0.361 OA
ATOM      8  H1  UNL     1      28.295   2.630 -15.900  1.00  0.00     0.217 HD
ENDBRANCH   1   7
TORSDOF 1
ENDMDL
