MODEL 1
REMARK VINA RESULT: -6.319909592      0.000      0.000
REMARK  1 active torsions:
REMARK  status: ('A' for Active; 'I' for Inactive)
REMARK    1  A    between atoms: O1_1  and  C1_3 
ROOT
HETATM    1  C1  UNL     1      29.010   2.742 -13.164  1.00  0.00     0.065 A 
HETATM    2  C2  UNL     1      30.018   2.706 -12.223  1.00  0.00     0.036 A 
HETATM    3  C3  UNL     1      31.322   2.891 -12.660  1.00  0.00     0.003 A 
HETATM    4  C4  UNL     1      31.548   3.101 -14.009  1.00  0.00     0.000 A 
HETATM    5  C5  UNL     1      30.533   3.131 -14.918  1.00  0.00     0.003 A 
HETATM    6  C6  UNL     1      29.222   2.948 -14.498  1.00  0.00     0.036 A 
ENDROOT
BRANCH   1   7
HETATM    7  O1  UNL     1      27.706   2.557 -12.729  1.00  0.00    -0.361 OA
ATOM      8  H1  UNL     1      27.391   3.102 -12.018  1.00  0.00     0.217 HD
ENDBRANCH   1   7
TORSDOF 1
ENDMDL
