MODEL 3
REMARK VINA RESULT: -6.123785819      1.011      2.078
REMARK  1 active torsions:
REMARK  status: ('A' for Active; 'I' for Inactive)
REMARK    1  A    between atoms: O1_1  and  C1_3 
ROOT
HETATM    1  C1  UNL     1      29.998   2.451 -12.504  1.00  0.00     0.065 A 
HETATM    2  C2  UNL     1      28.964   2.507 -13.416  1.00  0.00     0.036 A 
HETATM    3  C3  UNL     1      29.237   3.013 -14.678  1.00  0.00     0.003 A 
HETATM    4  C4  UNL     1      30.524   3.434 -14.962  1.00  0.00     0.000 A 
HETATM    5  C5  UNL     1      31.527   3.368 -14.042  1.00  0.00     0.003 A 
HETATM    6  C6  UNL     1      31.272   2.865 -12.774  1.00  0.00     0.036 A 
ENDROOT
BRANCH   1   7
HETATM    7  O1  UNL     1      29.727   1.946 -11.241  1.00  0.00    -0.361 OA
ATOM      8  H1  UNL     1      29.940   1.036 -11.069  1.00  0.00     0.217 HD
ENDBRANCH   1   7
TORSDOF 1
ENDMDL
