MODEL 4
REMARK VINA RESULT: -6.112519738      1.009      1.582
REMARK  1 active torsions:
REMARK  status: ('A' for Active; 'I' for Inactive)
REMARK    1  A    between atoms: O1_1  and  C1_3 
ROOT
HETATM    1  C1  UNL     1      29.984   2.431 -12.513  1.00  0.00     0.065 A 
HETATM    2  C2  UNL     1      31.272   2.842 -12.788  1.00  0.00     0.036 A 
HETATM    3  C3  UNL     1      31.536   3.350 -14.051  1.00  0.00     0.003 A 
HETATM    4  C4  UNL     1      30.504   3.423 -14.969  1.00  0.00     0.000 A 
HETATM    5  C5  UNL     1      29.240   3.009 -14.672  1.00  0.00     0.003 A 
HETATM    6  C6  UNL     1      28.957   2.497 -13.413  1.00  0.00     0.036 A 
ENDROOT
BRANCH   1   7
HETATM    7  O1  UNL     1      29.718   1.921 -11.251  1.00  0.00    -0.361 OA
ATOM      8  H1  UNL     1      28.826   1.659 -11.055  1.00  0.00     0.217 HD
ENDBRANCH   1   7
TORSDOF 1
ENDMDL
