MODEL 2
REMARK VINA RESULT: -8.667373589      3.329      5.935
REMARK  4 active torsions:
REMARK  status: ('A' for Active; 'I' for Inactive)
REMARK    1  A    between atoms: C4_6  and  N2_7 
REMARK    2  A    between atoms: C8_11  and  N3_12 
REMARK    3  A    between atoms: N4_17  and  C10_18 
REMARK    4  A    between atoms: C10_18  and  C11_19 
ROOT
HETATM    1  C11 UNL     1      43.893  32.413  15.272  1.00  0.00     0.004 A 
HETATM    2  C12 UNL     1      45.190  32.666  14.792  1.00  0.00     0.056 A 
HETATM    3  C13 UNL     1      45.663  32.007  13.692  1.00  0.00     0.117 A 
HETATM    4  F1  UNL     1      46.943  32.313  13.290  1.00  0.00    -0.206 F 
HETATM    5  C14 UNL     1      44.913  31.080  13.007  1.00  0.00     0.044 A 
HETATM    6  C15 UNL     1      43.644  30.824  13.467  1.00  0.00     0.026 A 
HETATM    7  C16 UNL     1      43.160  31.505  14.602  1.00  0.00     0.056 A 
HETATM    8  C17 UNL     1      41.820  31.150  14.959  1.00  0.00     0.100 C 
HETATM    9  N5  UNL     1      40.760  30.867  15.216  1.00  0.00    -0.191 NA
ENDROOT
BRANCH   1  10
HETATM   10  C10 UNL     1      43.495  33.143  16.458  1.00  0.00     0.116 C 
BRANCH  10  11
HETATM   11  N4  UNL     1      44.092  34.376  16.778  1.00  0.00    -0.259 N 
HETATM   12  C4  UNL     1      43.918  35.505  16.115  1.00  0.00     0.118 A 
HETATM   13  C3  UNL     1      44.669  36.676  16.374  1.00  0.00     0.123 A 
HETATM   14  C2  UNL     1      45.618  36.645  17.359  1.00  0.00     0.254 A 
HETATM   15  N1  UNL     1      45.776  35.494  18.024  1.00  0.00    -0.270 N 
HETATM   16  O1  UNL     1      46.315  37.653  17.635  1.00  0.00    -0.268 OA
HETATM   17  C1  UNL     1      46.784  35.462  19.074  1.00  0.00     0.164 C 
HETATM   18  C18 UNL     1      45.059  34.394  17.765  1.00  0.00     0.336 A 
HETATM   19  O2  UNL     1      45.210  33.319  18.390  1.00  0.00    -0.246 OA
BRANCH  12  20
HETATM   20  N2  UNL     1      42.810  35.670  15.211  1.00  0.00    -0.365 N 
HETATM   21  C5  UNL     1      43.029  35.483  13.784  1.00  0.00     0.124 C 
HETATM   22  C6  UNL     1      41.744  35.284  13.056  1.00  0.00     0.022 C 
HETATM   23  C7  UNL     1      40.800  34.380  13.842  1.00  0.00     0.036 C 
HETATM   24  C8  UNL     1      40.423  35.002  15.151  1.00  0.00     0.201 C 
HETATM   25  C9  UNL     1      41.502  35.947  15.694  1.00  0.00     0.157 C 
BRANCH  24  26
HETATM   26  N3  UNL     1      40.083  33.985  16.097  1.00  0.00    -0.073 N 
ATOM     27  H33 UNL     1      39.416  33.315  15.714  1.00  0.00     0.274 HD
ATOM     28  H32 UNL     1      40.859  33.345  16.264  1.00  0.00     0.274 HD
ATOM     29  H31 UNL     1      39.745  34.410  16.961  1.00  0.00     0.274 HD
ENDBRANCH  24  26
ENDBRANCH  12  20
ENDBRANCH  10  11
ENDBRANCH   1  10
TORSDOF 4
ENDMDL
