MODEL 4
REMARK VINA RESULT: -8.555857030      3.999      6.789
REMARK  4 active torsions:
REMARK  status: ('A' for Active; 'I' for Inactive)
REMARK    1  A    between atoms: C4_6  and  N2_7 
REMARK    2  A    between atoms: C8_11  and  N3_12 
REMARK    3  A    between atoms: N4_17  and  C10_18 
REMARK    4  A    between atoms: C10_18  and  C11_19 
ROOT
HETATM    1  C11 UNL     1      45.617  33.453  15.900  1.00  0.00     0.004 A 
HETATM    2  C12 UNL     1      46.722  34.098  15.316  1.00  0.00     0.056 A 
HETATM    3  C13 UNL     1      47.305  33.591  14.188  1.00  0.00     0.117 A 
HETATM    4  F1  UNL     1      48.382  34.283  13.683  1.00  0.00    -0.206 F 
HETATM    5  C14 UNL     1      46.852  32.447  13.575  1.00  0.00     0.044 A 
HETATM    6  C15 UNL     1      45.774  31.808  14.137  1.00  0.00     0.026 A 
HETATM    7  C16 UNL     1      45.176  32.333  15.299  1.00  0.00     0.056 A 
HETATM    8  C17 UNL     1      44.056  31.574  15.765  1.00  0.00     0.100 C 
HETATM    9  N5  UNL     1      43.169  30.970  16.108  1.00  0.00    -0.191 NA
ENDROOT
BRANCH   1  10
HETATM   10  C10 UNL     1      45.089  34.056  17.107  1.00  0.00     0.116 C 
BRANCH  10  11
HETATM   11  N4  UNL     1      45.248  35.431  17.355  1.00  0.00    -0.259 N 
HETATM   12  C4  UNL     1      44.677  36.404  16.669  1.00  0.00     0.118 A 
HETATM   13  C3  UNL     1      45.001  37.769  16.849  1.00  0.00     0.123 A 
HETATM   14  C2  UNL     1      45.946  38.104  17.780  1.00  0.00     0.254 A 
HETATM   15  N1  UNL     1      46.511  37.106  18.469  1.00  0.00    -0.270 N 
HETATM   16  O1  UNL     1      46.275  39.300  17.984  1.00  0.00    -0.268 OA
HETATM   17  C1  UNL     1      47.515  37.462  19.460  1.00  0.00     0.164 C 
HETATM   18  C18 UNL     1      46.196  35.818  18.285  1.00  0.00     0.336 A 
HETATM   19  O2  UNL     1      46.726  34.887  18.932  1.00  0.00    -0.246 OA
BRANCH  12  20
HETATM   20  N2  UNL     1      43.539  36.145  15.825  1.00  0.00    -0.365 N 
HETATM   21  C5  UNL     1      43.753  35.922  14.402  1.00  0.00     0.124 C 
HETATM   22  C6  UNL     1      42.569  35.278  13.767  1.00  0.00     0.022 C 
HETATM   23  C7  UNL     1      41.984  34.193  14.665  1.00  0.00     0.036 C 
HETATM   24  C8  UNL     1      41.481  34.770  15.952  1.00  0.00     0.201 C 
HETATM   25  C9  UNL     1      42.230  36.043  16.367  1.00  0.00     0.157 C 
BRANCH  24  26
HETATM   26  N3  UNL     1      41.511  33.777  16.980  1.00  0.00    -0.073 N 
ATOM     27  H33 UNL     1      40.969  34.058  17.798  1.00  0.00     0.274 HD
ATOM     28  H32 UNL     1      40.977  32.947  16.724  1.00  0.00     0.274 HD
ATOM     29  H31 UNL     1      42.476  33.552  17.221  1.00  0.00     0.274 HD
ENDBRANCH  24  26
ENDBRANCH  12  20
ENDBRANCH  10  11
ENDBRANCH   1  10
TORSDOF 4
ENDMDL
