MODEL 1
REMARK VINA RESULT: -9.767052717      0.000      0.000
REMARK  4 active torsions:
REMARK  status: ('A' for Active; 'I' for Inactive)
REMARK    1  A    between atoms: C4_6  and  N2_7 
REMARK    2  A    between atoms: C8_11  and  N3_12 
REMARK    3  A    between atoms: N4_17  and  C10_18 
REMARK    4  A    between atoms: C10_18  and  C11_19 
ROOT
HETATM    1  C11 UNL     1      40.508  35.294  13.858  1.00  0.00     0.004 A 
HETATM    2  C12 UNL     1      39.935  36.273  13.027  1.00  0.00     0.056 A 
HETATM    3  C13 UNL     1      38.580  36.446  12.991  1.00  0.00     0.117 A 
HETATM    4  F1  UNL     1      38.102  37.424  12.150  1.00  0.00    -0.206 F 
HETATM    5  C14 UNL     1      37.720  35.687  13.750  1.00  0.00     0.044 A 
HETATM    6  C15 UNL     1      38.268  34.727  14.566  1.00  0.00     0.026 A 
HETATM    7  C16 UNL     1      39.666  34.552  14.599  1.00  0.00     0.056 A 
HETATM    8  C17 UNL     1      40.096  33.529  15.502  1.00  0.00     0.100 C 
HETATM    9  N5  UNL     1      40.417  32.728  16.227  1.00  0.00    -0.191 NA
ENDROOT
BRANCH   1  10
HETATM   10  C10 UNL     1      41.951  35.173  13.804  1.00  0.00     0.116 C 
BRANCH  10  11
HETATM   11  N4  UNL     1      42.564  33.913  13.682  1.00  0.00    -0.259 N 
HETATM   12  C4  UNL     1      43.662  33.532  14.309  1.00  0.00     0.118 A 
HETATM   13  C3  UNL     1      44.332  32.319  14.026  1.00  0.00     0.123 A 
HETATM   14  C2  UNL     1      43.820  31.494  13.061  1.00  0.00     0.254 A 
HETATM   15  N1  UNL     1      42.704  31.894  12.440  1.00  0.00    -0.270 N 
HETATM   16  O1  UNL     1      44.370  30.404  12.766  1.00  0.00    -0.268 OA
HETATM   17  C1  UNL     1      42.159  31.017  11.414  1.00  0.00     0.164 C 
HETATM   18  C18 UNL     1      42.084  33.047  12.717  1.00  0.00     0.336 A 
HETATM   19  O2  UNL     1      41.039  33.418  12.134  1.00  0.00    -0.246 OA
BRANCH  12  20
HETATM   20  N2  UNL     1      44.139  34.246  15.466  1.00  0.00    -0.365 N 
HETATM   21  C5  UNL     1      45.231  35.195  15.308  1.00  0.00     0.124 C 
HETATM   22  C6  UNL     1      45.322  36.121  16.472  1.00  0.00     0.022 C 
HETATM   23  C7  UNL     1      43.938  36.566  16.931  1.00  0.00     0.036 C 
HETATM   24  C8  UNL     1      43.127  35.402  17.410  1.00  0.00     0.201 C 
HETATM   25  C9  UNL     1      43.523  34.082  16.736  1.00  0.00     0.157 C 
BRANCH  24  26
HETATM   26  N3  UNL     1      41.732  35.679  17.257  1.00  0.00    -0.073 N 
ATOM     27  H33 UNL     1      41.567  36.625  16.914  1.00  0.00     0.274 HD
ATOM     28  H32 UNL     1      41.325  35.164  16.477  1.00  0.00     0.274 HD
ATOM     29  H31 UNL     1      41.241  35.499  18.132  1.00  0.00     0.274 HD
ENDBRANCH  24  26
ENDBRANCH  12  20
ENDBRANCH  10  11
ENDBRANCH   1  10
TORSDOF 4
ENDMDL
