MODEL 3
REMARK VINA RESULT: -8.606255500      3.994      6.813
REMARK  4 active torsions:
REMARK  status: ('A' for Active; 'I' for Inactive)
REMARK    1  A    between atoms: C4_6  and  N2_7 
REMARK    2  A    between atoms: C8_11  and  N3_12 
REMARK    3  A    between atoms: N4_17  and  C10_18 
REMARK    4  A    between atoms: C10_18  and  C11_19 
ROOT
HETATM    1  C11 UNL     1      47.405  35.761  16.566  1.00  0.00     0.004 A 
HETATM    2  C12 UNL     1      46.520  36.601  17.265  1.00  0.00     0.056 A 
HETATM    3  C13 UNL     1      46.983  37.439  18.240  1.00  0.00     0.117 A 
HETATM    4  F1  UNL     1      46.050  38.225  18.876  1.00  0.00    -0.206 F 
HETATM    5  C14 UNL     1      48.313  37.506  18.584  1.00  0.00     0.044 A 
HETATM    6  C15 UNL     1      49.187  36.690  17.908  1.00  0.00     0.026 A 
HETATM    7  C16 UNL     1      48.706  35.828  16.903  1.00  0.00     0.056 A 
HETATM    8  C17 UNL     1      49.728  35.048  16.275  1.00  0.00     0.100 C 
HETATM    9  N5  UNL     1      50.548  34.452  15.783  1.00  0.00    -0.191 NA
ENDROOT
BRANCH   1  10
HETATM   10  C10 UNL     1      46.811  34.893  15.569  1.00  0.00     0.116 C 
BRANCH  10  11
HETATM   11  N4  UNL     1      45.494  34.423  15.718  1.00  0.00    -0.259 N 
HETATM   12  C4  UNL     1      45.138  33.342  16.387  1.00  0.00     0.118 A 
HETATM   13  C3  UNL     1      43.824  32.818  16.366  1.00  0.00     0.123 A 
HETATM   14  C2  UNL     1      42.871  33.461  15.623  1.00  0.00     0.254 A 
HETATM   15  N1  UNL     1      43.249  34.558  14.957  1.00  0.00    -0.270 N 
HETATM   16  O1  UNL     1      41.687  33.044  15.567  1.00  0.00    -0.268 OA
HETATM   17  C1  UNL     1      42.235  35.243  14.168  1.00  0.00     0.164 C 
HETATM   18  C18 UNL     1      44.497  35.039  14.984  1.00  0.00     0.336 A 
HETATM   19  O2  UNL     1      44.846  36.067  14.359  1.00  0.00    -0.246 OA
BRANCH  12  20
HETATM   20  N2  UNL     1      46.029  32.734  17.341  1.00  0.00    -0.365 N 
HETATM   21  C5  UNL     1      47.317  32.233  16.884  1.00  0.00     0.124 C 
HETATM   22  C6  UNL     1      48.256  32.024  18.022  1.00  0.00     0.022 C 
HETATM   23  C7  UNL     1      48.157  33.160  19.034  1.00  0.00     0.036 C 
HETATM   24  C8  UNL     1      46.793  33.217  19.649  1.00  0.00     0.201 C 
HETATM   25  C9  UNL     1      45.698  32.675  18.722  1.00  0.00     0.157 C 
BRANCH  24  26
HETATM   26  N3  UNL     1      46.507  34.548  20.086  1.00  0.00    -0.073 N 
ATOM     27  H33 UNL     1      47.350  35.119  20.147  1.00  0.00     0.274 HD
ATOM     28  H32 UNL     1      46.013  35.086  19.374  1.00  0.00     0.274 HD
ATOM     29  H31 UNL     1      45.997  34.525  20.969  1.00  0.00     0.274 HD
ENDBRANCH  24  26
ENDBRANCH  12  20
ENDBRANCH  10  11
ENDBRANCH   1  10
TORSDOF 4
ENDMDL
