MODEL 4
REMARK VINA RESULT: -8.714116524      1.649      5.043
REMARK  2 active torsions:
REMARK  status: ('A' for Active; 'I' for Inactive)
REMARK    1  A    between atoms: C2_2  and  N1_3 
REMARK    2  A    between atoms: C15_18  and  C16_19 
ROOT
HETATM    1  N1  UNL     1     -11.860  -4.167  -3.293  1.00  0.00    -0.367 N 
HETATM    2  C3  UNL     1     -13.035  -3.344  -3.417  1.00  0.00     0.044 A 
HETATM    3  C4  UNL     1     -13.946  -3.513  -4.428  1.00  0.00     0.056 A 
HETATM    4  C5  UNL     1     -15.078  -2.708  -4.534  1.00  0.00     0.048 A 
HETATM    5  N2  UNL     1     -15.996  -2.923  -5.606  1.00  0.00    -0.102 NA
HETATM    6  C6  UNL     1     -15.262  -1.734  -3.593  1.00  0.00     0.027 A 
HETATM    7  C7  UNL     1     -14.370  -1.533  -2.561  1.00  0.00     0.016 A 
HETATM    8  C8  UNL     1     -13.259  -2.336  -2.472  1.00  0.00     0.001 A 
HETATM    9  C9  UNL     1     -12.277  -2.195  -1.382  1.00  0.00    -0.015 A 
HETATM   10  C10 UNL     1     -12.366  -1.070  -0.563  1.00  0.00     0.015 A 
HETATM   11  C11 UNL     1     -11.368  -0.808   0.345  1.00  0.00     0.027 A 
HETATM   12  C12 UNL     1     -10.280  -1.666   0.438  1.00  0.00     0.047 A 
HETATM   13  N3  UNL     1      -9.259  -1.390   1.373  1.00  0.00    -0.102 NA
HETATM   14  C13 UNL     1     -10.194  -2.783  -0.374  1.00  0.00     0.037 A 
HETATM   15  C14 UNL     1     -11.195  -3.044  -1.278  1.00  0.00    -0.018 A 
HETATM   16  C15 UNL     1     -11.258  -4.324  -2.028  1.00  0.00     0.152 C 
ENDROOT
BRANCH  16  17
HETATM   17  C16 UNL     1     -10.033  -5.128  -1.966  1.00  0.00    -0.031 A 
HETATM   18  C17 UNL     1     -10.150  -6.445  -1.517  1.00  0.00     0.009 A 
HETATM   19  C18 UNL     1      -9.077  -7.297  -1.407  1.00  0.00     0.001 A 
HETATM   20  C19 UNL     1      -7.831  -6.852  -1.746  1.00  0.00     0.000 A 
HETATM   21  C20 UNL     1      -7.712  -5.552  -2.190  1.00  0.00     0.001 A 
HETATM   22  C21 UNL     1      -8.774  -4.692  -2.305  1.00  0.00     0.009 A 
ENDBRANCH  16  17
BRANCH   1  23
HETATM   23  C2  UNL     1     -11.351  -4.731  -4.526  1.00  0.00     0.120 C 
HETATM   24  C1  UNL     1     -11.809  -6.159  -4.775  1.00  0.00     0.026 C 
ENDBRANCH   1  23
TORSDOF 2
ENDMDL
