MODEL 1
REMARK VINA RESULT: -9.925344032      0.000      0.000
REMARK  2 active torsions:
REMARK  status: ('A' for Active; 'I' for Inactive)
REMARK    1  A    between atoms: C2_2  and  N1_3 
REMARK    2  A    between atoms: C15_18  and  C16_19 
ROOT
HETATM    1  N1  UNL     1     -10.463  -3.370  -0.418  1.00  0.00    -0.367 N 
HETATM    2  C3  UNL     1     -10.610  -2.082   0.208  1.00  0.00     0.044 A 
HETATM    3  C4  UNL     1      -9.797  -1.665   1.231  1.00  0.00     0.056 A 
HETATM    4  C5  UNL     1      -9.953  -0.415   1.826  1.00  0.00     0.048 A 
HETATM    5  N2  UNL     1      -9.082  -0.029   2.888  1.00  0.00    -0.102 NA
HETATM    6  C6  UNL     1     -10.947   0.398   1.358  1.00  0.00     0.027 A 
HETATM    7  C7  UNL     1     -11.784   0.016   0.331  1.00  0.00     0.016 A 
HETATM    8  C8  UNL     1     -11.617  -1.221  -0.244  1.00  0.00     0.001 A 
HETATM    9  C9  UNL     1     -12.457  -1.684  -1.362  1.00  0.00    -0.015 A 
HETATM   10  C10 UNL     1     -13.592  -0.938  -1.680  1.00  0.00     0.015 A 
HETATM   11  C11 UNL     1     -14.497  -1.429  -2.590  1.00  0.00     0.027 A 
HETATM   12  C12 UNL     1     -14.274  -2.665  -3.185  1.00  0.00     0.047 A 
HETATM   13  N3  UNL     1     -15.208  -3.163  -4.118  1.00  0.00    -0.102 NA
HETATM   14  C13 UNL     1     -13.146  -3.402  -2.869  1.00  0.00     0.037 A 
HETATM   15  C14 UNL     1     -12.242  -2.907  -1.962  1.00  0.00    -0.018 A 
HETATM   16  C15 UNL     1     -10.924  -3.554  -1.737  1.00  0.00     0.152 C 
ENDROOT
BRANCH  16  17
HETATM   17  C16 UNL     1     -10.800  -4.899  -2.308  1.00  0.00    -0.031 A 
HETATM   18  C17 UNL     1      -9.895  -5.072  -3.356  1.00  0.00     0.009 A 
HETATM   19  C18 UNL     1      -9.692  -6.280  -3.980  1.00  0.00     0.001 A 
HETATM   20  C19 UNL     1     -10.401  -7.373  -3.568  1.00  0.00     0.000 A 
HETATM   21  C20 UNL     1     -11.296  -7.206  -2.533  1.00  0.00     0.001 A 
HETATM   22  C21 UNL     1     -11.507  -6.006  -1.902  1.00  0.00     0.009 A 
ENDBRANCH  16  17
BRANCH   1  23
HETATM   23  C2  UNL     1      -9.891  -4.412   0.410  1.00  0.00     0.120 C 
HETATM   24  C1  UNL     1      -8.422  -4.678   0.122  1.00  0.00     0.026 C 
ENDBRANCH   1  23
TORSDOF 2
ENDMDL
