MODEL 3
REMARK VINA RESULT: -8.916988651      1.842      4.947
REMARK  2 active torsions:
REMARK  status: ('A' for Active; 'I' for Inactive)
REMARK    1  A    between atoms: C2_2  and  N1_3 
REMARK    2  A    between atoms: C15_18  and  C16_19 
ROOT
HETATM    1  N1  UNL     1     -11.202  -4.101  -2.202  1.00  0.00    -0.367 N 
HETATM    2  C3  UNL     1      -9.960  -4.371  -1.524  1.00  0.00     0.044 A 
HETATM    3  C4  UNL     1      -9.210  -5.489  -1.784  1.00  0.00     0.056 A 
HETATM    4  C5  UNL     1      -8.011  -5.735  -1.118  1.00  0.00     0.048 A 
HETATM    5  N2  UNL     1      -7.267  -6.915  -1.423  1.00  0.00    -0.102 NA
HETATM    6  C6  UNL     1      -7.595  -4.824  -0.189  1.00  0.00     0.027 A 
HETATM    7  C7  UNL     1      -8.320  -3.688   0.100  1.00  0.00     0.016 A 
HETATM    8  C8  UNL     1      -9.501  -3.460  -0.565  1.00  0.00     0.001 A 
HETATM    9  C9  UNL     1     -10.314  -2.255  -0.326  1.00  0.00    -0.015 A 
HETATM   10  C10 UNL     1      -9.988  -1.452   0.766  1.00  0.00     0.015 A 
HETATM   11  C11 UNL     1     -10.826  -0.425   1.131  1.00  0.00     0.027 A 
HETATM   12  C12 UNL     1     -11.990  -0.197   0.409  1.00  0.00     0.047 A 
HETATM   13  N3  UNL     1     -12.845   0.859   0.789  1.00  0.00    -0.102 NA
HETATM   14  C13 UNL     1     -12.310  -0.994  -0.676  1.00  0.00     0.037 A 
HETATM   15  C14 UNL     1     -11.470  -2.016  -1.040  1.00  0.00    -0.018 A 
HETATM   16  C15 UNL     1     -11.656  -2.771  -2.306  1.00  0.00     0.152 C 
ENDROOT
BRANCH  16  17
HETATM   17  C16 UNL     1     -12.952  -2.556  -2.959  1.00  0.00    -0.031 A 
HETATM   18  C17 UNL     1     -12.959  -1.824  -4.149  1.00  0.00     0.009 A 
HETATM   19  C18 UNL     1     -14.109  -1.549  -4.851  1.00  0.00     0.001 A 
HETATM   20  C19 UNL     1     -15.307  -2.003  -4.378  1.00  0.00     0.000 A 
HETATM   21  C20 UNL     1     -15.303  -2.725  -3.204  1.00  0.00     0.001 A 
HETATM   22  C21 UNL     1     -14.163  -3.007  -2.493  1.00  0.00     0.009 A 
ENDBRANCH  16  17
BRANCH   1  23
HETATM   23  C2  UNL     1     -11.925  -5.261  -2.680  1.00  0.00     0.120 C 
HETATM   24  C1  UNL     1     -11.813  -5.470  -4.182  1.00  0.00     0.026 C 
ENDBRANCH   1  23
TORSDOF 2
ENDMDL
