MODEL 2
REMARK VINA RESULT: -9.833724443      0.990      1.144
REMARK  2 active torsions:
REMARK  status: ('A' for Active; 'I' for Inactive)
REMARK    1  A    between atoms: C2_2  and  N1_3 
REMARK    2  A    between atoms: C15_18  and  C16_19 
ROOT
HETATM    1  N1  UNL     1     -10.412  -3.538  -1.320  1.00  0.00    -0.367 N 
HETATM    2  C3  UNL     1     -10.736  -2.383  -0.523  1.00  0.00     0.044 A 
HETATM    3  C4  UNL     1     -10.017  -2.034   0.591  1.00  0.00     0.056 A 
HETATM    4  C5  UNL     1     -10.345  -0.913   1.351  1.00  0.00     0.048 A 
HETATM    5  N2  UNL     1      -9.566  -0.592   2.503  1.00  0.00    -0.102 NA
HETATM    6  C6  UNL     1     -11.412  -0.159   0.952  1.00  0.00     0.027 A 
HETATM    7  C7  UNL     1     -12.159  -0.475  -0.162  1.00  0.00     0.016 A 
HETATM    8  C8  UNL     1     -11.823  -1.585  -0.899  1.00  0.00     0.001 A 
HETATM    9  C9  UNL     1     -12.560  -1.969  -2.116  1.00  0.00    -0.015 A 
HETATM   10  C10 UNL     1     -13.765  -1.319  -2.384  1.00  0.00     0.015 A 
HETATM   11  C11 UNL     1     -14.570  -1.769  -3.402  1.00  0.00     0.027 A 
HETATM   12  C12 UNL     1     -14.177  -2.868  -4.156  1.00  0.00     0.047 A 
HETATM   13  N3  UNL     1     -15.010  -3.324  -5.200  1.00  0.00    -0.102 NA
HETATM   14  C13 UNL     1     -12.981  -3.510  -3.890  1.00  0.00     0.037 A 
HETATM   15  C14 UNL     1     -12.177  -3.056  -2.874  1.00  0.00    -0.018 A 
HETATM   16  C15 UNL     1     -10.799  -3.574  -2.674  1.00  0.00     0.152 C 
ENDROOT
BRANCH  16  17
HETATM   17  C16 UNL     1     -10.492  -4.796  -3.426  1.00  0.00    -0.031 A 
HETATM   18  C17 UNL     1      -9.431  -4.744  -4.331  1.00  0.00     0.009 A 
HETATM   19  C18 UNL     1      -9.049  -5.818  -5.100  1.00  0.00     0.001 A 
HETATM   20  C19 UNL     1      -9.729  -6.998  -4.985  1.00  0.00     0.000 A 
HETATM   21  C20 UNL     1     -10.777  -7.052  -4.092  1.00  0.00     0.001 A 
HETATM   22  C21 UNL     1     -11.168  -5.988  -3.319  1.00  0.00     0.009 A 
ENDBRANCH  16  17
BRANCH   1  23
HETATM   23  C2  UNL     1      -9.747  -4.620  -0.621  1.00  0.00     0.120 C 
HETATM   24  C1  UNL     1     -10.696  -5.498   0.179  1.00  0.00     0.026 C 
ENDBRANCH   1  23
TORSDOF 2
ENDMDL
