MODEL 5
REMARK VINA RESULT: -8.559566233      1.927      4.937
REMARK  2 active torsions:
REMARK  status: ('A' for Active; 'I' for Inactive)
REMARK    1  A    between atoms: C2_2  and  N1_3 
REMARK    2  A    between atoms: C15_18  and  C16_19 
ROOT
HETATM    1  N1  UNL     1     -12.227  -5.114  -2.685  1.00  0.00    -0.367 N 
HETATM    2  C3  UNL     1     -12.809  -3.813  -2.478  1.00  0.00     0.044 A 
HETATM    3  C4  UNL     1     -13.942  -3.404  -3.133  1.00  0.00     0.056 A 
HETATM    4  C5  UNL     1     -14.492  -2.141  -2.921  1.00  0.00     0.048 A 
HETATM    5  N2  UNL     1     -15.672  -1.761  -3.629  1.00  0.00    -0.102 NA
HETATM    6  C6  UNL     1     -13.869  -1.311  -2.032  1.00  0.00     0.027 A 
HETATM    7  C7  UNL     1     -12.730  -1.687  -1.353  1.00  0.00     0.016 A 
HETATM    8  C8  UNL     1     -12.200  -2.935  -1.575  1.00  0.00     0.001 A 
HETATM    9  C9  UNL     1     -10.999  -3.413  -0.865  1.00  0.00    -0.015 A 
HETATM   10  C10 UNL     1     -10.261  -2.486  -0.130  1.00  0.00     0.015 A 
HETATM   11  C11 UNL     1      -9.043  -2.846   0.394  1.00  0.00     0.027 A 
HETATM   12  C12 UNL     1      -8.558  -4.131   0.187  1.00  0.00     0.047 A 
HETATM   13  N3  UNL     1      -7.306  -4.493   0.728  1.00  0.00    -0.102 NA
HETATM   14  C13 UNL     1      -9.293  -5.050  -0.541  1.00  0.00     0.037 A 
HETATM   15  C14 UNL     1     -10.511  -4.688  -1.060  1.00  0.00    -0.018 A 
HETATM   16  C15 UNL     1     -11.429  -5.683  -1.672  1.00  0.00     0.152 C 
ENDROOT
BRANCH  16  17
HETATM   17  C16 UNL     1     -10.816  -6.985  -1.955  1.00  0.00    -0.031 A 
HETATM   18  C17 UNL     1     -11.475  -8.122  -1.484  1.00  0.00     0.009 A 
HETATM   19  C18 UNL     1     -10.999  -9.397  -1.678  1.00  0.00     0.001 A 
HETATM   20  C19 UNL     1      -9.829  -9.579  -2.359  1.00  0.00     0.000 A 
HETATM   21  C20 UNL     1      -9.176  -8.458  -2.825  1.00  0.00     0.001 A 
HETATM   22  C21 UNL     1      -9.640  -7.180  -2.640  1.00  0.00     0.009 A 
ENDBRANCH  16  17
BRANCH   1  23
HETATM   23  C2  UNL     1     -12.471  -5.716  -3.980  1.00  0.00     0.120 C 
HETATM   24  C1  UNL     1     -11.512  -5.242  -5.060  1.00  0.00     0.026 C 
ENDBRANCH   1  23
TORSDOF 2
ENDMDL
