MODEL 4
REMARK VINA RESULT: -6.163208671      4.013      7.671
REMARK  16 active torsions:
REMARK  status: ('A' for Active; 'I' for Inactive)
REMARK    1  A    between atoms: C2_2  and  C3_3 
REMARK    2  A    between atoms: C3_3  and  C4_4 
REMARK    3  A    between atoms: C4_4  and  C5_5 
REMARK    4  A    between atoms: C5_5  and  C6_6 
REMARK    5  A    between atoms: C6_6  and  S1_7 
REMARK    6  A    between atoms: S1_7  and  C7_8 
REMARK    7  A    between atoms: C7_8  and  C8_9 
REMARK    8  A    between atoms: C8_9  and  N1_10 
REMARK    9  A    between atoms: C8_9  and  C14_24 
REMARK       I    between atoms: N1_10  and  C9_12 
REMARK   10  A    between atoms: C9_12  and  C10_14 
REMARK   11  A    between atoms: C10_14  and  C11_15 
REMARK   12  A    between atoms: C11_15  and  C12_16 
REMARK   13  A    between atoms: C12_16  and  N2_17 
REMARK   14  A    between atoms: C12_16  and  C13_21 
REMARK       I    between atoms: C14_24  and  N3_26 
REMARK   15  A    between atoms: N3_26  and  C15_28 
REMARK   16  A    between atoms: C15_28  and  C16_29 
ROOT
HETATM    1  C8  UNL     1     -43.923   0.642 -34.991  1.00  0.00     0.185 C 
ENDROOT
BRANCH   1   2
HETATM    2  C7  UNL     1     -43.238   0.163 -33.748  1.00  0.00     0.108 C 
BRANCH   2   3
HETATM    3  S1  UNL     1     -41.792   1.226 -33.471  1.00  0.00    -0.167 SA
BRANCH   3   4
HETATM    4  C6  UNL     1     -40.959   0.789 -31.930  1.00  0.00     0.074 C 
BRANCH   4   5
HETATM    5  C5  UNL     1     -39.741  -0.053 -32.326  1.00  0.00     0.010 C 
BRANCH   5   6
HETATM    6  C4  UNL     1     -40.183  -1.495 -32.185  1.00  0.00     0.001 C 
BRANCH   6   7
HETATM    7  C3  UNL     1     -39.566  -2.292 -33.303  1.00  0.00    -0.000 C 
BRANCH   7   8
HETATM    8  C2  UNL     1     -40.480  -3.458 -33.637  1.00  0.00    -0.005 C 
HETATM    9  C1  UNL     1     -41.903  -2.998 -33.327  1.00  0.00     0.005 C 
ENDBRANCH   7   8
ENDBRANCH   6   7
ENDBRANCH   5   6
ENDBRANCH   4   5
ENDBRANCH   3   4
ENDBRANCH   2   3
ENDBRANCH   1   2
BRANCH   1  10
HETATM   10  N1  UNL     1     -44.489   1.944 -34.675  1.00  0.00    -0.347 N 
HETATM   11  C9  UNL     1     -44.566   3.024 -35.583  1.00  0.00     0.218 C 
HETATM   12  O1  UNL     1     -44.119   2.854 -36.744  1.00  0.00    -0.274 OA
ATOM     13  H1  UNL     1     -44.854   2.088 -33.733  1.00  0.00     0.163 HD
BRANCH  11  14
HETATM   14  C10 UNL     1     -45.167   4.338 -35.167  1.00  0.00     0.105 C 
BRANCH  14  15
HETATM   15  C11 UNL     1     -44.365   4.856 -34.005  1.00  0.00     0.053 C 
BRANCH  15  16
HETATM   16  C12 UNL     1     -43.311   5.827 -34.532  1.00  0.00     0.283 C 
BRANCH  16  17
HETATM   17  N2  UNL     1     -41.987   5.257 -34.397  1.00  0.00    -0.065 N 
ATOM     18  H23 UNL     1     -41.831   4.876 -33.463  1.00  0.00     0.275 HD
ATOM     19  H22 UNL     1     -41.889   4.393 -34.931  1.00  0.00     0.275 HD
ATOM     20  H21 UNL     1     -41.277   5.944 -34.651  1.00  0.00     0.275 HD
ENDBRANCH  16  17
BRANCH  16  21
HETATM   21  C13 UNL     1     -43.436   7.109 -33.818  1.00  0.00     0.204 C 
HETATM   22  O2  UNL     1     -44.433   7.852 -33.920  1.00  0.00    -0.646 OA
HETATM   23  O3  UNL     1     -42.383   7.506 -32.984  1.00  0.00    -0.646 OA
ENDBRANCH  16  21
ENDBRANCH  15  16
ENDBRANCH  14  15
ENDBRANCH  11  14
ENDBRANCH   1  10
BRANCH   1  24
HETATM   24  C14 UNL     1     -44.971  -0.224 -35.497  1.00  0.00     0.241 C 
HETATM   25  O4  UNL     1     -44.980  -1.434 -35.153  1.00  0.00    -0.271 OA
HETATM   26  N3  UNL     1     -46.018   0.175 -36.369  1.00  0.00    -0.349 N 
ATOM     27  H3  UNL     1     -46.067   1.144 -36.685  1.00  0.00     0.163 HD
BRANCH  26  28
HETATM   28  C15 UNL     1     -47.019  -0.774 -36.818  1.00  0.00     0.235 C 
BRANCH  28  29
HETATM   29  C16 UNL     1     -47.311  -0.597 -38.270  1.00  0.00     0.191 C 
HETATM   30  O5  UNL     1     -46.446  -0.886 -39.126  1.00  0.00    -0.647 OA
HETATM   31  O6  UNL     1     -48.527  -0.115 -38.697  1.00  0.00    -0.647 OA
ENDBRANCH  28  29
ENDBRANCH  26  28
ENDBRANCH   1  24
TORSDOF 16
ENDMDL
