MODEL 3
REMARK VINA RESULT: -6.181595512      9.951     14.057
REMARK  16 active torsions:
REMARK  status: ('A' for Active; 'I' for Inactive)
REMARK    1  A    between atoms: C2_2  and  C3_3 
REMARK    2  A    between atoms: C3_3  and  C4_4 
REMARK    3  A    between atoms: C4_4  and  C5_5 
REMARK    4  A    between atoms: C5_5  and  C6_6 
REMARK    5  A    between atoms: C6_6  and  S1_7 
REMARK    6  A    between atoms: S1_7  and  C7_8 
REMARK    7  A    between atoms: C7_8  and  C8_9 
REMARK    8  A    between atoms: C8_9  and  N1_10 
REMARK    9  A    between atoms: C8_9  and  C14_24 
REMARK       I    between atoms: N1_10  and  C9_12 
REMARK   10  A    between atoms: C9_12  and  C10_14 
REMARK   11  A    between atoms: C10_14  and  C11_15 
REMARK   12  A    between atoms: C11_15  and  C12_16 
REMARK   13  A    between atoms: C12_16  and  N2_17 
REMARK   14  A    between atoms: C12_16  and  C13_21 
REMARK       I    between atoms: C14_24  and  N3_26 
REMARK   15  A    between atoms: N3_26  and  C15_28 
REMARK   16  A    between atoms: C15_28  and  C16_29 
ROOT
HETATM    1  C8  UNL     1     -32.996   9.293 -30.681  1.00  0.00     0.185 C 
ENDROOT
BRANCH   1   2
HETATM    2  C7  UNL     1     -33.136   9.923 -29.329  1.00  0.00     0.108 C 
BRANCH   2   3
HETATM    3  S1  UNL     1     -32.238   8.884 -28.142  1.00  0.00    -0.167 SA
BRANCH   3   4
HETATM    4  C6  UNL     1     -32.033   9.739 -26.565  1.00  0.00     0.074 C 
BRANCH   4   5
HETATM    5  C5  UNL     1     -30.629  10.357 -26.593  1.00  0.00     0.010 C 
BRANCH   5   6
HETATM    6  C4  UNL     1     -29.865   9.576 -27.641  1.00  0.00     0.001 C 
BRANCH   6   7
HETATM    7  C3  UNL     1     -28.402   9.616 -27.291  1.00  0.00    -0.000 C 
BRANCH   7   8
HETATM    8  C2  UNL     1     -27.616   8.905 -28.378  1.00  0.00    -0.005 C 
HETATM    9  C1  UNL     1     -28.607   8.003 -29.111  1.00  0.00     0.005 C 
ENDBRANCH   7   8
ENDBRANCH   6   7
ENDBRANCH   5   6
ENDBRANCH   4   5
ENDBRANCH   3   4
ENDBRANCH   2   3
ENDBRANCH   1   2
BRANCH   1  10
HETATM   10  N1  UNL     1     -33.336   7.889 -30.518  1.00  0.00    -0.347 N 
HETATM   11  C9  UNL     1     -34.655   7.381 -30.510  1.00  0.00     0.218 C 
HETATM   12  O1  UNL     1     -35.603   8.194 -30.652  1.00  0.00    -0.274 OA
ATOM     13  H1  UNL     1     -32.571   7.225 -30.403  1.00  0.00     0.163 HD
BRANCH  11  14
HETATM   14  C10 UNL     1     -34.913   5.911 -30.334  1.00  0.00     0.105 C 
BRANCH  14  15
HETATM   15  C11 UNL     1     -34.150   5.184 -31.408  1.00  0.00     0.053 C 
BRANCH  15  16
HETATM   16  C12 UNL     1     -34.874   5.376 -32.738  1.00  0.00     0.283 C 
BRANCH  16  17
HETATM   17  N2  UNL     1     -35.531   4.149 -33.137  1.00  0.00    -0.065 N 
ATOM     18  H23 UNL     1     -36.367   3.968 -32.580  1.00  0.00     0.275 HD
ATOM     19  H22 UNL     1     -35.975   4.236 -34.051  1.00  0.00     0.275 HD
ATOM     20  H21 UNL     1     -34.876   3.368 -33.105  1.00  0.00     0.275 HD
ENDBRANCH  16  17
BRANCH  16  21
HETATM   21  C13 UNL     1     -33.909   5.840 -33.750  1.00  0.00     0.204 C 
HETATM   22  O2  UNL     1     -33.586   5.160 -34.744  1.00  0.00    -0.646 OA
HETATM   23  O3  UNL     1     -33.333   7.105 -33.582  1.00  0.00    -0.646 OA
ENDBRANCH  16  21
ENDBRANCH  15  16
ENDBRANCH  14  15
ENDBRANCH  11  14
ENDBRANCH   1  10
BRANCH   1  24
HETATM   24  C14 UNL     1     -31.682   9.401 -31.284  1.00  0.00     0.241 C 
HETATM   25  O4  UNL     1     -30.989  10.425 -31.057  1.00  0.00    -0.271 OA
HETATM   26  N3  UNL     1     -31.085   8.430 -32.132  1.00  0.00    -0.349 N 
ATOM     27  H3  UNL     1     -31.595   7.576 -32.355  1.00  0.00     0.163 HD
BRANCH  26  28
HETATM   28  C15 UNL     1     -29.760   8.636 -32.685  1.00  0.00     0.235 C 
BRANCH  28  29
HETATM   29  C16 UNL     1     -29.637   8.000 -34.030  1.00  0.00     0.191 C 
HETATM   30  O5  UNL     1     -30.660   7.771 -34.713  1.00  0.00    -0.647 OA
HETATM   31  O6  UNL     1     -28.408   7.655 -34.544  1.00  0.00    -0.647 OA
ENDBRANCH  28  29
ENDBRANCH  26  28
ENDBRANCH   1  24
TORSDOF 16
ENDMDL
