MODEL 2
REMARK VINA RESULT: -5.998464860      9.029     10.061
REMARK  9 active torsions:
REMARK  status: ('A' for Active; 'I' for Inactive)
REMARK    1  A    between atoms: C2_2  and  C3_3 
REMARK    2  A    between atoms: C2_2  and  C8_15 
REMARK    3  A    between atoms: C3_3  and  C4_4 
REMARK    4  A    between atoms: C4_4  and  C5_5 
REMARK       I    between atoms: C5_5  and  N1_7 
REMARK    5  A    between atoms: N1_7  and  C6_9 
REMARK    6  A    between atoms: C6_9  and  C7_10 
REMARK    7  A    between atoms: C7_10  and  S1_11 
REMARK    8  A    between atoms: C17_24  and  O5_25 
REMARK    9  A    between atoms: C24_33  and  O6_34 
ROOT
HETATM    1  C8  UNL     1      -3.538  14.694  -6.903  1.00  0.00     0.000 C 
HETATM    2  C9  UNL     1      -4.201  13.330  -6.878  1.00  0.00     0.006 C 
HETATM    3  C10 UNL     1      -3.437  12.518  -5.849  1.00  0.00     0.006 C 
HETATM    4  C11 UNL     1      -2.937  13.593  -4.965  1.00  0.00     0.001 C 
HETATM    5  C12 UNL     1      -2.004  13.218  -3.899  1.00  0.00    -0.005 C 
HETATM    6  C13 UNL     1      -2.785  12.345  -2.906  1.00  0.00     0.006 C 
HETATM    7  C14 UNL     1      -2.203  12.419  -1.531  1.00  0.00     0.006 C 
HETATM    8  C15 UNL     1      -0.733  12.772  -1.522  1.00  0.00    -0.004 C 
HETATM    9  C16 UNL     1      -0.282  12.783  -0.091  1.00  0.00     0.037 C 
HETATM   10  C17 UNL     1       0.978  13.555   0.137  1.00  0.00     0.118 C 
HETATM   11  C18 UNL     1       0.890  14.975  -0.319  1.00  0.00     0.032 C 
HETATM   12  C19 UNL     1      -0.401  15.149  -1.126  1.00  0.00     0.012 C 
HETATM   13  C20 UNL     1      -0.478  14.098  -2.224  1.00  0.00    -0.036 C 
HETATM   14  C21 UNL     1       0.779  14.047  -3.040  1.00  0.00     0.016 C 
HETATM   15  C22 UNL     1      -1.625  14.464  -3.126  1.00  0.00     0.001 C 
HETATM   16  C23 UNL     1      -1.286  15.626  -3.974  1.00  0.00     0.038 C 
HETATM   17  C24 UNL     1      -2.178  15.862  -5.144  1.00  0.00     0.127 C 
HETATM   18  C25 UNL     1      -2.378  14.607  -5.972  1.00  0.00    -0.010 C 
HETATM   19  C26 UNL     1      -1.088  14.175  -6.557  1.00  0.00     0.018 C 
ENDROOT
BRANCH   1  20
HETATM   20  C2  UNL     1      -3.310  15.078  -8.297  1.00  0.00    -0.013 C 
HETATM   21  C1  UNL     1      -3.355  16.534  -8.620  1.00  0.00     0.010 C 
BRANCH  20  22
HETATM   22  C3  UNL     1      -4.357  14.390  -9.163  1.00  0.00     0.014 C 
BRANCH  22  23
HETATM   23  C4  UNL     1      -3.829  13.955 -10.496  1.00  0.00     0.103 C 
BRANCH  23  24
HETATM   24  C5  UNL     1      -4.947  14.036 -11.489  1.00  0.00     0.217 C 
HETATM   25  O1  UNL     1      -5.409  12.991 -11.999  1.00  0.00    -0.274 OA
HETATM   26  N1  UNL     1      -5.429  15.330 -11.800  1.00  0.00    -0.360 N 
ATOM     27  H1  UNL     1      -5.023  16.155 -11.361  1.00  0.00     0.162 HD
BRANCH  26  28
HETATM   28  C6  UNL     1      -6.507  15.458 -12.751  1.00  0.00     0.140 C 
BRANCH  28  29
HETATM   29  C7  UNL     1      -6.400  16.732 -13.571  1.00  0.00     0.184 C 
BRANCH  29  30
HETATM   30  S1  UNL     1      -7.746  17.834 -13.144  1.00  0.00     0.103 S 
HETATM   31  O2  UNL     1      -8.743  17.099 -12.273  1.00  0.00    -0.595 OA
HETATM   32  O3  UNL     1      -7.188  18.957 -12.332  1.00  0.00    -0.595 OA
HETATM   33  O4  UNL     1      -8.527  18.370 -14.514  1.00  0.00    -0.595 OA
ENDBRANCH  29  30
ENDBRANCH  28  29
ENDBRANCH  26  28
ENDBRANCH  23  24
ENDBRANCH  22  23
ENDBRANCH  20  22
ENDBRANCH   1  20
BRANCH  17  34
HETATM   34  O6  UNL     1      -3.430  16.396  -4.760  1.00  0.00    -0.395 OA
ATOM     35  H6  UNL     1      -4.156  15.913  -5.138  1.00  0.00     0.210 HD
ENDBRANCH  17  34
BRANCH  10  36
HETATM   36  O5  UNL     1       1.212  13.566   1.524  1.00  0.00    -0.396 OA
ATOM     37  H5  UNL     1       1.929  12.966   1.691  1.00  0.00     0.210 HD
ENDBRANCH  10  36
TORSDOF 9
ENDMDL
