MODEL 1
REMARK VINA RESULT: -6.096033389      0.000      0.000
REMARK  9 active torsions:
REMARK  status: ('A' for Active; 'I' for Inactive)
REMARK    1  A    between atoms: C2_2  and  C3_3 
REMARK    2  A    between atoms: C2_2  and  C8_15 
REMARK    3  A    between atoms: C3_3  and  C4_4 
REMARK    4  A    between atoms: C4_4  and  C5_5 
REMARK       I    between atoms: C5_5  and  N1_7 
REMARK    5  A    between atoms: N1_7  and  C6_9 
REMARK    6  A    between atoms: C6_9  and  C7_10 
REMARK    7  A    between atoms: C7_10  and  S1_11 
REMARK    8  A    between atoms: C17_24  and  O5_25 
REMARK    9  A    between atoms: C24_33  and  O6_34 
ROOT
HETATM    1  C8  UNL     1      -3.407   5.786  -1.495  1.00  0.00     0.000 C 
HETATM    2  C9  UNL     1      -2.086   6.203  -2.112  1.00  0.00     0.006 C 
HETATM    3  C10 UNL     1      -1.759   7.558  -1.511  1.00  0.00     0.006 C 
HETATM    4  C11 UNL     1      -2.469   7.464  -0.217  1.00  0.00     0.001 C 
HETATM    5  C12 UNL     1      -2.519   8.666   0.619  1.00  0.00    -0.005 C 
HETATM    6  C13 UNL     1      -1.081   8.952   1.080  1.00  0.00     0.006 C 
HETATM    7  C14 UNL     1      -1.057   9.701   2.374  1.00  0.00     0.006 C 
HETATM    8  C15 UNL     1      -2.304  10.520   2.616  1.00  0.00    -0.004 C 
HETATM    9  C16 UNL     1      -2.129  11.232   3.925  1.00  0.00     0.037 C 
HETATM   10  C17 UNL     1      -3.413  11.691   4.537  1.00  0.00     0.118 C 
HETATM   11  C18 UNL     1      -4.392  10.584   4.753  1.00  0.00     0.032 C 
HETATM   12  C19 UNL     1      -3.876   9.330   4.041  1.00  0.00     0.012 C 
HETATM   13  C20 UNL     1      -3.551   9.649   2.588  1.00  0.00    -0.036 C 
HETATM   14  C21 UNL     1      -4.687  10.348   1.902  1.00  0.00     0.016 C 
HETATM   15  C22 UNL     1      -3.289   8.346   1.883  1.00  0.00     0.001 C 
HETATM   16  C23 UNL     1      -4.544   7.600   1.657  1.00  0.00     0.038 C 
HETATM   17  C24 UNL     1      -4.473   6.487   0.668  1.00  0.00     0.127 C 
HETATM   18  C25 UNL     1      -3.842   6.926  -0.640  1.00  0.00    -0.010 C 
HETATM   19  C26 UNL     1      -4.683   7.958  -1.286  1.00  0.00     0.018 C 
ENDROOT
BRANCH   1  20
HETATM   20  C2  UNL     1      -4.291   5.312  -2.560  1.00  0.00    -0.013 C 
HETATM   21  C1  UNL     1      -4.924   3.973  -2.376  1.00  0.00     0.010 C 
BRANCH  20  22
HETATM   22  C3  UNL     1      -3.497   5.262  -3.859  1.00  0.00     0.014 C 
BRANCH  22  23
HETATM   23  C4  UNL     1      -4.197   5.923  -5.006  1.00  0.00     0.103 C 
BRANCH  23  24
HETATM   24  C5  UNL     1      -4.015   5.066  -6.220  1.00  0.00     0.217 C 
HETATM   25  O1  UNL     1      -2.955   4.422  -6.380  1.00  0.00    -0.274 OA
HETATM   26  N1  UNL     1      -5.089   5.033  -7.142  1.00  0.00    -0.360 N 
ATOM     27  H1  UNL     1      -5.937   5.574  -6.972  1.00  0.00     0.162 HD
BRANCH  26  28
HETATM   28  C6  UNL     1      -4.961   4.219  -8.327  1.00  0.00     0.140 C 
BRANCH  28  29
HETATM   29  C7  UNL     1      -6.203   3.384  -8.586  1.00  0.00     0.184 C 
BRANCH  29  30
HETATM   30  S1  UNL     1      -7.634   4.455  -8.693  1.00  0.00     0.103 S 
HETATM   31  O2  UNL     1      -8.627   3.876  -9.679  1.00  0.00    -0.595 OA
HETATM   32  O3  UNL     1      -8.297   4.481  -7.355  1.00  0.00    -0.595 OA
HETATM   33  O4  UNL     1      -7.195   5.976  -9.211  1.00  0.00    -0.595 OA
ENDBRANCH  29  30
ENDBRANCH  28  29
ENDBRANCH  26  28
ENDBRANCH  23  24
ENDBRANCH  22  23
ENDBRANCH  20  22
ENDBRANCH   1  20
BRANCH  17  34
HETATM   34  O6  UNL     1      -3.792   5.360   1.183  1.00  0.00    -0.395 OA
ATOM     35  H6  UNL     1      -4.331   4.859   1.783  1.00  0.00     0.210 HD
ENDBRANCH  17  34
BRANCH  10  36
HETATM   36  O5  UNL     1      -3.100  12.237   5.795  1.00  0.00    -0.396 OA
ATOM     37  H5  UNL     1      -3.653  13.000   5.914  1.00  0.00     0.210 HD
ENDBRANCH  10  36
TORSDOF 9
ENDMDL
