MODEL 3
REMARK VINA RESULT: -5.997627058      1.623      2.795
REMARK  9 active torsions:
REMARK  status: ('A' for Active; 'I' for Inactive)
REMARK    1  A    between atoms: C2_2  and  C3_3 
REMARK    2  A    between atoms: C2_2  and  C8_15 
REMARK    3  A    between atoms: C3_3  and  C4_4 
REMARK    4  A    between atoms: C4_4  and  C5_5 
REMARK       I    between atoms: C5_5  and  N1_7 
REMARK    5  A    between atoms: N1_7  and  C6_9 
REMARK    6  A    between atoms: C6_9  and  C7_10 
REMARK    7  A    between atoms: C7_10  and  S1_11 
REMARK    8  A    between atoms: C17_24  and  O5_25 
REMARK    9  A    between atoms: C24_33  and  O6_34 
ROOT
HETATM    1  C8  UNL     1      -3.554   8.230  -2.209  1.00  0.00     0.000 C 
HETATM    2  C9  UNL     1      -4.906   7.614  -1.907  1.00  0.00     0.006 C 
HETATM    3  C10 UNL     1      -4.992   7.527  -0.394  1.00  0.00     0.006 C 
HETATM    4  C11 UNL     1      -4.098   8.638  -0.003  1.00  0.00     0.001 C 
HETATM    5  C12 UNL     1      -3.792   8.794   1.422  1.00  0.00    -0.005 C 
HETATM    6  C13 UNL     1      -5.100   9.194   2.121  1.00  0.00     0.006 C 
HETATM    7  C14 UNL     1      -4.841   9.973   3.370  1.00  0.00     0.006 C 
HETATM    8  C15 UNL     1      -3.494   9.680   3.989  1.00  0.00    -0.004 C 
HETATM    9  C16 UNL     1      -3.384  10.504   5.239  1.00  0.00     0.037 C 
HETATM   10  C17 UNL     1      -1.978  10.702   5.707  1.00  0.00     0.118 C 
HETATM   11  C18 UNL     1      -1.096  11.327   4.676  1.00  0.00     0.032 C 
HETATM   12  C19 UNL     1      -1.845  11.347   3.340  1.00  0.00     0.012 C 
HETATM   13  C20 UNL     1      -2.363   9.955   3.009  1.00  0.00    -0.036 C 
HETATM   14  C21 UNL     1      -1.286   8.917   3.118  1.00  0.00     0.016 C 
HETATM   15  C22 UNL     1      -2.867   9.981   1.592  1.00  0.00     0.001 C 
HETATM   16  C23 UNL     1      -1.748  10.021   0.628  1.00  0.00     0.038 C 
HETATM   17  C24 UNL     1      -2.090   9.691  -0.784  1.00  0.00     0.127 C 
HETATM   18  C25 UNL     1      -2.873   8.397  -0.894  1.00  0.00    -0.010 C 
HETATM   19  C26 UNL     1      -2.044   7.262  -0.426  1.00  0.00     0.018 C 
ENDROOT
BRANCH   1  20
HETATM   20  C2  UNL     1      -2.904   7.441  -3.256  1.00  0.00    -0.013 C 
HETATM   21  C1  UNL     1      -2.336   8.186  -4.419  1.00  0.00     0.010 C 
BRANCH  20  22
HETATM   22  C3  UNL     1      -3.917   6.446  -3.807  1.00  0.00     0.014 C 
BRANCH  22  23
HETATM   23  C4  UNL     1      -3.877   6.328  -5.300  1.00  0.00     0.103 C 
BRANCH  23  24
HETATM   24  C5  UNL     1      -4.290   4.936  -5.668  1.00  0.00     0.217 C 
HETATM   25  O1  UNL     1      -3.858   3.961  -5.015  1.00  0.00    -0.274 OA
HETATM   26  N1  UNL     1      -5.172   4.804  -6.768  1.00  0.00    -0.360 N 
ATOM     27  H1  UNL     1      -5.499   5.627  -7.273  1.00  0.00     0.162 HD
BRANCH  26  28
HETATM   28  C6  UNL     1      -5.598   3.482  -7.160  1.00  0.00     0.140 C 
BRANCH  28  29
HETATM   29  C7  UNL     1      -6.090   3.441  -8.596  1.00  0.00     0.184 C 
BRANCH  29  30
HETATM   30  S1  UNL     1      -7.590   4.407  -8.745  1.00  0.00     0.103 S 
HETATM   31  O2  UNL     1      -8.268   4.500  -7.394  1.00  0.00    -0.595 OA
HETATM   32  O3  UNL     1      -7.210   5.795  -9.149  1.00  0.00    -0.595 OA
HETATM   33  O4  UNL     1      -8.644   3.700  -9.823  1.00  0.00    -0.595 OA
ENDBRANCH  29  30
ENDBRANCH  28  29
ENDBRANCH  26  28
ENDBRANCH  23  24
ENDBRANCH  22  23
ENDBRANCH  20  22
ENDBRANCH   1  20
BRANCH  17  34
HETATM   34  O6  UNL     1      -2.792  10.740  -1.422  1.00  0.00    -0.395 OA
ATOM     35  H6  UNL     1      -3.694  10.506  -1.606  1.00  0.00     0.210 HD
ENDBRANCH  17  34
BRANCH  10  36
HETATM   36  O5  UNL     1      -2.028  11.574   6.811  1.00  0.00    -0.396 OA
ATOM     37  H5  UNL     1      -1.370  11.279   7.430  1.00  0.00     0.210 HD
ENDBRANCH  10  36
TORSDOF 9
ENDMDL
