MODEL 3
REMARK VINA RESULT: -10.114420121      1.602      9.055
REMARK  4 active torsions:
REMARK  status: ('A' for Active; 'I' for Inactive)
REMARK    1  A    between atoms: C6_7  and  N1_8 
REMARK    2  A    between atoms: N2_11  and  C9_12 
REMARK    3  A    between atoms: C9_12  and  O2_13 
REMARK    4  A    between atoms: C9_12  and  C10_15 
ROOT
HETATM    1  N1  UNL     1      14.428   4.027 -36.494  1.00  0.00    -0.378 N 
HETATM    2  C7  UNL     1      15.086   4.414 -35.240  1.00  0.00     0.143 C 
HETATM    3  C8  UNL     1      16.504   3.847 -35.320  1.00  0.00     0.145 C 
HETATM    4  N2  UNL     1      16.304   2.374 -35.175  1.00  0.00    -0.358 N 
HETATM    5  C17 UNL     1      15.450   1.798 -36.166  1.00  0.00     0.145 C 
HETATM    6  C18 UNL     1      14.950   2.861 -37.157  1.00  0.00     0.143 C 
ENDROOT
BRANCH   4   7
HETATM    7  C9  UNL     1      16.971   1.775 -34.109  1.00  0.00     0.148 C 
BRANCH   7   8
HETATM    8  O2  UNL     1      18.243   1.566 -34.332  1.00  0.00    -0.346 OA
ATOM      9  H2  UNL     1      18.586   0.795 -33.897  1.00  0.00     0.219 HD
ENDBRANCH   7   8
BRANCH   7  10
HETATM   10  C10 UNL     1      16.443   1.369 -32.825  1.00  0.00     0.017 A 
HETATM   11  C11 UNL     1      15.076   1.601 -32.584  1.00  0.00     0.018 A 
HETATM   12  C12 UNL     1      14.473   1.251 -31.399  1.00  0.00     0.041 A 
HETATM   13  C13 UNL     1      15.188   0.655 -30.383  1.00  0.00     0.105 A 
HETATM   14  C14 UNL     1      16.527   0.413 -30.584  1.00  0.00     0.105 A 
HETATM   15  O4  UNL     1      14.891   0.190 -29.098  1.00  0.00    -0.323 OA
HETATM   16  C15 UNL     1      17.116   0.778 -31.800  1.00  0.00     0.055 A 
HETATM   17  O3  UNL     1      17.027  -0.187 -29.437  1.00  0.00    -0.323 OA
HETATM   18  C16 UNL     1      15.939  -0.664 -28.659  1.00  0.00     0.352 C 
ENDBRANCH   7  10
ENDBRANCH   4   7
BRANCH   1  19
HETATM   19  C6  UNL     1      13.342   4.788 -36.976  1.00  0.00     0.030 A 
HETATM   20  C5  UNL     1      12.084   4.253 -36.982  1.00  0.00     0.037 A 
HETATM   21  C4  UNL     1      11.001   4.985 -37.442  1.00  0.00    -0.042 A 
HETATM   22  C3  UNL     1       9.562   4.641 -37.547  1.00  0.00     0.047 C 
HETATM   23  C21 UNL     1      11.182   6.269 -37.905  1.00  0.00     0.016 A 
HETATM   24  C2  UNL     1       9.091   5.561 -38.649  1.00  0.00     0.088 C 
HETATM   25  C1  UNL     1       9.867   6.797 -38.331  1.00  0.00     0.160 C 
HETATM   26  O1  UNL     1       9.549   8.002 -38.387  1.00  0.00    -0.292 OA
HETATM   27  C20 UNL     1      12.447   6.813 -37.901  1.00  0.00     0.018 A 
HETATM   28  C19 UNL     1      13.535   6.064 -37.433  1.00  0.00     0.030 A 
ENDBRANCH   1  19
TORSDOF 4
ENDMDL
