MODEL 2
REMARK VINA RESULT: -10.553331945      1.628      9.195
REMARK  4 active torsions:
REMARK  status: ('A' for Active; 'I' for Inactive)
REMARK    1  A    between atoms: C6_7  and  N1_8 
REMARK    2  A    between atoms: N2_11  and  C9_12 
REMARK    3  A    between atoms: C9_12  and  O2_13 
REMARK    4  A    between atoms: C9_12  and  C10_15 
ROOT
HETATM    1  N1  UNL     1      14.258   4.000 -36.379  1.00  0.00    -0.378 N 
HETATM    2  C7  UNL     1      14.887   4.338 -35.097  1.00  0.00     0.143 C 
HETATM    3  C8  UNL     1      16.333   3.853 -35.200  1.00  0.00     0.145 C 
HETATM    4  N2  UNL     1      16.212   2.365 -35.153  1.00  0.00    -0.358 N 
HETATM    5  C17 UNL     1      15.395   1.811 -36.187  1.00  0.00     0.145 C 
HETATM    6  C18 UNL     1      14.844   2.908 -37.111  1.00  0.00     0.143 C 
ENDROOT
BRANCH   4   7
HETATM    7  C9  UNL     1      16.903   1.734 -34.122  1.00  0.00     0.148 C 
BRANCH   7   8
HETATM    8  O2  UNL     1      18.158   1.488 -34.401  1.00  0.00    -0.346 OA
ATOM      9  H2  UNL     1      18.772   1.953 -33.845  1.00  0.00     0.219 HD
ENDBRANCH   7   8
BRANCH   7  10
HETATM   10  C10 UNL     1      16.417   1.330 -32.821  1.00  0.00     0.017 A 
HETATM   11  C11 UNL     1      15.063   1.580 -32.529  1.00  0.00     0.018 A 
HETATM   12  C12 UNL     1      14.499   1.234 -31.324  1.00  0.00     0.041 A 
HETATM   13  C13 UNL     1      15.242   0.623 -30.338  1.00  0.00     0.105 A 
HETATM   14  C14 UNL     1      16.570   0.363 -30.589  1.00  0.00     0.105 A 
HETATM   15  O4  UNL     1      14.986   0.157 -29.044  1.00  0.00    -0.323 OA
HETATM   16  C15 UNL     1      17.119   0.725 -31.824  1.00  0.00     0.055 A 
HETATM   17  O3  UNL     1      17.103  -0.249 -29.462  1.00  0.00    -0.323 OA
HETATM   18  C16 UNL     1      16.037  -0.714 -28.646  1.00  0.00     0.352 C 
ENDBRANCH   7  10
ENDBRANCH   4   7
BRANCH   1  19
HETATM   19  C6  UNL     1      13.136   4.731 -36.820  1.00  0.00     0.030 A 
HETATM   20  C5  UNL     1      13.304   5.964 -37.386  1.00  0.00     0.037 A 
HETATM   21  C4  UNL     1      12.216   6.697 -37.834  1.00  0.00    -0.042 A 
HETATM   22  C3  UNL     1      12.134   8.032 -38.476  1.00  0.00     0.047 C 
HETATM   23  C21 UNL     1      10.943   6.189 -37.711  1.00  0.00     0.016 A 
HETATM   24  C2  UNL     1      10.731   8.471 -38.128  1.00  0.00     0.088 C 
HETATM   25  C1  UNL     1       9.994   7.180 -38.265  1.00  0.00     0.160 C 
HETATM   26  O1  UNL     1       8.860   6.927 -38.721  1.00  0.00    -0.292 OA
HETATM   27  C20 UNL     1      10.768   4.947 -37.142  1.00  0.00     0.018 A 
HETATM   28  C19 UNL     1      11.874   4.214 -36.693  1.00  0.00     0.030 A 
ENDBRANCH   1  19
TORSDOF 4
ENDMDL
