MODEL 5
REMARK VINA RESULT: -10.045007309      5.420      7.553
REMARK  4 active torsions:
REMARK  status: ('A' for Active; 'I' for Inactive)
REMARK    1  A    between atoms: C6_7  and  N1_8 
REMARK    2  A    between atoms: N2_11  and  C9_12 
REMARK    3  A    between atoms: C9_12  and  O2_13 
REMARK    4  A    between atoms: C9_12  and  C10_15 
ROOT
HETATM    1  N1  UNL     1      17.461   1.410 -34.827  1.00  0.00    -0.378 N 
HETATM    2  C7  UNL     1      18.789   0.789 -34.757  1.00  0.00     0.143 C 
HETATM    3  C8  UNL     1      19.661   1.555 -35.753  1.00  0.00     0.145 C 
HETATM    4  N2  UNL     1      19.138   1.124 -37.084  1.00  0.00    -0.358 N 
HETATM    5  C17 UNL     1      17.749   1.394 -37.284  1.00  0.00     0.145 C 
HETATM    6  C18 UNL     1      17.133   2.082 -36.056  1.00  0.00     0.143 C 
ENDROOT
BRANCH   4   7
HETATM    7  C9  UNL     1      20.067   0.527 -37.933  1.00  0.00     0.148 C 
BRANCH   7   8
HETATM    8  O2  UNL     1      20.320  -0.724 -37.643  1.00  0.00    -0.346 OA
ATOM      9  H2  UNL     1      21.121  -1.052 -38.034  1.00  0.00     0.219 HD
ENDBRANCH   7   8
BRANCH   7  10
HETATM   10  C10 UNL     1      20.764   1.105 -39.062  1.00  0.00     0.017 A 
HETATM   11  C11 UNL     1      21.138   0.237 -40.104  1.00  0.00     0.018 A 
HETATM   12  C12 UNL     1      21.802   0.683 -41.223  1.00  0.00     0.041 A 
HETATM   13  C13 UNL     1      22.134   2.011 -41.374  1.00  0.00     0.105 A 
HETATM   14  C14 UNL     1      21.782   2.888 -40.374  1.00  0.00     0.105 A 
HETATM   15  O4  UNL     1      22.785   2.769 -42.354  1.00  0.00    -0.323 OA
HETATM   16  C15 UNL     1      21.107   2.409 -39.246  1.00  0.00     0.055 A 
HETATM   17  O3  UNL     1      22.216   4.153 -40.747  1.00  0.00    -0.323 OA
HETATM   18  C16 UNL     1      22.507   4.146 -42.137  1.00  0.00     0.352 C 
ENDBRANCH   7  10
ENDBRANCH   4   7
BRANCH   1  19
HETATM   19  C6  UNL     1      16.588   1.316 -33.723  1.00  0.00     0.030 A 
HETATM   20  C5  UNL     1      17.070   0.934 -32.502  1.00  0.00     0.037 A 
HETATM   21  C4  UNL     1      16.232   0.844 -31.401  1.00  0.00    -0.042 A 
HETATM   22  C3  UNL     1      16.504   0.464 -29.993  1.00  0.00     0.047 C 
HETATM   23  C21 UNL     1      14.893   1.137 -31.527  1.00  0.00     0.016 A 
HETATM   24  C2  UNL     1      15.153  -0.025 -29.525  1.00  0.00     0.088 C 
HETATM   25  C1  UNL     1      14.253   0.952 -30.206  1.00  0.00     0.160 C 
HETATM   26  O1  UNL     1      13.207   1.512 -29.819  1.00  0.00    -0.292 OA
HETATM   27  C20 UNL     1      14.402   1.523 -32.755  1.00  0.00     0.018 A 
HETATM   28  C19 UNL     1      15.258   1.612 -33.860  1.00  0.00     0.030 A 
ENDBRANCH   1  19
TORSDOF 4
ENDMDL
