MODEL 1
REMARK VINA RESULT: -11.405135841      0.000      0.000
REMARK  4 active torsions:
REMARK  status: ('A' for Active; 'I' for Inactive)
REMARK    1  A    between atoms: C6_7  and  N1_8 
REMARK    2  A    between atoms: N2_11  and  C9_12 
REMARK    3  A    between atoms: C9_12  and  O2_13 
REMARK    4  A    between atoms: C9_12  and  C10_15 
ROOT
HETATM    1  N1  UNL     1      15.629   2.510 -34.721  1.00  0.00    -0.378 N 
HETATM    2  C7  UNL     1      14.897   1.795 -35.773  1.00  0.00     0.143 C 
HETATM    3  C8  UNL     1      15.345   2.423 -37.094  1.00  0.00     0.145 C 
HETATM    4  N2  UNL     1      14.709   3.775 -37.076  1.00  0.00    -0.358 N 
HETATM    5  C17 UNL     1      15.080   4.582 -35.956  1.00  0.00     0.145 C 
HETATM    6  C18 UNL     1      16.067   3.844 -35.039  1.00  0.00     0.143 C 
ENDROOT
BRANCH   4   7
HETATM    7  C9  UNL     1      13.855   4.056 -38.140  1.00  0.00     0.148 C 
BRANCH   7   8
HETATM    8  O2  UNL     1      14.121   3.372 -39.224  1.00  0.00    -0.346 OA
ATOM      9  H2  UNL     1      13.740   3.741 -40.012  1.00  0.00     0.219 HD
ENDBRANCH   7   8
BRANCH   7  10
HETATM   10  C10 UNL     1      12.746   4.982 -38.190  1.00  0.00     0.017 A 
HETATM   11  C11 UNL     1      11.448   4.443 -38.112  1.00  0.00     0.018 A 
HETATM   12  C12 UNL     1      10.325   5.236 -38.149  1.00  0.00     0.041 A 
HETATM   13  C13 UNL     1      10.421   6.605 -38.265  1.00  0.00     0.105 A 
HETATM   14  C14 UNL     1      11.674   7.166 -38.344  1.00  0.00     0.105 A 
HETATM   15  O4  UNL     1       9.509   7.664 -38.330  1.00  0.00    -0.323 OA
HETATM   16  C15 UNL     1      12.802   6.337 -38.304  1.00  0.00     0.055 A 
HETATM   17  O3  UNL     1      11.518   8.541 -38.454  1.00  0.00    -0.323 OA
HETATM   18  C16 UNL     1      10.193   8.883 -38.072  1.00  0.00     0.352 C 
ENDBRANCH   7  10
ENDBRANCH   4   7
BRANCH   1  19
HETATM   19  C6  UNL     1      15.857   1.881 -33.479  1.00  0.00     0.030 A 
HETATM   20  C5  UNL     1      14.808   1.620 -32.643  1.00  0.00     0.037 A 
HETATM   21  C4  UNL     1      15.008   0.995 -31.422  1.00  0.00    -0.042 A 
HETATM   22  C3  UNL     1      14.053   0.605 -30.355  1.00  0.00     0.047 C 
HETATM   23  C21 UNL     1      16.276   0.629 -31.034  1.00  0.00     0.016 A 
HETATM   24  C2  UNL     1      14.936   0.576 -29.129  1.00  0.00     0.088 C 
HETATM   25  C1  UNL     1      16.187  -0.007 -29.700  1.00  0.00     0.160 C 
HETATM   26  O1  UNL     1      17.000  -0.827 -29.227  1.00  0.00    -0.292 OA
HETATM   27  C20 UNL     1      17.338   0.888 -31.873  1.00  0.00     0.018 A 
HETATM   28  C19 UNL     1      17.124   1.519 -33.104  1.00  0.00     0.030 A 
ENDBRANCH   1  19
TORSDOF 4
ENDMDL
