MODEL 10
REMARK VINA RESULT: -5.969610099      4.955      6.838
REMARK  3 active torsions:
REMARK  status: ('A' for Active; 'I' for Inactive)
REMARK    1  A    between atoms: C1_2  and  C2_4 
REMARK    2  A    between atoms: C2_4  and  C3_5 
REMARK    3  A    between atoms: C3_5  and  C4_6 
ROOT
HETATM    1  C4  UNL     1      -3.091   2.390   8.378  1.00  0.00     0.052 A 
HETATM    2  N1  UNL     1      -1.946   1.812   8.663  1.00  0.00    -0.353 N 
ATOM      3  H1  UNL     1      -1.926   1.052   9.342  1.00  0.00     0.166 HD
HETATM    4  C5  UNL     1      -0.842   2.189   8.099  1.00  0.00     0.051 A 
HETATM    5  C6  UNL     1       0.435   1.634   8.328  1.00  0.00     0.054 A 
HETATM    6  C7  UNL     1       1.500   2.129   7.659  1.00  0.00     0.036 A 
HETATM    7 CL1  UNL     1       3.102   1.431   7.933  1.00  0.00    -0.084 Cl
HETATM    8  C8  UNL     1       1.454   3.174   6.733  1.00  0.00     0.025 A 
HETATM    9  C9  UNL     1       0.212   3.706   6.518  1.00  0.00     0.023 A 
HETATM   10  C10 UNL     1      -0.914   3.216   7.192  1.00  0.00     0.033 A 
HETATM   11  S1  UNL     1      -2.609   3.559   7.230  1.00  0.00    -0.075 SA
ENDROOT
BRANCH   1  12
HETATM   12  C3  UNL     1      -4.451   2.104   8.897  1.00  0.00     0.075 C 
BRANCH  12  13
HETATM   13  C2  UNL     1      -5.511   2.660   8.018  1.00  0.00     0.119 C 
BRANCH  13  14
HETATM   14  C1  UNL     1      -6.277   1.595   7.346  1.00  0.00     0.172 C 
HETATM   15  O1  UNL     1      -6.395   0.478   7.862  1.00  0.00    -0.648 OA
HETATM   16  O2  UNL     1      -6.916   1.772   6.101  1.00  0.00    -0.648 OA
ENDBRANCH  13  14
ENDBRANCH  12  13
ENDBRANCH   1  12
TORSDOF 3
ENDMDL
