MODEL 11
REMARK VINA RESULT: -5.734651165      4.163      5.721
REMARK  3 active torsions:
REMARK  status: ('A' for Active; 'I' for Inactive)
REMARK    1  A    between atoms: C1_2  and  C2_4 
REMARK    2  A    between atoms: C2_4  and  C3_5 
REMARK    3  A    between atoms: C3_5  and  C4_6 
ROOT
HETATM    1  C4  UNL     1      -2.487   4.755   6.142  1.00  0.00     0.052 A 
HETATM    2  N1  UNL     1      -1.210   4.452   6.129  1.00  0.00    -0.353 N 
ATOM      3  H1  UNL     1      -0.580   4.972   5.518  1.00  0.00     0.166 HD
HETATM    4  C5  UNL     1      -0.733   3.506   6.876  1.00  0.00     0.051 A 
HETATM    5  C6  UNL     1       0.618   3.105   6.942  1.00  0.00     0.054 A 
HETATM    6  C7  UNL     1       0.968   2.101   7.776  1.00  0.00     0.036 A 
HETATM    7 CL1  UNL     1       2.663   1.601   7.873  1.00  0.00    -0.084 Cl
HETATM    8  C8  UNL     1       0.090   1.398   8.604  1.00  0.00     0.025 A 
HETATM    9  C9  UNL     1      -1.218   1.793   8.533  1.00  0.00     0.023 A 
HETATM   10  C10 UNL     1      -1.617   2.832   7.681  1.00  0.00     0.033 A 
HETATM   11  S1  UNL     1      -3.093   3.640   7.284  1.00  0.00    -0.075 SA
ENDROOT
BRANCH   1  12
HETATM   12  C3  UNL     1      -3.222   5.797   5.383  1.00  0.00     0.075 C 
BRANCH  12  13
HETATM   13  C2  UNL     1      -3.992   6.700   6.276  1.00  0.00     0.119 C 
BRANCH  13  14
HETATM   14  C1  UNL     1      -3.112   7.428   7.207  1.00  0.00     0.172 C 
HETATM   15  O1  UNL     1      -2.252   8.210   6.785  1.00  0.00    -0.648 OA
HETATM   16  O2  UNL     1      -3.190   7.293   8.608  1.00  0.00    -0.648 OA
ENDBRANCH  13  14
ENDBRANCH  12  13
ENDBRANCH   1  12
TORSDOF 3
ENDMDL
