MODEL 8
REMARK VINA RESULT: -6.204414547      4.246      6.261
REMARK  3 active torsions:
REMARK  status: ('A' for Active; 'I' for Inactive)
REMARK    1  A    between atoms: C1_2  and  C2_4 
REMARK    2  A    between atoms: C2_4  and  C3_5 
REMARK    3  A    between atoms: C3_5  and  C4_6 
ROOT
HETATM    1  C4  UNL     1      -3.217   2.460   8.342  1.00  0.00     0.052 A 
HETATM    2  N1  UNL     1      -2.083   1.864   8.630  1.00  0.00    -0.353 N 
ATOM      3  H1  UNL     1      -2.079   1.094   9.300  1.00  0.00     0.166 HD
HETATM    4  C5  UNL     1      -0.969   2.233   8.080  1.00  0.00     0.051 A 
HETATM    5  C6  UNL     1       0.299   1.659   8.312  1.00  0.00     0.054 A 
HETATM    6  C7  UNL     1       1.375   2.148   7.659  1.00  0.00     0.036 A 
HETATM    7 CL1  UNL     1       2.966   1.425   7.938  1.00  0.00    -0.084 Cl
HETATM    8  C8  UNL     1       1.351   3.204   6.746  1.00  0.00     0.025 A 
HETATM    9  C9  UNL     1       0.118   3.756   6.527  1.00  0.00     0.023 A 
HETATM   10  C10 UNL     1      -1.020   3.272   7.185  1.00  0.00     0.033 A 
HETATM   11  S1  UNL     1      -2.710   3.636   7.214  1.00  0.00    -0.075 SA
ENDROOT
BRANCH   1  12
HETATM   12  C3  UNL     1      -4.586   2.186   8.846  1.00  0.00     0.075 C 
BRANCH  12  13
HETATM   13  C2  UNL     1      -4.878   2.928  10.099  1.00  0.00     0.119 C 
BRANCH  13  14
HETATM   14  C1  UNL     1      -5.015   4.375   9.857  1.00  0.00     0.172 C 
HETATM   15  O1  UNL     1      -5.979   4.824   9.227  1.00  0.00    -0.648 OA
HETATM   16  O2  UNL     1      -4.082   5.326  10.319  1.00  0.00    -0.648 OA
ENDBRANCH  13  14
ENDBRANCH  12  13
ENDBRANCH   1  12
TORSDOF 3
ENDMDL
