MODEL 7
REMARK VINA RESULT: -6.210321728      1.809      2.436
REMARK  3 active torsions:
REMARK  status: ('A' for Active; 'I' for Inactive)
REMARK    1  A    between atoms: C1_2  and  C2_4 
REMARK    2  A    between atoms: C2_4  and  C3_5 
REMARK    3  A    between atoms: C3_5  and  C4_6 
ROOT
HETATM    1  C4  UNL     1       0.233   2.473   7.676  1.00  0.00     0.052 A 
HETATM    2  N1  UNL     1       0.305   3.384   6.733  1.00  0.00    -0.353 N 
ATOM      3  H1  UNL     1       1.214   3.617   6.333  1.00  0.00     0.166 HD
HETATM    4  C5  UNL     1      -0.754   3.994   6.301  1.00  0.00     0.051 A 
HETATM    5  C6  UNL     1      -0.788   4.979   5.292  1.00  0.00     0.054 A 
HETATM    6  C7  UNL     1      -1.973   5.524   4.940  1.00  0.00     0.036 A 
HETATM    7 CL1  UNL     1      -2.025   6.753   3.668  1.00  0.00    -0.084 Cl
HETATM    8  C8  UNL     1      -3.209   5.194   5.502  1.00  0.00     0.025 A 
HETATM    9  C9  UNL     1      -3.166   4.238   6.480  1.00  0.00     0.023 A 
HETATM   10  C10 UNL     1      -1.955   3.650   6.867  1.00  0.00     0.033 A 
HETATM   11  S1  UNL     1      -1.443   2.449   8.001  1.00  0.00    -0.075 SA
ENDROOT
BRANCH   1  12
HETATM   12  C3  UNL     1       1.311   1.662   8.294  1.00  0.00     0.075 C 
BRANCH  12  13
HETATM   13  C2  UNL     1       2.632   1.920   7.668  1.00  0.00     0.119 C 
BRANCH  13  14
HETATM   14  C1  UNL     1       3.409   2.919   8.422  1.00  0.00     0.172 C 
HETATM   15  O1  UNL     1       4.611   2.747   8.651  1.00  0.00    -0.648 OA
HETATM   16  O2  UNL     1       2.851   4.115   8.919  1.00  0.00    -0.648 OA
ENDBRANCH  13  14
ENDBRANCH  12  13
ENDBRANCH   1  12
TORSDOF 3
ENDMDL
