MODEL 1
REMARK VINA RESULT: -6.815768362      0.000      0.000
REMARK  3 active torsions:
REMARK  status: ('A' for Active; 'I' for Inactive)
REMARK    1  A    between atoms: C1_2  and  C2_4 
REMARK    2  A    between atoms: C2_4  and  C3_5 
REMARK    3  A    between atoms: C3_5  and  C4_6 
ROOT
HETATM    1  C4  UNL     1       0.436   2.808   7.318  1.00  0.00     0.052 A 
HETATM    2  N1  UNL     1      -0.531   3.544   6.821  1.00  0.00    -0.353 N 
ATOM      3  H1  UNL     1      -0.309   4.258   6.127  1.00  0.00     0.166 HD
HETATM    4  C5  UNL     1      -1.762   3.383   7.193  1.00  0.00     0.051 A 
HETATM    5  C6  UNL     1      -2.873   4.112   6.719  1.00  0.00     0.054 A 
HETATM    6  C7  UNL     1      -4.104   3.826   7.198  1.00  0.00     0.036 A 
HETATM    7 CL1  UNL     1      -5.502   4.730   6.599  1.00  0.00    -0.084 Cl
HETATM    8  C8  UNL     1      -4.389   2.846   8.150  1.00  0.00     0.025 A 
HETATM    9  C9  UNL     1      -3.306   2.144   8.605  1.00  0.00     0.023 A 
HETATM   10  C10 UNL     1      -2.016   2.412   8.129  1.00  0.00     0.033 A 
HETATM   11  S1  UNL     1      -0.421   1.800   8.398  1.00  0.00    -0.075 SA
ENDROOT
BRANCH   1  12
HETATM   12  C3  UNL     1       1.889   2.827   7.021  1.00  0.00     0.075 C 
BRANCH  12  13
HETATM   13  C2  UNL     1       2.679   2.106   8.053  1.00  0.00     0.119 C 
BRANCH  13  14
HETATM   14  C1  UNL     1       3.590   3.012   8.774  1.00  0.00     0.172 C 
HETATM   15  O1  UNL     1       3.153   3.840   9.582  1.00  0.00    -0.648 OA
HETATM   16  O2  UNL     1       4.989   2.996   8.602  1.00  0.00    -0.648 OA
ENDBRANCH  13  14
ENDBRANCH  12  13
ENDBRANCH   1  12
TORSDOF 3
ENDMDL
