MODEL 16
REMARK VINA RESULT: -10.333470728      2.837     12.842
REMARK  7 active torsions:
REMARK  status: ('A' for Active; 'I' for Inactive)
REMARK    1  A    between atoms: O1_2  and  C2_3 
REMARK    2  A    between atoms: C6_11  and  N3_12 
REMARK    3  A    between atoms: C9_15  and  C10_16 
REMARK    4  A    between atoms: C13_19  and  O2_20 
REMARK    5  A    between atoms: O2_20  and  C14_21 
REMARK    6  A    between atoms: C14_21  and  C15_22 
REMARK    7  A    between atoms: C15_22  and  N4_23 
ROOT
HETATM    1  N3  UNL     1      63.136  50.260 130.814  1.00  0.00    -0.366 N 
HETATM    2  C7  UNL     1      63.880  49.588 131.825  1.00  0.00     0.125 C 
HETATM    3  C8  UNL     1      63.957  50.307 133.136  1.00  0.00     0.029 C 
HETATM    4  C9  UNL     1      62.744  51.088 133.513  1.00  0.00     0.021 C 
HETATM    5  C24 UNL     1      61.640  51.035 132.472  1.00  0.00     0.029 C 
HETATM    6  C25 UNL     1      62.304  51.392 131.144  1.00  0.00     0.125 C 
ENDROOT
BRANCH   4   7
HETATM    7  C10 UNL     1      62.134  50.676 134.804  1.00  0.00    -0.054 A 
HETATM    8  C11 UNL     1      61.764  51.624 135.748  1.00  0.00     0.010 A 
HETATM    9  C12 UNL     1      61.220  51.213 136.920  1.00  0.00     0.037 A 
HETATM   10  C13 UNL     1      61.007  49.859 137.235  1.00  0.00     0.068 A 
HETATM   11  C22 UNL     1      61.380  48.938 136.293  1.00  0.00     0.037 A 
HETATM   12  C23 UNL     1      61.937  49.353 135.088  1.00  0.00     0.010 A 
BRANCH  10  13
HETATM   13  O2  UNL     1      60.459  49.531 138.440  1.00  0.00    -0.349 OA
BRANCH  13  14
HETATM   14  C14 UNL     1      59.978  50.390 139.392  1.00  0.00     0.206 C 
BRANCH  14  15
HETATM   15  C15 UNL     1      59.988  49.795 140.774  1.00  0.00     0.300 C 
BRANCH  15  16
HETATM   16  N4  UNL     1      61.362  49.891 141.252  1.00  0.00     0.105 N 
HETATM   17  C16 UNL     1      61.587  51.268 141.625  1.00  0.00     0.293 C 
HETATM   18  C17 UNL     1      63.001  51.515 142.112  1.00  0.00     0.155 C 
HETATM   19  N5  UNL     1      63.242  50.680 143.279  1.00  0.00    -0.353 N 
HETATM   20  C18 UNL     1      63.976  51.085 144.441  1.00  0.00     0.152 C 
HETATM   21  C19 UNL     1      62.700  49.373 143.234  1.00  0.00     0.252 C 
HETATM   22  O3  UNL     1      63.123  48.502 144.046  1.00  0.00    -0.271 OA
HETATM   23  C20 UNL     1      61.646  48.940 142.284  1.00  0.00     0.310 C 
HETATM   24  C21 UNL     1      60.440  48.578 143.135  1.00  0.00     0.053 C 
ENDBRANCH  15  16
ENDBRANCH  14  15
ENDBRANCH  13  14
ENDBRANCH  10  13
ENDBRANCH   4   7
BRANCH   1  25
HETATM   25  C6  UNL     1      63.210  49.819 129.472  1.00  0.00     0.118 A 
HETATM   26  C5  UNL     1      63.752  48.576 129.135  1.00  0.00     0.053 A 
HETATM   27  C4  UNL     1      63.781  48.229 127.801  1.00  0.00     0.056 A 
HETATM   28  C3  UNL     1      63.306  49.040 126.794  1.00  0.00     0.145 A 
HETATM   29  N2  UNL     1      63.213  48.950 125.460  1.00  0.00    -0.281 N 
HETATM   30  N7  UNL     1      62.793  50.226 127.179  1.00  0.00    -0.199 N 
HETATM   31  N1  UNL     1      62.650  50.068 125.022  1.00  0.00    -0.262 N 
ATOM     32  H2  UNL     1      63.519  48.164 124.886  1.00  0.00     0.188 HD
HETATM   33  C2  UNL     1      62.389  50.857 126.063  1.00  0.00     0.262 A 
ATOM     34  H1  UNL     1      62.451  50.288 124.046  1.00  0.00     0.190 HD
HETATM   35  N6  UNL     1      62.759  50.577 128.468  1.00  0.00    -0.274 N 
ATOM     36  H6  UNL     1      62.362  51.488 128.701  1.00  0.00     0.189 HD
BRANCH  33  37
HETATM   37  O1  UNL     1      61.808  52.114 126.101  1.00  0.00    -0.325 OA
HETATM   38  C1  UNL     1      60.458  52.396 125.855  1.00  0.00     0.213 C 
ENDBRANCH  33  37
ENDBRANCH   1  25
TORSDOF 7
ENDMDL
