MODEL 1
REMARK VINA RESULT: -11.025467017      0.000      0.000
REMARK  7 active torsions:
REMARK  status: ('A' for Active; 'I' for Inactive)
REMARK    1  A    between atoms: O1_2  and  C2_3 
REMARK    2  A    between atoms: C6_11  and  N3_12 
REMARK    3  A    between atoms: C9_15  and  C10_16 
REMARK    4  A    between atoms: C13_19  and  O2_20 
REMARK    5  A    between atoms: O2_20  and  C14_21 
REMARK    6  A    between atoms: C14_21  and  C15_22 
REMARK    7  A    between atoms: C15_22  and  N4_23 
ROOT
HETATM    1  N3  UNL     1      60.287  50.880 137.659  1.00  0.00    -0.366 N 
HETATM    2  C7  UNL     1      61.129  49.803 137.265  1.00  0.00     0.125 C 
HETATM    3  C8  UNL     1      60.781  49.176 135.950  1.00  0.00     0.029 C 
HETATM    4  C9  UNL     1      60.248  50.108 134.916  1.00  0.00     0.021 C 
HETATM    5  C24 UNL     1      60.127  51.544 135.395  1.00  0.00     0.029 C 
HETATM    6  C25 UNL     1      59.368  51.476 136.719  1.00  0.00     0.125 C 
ENDROOT
BRANCH   4   7
HETATM    7  C10 UNL     1      61.045  50.143 133.661  1.00  0.00    -0.054 A 
HETATM    8  C11 UNL     1      61.540  48.972 133.102  1.00  0.00     0.010 A 
HETATM    9  C12 UNL     1      62.273  49.042 131.964  1.00  0.00     0.037 A 
HETATM   10  C13 UNL     1      62.561  50.253 131.309  1.00  0.00     0.068 A 
HETATM   11  C22 UNL     1      62.066  51.397 131.874  1.00  0.00     0.037 A 
HETATM   12  C23 UNL     1      61.313  51.332 133.042  1.00  0.00     0.010 A 
BRANCH  10  13
HETATM   13  O2  UNL     1      63.311  50.234 130.169  1.00  0.00    -0.349 OA
BRANCH  13  14
HETATM   14  C14 UNL     1      63.442  51.240 129.249  1.00  0.00     0.206 C 
BRANCH  14  15
HETATM   15  C15 UNL     1      63.652  50.727 127.849  1.00  0.00     0.300 C 
BRANCH  15  16
HETATM   16  N4  UNL     1      62.326  50.622 127.249  1.00  0.00     0.105 N 
HETATM   17  C16 UNL     1      61.931  51.955 126.856  1.00  0.00     0.293 C 
HETATM   18  C17 UNL     1      60.546  51.992 126.243  1.00  0.00     0.155 C 
HETATM   19  N5  UNL     1      60.537  51.146 125.060  1.00  0.00    -0.353 N 
HETATM   20  C18 UNL     1      59.858  51.451 123.837  1.00  0.00     0.152 C 
HETATM   21  C19 UNL     1      61.264  49.935 125.155  1.00  0.00     0.252 C 
HETATM   22  O3  UNL     1      61.051  49.021 124.309  1.00  0.00    -0.271 OA
HETATM   23  C20 UNL     1      62.282  49.653 126.196  1.00  0.00     0.310 C 
HETATM   24  C21 UNL     1      63.600  49.487 125.458  1.00  0.00     0.053 C 
ENDBRANCH  15  16
ENDBRANCH  14  15
ENDBRANCH  13  14
ENDBRANCH  10  13
ENDBRANCH   4   7
BRANCH   1  25
HETATM   25  C6  UNL     1      60.345  51.375 138.983  1.00  0.00     0.118 A 
HETATM   26  C5  UNL     1      60.971  50.661 140.007  1.00  0.00     0.053 A 
HETATM   27  C4  UNL     1      60.981  51.223 141.267  1.00  0.00     0.056 A 
HETATM   28  C3  UNL     1      60.411  52.441 141.560  1.00  0.00     0.145 A 
HETATM   29  N2  UNL     1      60.285  53.196 142.661  1.00  0.00    -0.281 N 
HETATM   30  N7  UNL     1      59.824  53.086 140.532  1.00  0.00    -0.199 N 
HETATM   31  N1  UNL     1      59.624  54.294 142.320  1.00  0.00    -0.262 N 
ATOM     32  H2  UNL     1      60.633  52.967 143.592  1.00  0.00     0.188 HD
HETATM   33  C2  UNL     1      59.336  54.239 141.020  1.00  0.00     0.262 A 
ATOM     34  H1  UNL     1      59.377  55.057 142.950  1.00  0.00     0.190 HD
HETATM   35  N6  UNL     1      59.804  52.554 139.306  1.00  0.00    -0.274 N 
ATOM     36  H6  UNL     1      59.344  53.084 138.566  1.00  0.00     0.189 HD
BRANCH  33  37
HETATM   37  O1  UNL     1      58.666  55.149 140.221  1.00  0.00    -0.325 OA
HETATM   38  C1  UNL     1      57.690  56.054 140.656  1.00  0.00     0.213 C 
ENDBRANCH  33  37
ENDBRANCH   1  25
TORSDOF 7
ENDMDL
