MODEL 4
REMARK VINA RESULT: -10.781795619      0.986      1.160
REMARK  7 active torsions:
REMARK  status: ('A' for Active; 'I' for Inactive)
REMARK    1  A    between atoms: O1_2  and  C2_3 
REMARK    2  A    between atoms: C6_11  and  N3_12 
REMARK    3  A    between atoms: C9_15  and  C10_16 
REMARK    4  A    between atoms: C13_19  and  O2_20 
REMARK    5  A    between atoms: O2_20  and  C14_21 
REMARK    6  A    between atoms: C14_21  and  C15_22 
REMARK    7  A    between atoms: C15_22  and  N4_23 
ROOT
HETATM    1  N3  UNL     1      60.493  49.986 137.006  1.00  0.00    -0.366 N 
HETATM    2  C7  UNL     1      61.470  49.113 136.450  1.00  0.00     0.125 C 
HETATM    3  C8  UNL     1      61.257  48.763 135.009  1.00  0.00     0.029 C 
HETATM    4  C9  UNL     1      60.671  49.843 134.166  1.00  0.00     0.021 C 
HETATM    5  C24 UNL     1      60.366  51.117 134.934  1.00  0.00     0.029 C 
HETATM    6  C25 UNL     1      59.558  50.681 136.155  1.00  0.00     0.125 C 
ENDROOT
BRANCH   4   7
HETATM    7  C10 UNL     1      61.517  50.235 133.008  1.00  0.00    -0.054 A 
HETATM    8  C11 UNL     1      62.134  49.273 132.221  1.00  0.00     0.010 A 
HETATM    9  C12 UNL     1      62.907  49.666 131.180  1.00  0.00     0.037 A 
HETATM   10  C13 UNL     1      63.121  51.016 130.849  1.00  0.00     0.068 A 
HETATM   11  C22 UNL     1      62.506  51.952 131.636  1.00  0.00     0.037 A 
HETATM   12  C23 UNL     1      61.710  51.555 132.706  1.00  0.00     0.010 A 
BRANCH  10  13
HETATM   13  O2  UNL     1      63.919  51.326 129.786  1.00  0.00    -0.349 OA
BRANCH  13  14
HETATM   14  C14 UNL     1      63.568  52.030 128.666  1.00  0.00     0.206 C 
BRANCH  14  15
HETATM   15  C15 UNL     1      63.736  51.234 127.399  1.00  0.00     0.300 C 
BRANCH  15  16
HETATM   16  N4  UNL     1      62.395  51.037 126.859  1.00  0.00     0.105 N 
HETATM   17  C16 UNL     1      61.997  52.282 126.246  1.00  0.00     0.293 C 
HETATM   18  C17 UNL     1      60.597  52.224 125.669  1.00  0.00     0.155 C 
HETATM   19  N5  UNL     1      60.555  51.182 124.655  1.00  0.00    -0.353 N 
HETATM   20  C18 UNL     1      59.846  51.272 123.414  1.00  0.00     0.152 C 
HETATM   21  C19 UNL     1      61.278  49.999 124.946  1.00  0.00     0.252 C 
HETATM   22  O3  UNL     1      61.039  48.952 124.280  1.00  0.00    -0.271 OA
HETATM   23  C20 UNL     1      62.320  49.896 125.996  1.00  0.00     0.310 C 
HETATM   24  C21 UNL     1      63.618  49.590 125.268  1.00  0.00     0.053 C 
ENDBRANCH  15  16
ENDBRANCH  14  15
ENDBRANCH  13  14
ENDBRANCH  10  13
ENDBRANCH   4   7
BRANCH   1  25
HETATM   25  C6  UNL     1      60.433  50.177 138.407  1.00  0.00     0.118 A 
HETATM   26  C5  UNL     1      60.611  49.119 139.302  1.00  0.00     0.053 A 
HETATM   27  C4  UNL     1      60.538  49.400 140.650  1.00  0.00     0.056 A 
HETATM   28  C3  UNL     1      60.301  50.660 141.152  1.00  0.00     0.145 A 
HETATM   29  N2  UNL     1      60.187  51.194 142.376  1.00  0.00    -0.281 N 
HETATM   30  N7  UNL     1      60.139  51.642 140.242  1.00  0.00    -0.199 N 
HETATM   31  N1  UNL     1      59.954  52.491 142.227  1.00  0.00    -0.262 N 
ATOM     32  H2  UNL     1      60.265  50.694 143.261  1.00  0.00     0.188 HD
HETATM   33  C2  UNL     1      59.922  52.778 140.926  1.00  0.00     0.262 A 
ATOM     34  H1  UNL     1      59.822  53.161 142.985  1.00  0.00     0.190 HD
HETATM   35  N6  UNL     1      60.205  51.385 138.932  1.00  0.00    -0.274 N 
ATOM     36  H6  UNL     1      60.073  52.166 138.288  1.00  0.00     0.189 HD
BRANCH  33  37
HETATM   37  O1  UNL     1      59.715  53.990 140.289  1.00  0.00    -0.325 OA
HETATM   38  C1  UNL     1      58.567  54.784 140.399  1.00  0.00     0.213 C 
ENDBRANCH  33  37
ENDBRANCH   1  25
TORSDOF 7
ENDMDL
