MODEL 2
REMARK VINA RESULT: -10.899076642      1.248      1.913
REMARK  7 active torsions:
REMARK  status: ('A' for Active; 'I' for Inactive)
REMARK    1  A    between atoms: O1_2  and  C2_3 
REMARK    2  A    between atoms: C6_11  and  N3_12 
REMARK    3  A    between atoms: C9_15  and  C10_16 
REMARK    4  A    between atoms: C13_19  and  O2_20 
REMARK    5  A    between atoms: O2_20  and  C14_21 
REMARK    6  A    between atoms: C14_21  and  C15_22 
REMARK    7  A    between atoms: C15_22  and  N4_23 
ROOT
HETATM    1  N3  UNL     1      60.383  51.556 137.227  1.00  0.00    -0.366 N 
HETATM    2  C7  UNL     1      61.719  51.139 136.967  1.00  0.00     0.125 C 
HETATM    3  C8  UNL     1      61.854  50.056 135.941  1.00  0.00     0.029 C 
HETATM    4  C9  UNL     1      60.869  50.102 134.825  1.00  0.00     0.021 C 
HETATM    5  C24 UNL     1      59.872  51.241 134.940  1.00  0.00     0.029 C 
HETATM    6  C25 UNL     1      59.304  51.154 136.356  1.00  0.00     0.125 C 
ENDROOT
BRANCH   4   7
HETATM    7  C10 UNL     1      61.484  50.209 133.475  1.00  0.00    -0.054 A 
HETATM    8  C11 UNL     1      61.916  49.076 132.800  1.00  0.00     0.010 A 
HETATM    9  C12 UNL     1      62.483  49.211 131.576  1.00  0.00     0.037 A 
HETATM   10  C13 UNL     1      62.660  50.456 130.945  1.00  0.00     0.068 A 
HETATM   11  C22 UNL     1      62.230  51.563 131.626  1.00  0.00     0.037 A 
HETATM   12  C23 UNL     1      61.646  51.430 132.882  1.00  0.00     0.010 A 
BRANCH  10  13
HETATM   13  O2  UNL     1      63.245  50.503 129.713  1.00  0.00    -0.349 OA
BRANCH  13  14
HETATM   14  C14 UNL     1      63.398  51.603 128.912  1.00  0.00     0.206 C 
BRANCH  14  15
HETATM   15  C15 UNL     1      63.642  51.246 127.470  1.00  0.00     0.300 C 
BRANCH  15  16
HETATM   16  N4  UNL     1      62.329  51.024 126.877  1.00  0.00     0.105 N 
HETATM   17  C16 UNL     1      61.935  52.259 126.240  1.00  0.00     0.293 C 
HETATM   18  C17 UNL     1      60.561  52.173 125.606  1.00  0.00     0.155 C 
HETATM   19  N5  UNL     1      60.579  51.125 124.597  1.00  0.00    -0.353 N 
HETATM   20  C18 UNL     1      59.922  51.197 123.327  1.00  0.00     0.152 C 
HETATM   21  C19 UNL     1      61.310  49.957 124.925  1.00  0.00     0.252 C 
HETATM   22  O3  UNL     1      61.117  48.903 124.256  1.00  0.00    -0.271 OA
HETATM   23  C20 UNL     1      62.309  49.878 126.018  1.00  0.00     0.310 C 
HETATM   24  C21 UNL     1      63.642  49.590 125.346  1.00  0.00     0.053 C 
ENDBRANCH  15  16
ENDBRANCH  14  15
ENDBRANCH  13  14
ENDBRANCH  10  13
ENDBRANCH   4   7
BRANCH   1  25
HETATM   25  C6  UNL     1      60.104  52.372 138.348  1.00  0.00     0.118 A 
HETATM   26  C5  UNL     1      59.489  53.619 138.215  1.00  0.00     0.053 A 
HETATM   27  C4  UNL     1      59.253  54.344 139.364  1.00  0.00     0.056 A 
HETATM   28  C3  UNL     1      59.592  53.903 140.624  1.00  0.00     0.145 A 
HETATM   29  N2  UNL     1      59.479  54.390 141.867  1.00  0.00    -0.281 N 
HETATM   30  N7  UNL     1      60.181  52.693 140.691  1.00  0.00    -0.199 N 
HETATM   31  N1  UNL     1      59.994  53.492 142.697  1.00  0.00    -0.262 N 
ATOM     32  H2  UNL     1      59.070  55.287 142.129  1.00  0.00     0.188 HD
HETATM   33  C2  UNL     1      60.427  52.449 141.990  1.00  0.00     0.262 A 
ATOM     34  H1  UNL     1      60.049  53.584 143.711  1.00  0.00     0.190 HD
HETATM   35  N6  UNL     1      60.417  51.978 139.586  1.00  0.00    -0.274 N 
ATOM     36  H6  UNL     1      60.868  51.069 139.696  1.00  0.00     0.189 HD
BRANCH  33  37
HETATM   37  O1  UNL     1      61.032  51.278 142.415  1.00  0.00    -0.325 OA
HETATM   38  C1  UNL     1      60.371  50.079 142.708  1.00  0.00     0.213 C 
ENDBRANCH  33  37
ENDBRANCH   1  25
TORSDOF 7
ENDMDL
