MODEL 19
REMARK VINA RESULT: -8.536356741      3.288      9.496
REMARK  10 active torsions:
REMARK  status: ('A' for Active; 'I' for Inactive)
REMARK    1  A    between atoms: N5_13  and  C6_14 
REMARK    2  A    between atoms: C7_16  and  C8_17 
REMARK    3  A    between atoms: C8_17  and  O2_18 
REMARK    4  A    between atoms: O2_18  and  P1_19 
REMARK    5  A    between atoms: P1_19  and  N6_22 
REMARK    6  A    between atoms: N6_22  and  C9_24 
REMARK    7  A    between atoms: C9_24  and  C10_25 
REMARK    8  A    between atoms: C10_25  and  C11_26 
REMARK    9  A    between atoms: C19_36  and  O5_37 
REMARK   10  A    between atoms: C20_39  and  O6_40 
ROOT
HETATM    1  C6  UNL     1     -29.082   5.693 -29.215  1.00  0.00     0.262 C 
HETATM    2  O1  UNL     1     -29.135   4.491 -28.478  1.00  0.00    -0.353 OA
HETATM    3  C7  UNL     1     -29.456   4.822 -27.243  1.00  0.00     0.180 C 
HETATM    4  C19 UNL     1     -30.138   6.134 -27.137  1.00  0.00     0.182 C 
HETATM    5  C20 UNL     1     -30.314   6.457 -28.583  1.00  0.00     0.198 C 
ENDROOT
BRANCH   3   6
HETATM    6  C8  UNL     1     -30.168   3.767 -26.400  1.00  0.00     0.215 C 
BRANCH   6   7
HETATM    7  O2  UNL     1     -29.930   4.219 -25.120  1.00  0.00    -0.293 OA
BRANCH   7   8
HETATM    8  P1  UNL     1     -31.097   4.234 -23.976  1.00  0.00     0.359 P 
HETATM    9  O3  UNL     1     -32.025   3.329 -24.847  1.00  0.00    -0.630 OA
HETATM   10  O4  UNL     1     -31.017   2.810 -22.956  1.00  0.00    -0.630 OA
BRANCH   8  11
HETATM   11  N6  UNL     1     -32.141   5.432 -23.691  1.00  0.00    -0.325 N 
ATOM     12  H6  UNL     1     -33.077   5.394 -24.096  1.00  0.00     0.165 HD
BRANCH  11  13
HETATM   13  C9  UNL     1     -31.760   6.564 -22.862  1.00  0.00     0.130 C 
BRANCH  13  14
HETATM   14  C10 UNL     1     -31.804   7.765 -23.825  1.00  0.00     0.060 C 
BRANCH  14  15
HETATM   15  C11 UNL     1     -33.187   8.295 -23.716  1.00  0.00    -0.029 A 
HETATM   16  C12 UNL     1     -34.104   8.480 -24.736  1.00  0.00     0.096 A 
HETATM   17  N7  UNL     1     -35.189   9.013 -24.186  1.00  0.00    -0.365 N 
HETATM   18  C13 UNL     1     -35.000   9.172 -22.866  1.00  0.00     0.042 A 
ATOM     19  H7  UNL     1     -36.039   9.265 -24.691  1.00  0.00     0.165 HD
HETATM   20  C14 UNL     1     -35.778   9.631 -21.831  1.00  0.00     0.030 A 
HETATM   21  C18 UNL     1     -33.755   8.732 -22.551  1.00  0.00    -0.002 A 
HETATM   22  C15 UNL     1     -35.309   9.637 -20.538  1.00  0.00     0.002 A 
HETATM   23  C16 UNL     1     -34.031   9.182 -20.243  1.00  0.00     0.001 A 
HETATM   24  C17 UNL     1     -33.224   8.715 -21.267  1.00  0.00     0.014 A 
ENDBRANCH  14  15
ENDBRANCH  13  14
ENDBRANCH  11  13
ENDBRANCH   8  11
ENDBRANCH   7   8
ENDBRANCH   6   7
ENDBRANCH   3   6
BRANCH   4  25
HETATM   25  O5  UNL     1     -29.276   7.142 -26.633  1.00  0.00    -0.390 OA
ATOM     26  H5  UNL     1     -29.439   7.985 -27.038  1.00  0.00     0.210 HD
ENDBRANCH   4  25
BRANCH   1  27
HETATM   27  N5  UNL     1     -29.559   5.405 -30.559  1.00  0.00    -0.297 N 
HETATM   28  C3  UNL     1     -28.705   5.177 -31.560  1.00  0.00     0.142 A 
HETATM   29  N3  UNL     1     -27.357   4.976 -31.601  1.00  0.00    -0.336 N 
HETATM   30  C4  UNL     1     -29.398   5.175 -32.742  1.00  0.00     0.119 A 
HETATM   31  C2  UNL     1     -26.699   4.783 -32.747  1.00  0.00     0.183 A 
ATOM     32  H3  UNL     1     -26.833   4.974 -30.726  1.00  0.00     0.168 HD
HETATM   33  N2  UNL     1     -27.400   4.794 -33.892  1.00  0.00    -0.339 N 
HETATM   34  C1  UNL     1     -28.714   4.980 -33.958  1.00  0.00     0.148 A 
ATOM     35  H2  UNL     1     -26.893   4.650 -34.765  1.00  0.00     0.167 HD
HETATM   36  N1  UNL     1     -29.443   5.121 -35.155  1.00  0.00    -0.080 NA
HETATM   37  N4  UNL     1     -30.682   5.384 -32.418  1.00  0.00    -0.346 N 
HETATM   38  C5  UNL     1     -30.770   5.522 -31.066  1.00  0.00     0.188 A 
ATOM     39  H4  UNL     1     -31.463   5.432 -33.074  1.00  0.00     0.167 HD
ENDBRANCH   1  27
BRANCH   5  40
HETATM   40  O6  UNL     1     -30.299   7.788 -28.865  1.00  0.00    -0.388 OA
ATOM     41  H6  UNL     1     -31.155   8.190 -28.765  1.00  0.00     0.210 HD
ENDBRANCH   5  40
TORSDOF 10
ENDMDL
