MODEL 2
REMARK VINA RESULT: -9.282622197      1.033      1.376
REMARK  10 active torsions:
REMARK  status: ('A' for Active; 'I' for Inactive)
REMARK    1  A    between atoms: N5_13  and  C6_14 
REMARK    2  A    between atoms: C7_16  and  C8_17 
REMARK    3  A    between atoms: C8_17  and  O2_18 
REMARK    4  A    between atoms: O2_18  and  P1_19 
REMARK    5  A    between atoms: P1_19  and  N6_22 
REMARK    6  A    between atoms: N6_22  and  C9_24 
REMARK    7  A    between atoms: C9_24  and  C10_25 
REMARK    8  A    between atoms: C10_25  and  C11_26 
REMARK    9  A    between atoms: C19_36  and  O5_37 
REMARK   10  A    between atoms: C20_39  and  O6_40 
ROOT
HETATM    1  C6  UNL     1     -31.012   8.038 -25.512  1.00  0.00     0.262 C 
HETATM    2  O1  UNL     1     -31.876   7.721 -26.581  1.00  0.00    -0.353 OA
HETATM    3  C7  UNL     1     -31.327   8.224 -27.668  1.00  0.00     0.180 C 
HETATM    4  C19 UNL     1     -29.867   8.453 -27.547  1.00  0.00     0.182 C 
HETATM    5  C20 UNL     1     -29.613   7.827 -26.217  1.00  0.00     0.198 C 
ENDROOT
BRANCH   3   6
HETATM    6  C8  UNL     1     -31.666   7.554 -28.997  1.00  0.00     0.215 C 
BRANCH   6   7
HETATM    7  O2  UNL     1     -31.359   6.236 -28.737  1.00  0.00    -0.293 OA
BRANCH   7   8
HETATM    8  P1  UNL     1     -30.380   5.366 -29.715  1.00  0.00     0.359 P 
HETATM    9  O3  UNL     1     -29.669   6.658 -30.228  1.00  0.00    -0.630 OA
HETATM   10  O4  UNL     1     -28.825   5.062 -28.963  1.00  0.00    -0.630 OA
BRANCH   8  11
HETATM   11  N6  UNL     1     -30.776   4.733 -31.146  1.00  0.00    -0.325 N 
ATOM     12  H6  UNL     1     -31.518   4.036 -31.203  1.00  0.00     0.165 HD
BRANCH  11  13
HETATM   13  C9  UNL     1     -30.084   5.148 -32.355  1.00  0.00     0.130 C 
BRANCH  13  14
HETATM   14  C10 UNL     1     -29.209   3.935 -32.721  1.00  0.00     0.060 C 
BRANCH  14  15
HETATM   15  C11 UNL     1     -27.827   4.471 -32.813  1.00  0.00    -0.029 A 
HETATM   16  C12 UNL     1     -26.930   4.673 -31.780  1.00  0.00     0.096 A 
HETATM   17  N7  UNL     1     -25.838   5.205 -32.318  1.00  0.00    -0.365 N 
HETATM   18  C13 UNL     1     -26.004   5.346 -33.643  1.00  0.00     0.042 A 
ATOM     19  H7  UNL     1     -24.998   5.468 -31.801  1.00  0.00     0.165 HD
HETATM   20  C14 UNL     1     -25.210   5.795 -34.670  1.00  0.00     0.030 A 
HETATM   21  C18 UNL     1     -27.241   4.895 -33.974  1.00  0.00    -0.002 A 
HETATM   22  C15 UNL     1     -25.656   5.782 -35.970  1.00  0.00     0.002 A 
HETATM   23  C16 UNL     1     -26.927   5.316 -36.282  1.00  0.00     0.001 A 
HETATM   24  C17 UNL     1     -27.750   4.858 -35.266  1.00  0.00     0.014 A 
ENDBRANCH  14  15
ENDBRANCH  13  14
ENDBRANCH  11  13
ENDBRANCH   8  11
ENDBRANCH   7   8
ENDBRANCH   6   7
ENDBRANCH   3   6
BRANCH   4  25
HETATM   25  O5  UNL     1     -29.555   9.826 -27.378  1.00  0.00    -0.390 OA
ATOM     26  H5  UNL     1     -29.254  10.225 -28.185  1.00  0.00     0.210 HD
ENDBRANCH   4  25
BRANCH   1  27
HETATM   27  N5  UNL     1     -31.051   6.928 -24.573  1.00  0.00    -0.297 N 
HETATM   28  C3  UNL     1     -30.918   5.666 -24.990  1.00  0.00     0.142 A 
HETATM   29  N3  UNL     1     -30.565   5.118 -26.187  1.00  0.00    -0.336 N 
HETATM   30  C4  UNL     1     -31.231   4.822 -23.957  1.00  0.00     0.119 A 
HETATM   31  C2  UNL     1     -30.518   3.797 -26.382  1.00  0.00     0.183 A 
ATOM     32  H3  UNL     1     -30.329   5.738 -26.961  1.00  0.00     0.168 HD
HETATM   33  N2  UNL     1     -30.836   2.993 -25.355  1.00  0.00    -0.339 N 
HETATM   34  C1  UNL     1     -31.192   3.427 -24.151  1.00  0.00     0.148 A 
ATOM     35  H2  UNL     1     -30.803   1.985 -25.509  1.00  0.00     0.167 HD
HETATM   36  N1  UNL     1     -31.651   2.602 -23.106  1.00  0.00    -0.080 NA
HETATM   37  N4  UNL     1     -31.529   5.609 -22.913  1.00  0.00    -0.346 N 
HETATM   38  C5  UNL     1     -31.412   6.908 -23.305  1.00  0.00     0.188 A 
ATOM     39  H4  UNL     1     -31.798   5.290 -21.982  1.00  0.00     0.167 HD
ENDBRANCH   1  27
BRANCH   5  40
HETATM   40  O6  UNL     1     -28.590   8.392 -25.519  1.00  0.00    -0.388 OA
ATOM     41  H6  UNL     1     -27.741   8.061 -25.790  1.00  0.00     0.210 HD
ENDBRANCH   5  40
TORSDOF 10
ENDMDL
