MODEL 3
REMARK VINA RESULT: -9.091315091      2.314      3.954
REMARK  10 active torsions:
REMARK  status: ('A' for Active; 'I' for Inactive)
REMARK    1  A    between atoms: N5_13  and  C6_14 
REMARK    2  A    between atoms: C7_16  and  C8_17 
REMARK    3  A    between atoms: C8_17  and  O2_18 
REMARK    4  A    between atoms: O2_18  and  P1_19 
REMARK    5  A    between atoms: P1_19  and  N6_22 
REMARK    6  A    between atoms: N6_22  and  C9_24 
REMARK    7  A    between atoms: C9_24  and  C10_25 
REMARK    8  A    between atoms: C10_25  and  C11_26 
REMARK    9  A    between atoms: C19_36  and  O5_37 
REMARK   10  A    between atoms: C20_39  and  O6_40 
ROOT
HETATM    1  C6  UNL     1     -30.737   6.529 -24.367  1.00  0.00     0.262 C 
HETATM    2  O1  UNL     1     -29.966   6.462 -25.547  1.00  0.00    -0.353 OA
HETATM    3  C7  UNL     1     -29.750   5.184 -25.782  1.00  0.00     0.180 C 
HETATM    4  C19 UNL     1     -30.736   4.285 -25.136  1.00  0.00     0.182 C 
HETATM    5  C20 UNL     1     -31.695   5.292 -24.595  1.00  0.00     0.198 C 
ENDROOT
BRANCH   3   6
HETATM    6  C8  UNL     1     -29.503   4.773 -27.231  1.00  0.00     0.215 C 
BRANCH   6   7
HETATM    7  O2  UNL     1     -29.650   5.971 -27.896  1.00  0.00    -0.293 OA
BRANCH   7   8
HETATM    8  P1  UNL     1     -30.633   6.129 -29.191  1.00  0.00     0.359 P 
HETATM    9  O3  UNL     1     -31.888   5.758 -28.340  1.00  0.00    -0.630 OA
HETATM   10  O4  UNL     1     -31.391   7.710 -29.236  1.00  0.00    -0.630 OA
BRANCH   8  11
HETATM   11  N6  UNL     1     -30.831   5.053 -30.378  1.00  0.00    -0.325 N 
ATOM     12  H6  UNL     1     -31.272   4.155 -30.179  1.00  0.00     0.165 HD
BRANCH  11  13
HETATM   13  C9  UNL     1     -30.385   5.351 -31.729  1.00  0.00     0.130 C 
BRANCH  13  14
HETATM   14  C10 UNL     1     -29.633   4.080 -32.166  1.00  0.00     0.060 C 
BRANCH  14  15
HETATM   15  C11 UNL     1     -28.210   4.492 -32.271  1.00  0.00    -0.029 A 
HETATM   16  C12 UNL     1     -27.315   4.706 -31.238  1.00  0.00     0.096 A 
HETATM   17  N7  UNL     1     -26.174   5.101 -31.794  1.00  0.00    -0.365 N 
HETATM   18  C13 UNL     1     -26.309   5.144 -33.129  1.00  0.00     0.042 A 
ATOM     19  H7  UNL     1     -25.323   5.336 -31.282  1.00  0.00     0.165 HD
HETATM   20  C14 UNL     1     -25.465   5.440 -34.172  1.00  0.00     0.030 A 
HETATM   21  C18 UNL     1     -27.574   4.770 -33.449  1.00  0.00    -0.002 A 
HETATM   22  C15 UNL     1     -25.891   5.357 -35.476  1.00  0.00     0.002 A 
HETATM   23  C16 UNL     1     -27.192   4.972 -35.776  1.00  0.00     0.001 A 
HETATM   24  C17 UNL     1     -28.064   4.669 -34.745  1.00  0.00     0.014 A 
ENDBRANCH  14  15
ENDBRANCH  13  14
ENDBRANCH  11  13
ENDBRANCH   8  11
ENDBRANCH   7   8
ENDBRANCH   6   7
ENDBRANCH   3   6
BRANCH   4  25
HETATM   25  O5  UNL     1     -30.197   3.635 -23.996  1.00  0.00    -0.390 OA
ATOM     26  H5  UNL     1     -30.365   2.701 -24.006  1.00  0.00     0.210 HD
ENDBRANCH   4  25
BRANCH   1  27
HETATM   27  N5  UNL     1     -31.651   7.652 -24.504  1.00  0.00    -0.297 N 
HETATM   28  C3  UNL     1     -32.376   8.083 -23.467  1.00  0.00     0.142 A 
HETATM   29  N3  UNL     1     -32.351   7.793 -22.136  1.00  0.00    -0.336 N 
HETATM   30  C4  UNL     1     -33.313   8.973 -23.921  1.00  0.00     0.119 A 
HETATM   31  C2  UNL     1     -33.205   8.344 -21.269  1.00  0.00     0.183 A 
ATOM     32  H3  UNL     1     -31.656   7.132 -21.788  1.00  0.00     0.168 HD
HETATM   33  N2  UNL     1     -34.119   9.207 -21.740  1.00  0.00    -0.339 N 
HETATM   34  C1  UNL     1     -34.225   9.555 -23.018  1.00  0.00     0.148 A 
ATOM     35  H2  UNL     1     -34.772   9.623 -21.076  1.00  0.00     0.167 HD
HETATM   36  N1  UNL     1     -35.254  10.358 -23.546  1.00  0.00    -0.080 NA
HETATM   37  N4  UNL     1     -33.114   9.079 -25.242  1.00  0.00    -0.346 N 
HETATM   38  C5  UNL     1     -32.083   8.260 -25.590  1.00  0.00     0.188 A 
ATOM     39  H4  UNL     1     -33.645   9.673 -25.880  1.00  0.00     0.167 HD
ENDBRANCH   1  27
BRANCH   5  40
HETATM   40  O6  UNL     1     -32.326   4.907 -23.453  1.00  0.00    -0.388 OA
ATOM     41  H6  UNL     1     -32.122   4.011 -23.211  1.00  0.00     0.210 HD
ENDBRANCH   5  40
TORSDOF 10
ENDMDL
