MODEL 1
REMARK VINA RESULT: -9.588104246      0.000      0.000
REMARK  10 active torsions:
REMARK  status: ('A' for Active; 'I' for Inactive)
REMARK    1  A    between atoms: N5_13  and  C6_14 
REMARK    2  A    between atoms: C7_16  and  C8_17 
REMARK    3  A    between atoms: C8_17  and  O2_18 
REMARK    4  A    between atoms: O2_18  and  P1_19 
REMARK    5  A    between atoms: P1_19  and  N6_22 
REMARK    6  A    between atoms: N6_22  and  C9_24 
REMARK    7  A    between atoms: C9_24  and  C10_25 
REMARK    8  A    between atoms: C10_25  and  C11_26 
REMARK    9  A    between atoms: C19_36  and  O5_37 
REMARK   10  A    between atoms: C20_39  and  O6_40 
ROOT
HETATM    1  C6  UNL     1     -30.855   8.199 -25.169  1.00  0.00     0.262 C 
HETATM    2  O1  UNL     1     -31.828   8.238 -26.190  1.00  0.00    -0.353 OA
HETATM    3  C7  UNL     1     -31.300   8.920 -27.186  1.00  0.00     0.180 C 
HETATM    4  C19 UNL     1     -29.818   8.954 -27.165  1.00  0.00     0.182 C 
HETATM    5  C20 UNL     1     -29.550   8.010 -26.041  1.00  0.00     0.198 C 
ENDROOT
BRANCH   3   6
HETATM    6  C8  UNL     1     -31.818   8.621 -28.591  1.00  0.00     0.215 C 
BRANCH   6   7
HETATM    7  O2  UNL     1     -31.337   7.348 -28.806  1.00  0.00    -0.293 OA
BRANCH   7   8
HETATM    8  P1  UNL     1     -32.042   6.323 -29.866  1.00  0.00     0.359 P 
HETATM    9  O3  UNL     1     -32.899   5.671 -28.735  1.00  0.00    -0.630 OA
HETATM   10  O4  UNL     1     -33.597   6.927 -30.407  1.00  0.00    -0.630 OA
BRANCH   8  11
HETATM   11  N6  UNL     1     -31.391   4.976 -30.471  1.00  0.00    -0.325 N 
ATOM     12  H6  UNL     1     -31.998   4.237 -30.829  1.00  0.00     0.165 HD
BRANCH  11  13
HETATM   13  C9  UNL     1     -29.948   4.805 -30.512  1.00  0.00     0.130 C 
BRANCH  13  14
HETATM   14  C10 UNL     1     -29.655   4.443 -31.980  1.00  0.00     0.060 C 
BRANCH  14  15
HETATM   15  C11 UNL     1     -28.202   4.697 -32.155  1.00  0.00    -0.029 A 
HETATM   16  C12 UNL     1     -27.247   4.852 -31.166  1.00  0.00     0.096 A 
HETATM   17  N7  UNL     1     -26.095   5.102 -31.779  1.00  0.00    -0.365 N 
HETATM   18  C13 UNL     1     -26.280   5.110 -33.110  1.00  0.00     0.042 A 
ATOM     19  H7  UNL     1     -25.204   5.263 -31.310  1.00  0.00     0.165 HD
HETATM   20  C14 UNL     1     -25.453   5.275 -34.194  1.00  0.00     0.030 A 
HETATM   21  C18 UNL     1     -27.589   4.861 -33.367  1.00  0.00    -0.002 A 
HETATM   22  C15 UNL     1     -25.940   5.189 -35.477  1.00  0.00     0.002 A 
HETATM   23  C16 UNL     1     -27.284   4.935 -35.713  1.00  0.00     0.001 A 
HETATM   24  C17 UNL     1     -28.141   4.765 -34.638  1.00  0.00     0.014 A 
ENDBRANCH  14  15
ENDBRANCH  13  14
ENDBRANCH  11  13
ENDBRANCH   8  11
ENDBRANCH   7   8
ENDBRANCH   6   7
ENDBRANCH   3   6
BRANCH   4  25
HETATM   25  O5  UNL     1     -29.321  10.207 -26.724  1.00  0.00    -0.390 OA
ATOM     26  H5  UNL     1     -29.339  10.861 -27.413  1.00  0.00     0.210 HD
ENDBRANCH   4  25
BRANCH   1  27
HETATM   27  N5  UNL     1     -30.968   6.911 -24.504  1.00  0.00    -0.297 N 
HETATM   28  C3  UNL     1     -30.861   5.769 -25.189  1.00  0.00     0.142 A 
HETATM   29  N3  UNL     1     -30.480   5.487 -26.467  1.00  0.00    -0.336 N 
HETATM   30  C4  UNL     1     -31.242   4.730 -24.381  1.00  0.00     0.119 A 
HETATM   31  C2  UNL     1     -30.470   4.242 -26.951  1.00  0.00     0.183 A 
ATOM     32  H3  UNL     1     -30.193   6.253 -27.076  1.00  0.00     0.168 HD
HETATM   33  N2  UNL     1     -30.855   3.243 -26.141  1.00  0.00    -0.339 N 
HETATM   34  C1  UNL     1     -31.243   3.413 -24.881  1.00  0.00     0.148 A 
ATOM     35  H2  UNL     1     -30.850   2.294 -26.515  1.00  0.00     0.167 HD
HETATM   36  N1  UNL     1     -31.769   2.396 -24.062  1.00  0.00    -0.080 NA
HETATM   37  N4  UNL     1     -31.554   5.277 -23.197  1.00  0.00    -0.346 N 
HETATM   38  C5  UNL     1     -31.378   6.625 -23.285  1.00  0.00     0.188 A 
ATOM     39  H4  UNL     1     -31.870   4.770 -22.370  1.00  0.00     0.167 HD
ENDBRANCH   1  27
BRANCH   5  40
HETATM   40  O6  UNL     1     -28.414   8.281 -25.341  1.00  0.00    -0.388 OA
ATOM     41  H6  UNL     1     -27.966   9.055 -25.663  1.00  0.00     0.210 HD
ENDBRANCH   5  40
TORSDOF 10
ENDMDL
