MODEL 14
REMARK VINA RESULT: -8.670750710      3.831     10.080
REMARK  10 active torsions:
REMARK  status: ('A' for Active; 'I' for Inactive)
REMARK    1  A    between atoms: N5_13  and  C6_14 
REMARK    2  A    between atoms: C7_16  and  C8_17 
REMARK    3  A    between atoms: C8_17  and  O2_18 
REMARK    4  A    between atoms: O2_18  and  P1_19 
REMARK    5  A    between atoms: P1_19  and  N6_22 
REMARK    6  A    between atoms: N6_22  and  C9_24 
REMARK    7  A    between atoms: C9_24  and  C10_25 
REMARK    8  A    between atoms: C10_25  and  C11_26 
REMARK    9  A    between atoms: C19_36  and  O5_37 
REMARK   10  A    between atoms: C20_39  and  O6_40 
ROOT
HETATM    1  C6  UNL     1     -29.044   5.837 -29.267  1.00  0.00     0.262 C 
HETATM    2  O1  UNL     1     -29.283   4.775 -28.370  1.00  0.00    -0.353 OA
HETATM    3  C7  UNL     1     -29.552   5.323 -27.203  1.00  0.00     0.180 C 
HETATM    4  C19 UNL     1     -30.024   6.725 -27.298  1.00  0.00     0.182 C 
HETATM    5  C20 UNL     1     -30.145   6.862 -28.779  1.00  0.00     0.198 C 
ENDROOT
BRANCH   3   6
HETATM    6  C8  UNL     1     -30.419   4.519 -26.237  1.00  0.00     0.215 C 
BRANCH   6   7
HETATM    7  O2  UNL     1     -30.056   5.052 -25.019  1.00  0.00    -0.293 OA
BRANCH   7   8
HETATM    8  P1  UNL     1     -31.123   5.216 -23.792  1.00  0.00     0.359 P 
HETATM    9  O3  UNL     1     -32.027   4.080 -24.367  1.00  0.00    -0.630 OA
HETATM   10  O4  UNL     1     -30.825   4.048 -22.519  1.00  0.00    -0.630 OA
BRANCH   8  11
HETATM   11  N6  UNL     1     -32.251   6.363 -23.653  1.00  0.00    -0.325 N 
ATOM     12  H6  UNL     1     -33.114   6.291 -24.192  1.00  0.00     0.165 HD
BRANCH  11  13
HETATM   13  C9  UNL     1     -32.048   7.497 -22.767  1.00  0.00     0.130 C 
BRANCH  13  14
HETATM   14  C10 UNL     1     -33.152   8.491 -23.170  1.00  0.00     0.060 C 
BRANCH  14  15
HETATM   15  C11 UNL     1     -33.726   8.970 -21.887  1.00  0.00    -0.029 A 
HETATM   16  C12 UNL     1     -33.339   8.618 -20.606  1.00  0.00     0.096 A 
HETATM   17  N7  UNL     1     -34.153   9.255 -19.770  1.00  0.00    -0.365 N 
HETATM   18  C13 UNL     1     -35.034   9.992 -20.465  1.00  0.00     0.042 A 
ATOM     19  H7  UNL     1     -34.114   9.192 -18.753  1.00  0.00     0.165 HD
HETATM   20  C14 UNL     1     -36.049  10.853 -20.124  1.00  0.00     0.030 A 
HETATM   21  C18 UNL     1     -34.787   9.828 -21.790  1.00  0.00    -0.002 A 
HETATM   22  C15 UNL     1     -36.774  11.513 -21.087  1.00  0.00     0.002 A 
HETATM   23  C16 UNL     1     -36.502  11.326 -22.436  1.00  0.00     0.001 A 
HETATM   24  C17 UNL     1     -35.484  10.464 -22.809  1.00  0.00     0.014 A 
ENDBRANCH  14  15
ENDBRANCH  13  14
ENDBRANCH  11  13
ENDBRANCH   8  11
ENDBRANCH   7   8
ENDBRANCH   6   7
ENDBRANCH   3   6
BRANCH   4  25
HETATM   25  O5  UNL     1     -29.019   7.652 -26.920  1.00  0.00    -0.390 OA
ATOM     26  H5  UNL     1     -28.723   7.513 -26.028  1.00  0.00     0.210 HD
ENDBRANCH   4  25
BRANCH   1  27
HETATM   27  N5  UNL     1     -29.556   5.436 -30.568  1.00  0.00    -0.297 N 
HETATM   28  C3  UNL     1     -28.731   5.204 -31.593  1.00  0.00     0.142 A 
HETATM   29  N3  UNL     1     -27.377   5.092 -31.685  1.00  0.00    -0.336 N 
HETATM   30  C4  UNL     1     -29.472   5.085 -32.740  1.00  0.00     0.119 A 
HETATM   31  C2  UNL     1     -26.755   4.873 -32.847  1.00  0.00     0.183 A 
ATOM     32  H3  UNL     1     -26.817   5.178 -30.837  1.00  0.00     0.168 HD
HETATM   33  N2  UNL     1     -27.503   4.767 -33.957  1.00  0.00    -0.339 N 
HETATM   34  C1  UNL     1     -28.829   4.861 -33.973  1.00  0.00     0.148 A 
ATOM     35  H2  UNL     1     -27.025   4.604 -34.843  1.00  0.00     0.167 HD
HETATM   36  N1  UNL     1     -29.616   4.880 -35.141  1.00  0.00    -0.080 NA
HETATM   37  N4  UNL     1     -30.753   5.227 -32.369  1.00  0.00    -0.346 N 
HETATM   38  C5  UNL     1     -30.792   5.441 -31.025  1.00  0.00     0.188 A 
ATOM     39  H4  UNL     1     -31.562   5.182 -32.990  1.00  0.00     0.167 HD
ENDBRANCH   1  27
BRANCH   5  40
HETATM   40  O6  UNL     1     -29.925   8.121 -29.244  1.00  0.00    -0.388 OA
ATOM     41  H6  UNL     1     -29.781   8.140 -30.184  1.00  0.00     0.210 HD
ENDBRANCH   5  40
TORSDOF 10
ENDMDL
