MODEL 4
REMARK VINA RESULT: -6.053224781      4.128      6.653
REMARK  5 active torsions:
REMARK  status: ('A' for Active; 'I' for Inactive)
REMARK    1  A    between atoms: N5_13  and  C6_14 
REMARK    2  A    between atoms: C7_16  and  C8_17 
REMARK    3  A    between atoms: C8_17  and  O2_18 
REMARK    4  A    between atoms: C9_20  and  O3_21 
REMARK    5  A    between atoms: C10_23  and  O4_24 
ROOT
HETATM    1  N1  UNL     1     -17.099   0.877   1.547  1.00  0.00    -0.080 NA
HETATM    2  C1  UNL     1     -15.827   0.323   1.282  1.00  0.00     0.148 A 
HETATM    3  N2  UNL     1     -15.227   0.443   0.070  1.00  0.00    -0.339 N 
ATOM      4  H2  UNL     1     -15.694   0.947  -0.685  1.00  0.00     0.167 HD
HETATM    5  C2  UNL     1     -14.016  -0.103  -0.132  1.00  0.00     0.183 A 
HETATM    6  N3  UNL     1     -13.409  -0.765   0.869  1.00  0.00    -0.336 N 
ATOM      7  H3  UNL     1     -12.490  -1.174   0.702  1.00  0.00     0.168 HD
HETATM    8  C3  UNL     1     -13.979  -0.907   2.101  1.00  0.00     0.142 A 
HETATM    9  C4  UNL     1     -15.208  -0.355   2.310  1.00  0.00     0.119 A 
HETATM   10  N4  UNL     1     -15.543  -0.635   3.588  1.00  0.00    -0.346 N 
ATOM     11  H4  UNL     1     -16.409  -0.357   4.050  1.00  0.00     0.167 HD
HETATM   12  C5  UNL     1     -14.543  -1.342   4.153  1.00  0.00     0.188 A 
HETATM   13  N5  UNL     1     -13.583  -1.508   3.233  1.00  0.00    -0.297 N 
ENDROOT
BRANCH  13  14
HETATM   14  C6  UNL     1     -12.338  -2.194   3.382  1.00  0.00     0.262 C 
HETATM   15  O1  UNL     1     -11.292  -1.387   2.949  1.00  0.00    -0.353 OA
HETATM   16  C7  UNL     1     -10.210  -2.185   2.690  1.00  0.00     0.179 C 
HETATM   17  C9  UNL     1     -10.688  -3.611   2.585  1.00  0.00     0.182 C 
HETATM   18  C10 UNL     1     -12.204  -3.394   2.486  1.00  0.00     0.198 C 
BRANCH  16  19
HETATM   19  C8  UNL     1      -9.534  -1.830   1.378  1.00  0.00     0.198 C 
BRANCH  19  20
HETATM   20  O2  UNL     1     -10.376  -1.212   0.485  1.00  0.00    -0.398 OA
ATOM     21  H2  UNL     1     -11.296  -1.343   0.685  1.00  0.00     0.209 HD
ENDBRANCH  19  20
ENDBRANCH  16  19
BRANCH  17  22
HETATM   22  O3  UNL     1     -10.440  -4.256   3.803  1.00  0.00    -0.390 OA
ATOM     23  H3  UNL     1     -10.819  -5.127   3.767  1.00  0.00     0.210 HD
ENDBRANCH  17  22
BRANCH  18  24
HETATM   24  O4  UNL     1     -12.900  -4.496   2.966  1.00  0.00    -0.388 OA
ATOM     25  H4  UNL     1     -12.605  -4.766   3.827  1.00  0.00     0.210 HD
ENDBRANCH  18  24
ENDBRANCH  13  14
TORSDOF 5
ENDMDL
