MODEL 2
REMARK VINA RESULT: -6.319059187      4.456      7.263
REMARK  5 active torsions:
REMARK  status: ('A' for Active; 'I' for Inactive)
REMARK    1  A    between atoms: N5_13  and  C6_14 
REMARK    2  A    between atoms: C7_16  and  C8_17 
REMARK    3  A    between atoms: C8_17  and  O2_18 
REMARK    4  A    between atoms: C9_20  and  O3_21 
REMARK    5  A    between atoms: C10_23  and  O4_24 
ROOT
HETATM    1  N1  UNL     1     -17.569   0.972   1.758  1.00  0.00    -0.080 NA
HETATM    2  C1  UNL     1     -16.450   0.266   2.251  1.00  0.00     0.148 A 
HETATM    3  N2  UNL     1     -16.398  -0.204   3.524  1.00  0.00    -0.339 N 
ATOM      4  H2  UNL     1     -17.182  -0.053   4.158  1.00  0.00     0.167 HD
HETATM    5  C2  UNL     1     -15.309  -0.870   3.946  1.00  0.00     0.183 A 
HETATM    6  N3  UNL     1     -14.280  -1.065   3.102  1.00  0.00    -0.336 N 
ATOM      7  H3  UNL     1     -13.460  -1.572   3.434  1.00  0.00     0.168 HD
HETATM    8  C3  UNL     1     -14.294  -0.608   1.816  1.00  0.00     0.142 A 
HETATM    9  C4  UNL     1     -15.396   0.068   1.384  1.00  0.00     0.119 A 
HETATM   10  N4  UNL     1     -15.162   0.407   0.098  1.00  0.00    -0.346 N 
ATOM     11  H4  UNL     1     -15.800   0.923  -0.507  1.00  0.00     0.167 HD
HETATM   12  C5  UNL     1     -13.943  -0.052  -0.255  1.00  0.00     0.188 A 
HETATM   13  N5  UNL     1     -13.412  -0.675   0.807  1.00  0.00    -0.297 N 
ENDROOT
BRANCH  13  14
HETATM   14  C6  UNL     1     -12.138  -1.315   0.899  1.00  0.00     0.262 C 
HETATM   15  O1  UNL     1     -12.283  -2.599   1.413  1.00  0.00    -0.353 OA
HETATM   16  C7  UNL     1     -11.069  -3.011   1.892  1.00  0.00     0.179 C 
HETATM   17  C9  UNL     1     -10.183  -1.800   2.042  1.00  0.00     0.182 C 
HETATM   18  C10 UNL     1     -11.216  -0.675   1.899  1.00  0.00     0.198 C 
BRANCH  16  19
HETATM   19  C8  UNL     1     -11.181  -3.669   3.256  1.00  0.00     0.198 C 
BRANCH  19  20
HETATM   20  O2  UNL     1     -12.385  -3.428   3.875  1.00  0.00    -0.398 OA
ATOM     21  H2  UNL     1     -12.361  -3.585   4.812  1.00  0.00     0.209 HD
ENDBRANCH  19  20
ENDBRANCH  16  19
BRANCH  17  22
HETATM   22  O3  UNL     1      -9.335  -1.726   0.931  1.00  0.00    -0.390 OA
ATOM     23  H3  UNL     1      -9.610  -0.998   0.387  1.00  0.00     0.210 HD
ENDBRANCH  17  22
BRANCH  18  24
HETATM   24  O4  UNL     1     -10.630   0.487   1.415  1.00  0.00    -0.388 OA
ATOM     25  H4  UNL     1      -9.737   0.348   1.123  1.00  0.00     0.210 HD
ENDBRANCH  18  24
ENDBRANCH  13  14
TORSDOF 5
ENDMDL
