MODEL 3
REMARK VINA RESULT: -6.089785574      2.547      3.934
REMARK  5 active torsions:
REMARK  status: ('A' for Active; 'I' for Inactive)
REMARK    1  A    between atoms: N5_13  and  C6_14 
REMARK    2  A    between atoms: C7_16  and  C8_17 
REMARK    3  A    between atoms: C8_17  and  O2_18 
REMARK    4  A    between atoms: C9_20  and  O3_21 
REMARK    5  A    between atoms: C10_23  and  O4_24 
ROOT
HETATM    1  N1  UNL     1      -9.587  -5.195   3.785  1.00  0.00    -0.080 NA
HETATM    2  C1  UNL     1     -10.075  -4.111   3.021  1.00  0.00     0.148 A 
HETATM    3  N2  UNL     1      -9.252  -3.316   2.290  1.00  0.00    -0.339 N 
ATOM      4  H2  UNL     1      -8.247  -3.492   2.279  1.00  0.00     0.167 HD
HETATM    5  C2  UNL     1      -9.765  -2.297   1.581  1.00  0.00     0.183 A 
HETATM    6  N3  UNL     1     -11.092  -2.073   1.601  1.00  0.00    -0.336 N 
ATOM      7  H3  UNL     1     -11.468  -1.297   1.058  1.00  0.00     0.168 HD
HETATM    8  C3  UNL     1     -11.952  -2.849   2.323  1.00  0.00     0.142 A 
HETATM    9  C4  UNL     1     -11.435  -3.884   3.045  1.00  0.00     0.119 A 
HETATM   10  N4  UNL     1     -12.478  -4.484   3.659  1.00  0.00    -0.346 N 
ATOM     11  H4  UNL     1     -12.418  -5.295   4.275  1.00  0.00     0.167 HD
HETATM   12  C5  UNL     1     -13.611  -3.834   3.322  1.00  0.00     0.188 A 
HETATM   13  N5  UNL     1     -13.281  -2.828   2.500  1.00  0.00    -0.297 N 
ENDROOT
BRANCH  13  14
HETATM   14  C6  UNL     1     -14.154  -1.874   1.892  1.00  0.00     0.262 C 
HETATM   15  O1  UNL     1     -13.735  -1.600   0.595  1.00  0.00    -0.353 OA
HETATM   16  C7  UNL     1     -14.288  -0.410   0.205  1.00  0.00     0.179 C 
HETATM   17  C9  UNL     1     -14.782   0.309   1.435  1.00  0.00     0.182 C 
HETATM   18  C10 UNL     1     -14.102  -0.517   2.536  1.00  0.00     0.198 C 
BRANCH  16  19
HETATM   19  C8  UNL     1     -13.282   0.495  -0.482  1.00  0.00     0.198 C 
BRANCH  19  20
HETATM   20  O2  UNL     1     -11.977   0.156  -0.214  1.00  0.00    -0.398 OA
ATOM     21  H2  UNL     1     -11.738   0.282   0.697  1.00  0.00     0.209 HD
ENDBRANCH  19  20
ENDBRANCH  16  19
BRANCH  17  22
HETATM   22  O3  UNL     1     -16.161   0.098   1.553  1.00  0.00    -0.390 OA
ATOM     23  H3  UNL     1     -16.371  -0.747   1.174  1.00  0.00     0.210 HD
ENDBRANCH  17  22
BRANCH  18  24
HETATM   24  O4  UNL     1     -14.822  -0.462   3.721  1.00  0.00    -0.388 OA
ATOM     25  H4  UNL     1     -15.760  -0.438   3.576  1.00  0.00     0.210 HD
ENDBRANCH  18  24
ENDBRANCH  13  14
TORSDOF 5
ENDMDL
