MODEL 1
REMARK VINA RESULT: -6.555696186      0.000      0.000
REMARK  5 active torsions:
REMARK  status: ('A' for Active; 'I' for Inactive)
REMARK    1  A    between atoms: N5_13  and  C6_14 
REMARK    2  A    between atoms: C7_16  and  C8_17 
REMARK    3  A    between atoms: C8_17  and  O2_18 
REMARK    4  A    between atoms: C9_20  and  O3_21 
REMARK    5  A    between atoms: C10_23  and  O4_24 
ROOT
HETATM    1  N1  UNL     1      -6.476  -5.233   6.215  1.00  0.00    -0.080 NA
HETATM    2  C1  UNL     1      -7.205  -5.448   5.023  1.00  0.00     0.148 A 
HETATM    3  N2  UNL     1      -7.000  -6.538   4.241  1.00  0.00    -0.339 N 
ATOM      4  H2  UNL     1      -6.303  -7.235   4.505  1.00  0.00     0.167 HD
HETATM    5  C2  UNL     1      -7.718  -6.696   3.116  1.00  0.00     0.183 A 
HETATM    6  N3  UNL     1      -8.635  -5.772   2.776  1.00  0.00    -0.336 N 
ATOM      7  H3  UNL     1      -9.174  -5.905   1.921  1.00  0.00     0.168 HD
HETATM    8  C3  UNL     1      -8.870  -4.664   3.537  1.00  0.00     0.142 A 
HETATM    9  C4  UNL     1      -8.143  -4.499   4.678  1.00  0.00     0.119 A 
HETATM   10  N4  UNL     1      -8.561  -3.342   5.237  1.00  0.00    -0.346 N 
ATOM     11  H4  UNL     1      -8.207  -2.940   6.104  1.00  0.00     0.167 HD
HETATM   12  C5  UNL     1      -9.524  -2.808   4.458  1.00  0.00     0.188 A 
HETATM   13  N5  UNL     1      -9.710  -3.625   3.412  1.00  0.00    -0.297 N 
ENDROOT
BRANCH  13  14
HETATM   14  C6  UNL     1     -10.629  -3.464   2.330  1.00  0.00     0.262 C 
HETATM   15  O1  UNL     1     -10.357  -2.288   1.641  1.00  0.00    -0.353 OA
HETATM   16  C7  UNL     1     -11.470  -1.941   0.923  1.00  0.00     0.179 C 
HETATM   17  C9  UNL     1     -12.644  -2.716   1.465  1.00  0.00     0.182 C 
HETATM   18  C10 UNL     1     -12.049  -3.250   2.775  1.00  0.00     0.198 C 
BRANCH  16  19
HETATM   19  C8  UNL     1     -11.799  -0.464   1.049  1.00  0.00     0.198 C 
BRANCH  19  20
HETATM   20  O2  UNL     1     -11.810   0.192  -0.160  1.00  0.00    -0.398 OA
ATOM     21  H2  UNL     1     -12.379   0.953  -0.166  1.00  0.00     0.209 HD
ENDBRANCH  19  20
ENDBRANCH  16  19
BRANCH  17  22
HETATM   22  O3  UNL     1     -12.872  -3.820   0.634  1.00  0.00    -0.390 OA
ATOM     23  H3  UNL     1     -13.197  -4.537   1.166  1.00  0.00     0.210 HD
ENDBRANCH  17  22
BRANCH  18  24
HETATM   24  O4  UNL     1     -12.668  -4.430   3.164  1.00  0.00    -0.388 OA
ATOM     25  H4  UNL     1     -13.539  -4.285   3.515  1.00  0.00     0.210 HD
ENDBRANCH  18  24
ENDBRANCH  13  14
TORSDOF 5
ENDMDL
