MODEL 10
REMARK VINA RESULT: -5.664867546      1.348      1.388
REMARK  5 active torsions:
REMARK  status: ('A' for Active; 'I' for Inactive)
REMARK    1  A    between atoms: N5_13  and  C6_14 
REMARK    2  A    between atoms: C7_16  and  C8_17 
REMARK    3  A    between atoms: C8_17  and  O2_18 
REMARK    4  A    between atoms: C9_20  and  O3_21 
REMARK    5  A    between atoms: C10_23  and  O4_24 
ROOT
HETATM    1  N1  UNL     1      -7.311  -4.575   5.922  1.00  0.00    -0.080 NA
HETATM    2  C1  UNL     1      -7.993  -4.808   4.706  1.00  0.00     0.148 A 
HETATM    3  N2  UNL     1      -7.648  -5.819   3.869  1.00  0.00    -0.339 N 
ATOM      4  H2  UNL     1      -6.875  -6.441   4.107  1.00  0.00     0.167 HD
HETATM    5  C2  UNL     1      -8.329  -5.999   2.724  1.00  0.00     0.183 A 
HETATM    6  N3  UNL     1      -9.347  -5.174   2.418  1.00  0.00    -0.336 N 
ATOM      7  H3  UNL     1      -9.855  -5.322   1.547  1.00  0.00     0.168 HD
HETATM    8  C3  UNL     1      -9.724  -4.147   3.234  1.00  0.00     0.142 A 
HETATM    9  C4  UNL     1      -9.036  -3.961   4.396  1.00  0.00     0.119 A 
HETATM   10  N4  UNL     1      -9.597  -2.897   5.010  1.00  0.00    -0.346 N 
ATOM     11  H4  UNL     1      -9.305  -2.505   5.905  1.00  0.00     0.167 HD
HETATM   12  C5  UNL     1     -10.609  -2.439   4.244  1.00  0.00     0.188 A 
HETATM   13  N5  UNL     1     -10.682  -3.212   3.151  1.00  0.00    -0.297 N 
ENDROOT
BRANCH  13  14
HETATM   14  C6  UNL     1     -11.601  -3.102   2.062  1.00  0.00     0.262 C 
HETATM   15  O1  UNL     1     -11.726  -1.773   1.674  1.00  0.00    -0.353 OA
HETATM   16  C7  UNL     1     -12.890  -1.638   0.965  1.00  0.00     0.179 C 
HETATM   17  C9  UNL     1     -13.748  -2.850   1.228  1.00  0.00     0.182 C 
HETATM   18  C10 UNL     1     -13.014  -3.459   2.431  1.00  0.00     0.198 C 
BRANCH  16  19
HETATM   19  C8  UNL     1     -13.683  -0.415   1.388  1.00  0.00     0.198 C 
BRANCH  19  20
HETATM   20  O2  UNL     1     -13.648  -0.189   2.743  1.00  0.00    -0.398 OA
ATOM     21  H2  UNL     1     -13.841  -0.964   3.257  1.00  0.00     0.209 HD
ENDBRANCH  19  20
ENDBRANCH  16  19
BRANCH  17  22
HETATM   22  O3  UNL     1     -13.601  -3.742   0.159  1.00  0.00    -0.390 OA
ATOM     23  H3  UNL     1     -13.254  -4.561   0.494  1.00  0.00     0.210 HD
ENDBRANCH  17  22
BRANCH  18  24
HETATM   24  O4  UNL     1     -13.215  -4.831   2.499  1.00  0.00    -0.388 OA
ATOM     25  H4  UNL     1     -13.643  -5.175   1.725  1.00  0.00     0.210 HD
ENDBRANCH  18  24
ENDBRANCH  13  14
TORSDOF 5
ENDMDL
