MODEL 2
REMARK VINA RESULT: -7.253605382      2.126      3.023
REMARK  8 active torsions:
REMARK  status: ('A' for Active; 'I' for Inactive)
REMARK    1  A    between atoms: C2_2  and  N1_3 
REMARK    2  A    between atoms: N1_3  and  P1_5 
REMARK    3  A    between atoms: P1_5  and  O3_8 
REMARK    4  A    between atoms: O3_8  and  C3_9 
REMARK    5  A    between atoms: C3_9  and  C4_10 
REMARK    6  A    between atoms: C5_12  and  N2_13 
REMARK    7  A    between atoms: C11_27  and  O6_28 
REMARK    8  A    between atoms: C12_30  and  O7_31 
ROOT
HETATM    1  C4  UNL     1     -31.071   5.380 -30.285  1.00  0.00     0.180 C 
HETATM    2  O4  UNL     1     -31.296   5.243 -28.912  1.00  0.00    -0.353 OA
HETATM    3  C5  UNL     1     -30.095   6.003 -28.553  1.00  0.00     0.262 C 
HETATM    4  C11 UNL     1     -29.097   5.099 -29.088  1.00  0.00     0.198 C 
HETATM    5  C12 UNL     1     -29.813   4.613 -30.430  1.00  0.00     0.182 C 
ENDROOT
BRANCH   3   6
HETATM    6  N2  UNL     1     -30.254   6.379 -27.195  1.00  0.00    -0.297 N 
HETATM    7  C6  UNL     1     -30.104   7.637 -26.738  1.00  0.00     0.188 A 
HETATM    8  N3  UNL     1     -30.410   7.709 -25.430  1.00  0.00    -0.345 N 
HETATM    9  C7  UNL     1     -30.767   6.473 -25.037  1.00  0.00     0.146 A 
ATOM     10  H3  UNL     1     -30.377   8.544 -24.846  1.00  0.00     0.167 HD
HETATM   11  C8  UNL     1     -31.189   5.934 -23.847  1.00  0.00     0.278 A 
HETATM   12  C10 UNL     1     -30.659   5.661 -26.178  1.00  0.00     0.146 A 
HETATM   13  O5  UNL     1     -31.273   6.711 -22.828  1.00  0.00    -0.265 OA
HETATM   14  N4  UNL     1     -31.476   4.643 -23.830  1.00  0.00    -0.295 N 
HETATM   15  C9  UNL     1     -31.376   3.866 -24.887  1.00  0.00     0.196 A 
ATOM     16  H4  UNL     1     -31.791   4.229 -22.953  1.00  0.00     0.171 HD
HETATM   17  N5  UNL     1     -31.720   2.485 -24.878  1.00  0.00    -0.063 NA
HETATM   18  N6  UNL     1     -30.963   4.358 -26.095  1.00  0.00    -0.314 N 
ATOM     19  H6  UNL     1     -30.889   3.750 -26.910  1.00  0.00     0.170 HD
ENDBRANCH   3   6
BRANCH   4  20
HETATM   20  O6  UNL     1     -27.966   5.755 -29.561  1.00  0.00    -0.388 OA
ATOM     21  H6  UNL     1     -28.171   6.498 -30.118  1.00  0.00     0.210 HD
ENDBRANCH   4  20
BRANCH   1  22
HETATM   22  C3  UNL     1     -32.288   5.166 -31.054  1.00  0.00     0.215 C 
BRANCH  22  23
HETATM   23  O3  UNL     1     -32.619   6.272 -31.852  1.00  0.00    -0.293 OA
BRANCH  23  24
HETATM   24  P1  UNL     1     -32.284   5.716 -33.398  1.00  0.00     0.359 P 
HETATM   25  O1  UNL     1     -32.942   4.381 -33.013  1.00  0.00    -0.630 OA
HETATM   26  O2  UNL     1     -31.761   7.122 -33.731  1.00  0.00    -0.630 OA
BRANCH  24  27
HETATM   27  N1  UNL     1     -30.965   4.934 -33.920  1.00  0.00    -0.326 N 
ATOM     28  H1  UNL     1     -30.543   4.223 -33.323  1.00  0.00     0.165 HD
BRANCH  27  29
HETATM   29  C2  UNL     1     -30.390   5.206 -35.164  1.00  0.00     0.121 C 
HETATM   30  C1  UNL     1     -28.913   4.789 -35.048  1.00  0.00     0.026 C 
ENDBRANCH  27  29
ENDBRANCH  24  27
ENDBRANCH  23  24
ENDBRANCH  22  23
ENDBRANCH   1  22
BRANCH   5  31
HETATM   31  O7  UNL     1     -29.119   5.144 -31.526  1.00  0.00    -0.390 OA
ATOM     32  H7  UNL     1     -28.191   5.022 -31.363  1.00  0.00     0.210 HD
ENDBRANCH   5  31
TORSDOF 8
ENDMDL
