MODEL 3
REMARK VINA RESULT: -7.202618628      2.895      4.337
REMARK  8 active torsions:
REMARK  status: ('A' for Active; 'I' for Inactive)
REMARK    1  A    between atoms: C2_2  and  N1_3 
REMARK    2  A    between atoms: N1_3  and  P1_5 
REMARK    3  A    between atoms: P1_5  and  O3_8 
REMARK    4  A    between atoms: O3_8  and  C3_9 
REMARK    5  A    between atoms: C3_9  and  C4_10 
REMARK    6  A    between atoms: C5_12  and  N2_13 
REMARK    7  A    between atoms: C11_27  and  O6_28 
REMARK    8  A    between atoms: C12_30  and  O7_31 
ROOT
HETATM    1  C4  UNL     1     -29.871   5.422 -26.946  1.00  0.00     0.180 C 
HETATM    2  O4  UNL     1     -31.038   6.076 -26.542  1.00  0.00    -0.353 OA
HETATM    3  C5  UNL     1     -30.805   5.794 -25.122  1.00  0.00     0.262 C 
HETATM    4  C11 UNL     1     -30.913   4.350 -25.165  1.00  0.00     0.198 C 
HETATM    5  C12 UNL     1     -30.191   4.031 -26.553  1.00  0.00     0.182 C 
ENDROOT
BRANCH   3   6
HETATM    6  N2  UNL     1     -31.638   6.684 -24.398  1.00  0.00    -0.297 N 
HETATM    7  C6  UNL     1     -31.666   6.768 -23.054  1.00  0.00     0.188 A 
HETATM    8  N3  UNL     1     -32.478   7.762 -22.655  1.00  0.00    -0.345 N 
HETATM    9  C7  UNL     1     -32.982   8.334 -23.763  1.00  0.00     0.146 A 
ATOM     10  H3  UNL     1     -32.676   8.033 -21.691  1.00  0.00     0.167 HD
HETATM   11  C8  UNL     1     -33.838   9.382 -23.992  1.00  0.00     0.278 A 
HETATM   12  C10 UNL     1     -32.429   7.628 -24.844  1.00  0.00     0.146 A 
HETATM   13  O5  UNL     1     -34.323  10.000 -22.976  1.00  0.00    -0.265 OA
HETATM   14  N4  UNL     1     -34.110   9.683 -25.252  1.00  0.00    -0.295 N 
HETATM   15  C9  UNL     1     -33.604   9.031 -26.276  1.00  0.00     0.196 A 
ATOM     16  H4  UNL     1     -34.744  10.460 -25.438  1.00  0.00     0.171 HD
HETATM   17  N5  UNL     1     -33.868   9.378 -27.632  1.00  0.00    -0.063 NA
HETATM   18  N6  UNL     1     -32.745   7.981 -26.098  1.00  0.00    -0.314 N 
ATOM     19  H6  UNL     1     -32.357   7.481 -26.897  1.00  0.00     0.170 HD
ENDBRANCH   3   6
BRANCH   4  20
HETATM   20  O6  UNL     1     -30.096   3.715 -24.237  1.00  0.00    -0.388 OA
ATOM     21  H6  UNL     1     -30.578   3.164 -23.631  1.00  0.00     0.210 HD
ENDBRANCH   4  20
BRANCH   1  22
HETATM   22  C3  UNL     1     -29.445   5.851 -28.270  1.00  0.00     0.215 C 
BRANCH  22  23
HETATM   23  O3  UNL     1     -28.770   4.840 -28.970  1.00  0.00    -0.293 OA
BRANCH  23  24
HETATM   24  P1  UNL     1     -29.015   5.283 -30.570  1.00  0.00     0.359 P 
HETATM   25  O1  UNL     1     -30.474   4.817 -30.428  1.00  0.00    -0.630 OA
HETATM   26  O2  UNL     1     -27.583   5.838 -30.579  1.00  0.00    -0.630 OA
BRANCH  24  27
HETATM   27  N1  UNL     1     -28.838   4.377 -31.900  1.00  0.00    -0.326 N 
ATOM     28  H1  UNL     1     -29.605   3.771 -32.193  1.00  0.00     0.165 HD
BRANCH  27  29
HETATM   29  C2  UNL     1     -27.664   4.401 -32.658  1.00  0.00     0.121 C 
HETATM   30  C1  UNL     1     -28.085   4.815 -34.079  1.00  0.00     0.026 C 
ENDBRANCH  27  29
ENDBRANCH  24  27
ENDBRANCH  23  24
ENDBRANCH  22  23
ENDBRANCH   1  22
BRANCH   5  31
HETATM   31  O7  UNL     1     -28.980   3.378 -26.287  1.00  0.00    -0.390 OA
ATOM     32  H7  UNL     1     -28.493   3.337 -27.102  1.00  0.00     0.210 HD
ENDBRANCH   5  31
TORSDOF 8
ENDMDL
