MODEL 12
REMARK VINA RESULT: -6.975977566      3.304      8.439
REMARK  8 active torsions:
REMARK  status: ('A' for Active; 'I' for Inactive)
REMARK    1  A    between atoms: C2_2  and  N1_3 
REMARK    2  A    between atoms: N1_3  and  P1_5 
REMARK    3  A    between atoms: P1_5  and  O3_8 
REMARK    4  A    between atoms: O3_8  and  C3_9 
REMARK    5  A    between atoms: C3_9  and  C4_10 
REMARK    6  A    between atoms: C5_12  and  N2_13 
REMARK    7  A    between atoms: C11_27  and  O6_28 
REMARK    8  A    between atoms: C12_30  and  O7_31 
ROOT
HETATM    1  C4  UNL     1     -30.249   4.811 -27.101  1.00  0.00     0.180 C 
HETATM    2  O4  UNL     1     -30.967   4.631 -28.287  1.00  0.00    -0.353 OA
HETATM    3  C5  UNL     1     -30.130   5.571 -29.037  1.00  0.00     0.262 C 
HETATM    4  C11 UNL     1     -30.462   6.783 -28.315  1.00  0.00     0.198 C 
HETATM    5  C12 UNL     1     -30.548   6.233 -26.819  1.00  0.00     0.182 C 
ENDROOT
BRANCH   3   6
HETATM    6  N2  UNL     1     -30.371   5.312 -30.409  1.00  0.00    -0.297 N 
HETATM    7  C6  UNL     1     -31.597   5.260 -30.964  1.00  0.00     0.188 A 
HETATM    8  N3  UNL     1     -31.512   5.092 -32.296  1.00  0.00    -0.345 N 
HETATM    9  C7  UNL     1     -30.204   5.038 -32.607  1.00  0.00     0.146 A 
ATOM     10  H3  UNL     1     -32.292   5.019 -32.948  1.00  0.00     0.167 HD
HETATM   11  C8  UNL     1     -29.507   4.899 -33.780  1.00  0.00     0.278 A 
HETATM   12  C10 UNL     1     -29.514   5.183 -31.392  1.00  0.00     0.146 A 
HETATM   13  O5  UNL     1     -30.176   4.768 -34.870  1.00  0.00    -0.265 OA
HETATM   14  N4  UNL     1     -28.185   4.903 -33.709  1.00  0.00    -0.295 N 
HETATM   15  C9  UNL     1     -27.523   5.032 -32.581  1.00  0.00     0.196 A 
ATOM     16  H4  UNL     1     -27.654   4.800 -34.574  1.00  0.00     0.171 HD
HETATM   17  N5  UNL     1     -26.102   5.073 -32.507  1.00  0.00    -0.063 NA
HETATM   18  N6  UNL     1     -28.174   5.176 -31.386  1.00  0.00    -0.314 N 
ATOM     19  H6  UNL     1     -27.654   5.277 -30.515  1.00  0.00     0.170 HD
ENDBRANCH   3   6
BRANCH   4  20
HETATM   20  O6  UNL     1     -29.407   7.686 -28.253  1.00  0.00    -0.388 OA
ATOM     21  H6  UNL     1     -29.507   8.418 -28.851  1.00  0.00     0.210 HD
ENDBRANCH   4  20
BRANCH   1  22
HETATM   22  C3  UNL     1     -30.447   3.703 -26.178  1.00  0.00     0.215 C 
BRANCH  22  23
HETATM   23  O3  UNL     1     -30.014   4.005 -24.878  1.00  0.00    -0.293 OA
BRANCH  23  24
HETATM   24  P1  UNL     1     -31.363   3.635 -23.952  1.00  0.00     0.359 P 
HETATM   25  O1  UNL     1     -30.971   4.781 -23.004  1.00  0.00    -0.630 OA
HETATM   26  O2  UNL     1     -31.745   2.599 -25.020  1.00  0.00    -0.630 OA
BRANCH  24  27
HETATM   27  N1  UNL     1     -31.473   2.615 -22.700  1.00  0.00    -0.326 N 
ATOM     28  H1  UNL     1     -32.385   2.229 -22.454  1.00  0.00     0.165 HD
BRANCH  27  29
HETATM   29  C2  UNL     1     -30.354   2.247 -21.948  1.00  0.00     0.121 C 
HETATM   30  C1  UNL     1     -30.492   0.737 -21.693  1.00  0.00     0.026 C 
ENDBRANCH  27  29
ENDBRANCH  24  27
ENDBRANCH  23  24
ENDBRANCH  22  23
ENDBRANCH   1  22
BRANCH   5  31
HETATM   31  O7  UNL     1     -29.471   6.754 -26.088  1.00  0.00    -0.390 OA
ATOM     32  H7  UNL     1     -28.789   6.092 -26.073  1.00  0.00     0.210 HD
ENDBRANCH   5  31
TORSDOF 8
ENDMDL
