MODEL 1
REMARK VINA RESULT: -7.656445425      0.000      0.000
REMARK  8 active torsions:
REMARK  status: ('A' for Active; 'I' for Inactive)
REMARK    1  A    between atoms: C2_2  and  N1_3 
REMARK    2  A    between atoms: N1_3  and  P1_5 
REMARK    3  A    between atoms: P1_5  and  O3_8 
REMARK    4  A    between atoms: O3_8  and  C3_9 
REMARK    5  A    between atoms: C3_9  and  C4_10 
REMARK    6  A    between atoms: C5_12  and  N2_13 
REMARK    7  A    between atoms: C11_27  and  O6_28 
REMARK    8  A    between atoms: C12_30  and  O7_31 
ROOT
HETATM    1  C4  UNL     1     -29.065   5.114 -30.168  1.00  0.00     0.180 C 
HETATM    2  O4  UNL     1     -29.028   6.008 -29.094  1.00  0.00    -0.353 OA
HETATM    3  C5  UNL     1     -30.325   5.569 -28.573  1.00  0.00     0.262 C 
HETATM    4  C11 UNL     1     -31.160   5.997 -29.677  1.00  0.00     0.198 C 
HETATM    5  C12 UNL     1     -30.223   5.647 -30.921  1.00  0.00     0.182 C 
ENDROOT
BRANCH   3   6
HETATM    6  N2  UNL     1     -30.393   6.030 -27.234  1.00  0.00    -0.297 N 
HETATM    7  C6  UNL     1     -30.193   7.310 -26.865  1.00  0.00     0.188 A 
HETATM    8  N3  UNL     1     -30.415   7.467 -25.547  1.00  0.00    -0.345 N 
HETATM    9  C7  UNL     1     -30.770   6.265 -25.058  1.00  0.00     0.146 A 
ATOM     10  H3  UNL     1     -30.331   8.335 -25.019  1.00  0.00     0.167 HD
HETATM   11  C8  UNL     1     -31.126   5.809 -23.814  1.00  0.00     0.278 A 
HETATM   12  C10 UNL     1     -30.747   5.384 -26.151  1.00  0.00     0.146 A 
HETATM   13  O5  UNL     1     -31.133   6.647 -22.841  1.00  0.00    -0.265 OA
HETATM   14  N4  UNL     1     -31.435   4.527 -23.700  1.00  0.00    -0.295 N 
HETATM   15  C9  UNL     1     -31.415   3.687 -24.711  1.00  0.00     0.196 A 
ATOM     16  H4  UNL     1     -31.702   4.174 -22.781  1.00  0.00     0.171 HD
HETATM   17  N5  UNL     1     -31.782   2.315 -24.596  1.00  0.00    -0.063 NA
HETATM   18  N6  UNL     1     -31.069   4.096 -25.970  1.00  0.00    -0.314 N 
ATOM     19  H6  UNL     1     -31.056   3.438 -26.749  1.00  0.00     0.170 HD
ENDBRANCH   3   6
BRANCH   4  20
HETATM   20  O6  UNL     1     -32.262   5.173 -29.878  1.00  0.00    -0.388 OA
ATOM     21  H6  UNL     1     -33.077   5.654 -29.963  1.00  0.00     0.210 HD
ENDBRANCH   4  20
BRANCH   1  22
HETATM   22  C3  UNL     1     -27.738   4.870 -30.713  1.00  0.00     0.215 C 
BRANCH  22  23
HETATM   23  O3  UNL     1     -27.748   3.919 -31.744  1.00  0.00    -0.293 OA
BRANCH  23  24
HETATM   24  P1  UNL     1     -27.323   4.834 -33.084  1.00  0.00     0.359 P 
HETATM   25  O1  UNL     1     -28.589   4.314 -33.785  1.00  0.00    -0.630 OA
HETATM   26  O2  UNL     1     -26.154   5.398 -32.261  1.00  0.00    -0.630 OA
BRANCH  24  27
HETATM   27  N1  UNL     1     -26.419   4.395 -34.354  1.00  0.00    -0.326 N 
ATOM     28  H1  UNL     1     -26.831   3.800 -35.073  1.00  0.00     0.165 HD
BRANCH  27  29
HETATM   29  C2  UNL     1     -25.092   4.808 -34.492  1.00  0.00     0.121 C 
HETATM   30  C1  UNL     1     -25.076   5.798 -35.670  1.00  0.00     0.026 C 
ENDBRANCH  27  29
ENDBRANCH  24  27
ENDBRANCH  23  24
ENDBRANCH  22  23
ENDBRANCH   1  22
BRANCH   5  31
HETATM   31  O7  UNL     1     -30.795   4.579 -31.627  1.00  0.00    -0.390 OA
ATOM     32  H7  UNL     1     -31.601   4.343 -31.184  1.00  0.00     0.210 HD
ENDBRANCH   5  31
TORSDOF 8
ENDMDL
