MODEL 1
REMARK VINA RESULT: -5.475378652      0.000      0.000
REMARK  0 active torsions:
REMARK  status: ('A' for Active; 'I' for Inactive)
ROOT
HETATM    1  N1  UNL     1       4.407  78.291  77.675  1.00  0.00    -0.087 NA
HETATM    2  C1  UNL     1       3.255  77.485  78.007  1.00  0.00     0.101 A 
HETATM    3  N2  UNL     1       2.064  77.970  77.943  1.00  0.00    -0.300 N 
ATOM      4  H2  UNL     1       1.956  78.941  77.650  1.00  0.00     0.171 HD
HETATM    5  C2  UNL     1       0.900  77.234  78.253  1.00  0.00     0.324 A 
HETATM    6  O1  UNL     1      -0.244  77.723  78.184  1.00  0.00    -0.247 OA
HETATM    7  N3  UNL     1       1.046  75.886  78.660  1.00  0.00    -0.322 N 
ATOM      8  H3  UNL     1       0.222  75.332  78.890  1.00  0.00     0.169 HD
HETATM    9  C3  UNL     1       2.211  75.358  78.739  1.00  0.00     0.072 A 
HETATM   10  C4  UNL     1       3.457  76.085  78.425  1.00  0.00     0.118 A 
ENDROOT
TORSDOF 0
ENDMDL
