MODEL 3
REMARK VINA RESULT: -5.322656812      2.282      3.138
REMARK  0 active torsions:
REMARK  status: ('A' for Active; 'I' for Inactive)
ROOT
HETATM    1  N1  UNL     1      -0.589  77.738  77.615  1.00  0.00    -0.087 NA
HETATM    2  C1  UNL     1       0.661  77.346  78.222  1.00  0.00     0.101 A 
HETATM    3  N2  UNL     1       1.623  76.868  77.512  1.00  0.00    -0.300 N 
ATOM      4  H2  UNL     1       1.477  76.773  76.506  1.00  0.00     0.171 HD
HETATM    5  C2  UNL     1       2.868  76.468  78.045  1.00  0.00     0.324 A 
HETATM    6  O1  UNL     1       3.786  76.007  77.340  1.00  0.00    -0.247 OA
HETATM    7  N3  UNL     1       3.073  76.598  79.440  1.00  0.00    -0.322 N 
ATOM      8  H3  UNL     1       3.963  76.316  79.850  1.00  0.00     0.169 HD
HETATM    9  C3  UNL     1       2.146  77.069  80.188  1.00  0.00     0.072 A 
HETATM   10  C4  UNL     1       0.829  77.500  79.679  1.00  0.00     0.118 A 
ENDROOT
TORSDOF 0
ENDMDL
