MODEL 2
REMARK VINA RESULT: -5.358516512      1.476      1.537
REMARK  0 active torsions:
REMARK  status: ('A' for Active; 'I' for Inactive)
ROOT
HETATM    1  N1  UNL     1       3.750  76.323  77.106  1.00  0.00    -0.087 NA
HETATM    2  C1  UNL     1       2.638  76.721  77.937  1.00  0.00     0.101 A 
HETATM    3  N2  UNL     1       1.512  77.066  77.419  1.00  0.00    -0.300 N 
ATOM      4  H2  UNL     1       1.425  77.050  76.402  1.00  0.00     0.171 HD
HETATM    5  C2  UNL     1       0.389  77.465  78.177  1.00  0.00     0.324 A 
HETATM    6  O1  UNL     1      -0.693  77.795  77.656  1.00  0.00    -0.247 OA
HETATM    7  N3  UNL     1       0.505  77.488  79.588  1.00  0.00    -0.322 N 
ATOM      8  H3  UNL     1      -0.290  77.772  80.159  1.00  0.00     0.169 HD
HETATM    9  C3  UNL     1       1.607  77.153  80.150  1.00  0.00     0.072 A 
HETATM   10  C4  UNL     1       2.807  76.729  79.402  1.00  0.00     0.118 A 
ENDROOT
TORSDOF 0
ENDMDL
