MODEL 3
REMARK VINA RESULT: -10.975368346      3.720     11.463
REMARK  14 active torsions:
REMARK  status: ('A' for Active; 'I' for Inactive)
REMARK    1  A    between atoms: C2_2  and  N1_5 
REMARK       I    between atoms: N1_5  and  C5_7 
REMARK    2  A    between atoms: C5_7  and  C6_9 
REMARK    3  A    between atoms: N2_18  and  C15_19 
REMARK    4  A    between atoms: C15_19  and  C16_20 
REMARK    5  A    between atoms: C16_20  and  O2_21 
REMARK    6  A    between atoms: C16_20  and  C17_23 
REMARK    7  A    between atoms: C17_23  and  C18_24 
REMARK    8  A    between atoms: C17_23  and  N3_31 
REMARK    9  A    between atoms: C18_24  and  C19_25 
REMARK       I    between atoms: N3_31  and  C25_33 
REMARK   10  A    between atoms: C25_33  and  C26_35 
REMARK   11  A    between atoms: C26_35  and  C27_36 
REMARK   12  A    between atoms: C26_35  and  N5_40 
REMARK   13  A    between atoms: C27_36  and  C28_37 
REMARK       I    between atoms: N5_40  and  C29_42 
REMARK   14  A    between atoms: C29_42  and  C30_44 
ROOT
HETATM    1  C17 UNL     1     -15.165  12.554 -20.688  1.00  0.00     0.119 C 
ENDROOT
BRANCH   1   2
HETATM    2  C16 UNL     1     -16.416  12.358 -21.520  1.00  0.00     0.169 C 
BRANCH   2   3
HETATM    3  C15 UNL     1     -16.714  13.391 -22.539  1.00  0.00     0.307 C 
BRANCH   3   4
HETATM    4  N2  UNL     1     -18.025  13.500 -23.066  1.00  0.00     0.105 N 
HETATM    5  C6  UNL     1     -18.969  14.097 -22.136  1.00  0.00     0.314 C 
HETATM    6  C7  UNL     1     -20.300  14.218 -22.843  1.00  0.00     0.050 C 
HETATM    7  C8  UNL     1     -20.210  15.472 -23.693  1.00  0.00    -0.006 C 
HETATM    8  C9  UNL     1     -21.113  15.294 -24.887  1.00  0.00     0.005 C 
HETATM    9  C13 UNL     1     -18.757  15.639 -24.084  1.00  0.00     0.018 C 
HETATM   10  C10 UNL     1     -21.231  16.625 -25.598  1.00  0.00     0.000 C 
HETATM   11  C11 UNL     1     -19.884  17.309 -25.473  1.00  0.00     0.000 C 
HETATM   12  C12 UNL     1     -18.759  16.307 -25.464  1.00  0.00     0.007 C 
HETATM   13  C14 UNL     1     -18.067  14.320 -24.268  1.00  0.00     0.278 C 
BRANCH   5  14
HETATM   14  C5  UNL     1     -19.194  13.290 -20.921  1.00  0.00     0.252 C 
HETATM   15  N1  UNL     1     -19.708  11.978 -20.941  1.00  0.00    -0.351 N 
ATOM     16  H1  UNL     1     -19.931  11.574 -21.851  1.00  0.00     0.163 HD
HETATM   17  O1  UNL     1     -18.923  13.775 -19.803  1.00  0.00    -0.271 OA
BRANCH  15  18
HETATM   18  C2  UNL     1     -19.940  11.169 -19.782  1.00  0.00     0.022 C 
HETATM   19  C1  UNL     1     -20.936  11.819 -18.843  1.00  0.00     0.037 C 
HETATM   20  C3  UNL     1     -18.684  10.900 -18.992  1.00  0.00     0.037 C 
HETATM   21  C4  UNL     1     -20.531   9.837 -20.185  1.00  0.00     0.037 C 
ENDBRANCH  15  18
ENDBRANCH   5  14
ENDBRANCH   3   4
ENDBRANCH   2   3
BRANCH   2  22
HETATM   22  O2  UNL     1     -16.586  11.055 -21.948  1.00  0.00    -0.392 OA
ATOM     23  H2  UNL     1     -16.442  10.395 -21.280  1.00  0.00     0.210 HD
ENDBRANCH   2  22
ENDBRANCH   1   2
BRANCH   1  24
HETATM   24  C18 UNL     1     -15.590  12.665 -19.229  1.00  0.00     0.066 C 
BRANCH  24  25
HETATM   25  C19 UNL     1     -14.984  11.583 -18.411  1.00  0.00    -0.056 A 
HETATM   26  C20 UNL     1     -15.121  10.278 -18.771  1.00  0.00     0.007 A 
HETATM   27  C21 UNL     1     -14.568   9.251 -18.034  1.00  0.00     0.001 A 
HETATM   28  C22 UNL     1     -13.848   9.552 -16.888  1.00  0.00     0.000 A 
HETATM   29  C23 UNL     1     -13.713  10.882 -16.526  1.00  0.00     0.001 A 
HETATM   30  C24 UNL     1     -14.262  11.902 -17.257  1.00  0.00     0.007 A 
ENDBRANCH  24  25
ENDBRANCH   1  24
BRANCH   1  31
HETATM   31  N3  UNL     1     -14.639  13.917 -20.968  1.00  0.00    -0.352 N 
HETATM   32  C25 UNL     1     -13.430  14.121 -21.659  1.00  0.00     0.241 C 
HETATM   33  O3  UNL     1     -12.790  13.103 -22.043  1.00  0.00    -0.271 OA
ATOM     34  H3  UNL     1     -15.171  14.728 -20.651  1.00  0.00     0.163 HD
BRANCH  32  35
HETATM   35  C26 UNL     1     -12.911  15.510 -21.934  1.00  0.00     0.185 C 
BRANCH  35  36
HETATM   36  C27 UNL     1     -12.675  16.249 -20.633  1.00  0.00     0.134 C 
BRANCH  36  37
HETATM   37  C28 UNL     1     -13.824  17.124 -20.268  1.00  0.00     0.233 C 
HETATM   38  N4  UNL     1     -14.859  16.570 -19.474  1.00  0.00    -0.062 NA
HETATM   39  O4  UNL     1     -13.857  18.318 -20.666  1.00  0.00    -0.277 OA
ENDBRANCH  36  37
ENDBRANCH  35  36
BRANCH  35  40
HETATM   40  N5  UNL     1     -13.889  16.238 -22.693  1.00  0.00    -0.342 N 
HETATM   41  C29 UNL     1     -13.575  17.068 -23.799  1.00  0.00     0.268 C 
HETATM   42  O5  UNL     1     -12.382  17.172 -24.135  1.00  0.00    -0.266 OA
ATOM     43  H5  UNL     1     -14.868  16.152 -22.420  1.00  0.00     0.163 HD
BRANCH  41  44
HETATM   44  C30 UNL     1     -14.614  17.795 -24.543  1.00  0.00     0.101 A 
HETATM   45  C31 UNL     1     -15.584  18.488 -23.853  1.00  0.00     0.036 A 
HETATM   46  C32 UNL     1     -16.600  19.198 -24.455  1.00  0.00     0.016 A 
HETATM   47  C33 UNL     1     -16.615  19.192 -25.847  1.00  0.00    -0.009 A 
HETATM   48  C34 UNL     1     -17.612  19.887 -26.519  1.00  0.00     0.013 A 
HETATM   49  C38 UNL     1     -15.629  18.488 -26.525  1.00  0.00     0.043 A 
HETATM   50  C35 UNL     1     -17.599  19.858 -27.895  1.00  0.00     0.001 A 
HETATM   51  C36 UNL     1     -16.625  19.162 -28.588  1.00  0.00     0.002 A 
HETATM   52  C37 UNL     1     -15.640  18.477 -27.912  1.00  0.00     0.030 A 
HETATM   53  N6  UNL     1     -14.653  17.807 -25.872  1.00  0.00    -0.351 N 
ATOM     54  H6  UNL     1     -13.945  17.301 -26.404  1.00  0.00     0.166 HD
ENDBRANCH  41  44
ENDBRANCH  35  40
ENDBRANCH  32  35
ENDBRANCH   1  31
TORSDOF 14
ENDMDL
