MODEL 2
REMARK VINA RESULT: -11.041332361      3.695     11.698
REMARK  14 active torsions:
REMARK  status: ('A' for Active; 'I' for Inactive)
REMARK    1  A    between atoms: C2_2  and  N1_5 
REMARK       I    between atoms: N1_5  and  C5_7 
REMARK    2  A    between atoms: C5_7  and  C6_9 
REMARK    3  A    between atoms: N2_18  and  C15_19 
REMARK    4  A    between atoms: C15_19  and  C16_20 
REMARK    5  A    between atoms: C16_20  and  O2_21 
REMARK    6  A    between atoms: C16_20  and  C17_23 
REMARK    7  A    between atoms: C17_23  and  C18_24 
REMARK    8  A    between atoms: C17_23  and  N3_31 
REMARK    9  A    between atoms: C18_24  and  C19_25 
REMARK       I    between atoms: N3_31  and  C25_33 
REMARK   10  A    between atoms: C25_33  and  C26_35 
REMARK   11  A    between atoms: C26_35  and  C27_36 
REMARK   12  A    between atoms: C26_35  and  N5_40 
REMARK   13  A    between atoms: C27_36  and  C28_37 
REMARK       I    between atoms: N5_40  and  C29_42 
REMARK   14  A    between atoms: C29_42  and  C30_44 
ROOT
HETATM    1  C17 UNL     1     -14.910  13.000 -20.296  1.00  0.00     0.119 C 
ENDROOT
BRANCH   1   2
HETATM    2  C16 UNL     1     -16.261  12.796 -20.950  1.00  0.00     0.169 C 
BRANCH   2   3
HETATM    3  C15 UNL     1     -17.019  14.013 -21.322  1.00  0.00     0.307 C 
BRANCH   3   4
HETATM    4  N2  UNL     1     -17.978  13.953 -22.364  1.00  0.00     0.105 N 
HETATM    5  C6  UNL     1     -19.345  14.101 -21.894  1.00  0.00     0.314 C 
HETATM    6  C7  UNL     1     -20.254  14.089 -23.103  1.00  0.00     0.050 C 
HETATM    7  C8  UNL     1     -20.205  15.493 -23.678  1.00  0.00    -0.006 C 
HETATM    8  C9  UNL     1     -20.458  15.401 -25.160  1.00  0.00     0.005 C 
HETATM    9  C13 UNL     1     -18.837  16.056 -23.356  1.00  0.00     0.018 C 
HETATM   10  C10 UNL     1     -20.669  16.801 -25.697  1.00  0.00     0.000 C 
HETATM   11  C11 UNL     1     -19.752  17.713 -24.907  1.00  0.00     0.000 C 
HETATM   12  C12 UNL     1     -18.484  17.005 -24.508  1.00  0.00     0.007 C 
HETATM   13  C14 UNL     1     -17.775  14.996 -23.359  1.00  0.00     0.278 C 
BRANCH   5  14
HETATM   14  C5  UNL     1     -19.789  13.009 -21.006  1.00  0.00     0.252 C 
HETATM   15  N1  UNL     1     -19.448  11.656 -21.206  1.00  0.00    -0.351 N 
ATOM     16  H1  UNL     1     -18.862  11.432 -22.010  1.00  0.00     0.163 HD
HETATM   17  O1  UNL     1     -20.506  13.272 -20.019  1.00  0.00    -0.271 OA
BRANCH  15  18
HETATM   18  C2  UNL     1     -19.863  10.572 -20.366  1.00  0.00     0.022 C 
HETATM   19  C1  UNL     1     -20.531   9.473 -21.169  1.00  0.00     0.037 C 
HETATM   20  C3  UNL     1     -20.832  10.998 -19.292  1.00  0.00     0.037 C 
HETATM   21  C4  UNL     1     -18.664   9.946 -19.691  1.00  0.00     0.037 C 
ENDBRANCH  15  18
ENDBRANCH   5  14
ENDBRANCH   3   4
ENDBRANCH   2   3
BRANCH   2  22
HETATM   22  O2  UNL     1     -16.258  11.800 -21.907  1.00  0.00    -0.392 OA
ATOM     23  H2  UNL     1     -16.909  11.120 -21.777  1.00  0.00     0.210 HD
ENDBRANCH   2  22
ENDBRANCH   1   2
BRANCH   1  24
HETATM   24  C18 UNL     1     -15.124  13.032 -18.787  1.00  0.00     0.066 C 
BRANCH  24  25
HETATM   25  C19 UNL     1     -14.732  11.741 -18.165  1.00  0.00    -0.056 A 
HETATM   26  C20 UNL     1     -14.020  11.715 -17.004  1.00  0.00     0.007 A 
HETATM   27  C21 UNL     1     -13.643  10.534 -16.400  1.00  0.00     0.001 A 
HETATM   28  C22 UNL     1     -13.998   9.329 -16.989  1.00  0.00     0.000 A 
HETATM   29  C23 UNL     1     -14.722   9.362 -18.170  1.00  0.00     0.001 A 
HETATM   30  C24 UNL     1     -15.096  10.534 -18.770  1.00  0.00     0.007 A 
ENDBRANCH  24  25
ENDBRANCH   1  24
BRANCH   1  31
HETATM   31  N3  UNL     1     -14.470  14.392 -20.582  1.00  0.00    -0.352 N 
HETATM   32  C25 UNL     1     -13.642  14.701 -21.677  1.00  0.00     0.241 C 
HETATM   33  O3  UNL     1     -13.273  13.753 -22.425  1.00  0.00    -0.271 OA
ATOM     34  H3  UNL     1     -14.779  15.145 -19.966  1.00  0.00     0.163 HD
BRANCH  32  35
HETATM   35  C26 UNL     1     -13.205  16.118 -21.951  1.00  0.00     0.185 C 
BRANCH  35  36
HETATM   36  C27 UNL     1     -13.788  17.057 -20.916  1.00  0.00     0.134 C 
BRANCH  36  37
HETATM   37  C28 UNL     1     -14.759  18.016 -21.513  1.00  0.00     0.233 C 
HETATM   38  N4  UNL     1     -14.365  19.371 -21.645  1.00  0.00    -0.062 NA
HETATM   39  O4  UNL     1     -15.894  17.614 -21.881  1.00  0.00    -0.277 OA
ENDBRANCH  36  37
ENDBRANCH  35  36
BRANCH  35  40
HETATM   40  N5  UNL     1     -13.686  16.519 -23.243  1.00  0.00    -0.342 N 
HETATM   41  C29 UNL     1     -12.879  17.134 -24.233  1.00  0.00     0.268 C 
HETATM   42  O5  UNL     1     -11.681  17.339 -23.969  1.00  0.00    -0.266 OA
ATOM     43  H5  UNL     1     -14.668  16.350 -23.462  1.00  0.00     0.163 HD
BRANCH  41  44
HETATM   44  C30 UNL     1     -13.420  17.529 -25.542  1.00  0.00     0.101 A 
HETATM   45  C31 UNL     1     -12.593  17.535 -26.644  1.00  0.00     0.036 A 
HETATM   46  C32 UNL     1     -13.001  17.890 -27.911  1.00  0.00     0.016 A 
HETATM   47  C33 UNL     1     -14.336  18.259 -28.049  1.00  0.00    -0.009 A 
HETATM   48  C34 UNL     1     -14.813  18.630 -29.298  1.00  0.00     0.013 A 
HETATM   49  C38 UNL     1     -15.153  18.247 -26.926  1.00  0.00     0.043 A 
HETATM   50  C35 UNL     1     -16.138  18.992 -29.398  1.00  0.00     0.001 A 
HETATM   51  C36 UNL     1     -16.969  18.986 -28.291  1.00  0.00     0.002 A 
HETATM   52  C37 UNL     1     -16.485  18.616 -27.056  1.00  0.00     0.030 A 
HETATM   53  N6  UNL     1     -14.690  17.886 -25.702  1.00  0.00    -0.351 N 
ATOM     54  H6  UNL     1     -15.321  17.889 -24.901  1.00  0.00     0.166 HD
ENDBRANCH  41  44
ENDBRANCH  35  40
ENDBRANCH  32  35
ENDBRANCH   1  31
TORSDOF 14
ENDMDL
