MODEL 1
REMARK VINA RESULT: -11.274408489      0.000      0.000
REMARK  14 active torsions:
REMARK  status: ('A' for Active; 'I' for Inactive)
REMARK    1  A    between atoms: C2_2  and  N1_5 
REMARK       I    between atoms: N1_5  and  C5_7 
REMARK    2  A    between atoms: C5_7  and  C6_9 
REMARK    3  A    between atoms: N2_18  and  C15_19 
REMARK    4  A    between atoms: C15_19  and  C16_20 
REMARK    5  A    between atoms: C16_20  and  O2_21 
REMARK    6  A    between atoms: C16_20  and  C17_23 
REMARK    7  A    between atoms: C17_23  and  C18_24 
REMARK    8  A    between atoms: C17_23  and  N3_31 
REMARK    9  A    between atoms: C18_24  and  C19_25 
REMARK       I    between atoms: N3_31  and  C25_33 
REMARK   10  A    between atoms: C25_33  and  C26_35 
REMARK   11  A    between atoms: C26_35  and  C27_36 
REMARK   12  A    between atoms: C26_35  and  N5_40 
REMARK   13  A    between atoms: C27_36  and  C28_37 
REMARK       I    between atoms: N5_40  and  C29_42 
REMARK   14  A    between atoms: C29_42  and  C30_44 
ROOT
HETATM    1  C17 UNL     1     -19.545  11.511 -21.273  1.00  0.00     0.119 C 
ENDROOT
BRANCH   1   2
HETATM    2  C16 UNL     1     -18.061  11.668 -21.009  1.00  0.00     0.169 C 
BRANCH   2   3
HETATM    3  C15 UNL     1     -17.620  11.618 -19.596  1.00  0.00     0.307 C 
BRANCH   3   4
HETATM    4  N2  UNL     1     -16.362  11.051 -19.272  1.00  0.00     0.105 N 
HETATM    5  C6  UNL     1     -15.493  11.963 -18.546  1.00  0.00     0.314 C 
HETATM    6  C7  UNL     1     -14.222  11.216 -18.205  1.00  0.00     0.050 C 
HETATM    7  C8  UNL     1     -14.540  10.394 -16.969  1.00  0.00    -0.006 C 
HETATM    8  C9  UNL     1     -13.663   9.169 -16.984  1.00  0.00     0.005 C 
HETATM    9  C13 UNL     1     -16.014  10.054 -17.030  1.00  0.00     0.018 C 
HETATM   10  C10 UNL     1     -13.781   8.481 -15.640  1.00  0.00     0.000 C 
HETATM   11  C11 UNL     1     -15.214   8.663 -15.181  1.00  0.00     0.000 C 
HETATM   12  C12 UNL     1     -16.165   8.687 -16.349  1.00  0.00     0.007 C 
HETATM   13  C14 UNL     1     -16.492   9.865 -18.438  1.00  0.00     0.278 C 
BRANCH   5  14
HETATM   14  C5  UNL     1     -15.101  13.154 -19.325  1.00  0.00     0.252 C 
HETATM   15  N1  UNL     1     -14.414  13.089 -20.554  1.00  0.00    -0.351 N 
ATOM     16  H1  UNL     1     -14.183  12.164 -20.916  1.00  0.00     0.163 HD
HETATM   17  O1  UNL     1     -15.380  14.290 -18.891  1.00  0.00    -0.271 OA
BRANCH  15  18
HETATM   18  C2  UNL     1     -14.017  14.224 -21.333  1.00  0.00     0.022 C 
HETATM   19  C1  UNL     1     -12.652  14.016 -21.958  1.00  0.00     0.037 C 
HETATM   20  C3  UNL     1     -13.955  15.497 -20.527  1.00  0.00     0.037 C 
HETATM   21  C4  UNL     1     -14.986  14.440 -22.472  1.00  0.00     0.037 C 
ENDBRANCH  15  18
ENDBRANCH   5  14
ENDBRANCH   3   4
ENDBRANCH   2   3
BRANCH   2  22
HETATM   22  O2  UNL     1     -17.273  10.949 -21.888  1.00  0.00    -0.392 OA
ATOM     23  H2  UNL     1     -16.422  11.332 -22.064  1.00  0.00     0.210 HD
ENDBRANCH   2  22
ENDBRANCH   1   2
BRANCH   1  24
HETATM   24  C18 UNL     1     -20.225  12.821 -20.896  1.00  0.00     0.066 C 
BRANCH  24  25
HETATM   25  C19 UNL     1     -19.937  13.881 -21.897  1.00  0.00    -0.056 A 
HETATM   26  C20 UNL     1     -20.731  14.039 -22.992  1.00  0.00     0.007 A 
HETATM   27  C21 UNL     1     -20.492  15.014 -23.938  1.00  0.00     0.001 A 
HETATM   28  C22 UNL     1     -19.409  15.864 -23.774  1.00  0.00     0.000 A 
HETATM   29  C23 UNL     1     -18.605  15.698 -22.658  1.00  0.00     0.001 A 
HETATM   30  C24 UNL     1     -18.841  14.730 -21.720  1.00  0.00     0.007 A 
ENDBRANCH  24  25
ENDBRANCH   1  24
BRANCH   1  31
HETATM   31  N3  UNL     1     -20.091  10.568 -20.260  1.00  0.00    -0.352 N 
HETATM   32  C25 UNL     1     -20.596   9.304 -20.614  1.00  0.00     0.241 C 
HETATM   33  O3  UNL     1     -20.575   8.981 -21.835  1.00  0.00    -0.271 OA
ATOM     34  H3  UNL     1     -20.099  10.847 -19.278  1.00  0.00     0.163 HD
BRANCH  32  35
HETATM   35  C26 UNL     1     -21.147   8.362 -19.574  1.00  0.00     0.185 C 
BRANCH  35  36
HETATM   36  C27 UNL     1     -21.616   9.136 -18.360  1.00  0.00     0.134 C 
BRANCH  36  37
HETATM   37  C28 UNL     1     -20.857   8.768 -17.133  1.00  0.00     0.233 C 
HETATM   38  N4  UNL     1     -21.514   7.987 -16.150  1.00  0.00    -0.062 NA
HETATM   39  O4  UNL     1     -19.666   9.153 -16.991  1.00  0.00    -0.277 OA
ENDBRANCH  36  37
ENDBRANCH  35  36
BRANCH  35  40
HETATM   40  N5  UNL     1     -20.111   7.459 -19.159  1.00  0.00    -0.342 N 
HETATM   41  C29 UNL     1     -20.335   6.103 -18.812  1.00  0.00     0.268 C 
HETATM   42  O5  UNL     1     -21.497   5.665 -18.873  1.00  0.00    -0.266 OA
ATOM     43  H5  UNL     1     -19.157   7.815 -19.110  1.00  0.00     0.163 HD
BRANCH  41  44
HETATM   44  C30 UNL     1     -19.239   5.218 -18.389  1.00  0.00     0.101 A 
HETATM   45  C31 UNL     1     -19.030   4.030 -19.056  1.00  0.00     0.036 A 
HETATM   46  C32 UNL     1     -18.035   3.132 -18.737  1.00  0.00     0.016 A 
HETATM   47  C33 UNL     1     -17.209   3.479 -17.672  1.00  0.00    -0.009 A 
HETATM   48  C34 UNL     1     -16.186   2.619 -17.297  1.00  0.00     0.013 A 
HETATM   49  C38 UNL     1     -17.435   4.680 -17.013  1.00  0.00     0.043 A 
HETATM   50  C35 UNL     1     -15.390   2.992 -16.238  1.00  0.00     0.001 A 
HETATM   51  C36 UNL     1     -15.598   4.186 -15.569  1.00  0.00     0.002 A 
HETATM   52  C37 UNL     1     -16.616   5.032 -15.949  1.00  0.00     0.030 A 
HETATM   53  N6  UNL     1     -18.435   5.524 -17.376  1.00  0.00    -0.351 N 
ATOM     54  H6  UNL     1     -18.569   6.399 -16.868  1.00  0.00     0.166 HD
ENDBRANCH  41  44
ENDBRANCH  35  40
ENDBRANCH  32  35
ENDBRANCH   1  31
TORSDOF 14
ENDMDL
