MODEL 4
REMARK VINA RESULT: -10.890313758      2.319      5.848
REMARK  14 active torsions:
REMARK  status: ('A' for Active; 'I' for Inactive)
REMARK    1  A    between atoms: C2_2  and  N1_5 
REMARK       I    between atoms: N1_5  and  C5_7 
REMARK    2  A    between atoms: C5_7  and  C6_9 
REMARK    3  A    between atoms: N2_18  and  C15_19 
REMARK    4  A    between atoms: C15_19  and  C16_20 
REMARK    5  A    between atoms: C16_20  and  O2_21 
REMARK    6  A    between atoms: C16_20  and  C17_23 
REMARK    7  A    between atoms: C17_23  and  C18_24 
REMARK    8  A    between atoms: C17_23  and  N3_31 
REMARK    9  A    between atoms: C18_24  and  C19_25 
REMARK       I    between atoms: N3_31  and  C25_33 
REMARK   10  A    between atoms: C25_33  and  C26_35 
REMARK   11  A    between atoms: C26_35  and  C27_36 
REMARK   12  A    between atoms: C26_35  and  N5_40 
REMARK   13  A    between atoms: C27_36  and  C28_37 
REMARK       I    between atoms: N5_40  and  C29_42 
REMARK   14  A    between atoms: C29_42  and  C30_44 
ROOT
HETATM    1  C17 UNL     1     -18.371  12.158 -19.179  1.00  0.00     0.119 C 
ENDROOT
BRANCH   1   2
HETATM    2  C16 UNL     1     -17.854  13.474 -18.634  1.00  0.00     0.169 C 
BRANCH   2   3
HETATM    3  C15 UNL     1     -17.570  14.544 -19.619  1.00  0.00     0.307 C 
BRANCH   3   4
HETATM    4  N2  UNL     1     -16.699  14.284 -20.707  1.00  0.00     0.105 N 
HETATM    5  C6  UNL     1     -17.021  15.057 -21.895  1.00  0.00     0.314 C 
HETATM    6  C7  UNL     1     -15.982  14.739 -22.948  1.00  0.00     0.050 C 
HETATM    7  C8  UNL     1     -14.772  15.593 -22.612  1.00  0.00    -0.006 C 
HETATM    8  C9  UNL     1     -13.542  14.876 -23.104  1.00  0.00     0.005 C 
HETATM    9  C13 UNL     1     -14.770  15.787 -21.111  1.00  0.00     0.018 C 
HETATM   10  C10 UNL     1     -12.366  15.825 -23.012  1.00  0.00     0.000 C 
HETATM   11  C11 UNL     1     -12.586  16.672 -21.773  1.00  0.00     0.000 C 
HETATM   12  C12 UNL     1     -13.297  15.895 -20.696  1.00  0.00     0.007 C 
HETATM   13  C14 UNL     1     -15.313  14.592 -20.386  1.00  0.00     0.278 C 
BRANCH   5  14
HETATM   14  C5  UNL     1     -18.339  14.732 -22.475  1.00  0.00     0.252 C 
HETATM   15  N1  UNL     1     -19.108  15.646 -23.221  1.00  0.00    -0.351 N 
ATOM     16  H1  UNL     1     -18.723  16.580 -23.363  1.00  0.00     0.163 HD
HETATM   17  O1  UNL     1     -18.819  13.592 -22.307  1.00  0.00    -0.271 OA
BRANCH  15  18
HETATM   18  C2  UNL     1     -20.390  15.365 -23.795  1.00  0.00     0.022 C 
HETATM   19  C1  UNL     1     -21.054  16.625 -24.312  1.00  0.00     0.037 C 
HETATM   20  C3  UNL     1     -21.343  14.722 -22.818  1.00  0.00     0.037 C 
HETATM   21  C4  UNL     1     -20.241  14.438 -24.978  1.00  0.00     0.037 C 
ENDBRANCH  15  18
ENDBRANCH   5  14
ENDBRANCH   3   4
ENDBRANCH   2   3
BRANCH   2  22
HETATM   22  O2  UNL     1     -18.522  13.894 -17.500  1.00  0.00    -0.392 OA
ATOM     23  H2  UNL     1     -17.972  14.007 -16.733  1.00  0.00     0.210 HD
ENDBRANCH   2  22
ENDBRANCH   1   2
BRANCH   1  24
HETATM   24  C18 UNL     1     -19.893  12.221 -19.179  1.00  0.00     0.066 C 
BRANCH  24  25
HETATM   25  C19 UNL     1     -20.483  10.910 -19.553  1.00  0.00    -0.056 A 
HETATM   26  C20 UNL     1     -21.358  10.277 -18.724  1.00  0.00     0.007 A 
HETATM   27  C21 UNL     1     -21.924   9.060 -19.043  1.00  0.00     0.001 A 
HETATM   28  C22 UNL     1     -21.595   8.456 -20.247  1.00  0.00     0.000 A 
HETATM   29  C23 UNL     1     -20.704   9.104 -21.086  1.00  0.00     0.001 A 
HETATM   30  C24 UNL     1     -20.141  10.312 -20.770  1.00  0.00     0.007 A 
ENDBRANCH  24  25
ENDBRANCH   1  24
BRANCH   1  31
HETATM   31  N3  UNL     1     -18.099  11.106 -18.163  1.00  0.00    -0.352 N 
HETATM   32  C25 UNL     1     -16.900  10.369 -18.155  1.00  0.00     0.241 C 
HETATM   33  O3  UNL     1     -16.043  10.627 -19.047  1.00  0.00    -0.271 OA
ATOM     34  H3  UNL     1     -18.803  10.912 -17.450  1.00  0.00     0.163 HD
BRANCH  32  35
HETATM   35  C26 UNL     1     -16.641   9.305 -17.119  1.00  0.00     0.185 C 
BRANCH  35  36
HETATM   36  C27 UNL     1     -15.162   8.986 -17.052  1.00  0.00     0.134 C 
BRANCH  36  37
HETATM   37  C28 UNL     1     -14.743   8.551 -15.690  1.00  0.00     0.233 C 
HETATM   38  N4  UNL     1     -15.721   8.531 -14.665  1.00  0.00    -0.062 NA
HETATM   39  O4  UNL     1     -13.548   8.217 -15.476  1.00  0.00    -0.277 OA
ENDBRANCH  36  37
ENDBRANCH  35  36
BRANCH  35  40
HETATM   40  N5  UNL     1     -17.343   8.108 -17.486  1.00  0.00    -0.342 N 
HETATM   41  C29 UNL     1     -18.695   7.847 -17.144  1.00  0.00     0.268 C 
HETATM   42  O5  UNL     1     -19.311   8.706 -16.489  1.00  0.00    -0.266 OA
ATOM     43  H5  UNL     1     -16.840   7.404 -18.025  1.00  0.00     0.163 HD
BRANCH  41  44
HETATM   44  C30 UNL     1     -19.370   6.603 -17.542  1.00  0.00     0.101 A 
HETATM   45  C31 UNL     1     -20.520   6.216 -16.888  1.00  0.00     0.036 A 
HETATM   46  C32 UNL     1     -21.225   5.070 -17.182  1.00  0.00     0.016 A 
HETATM   47  C33 UNL     1     -20.716   4.279 -18.208  1.00  0.00    -0.009 A 
HETATM   48  C34 UNL     1     -21.376   3.108 -18.555  1.00  0.00     0.013 A 
HETATM   49  C38 UNL     1     -19.556   4.685 -18.854  1.00  0.00     0.043 A 
HETATM   50  C35 UNL     1     -20.844   2.348 -19.572  1.00  0.00     0.001 A 
HETATM   51  C36 UNL     1     -19.689   2.736 -20.229  1.00  0.00     0.002 A 
HETATM   52  C37 UNL     1     -19.042   3.900 -19.876  1.00  0.00     0.030 A 
HETATM   53  N6  UNL     1     -18.906   5.828 -18.517  1.00  0.00    -0.351 N 
ATOM     54  H6  UNL     1     -18.057   6.094 -19.015  1.00  0.00     0.166 HD
ENDBRANCH  41  44
ENDBRANCH  35  40
ENDBRANCH  32  35
ENDBRANCH   1  31
TORSDOF 14
ENDMDL
