MODEL 13
REMARK VINA RESULT: -10.529421699      2.079      5.709
REMARK  14 active torsions:
REMARK  status: ('A' for Active; 'I' for Inactive)
REMARK    1  A    between atoms: C2_2  and  N1_5 
REMARK       I    between atoms: N1_5  and  C5_7 
REMARK    2  A    between atoms: C5_7  and  C6_9 
REMARK    3  A    between atoms: N2_18  and  C15_19 
REMARK    4  A    between atoms: C15_19  and  C16_20 
REMARK    5  A    between atoms: C16_20  and  O2_21 
REMARK    6  A    between atoms: C16_20  and  C17_23 
REMARK    7  A    between atoms: C17_23  and  C18_24 
REMARK    8  A    between atoms: C17_23  and  N3_31 
REMARK    9  A    between atoms: C18_24  and  C19_25 
REMARK       I    between atoms: N3_31  and  C25_33 
REMARK   10  A    between atoms: C25_33  and  C26_35 
REMARK   11  A    between atoms: C26_35  and  C27_36 
REMARK   12  A    between atoms: C26_35  and  N5_40 
REMARK   13  A    between atoms: C27_36  and  C28_37 
REMARK       I    between atoms: N5_40  and  C29_42 
REMARK   14  A    between atoms: C29_42  and  C30_44 
ROOT
HETATM    1  C17 UNL     1     -18.328  12.046 -19.122  1.00  0.00     0.119 C 
ENDROOT
BRANCH   1   2
HETATM    2  C16 UNL     1     -17.771  13.363 -18.619  1.00  0.00     0.169 C 
BRANCH   2   3
HETATM    3  C15 UNL     1     -17.550  14.427 -19.625  1.00  0.00     0.307 C 
BRANCH   3   4
HETATM    4  N2  UNL     1     -16.681  14.191 -20.720  1.00  0.00     0.105 N 
HETATM    5  C6  UNL     1     -17.004  14.988 -21.891  1.00  0.00     0.314 C 
HETATM    6  C7  UNL     1     -15.967  14.693 -22.952  1.00  0.00     0.050 C 
HETATM    7  C8  UNL     1     -14.756  15.538 -22.600  1.00  0.00    -0.006 C 
HETATM    8  C9  UNL     1     -13.527  14.831 -23.109  1.00  0.00     0.005 C 
HETATM    9  C13 UNL     1     -14.751  15.701 -21.094  1.00  0.00     0.018 C 
HETATM   10  C10 UNL     1     -12.351  15.778 -22.998  1.00  0.00     0.000 C 
HETATM   11  C11 UNL     1     -12.568  16.598 -21.741  1.00  0.00     0.000 C 
HETATM   12  C12 UNL     1     -13.278  15.798 -20.680  1.00  0.00     0.007 C 
HETATM   13  C14 UNL     1     -15.294  14.490 -20.395  1.00  0.00     0.278 C 
BRANCH   5  14
HETATM   14  C5  UNL     1     -18.323  14.677 -22.475  1.00  0.00     0.252 C 
HETATM   15  N1  UNL     1     -19.078  15.597 -23.229  1.00  0.00    -0.351 N 
ATOM     16  H1  UNL     1     -18.680  16.526 -23.374  1.00  0.00     0.163 HD
HETATM   17  O1  UNL     1     -18.818  13.544 -22.305  1.00  0.00    -0.271 OA
BRANCH  15  18
HETATM   18  C2  UNL     1     -20.361  15.329 -23.808  1.00  0.00     0.022 C 
HETATM   19  C1  UNL     1     -21.014  16.597 -24.319  1.00  0.00     0.037 C 
HETATM   20  C3  UNL     1     -21.320  14.686 -22.838  1.00  0.00     0.037 C 
HETATM   21  C4  UNL     1     -20.215  14.408 -24.997  1.00  0.00     0.037 C 
ENDBRANCH  15  18
ENDBRANCH   5  14
ENDBRANCH   3   4
ENDBRANCH   2   3
BRANCH   2  22
HETATM   22  O2  UNL     1     -18.359  13.789 -17.444  1.00  0.00    -0.392 OA
ATOM     23  H2  UNL     1     -17.834  13.655 -16.664  1.00  0.00     0.210 HD
ENDBRANCH   2  22
ENDBRANCH   1   2
BRANCH   1  24
HETATM   24  C18 UNL     1     -19.846  12.168 -19.160  1.00  0.00     0.066 C 
BRANCH  24  25
HETATM   25  C19 UNL     1     -20.473  10.903 -19.624  1.00  0.00    -0.056 A 
HETATM   26  C20 UNL     1     -21.394  10.260 -18.856  1.00  0.00     0.007 A 
HETATM   27  C21 UNL     1     -21.996   9.086 -19.259  1.00  0.00     0.001 A 
HETATM   28  C22 UNL     1     -21.654   8.537 -20.486  1.00  0.00     0.000 A 
HETATM   29  C23 UNL     1     -20.715   9.196 -21.263  1.00  0.00     0.001 A 
HETATM   30  C24 UNL     1     -20.118  10.361 -20.863  1.00  0.00     0.007 A 
ENDBRANCH  24  25
ENDBRANCH   1  24
BRANCH   1  31
HETATM   31  N3  UNL     1     -18.119  11.027 -18.059  1.00  0.00    -0.352 N 
HETATM   32  C25 UNL     1     -16.836  10.563 -17.713  1.00  0.00     0.241 C 
HETATM   33  O3  UNL     1     -15.847  11.040 -18.337  1.00  0.00    -0.271 OA
ATOM     34  H3  UNL     1     -18.930  10.653 -17.565  1.00  0.00     0.163 HD
BRANCH  32  35
HETATM   35  C26 UNL     1     -16.643   9.528 -16.633  1.00  0.00     0.185 C 
BRANCH  35  36
HETATM   36  C27 UNL     1     -15.184   9.447 -16.239  1.00  0.00     0.134 C 
BRANCH  36  37
HETATM   37  C28 UNL     1     -14.527   8.219 -16.769  1.00  0.00     0.233 C 
HETATM   38  N4  UNL     1     -13.850   8.307 -18.011  1.00  0.00    -0.062 NA
HETATM   39  O4  UNL     1     -14.584   7.144 -16.117  1.00  0.00    -0.277 OA
ENDBRANCH  36  37
ENDBRANCH  35  36
BRANCH  35  40
HETATM   40  N5  UNL     1     -17.046   8.244 -17.133  1.00  0.00    -0.342 N 
HETATM   41  C29 UNL     1     -18.360   7.725 -17.016  1.00  0.00     0.268 C 
HETATM   42  O5  UNL     1     -19.219   8.424 -16.449  1.00  0.00    -0.266 OA
ATOM     43  H5  UNL     1     -16.344   7.670 -17.601  1.00  0.00     0.163 HD
BRANCH  41  44
HETATM   44  C30 UNL     1     -18.723   6.401 -17.543  1.00  0.00     0.101 A 
HETATM   45  C31 UNL     1     -19.892   6.252 -18.258  1.00  0.00     0.036 A 
HETATM   46  C32 UNL     1     -20.322   5.056 -18.790  1.00  0.00     0.016 A 
HETATM   47  C33 UNL     1     -19.501   3.954 -18.574  1.00  0.00    -0.009 A 
HETATM   48  C34 UNL     1     -19.875   2.717 -19.082  1.00  0.00     0.013 A 
HETATM   49  C38 UNL     1     -18.327   4.124 -17.851  1.00  0.00     0.043 A 
HETATM   50  C35 UNL     1     -19.041   1.647 -18.847  1.00  0.00     0.001 A 
HETATM   51  C36 UNL     1     -17.867   1.797 -18.130  1.00  0.00     0.002 A 
HETATM   52  C37 UNL     1     -17.504   3.028 -17.631  1.00  0.00     0.030 A 
HETATM   53  N6  UNL     1     -17.958   5.331 -17.352  1.00  0.00    -0.351 N 
ATOM     54  H6  UNL     1     -17.088   5.417 -16.827  1.00  0.00     0.166 HD
ENDBRANCH  41  44
ENDBRANCH  35  40
ENDBRANCH  32  35
ENDBRANCH   1  31
TORSDOF 14
ENDMDL
