MODEL 9
REMARK VINA RESULT: -9.611627707      1.637      2.027
REMARK  13 active torsions:
REMARK  status: ('A' for Active; 'I' for Inactive)
REMARK    1  A    between atoms: C2_2  and  C4_4 
REMARK    2  A    between atoms: C4_4  and  N1_5 
REMARK    3  A    between atoms: N1_5  and  C5_6 
REMARK    4  A    between atoms: N1_5  and  S1_31 
REMARK    5  A    between atoms: C5_6  and  C6_7 
REMARK    6  A    between atoms: C6_7  and  O1_8 
REMARK    7  A    between atoms: C6_7  and  C7_10 
REMARK    8  A    between atoms: C7_10  and  C8_11 
REMARK    9  A    between atoms: C7_10  and  N2_18 
REMARK   10  A    between atoms: C8_11  and  C9_12 
REMARK       I    between atoms: N2_18  and  C15_20 
REMARK   11  A    between atoms: C15_20  and  O3_22 
REMARK   12  A    between atoms: O3_22  and  C16_23 
REMARK   13  A    between atoms: S1_31  and  C22_34 
ROOT
HETATM    1  C7  UNL     1     -17.056  14.461 -20.311  1.00  0.00     0.120 C 
ENDROOT
BRANCH   1   2
HETATM    2  C6  UNL     1     -17.894  13.942 -19.192  1.00  0.00     0.155 C 
BRANCH   2   3
HETATM    3  C5  UNL     1     -17.311  12.702 -18.550  1.00  0.00     0.141 C 
BRANCH   3   4
HETATM    4  N1  UNL     1     -17.528  11.518 -19.356  1.00  0.00    -0.204 NA
BRANCH   4   5
HETATM    5  C4  UNL     1     -18.393  10.635 -18.649  1.00  0.00     0.111 C 
BRANCH   5   6
HETATM    6  C2  UNL     1     -19.844  10.740 -18.979  1.00  0.00    -0.009 C 
HETATM    7  C1  UNL     1     -19.941  11.039 -20.478  1.00  0.00     0.011 C 
HETATM    8  C3  UNL     1     -20.603   9.460 -18.709  1.00  0.00     0.011 C 
ENDBRANCH   5   6
ENDBRANCH   4   5
BRANCH   4   9
HETATM    9  S1  UNL     1     -16.016  10.829 -19.748  1.00  0.00     0.243 S 
HETATM   10  O6  UNL     1     -14.991  11.898 -20.057  1.00  0.00    -0.206 OA
HETATM   11  O7  UNL     1     -16.110   9.993 -21.002  1.00  0.00    -0.206 OA
BRANCH   9  12
HETATM   12  C22 UNL     1     -15.365   9.813 -18.495  1.00  0.00     0.074 A 
HETATM   13  C23 UNL     1     -14.840  10.431 -17.364  1.00  0.00     0.027 A 
HETATM   14  C24 UNL     1     -14.302   9.712 -16.318  1.00  0.00     0.028 A 
HETATM   15  C25 UNL     1     -14.277   8.336 -16.379  1.00  0.00     0.046 A 
HETATM   16  N3  UNL     1     -13.719   7.608 -15.292  1.00  0.00    -0.102 NA
HETATM   17  C26 UNL     1     -14.795   7.730 -17.492  1.00  0.00     0.028 A 
HETATM   18  C27 UNL     1     -15.341   8.448 -18.558  1.00  0.00     0.027 A 
ENDBRANCH   9  12
ENDBRANCH   4   9
ENDBRANCH   3   4
ENDBRANCH   2   3
BRANCH   2  19
HETATM   19  O1  UNL     1     -18.230  14.871 -18.237  1.00  0.00    -0.392 OA
ATOM     20  H1  UNL     1     -18.766  15.559 -18.613  1.00  0.00     0.210 HD
ENDBRANCH   2  19
ENDBRANCH   1   2
BRANCH   1  21
HETATM   21  C8  UNL     1     -15.759  15.080 -19.832  1.00  0.00     0.066 C 
BRANCH  21  22
HETATM   22  C9  UNL     1     -14.911  15.604 -20.912  1.00  0.00    -0.056 A 
HETATM   23  C10 UNL     1     -14.612  16.934 -21.019  1.00  0.00     0.007 A 
HETATM   24  C11 UNL     1     -13.805  17.399 -22.070  1.00  0.00     0.001 A 
HETATM   25  C12 UNL     1     -13.295  16.528 -23.012  1.00  0.00     0.000 A 
HETATM   26  C13 UNL     1     -13.608  15.196 -22.885  1.00  0.00     0.001 A 
HETATM   27  C14 UNL     1     -14.405  14.737 -21.850  1.00  0.00     0.007 A 
ENDBRANCH  21  22
ENDBRANCH   1  21
BRANCH   1  28
HETATM   28  N2  UNL     1     -17.848  15.304 -21.143  1.00  0.00    -0.329 N 
HETATM   29  C15 UNL     1     -18.521  14.895 -22.329  1.00  0.00     0.361 C 
HETATM   30  O2  UNL     1     -18.436  13.711 -22.709  1.00  0.00    -0.238 OA
ATOM     31  H2  UNL     1     -17.940  16.282 -20.866  1.00  0.00     0.165 HD
BRANCH  29  32
HETATM   32  O3  UNL     1     -19.287  15.787 -23.093  1.00  0.00    -0.296 OA
BRANCH  32  33
HETATM   33  C16 UNL     1     -19.216  15.716 -24.491  1.00  0.00     0.170 C 
HETATM   34  C17 UNL     1     -20.498  16.332 -25.040  1.00  0.00     0.204 C 
HETATM   35  O4  UNL     1     -20.299  17.675 -24.851  1.00  0.00    -0.358 OA
HETATM   36  C18 UNL     1     -18.980  17.976 -25.040  1.00  0.00     0.275 C 
HETATM   37  O5  UNL     1     -18.413  18.638 -23.926  1.00  0.00    -0.332 OA
HETATM   38  C21 UNL     1     -18.200  16.674 -25.050  1.00  0.00     0.097 C 
HETATM   39  C19 UNL     1     -17.206  18.049 -23.560  1.00  0.00     0.134 C 
HETATM   40  C20 UNL     1     -17.047  16.904 -24.192  1.00  0.00     0.009 C 
ENDBRANCH  32  33
ENDBRANCH  29  32
ENDBRANCH   1  28
TORSDOF 13
ENDMDL
