MODEL 1
REMARK VINA RESULT: -9.807665948      0.000      0.000
REMARK  13 active torsions:
REMARK  status: ('A' for Active; 'I' for Inactive)
REMARK    1  A    between atoms: C2_2  and  C4_4 
REMARK    2  A    between atoms: C4_4  and  N1_5 
REMARK    3  A    between atoms: N1_5  and  C5_6 
REMARK    4  A    between atoms: N1_5  and  S1_31 
REMARK    5  A    between atoms: C5_6  and  C6_7 
REMARK    6  A    between atoms: C6_7  and  O1_8 
REMARK    7  A    between atoms: C6_7  and  C7_10 
REMARK    8  A    between atoms: C7_10  and  C8_11 
REMARK    9  A    between atoms: C7_10  and  N2_18 
REMARK   10  A    between atoms: C8_11  and  C9_12 
REMARK       I    between atoms: N2_18  and  C15_20 
REMARK   11  A    between atoms: C15_20  and  O3_22 
REMARK   12  A    between atoms: O3_22  and  C16_23 
REMARK   13  A    between atoms: S1_31  and  C22_34 
ROOT
HETATM    1  C7  UNL     1     -17.244  13.438 -19.848  1.00  0.00     0.120 C 
ENDROOT
BRANCH   1   2
HETATM    2  C6  UNL     1     -18.206  12.943 -18.822  1.00  0.00     0.155 C 
BRANCH   2   3
HETATM    3  C5  UNL     1     -17.914  11.525 -18.381  1.00  0.00     0.141 C 
BRANCH   3   4
HETATM    4  N1  UNL     1     -18.643  10.550 -19.165  1.00  0.00    -0.204 NA
BRANCH   4   5
HETATM    5  C4  UNL     1     -19.965  11.035 -19.385  1.00  0.00     0.111 C 
BRANCH   5   6
HETATM    6  C2  UNL     1     -20.525  10.807 -20.748  1.00  0.00    -0.009 C 
HETATM    7  C1  UNL     1     -19.340  10.524 -21.677  1.00  0.00     0.011 C 
HETATM    8  C3  UNL     1     -21.459   9.619 -20.809  1.00  0.00     0.011 C 
ENDBRANCH   5   6
ENDBRANCH   4   5
BRANCH   4   9
HETATM    9  S1  UNL     1     -18.591   9.043 -18.366  1.00  0.00     0.243 S 
HETATM   10  O6  UNL     1     -18.828   7.903 -19.332  1.00  0.00    -0.206 OA
HETATM   11  O7  UNL     1     -19.695   8.933 -17.341  1.00  0.00    -0.206 OA
BRANCH   9  12
HETATM   12  C22 UNL     1     -17.088   8.740 -17.543  1.00  0.00     0.074 A 
HETATM   13  C23 UNL     1     -17.115   8.643 -16.155  1.00  0.00     0.027 A 
HETATM   14  C24 UNL     1     -15.977   8.406 -15.415  1.00  0.00     0.028 A 
HETATM   15  C25 UNL     1     -14.766   8.255 -16.055  1.00  0.00     0.046 A 
HETATM   16  N3  UNL     1     -13.601   8.009 -15.277  1.00  0.00    -0.102 NA
HETATM   17  C26 UNL     1     -14.743   8.349 -17.421  1.00  0.00     0.028 A 
HETATM   18  C27 UNL     1     -15.888   8.591 -18.181  1.00  0.00     0.027 A 
ENDBRANCH   9  12
ENDBRANCH   4   9
ENDBRANCH   3   4
ENDBRANCH   2   3
BRANCH   2  19
HETATM   19  O1  UNL     1     -18.372  13.765 -17.734  1.00  0.00    -0.392 OA
ATOM     20  H1  UNL     1     -18.477  14.668 -18.008  1.00  0.00     0.210 HD
ENDBRANCH   2  19
ENDBRANCH   1   2
BRANCH   1  21
HETATM   21  C8  UNL     1     -15.865  13.698 -19.279  1.00  0.00     0.066 C 
BRANCH  21  22
HETATM   22  C9  UNL     1     -14.978  14.450 -20.178  1.00  0.00    -0.056 A 
HETATM   23  C10 UNL     1     -14.407  13.877 -21.281  1.00  0.00     0.007 A 
HETATM   24  C11 UNL     1     -13.558  14.625 -22.112  1.00  0.00     0.001 A 
HETATM   25  C12 UNL     1     -13.283  15.949 -21.837  1.00  0.00     0.000 A 
HETATM   26  C13 UNL     1     -13.867  16.505 -20.725  1.00  0.00     0.001 A 
HETATM   27  C14 UNL     1     -14.705  15.768 -19.904  1.00  0.00     0.007 A 
ENDBRANCH  21  22
ENDBRANCH   1  21
BRANCH   1  28
HETATM   28  N2  UNL     1     -17.821  14.542 -20.542  1.00  0.00    -0.329 N 
HETATM   29  C15 UNL     1     -18.108  14.580 -21.936  1.00  0.00     0.361 C 
HETATM   30  O2  UNL     1     -17.848  13.589 -22.647  1.00  0.00    -0.238 OA
ATOM     31  H2  UNL     1     -18.046  15.373 -19.995  1.00  0.00     0.165 HD
BRANCH  29  32
HETATM   32  O3  UNL     1     -18.680  15.705 -22.546  1.00  0.00    -0.296 OA
BRANCH  32  33
HETATM   33  C16 UNL     1     -18.738  15.762 -23.945  1.00  0.00     0.170 C 
HETATM   34  C17 UNL     1     -20.054  16.436 -24.315  1.00  0.00     0.204 C 
HETATM   35  O4  UNL     1     -19.818  17.755 -24.023  1.00  0.00    -0.358 OA
HETATM   36  C18 UNL     1     -18.516  18.061 -24.305  1.00  0.00     0.275 C 
HETATM   37  O5  UNL     1     -17.839  18.614 -23.193  1.00  0.00    -0.332 OA
HETATM   38  C21 UNL     1     -17.762  16.760 -24.505  1.00  0.00     0.097 C 
HETATM   39  C19 UNL     1     -16.614  17.984 -22.995  1.00  0.00     0.134 C 
HETATM   40  C20 UNL     1     -16.532  16.901 -23.741  1.00  0.00     0.009 C 
ENDBRANCH  32  33
ENDBRANCH  29  32
ENDBRANCH   1  28
TORSDOF 13
ENDMDL
