MODEL 7
REMARK VINA RESULT: -9.624130939      1.870      2.304
REMARK  13 active torsions:
REMARK  status: ('A' for Active; 'I' for Inactive)
REMARK    1  A    between atoms: C2_2  and  C4_4 
REMARK    2  A    between atoms: C4_4  and  N1_5 
REMARK    3  A    between atoms: N1_5  and  C5_6 
REMARK    4  A    between atoms: N1_5  and  S1_31 
REMARK    5  A    between atoms: C5_6  and  C6_7 
REMARK    6  A    between atoms: C6_7  and  O1_8 
REMARK    7  A    between atoms: C6_7  and  C7_10 
REMARK    8  A    between atoms: C7_10  and  C8_11 
REMARK    9  A    between atoms: C7_10  and  N2_18 
REMARK   10  A    between atoms: C8_11  and  C9_12 
REMARK       I    between atoms: N2_18  and  C15_20 
REMARK   11  A    between atoms: C15_20  and  O3_22 
REMARK   12  A    between atoms: O3_22  and  C16_23 
REMARK   13  A    between atoms: S1_31  and  C22_34 
ROOT
HETATM    1  C7  UNL     1     -17.245  14.248 -20.214  1.00  0.00     0.120 C 
ENDROOT
BRANCH   1   2
HETATM    2  C6  UNL     1     -18.265  13.786 -19.229  1.00  0.00     0.155 C 
BRANCH   2   3
HETATM    3  C5  UNL     1     -18.256  12.285 -19.037  1.00  0.00     0.141 C 
BRANCH   3   4
HETATM    4  N1  UNL     1     -17.119  11.661 -19.682  1.00  0.00    -0.204 NA
BRANCH   4   5
HETATM    5  C4  UNL     1     -17.563  10.489 -20.361  1.00  0.00     0.111 C 
BRANCH   5   6
HETATM    6  C2  UNL     1     -18.993  10.119 -20.155  1.00  0.00    -0.009 C 
HETATM    7  C1  UNL     1     -19.672  10.176 -21.527  1.00  0.00     0.011 C 
HETATM    8  C3  UNL     1     -19.165   8.720 -19.607  1.00  0.00     0.011 C 
ENDBRANCH   5   6
ENDBRANCH   4   5
BRANCH   4   9
HETATM    9  S1  UNL     1     -15.913  11.359 -18.512  1.00  0.00     0.243 S 
HETATM   10  O6  UNL     1     -16.033  12.315 -17.345  1.00  0.00    -0.206 OA
HETATM   11  O7  UNL     1     -14.534  11.595 -19.081  1.00  0.00    -0.206 OA
BRANCH   9  12
HETATM   12  C22 UNL     1     -15.943   9.739 -17.879  1.00  0.00     0.074 A 
HETATM   13  C23 UNL     1     -15.020   8.827 -18.382  1.00  0.00     0.027 A 
HETATM   14  C24 UNL     1     -14.965   7.521 -17.944  1.00  0.00     0.028 A 
HETATM   15  C25 UNL     1     -15.845   7.090 -16.976  1.00  0.00     0.046 A 
HETATM   16  N3  UNL     1     -15.777   5.740 -16.534  1.00  0.00    -0.102 NA
HETATM   17  C26 UNL     1     -16.753   7.989 -16.482  1.00  0.00     0.028 A 
HETATM   18  C27 UNL     1     -16.818   9.313 -16.919  1.00  0.00     0.027 A 
ENDBRANCH   9  12
ENDBRANCH   4   9
ENDBRANCH   3   4
ENDBRANCH   2   3
BRANCH   2  19
HETATM   19  O1  UNL     1     -18.237  14.430 -18.016  1.00  0.00    -0.392 OA
ATOM     20  H1  UNL     1     -18.924  14.105 -17.447  1.00  0.00     0.210 HD
ENDBRANCH   2  19
ENDBRANCH   1   2
BRANCH   1  21
HETATM   21  C8  UNL     1     -15.978  14.749 -19.552  1.00  0.00     0.066 C 
BRANCH  21  22
HETATM   22  C9  UNL     1     -14.919  15.129 -20.497  1.00  0.00    -0.056 A 
HETATM   23  C10 UNL     1     -14.567  16.433 -20.707  1.00  0.00     0.007 A 
HETATM   24  C11 UNL     1     -13.554  16.757 -21.625  1.00  0.00     0.001 A 
HETATM   25  C12 UNL     1     -12.893  15.772 -22.329  1.00  0.00     0.000 A 
HETATM   26  C13 UNL     1     -13.262  14.468 -22.102  1.00  0.00     0.001 A 
HETATM   27  C14 UNL     1     -14.262  14.147 -21.199  1.00  0.00     0.007 A 
ENDBRANCH  21  22
ENDBRANCH   1  21
BRANCH   1  28
HETATM   28  N2  UNL     1     -17.847  15.166 -21.122  1.00  0.00    -0.329 N 
HETATM   29  C15 UNL     1     -17.791  15.078 -22.542  1.00  0.00     0.361 C 
HETATM   30  O2  UNL     1     -17.174  14.138 -23.078  1.00  0.00    -0.238 OA
ATOM     31  H2  UNL     1     -18.360  15.952 -20.721  1.00  0.00     0.165 HD
BRANCH  29  32
HETATM   32  O3  UNL     1     -18.415  16.022 -23.369  1.00  0.00    -0.296 OA
BRANCH  32  33
HETATM   33  C16 UNL     1     -19.061  15.583 -24.532  1.00  0.00     0.170 C 
HETATM   34  C17 UNL     1     -20.562  15.677 -24.278  1.00  0.00     0.204 C 
HETATM   35  O4  UNL     1     -20.803  17.024 -24.355  1.00  0.00    -0.358 OA
HETATM   36  C18 UNL     1     -19.995  17.583 -25.304  1.00  0.00     0.275 C 
HETATM   37  O5  UNL     1     -19.222  18.651 -24.793  1.00  0.00    -0.332 OA
HETATM   38  C21 UNL     1     -18.921  16.571 -25.658  1.00  0.00     0.097 C 
HETATM   39  C19 UNL     1     -17.885  18.512 -25.153  1.00  0.00     0.134 C 
HETATM   40  C20 UNL     1     -17.671  17.315 -25.660  1.00  0.00     0.009 C 
ENDBRANCH  32  33
ENDBRANCH  29  32
ENDBRANCH   1  28
TORSDOF 13
ENDMDL
