MODEL 4
REMARK VINA RESULT: -9.734268585      2.352      5.161
REMARK  13 active torsions:
REMARK  status: ('A' for Active; 'I' for Inactive)
REMARK    1  A    between atoms: C2_2  and  C4_4 
REMARK    2  A    between atoms: C4_4  and  N1_5 
REMARK    3  A    between atoms: N1_5  and  C5_6 
REMARK    4  A    between atoms: N1_5  and  S1_31 
REMARK    5  A    between atoms: C5_6  and  C6_7 
REMARK    6  A    between atoms: C6_7  and  O1_8 
REMARK    7  A    between atoms: C6_7  and  C7_10 
REMARK    8  A    between atoms: C7_10  and  C8_11 
REMARK    9  A    between atoms: C7_10  and  N2_18 
REMARK   10  A    between atoms: C8_11  and  C9_12 
REMARK       I    between atoms: N2_18  and  C15_20 
REMARK   11  A    between atoms: C15_20  and  O3_22 
REMARK   12  A    between atoms: O3_22  and  C16_23 
REMARK   13  A    between atoms: S1_31  and  C22_34 
ROOT
HETATM    1  C7  UNL     1     -18.845  13.722 -20.741  1.00  0.00     0.120 C 
ENDROOT
BRANCH   1   2
HETATM    2  C6  UNL     1     -17.790  13.978 -19.719  1.00  0.00     0.155 C 
BRANCH   2   3
HETATM    3  C5  UNL     1     -16.644  14.808 -20.256  1.00  0.00     0.141 C 
BRANCH   3   4
HETATM    4  N1  UNL     1     -15.376  14.430 -19.667  1.00  0.00    -0.204 NA
BRANCH   4   5
HETATM    5  C4  UNL     1     -14.433  15.472 -19.901  1.00  0.00     0.111 C 
BRANCH   5   6
HETATM    6  C2  UNL     1     -14.498  16.122 -21.242  1.00  0.00    -0.009 C 
HETATM    7  C1  UNL     1     -14.339  17.629 -21.016  1.00  0.00     0.011 C 
HETATM    8  C3  UNL     1     -13.393  15.670 -22.169  1.00  0.00     0.011 C 
ENDBRANCH   5   6
ENDBRANCH   4   5
BRANCH   4   9
HETATM    9  S1  UNL     1     -14.898  12.919 -20.301  1.00  0.00     0.243 S 
HETATM   10  O6  UNL     1     -13.391  12.786 -20.319  1.00  0.00    -0.206 OA
HETATM   11  O7  UNL     1     -15.328  12.774 -21.742  1.00  0.00    -0.206 OA
BRANCH   9  12
HETATM   12  C22 UNL     1     -15.542  11.559 -19.428  1.00  0.00     0.074 A 
HETATM   13  C23 UNL     1     -15.586  11.640 -18.039  1.00  0.00     0.027 A 
HETATM   14  C24 UNL     1     -16.078  10.614 -17.260  1.00  0.00     0.028 A 
HETATM   15  C25 UNL     1     -16.548   9.467 -17.861  1.00  0.00     0.046 A 
HETATM   16  N3  UNL     1     -17.053   8.418 -17.044  1.00  0.00    -0.102 NA
HETATM   17  C26 UNL     1     -16.505   9.391 -19.228  1.00  0.00     0.028 A 
HETATM   18  C27 UNL     1     -16.008  10.422 -20.027  1.00  0.00     0.027 A 
ENDBRANCH   9  12
ENDBRANCH   4   9
ENDBRANCH   3   4
ENDBRANCH   2   3
BRANCH   2  19
HETATM   19  O1  UNL     1     -18.244  14.490 -18.528  1.00  0.00    -0.392 OA
ATOM     20  H1  UNL     1     -19.150  14.247 -18.382  1.00  0.00     0.210 HD
ENDBRANCH   2  19
ENDBRANCH   1   2
BRANCH   1  21
HETATM   21  C8  UNL     1     -18.753  12.336 -21.342  1.00  0.00     0.066 C 
BRANCH  21  22
HETATM   22  C9  UNL     1     -19.643  11.350 -20.714  1.00  0.00    -0.056 A 
HETATM   23  C10 UNL     1     -20.463  10.539 -21.449  1.00  0.00     0.007 A 
HETATM   24  C11 UNL     1     -21.306   9.614 -20.811  1.00  0.00     0.001 A 
HETATM   25  C12 UNL     1     -21.325   9.502 -19.436  1.00  0.00     0.000 A 
HETATM   26  C13 UNL     1     -20.494  10.327 -18.716  1.00  0.00     0.001 A 
HETATM   27  C14 UNL     1     -19.662  11.240 -19.344  1.00  0.00     0.007 A 
ENDBRANCH  21  22
ENDBRANCH   1  21
BRANCH   1  28
HETATM   28  N2  UNL     1     -18.850  14.785 -21.691  1.00  0.00    -0.329 N 
HETATM   29  C15 UNL     1     -18.292  14.724 -23.000  1.00  0.00     0.361 C 
HETATM   30  O2  UNL     1     -17.742  13.674 -23.387  1.00  0.00    -0.238 OA
ATOM     31  H2  UNL     1     -19.289  15.662 -21.410  1.00  0.00     0.165 HD
BRANCH  29  32
HETATM   32  O3  UNL     1     -18.340  15.814 -23.879  1.00  0.00    -0.296 OA
BRANCH  32  33
HETATM   33  C16 UNL     1     -19.313  15.829 -24.888  1.00  0.00     0.170 C 
HETATM   34  C17 UNL     1     -20.602  16.353 -24.265  1.00  0.00     0.204 C 
HETATM   35  O4  UNL     1     -20.358  17.696 -24.136  1.00  0.00    -0.358 OA
HETATM   36  C18 UNL     1     -19.604  18.129 -25.190  1.00  0.00     0.275 C 
HETATM   37  O5  UNL     1     -18.418  18.778 -24.773  1.00  0.00    -0.332 OA
HETATM   38  C21 UNL     1     -19.051  16.909 -25.902  1.00  0.00     0.097 C 
HETATM   39  C19 UNL     1     -17.314  18.284 -25.463  1.00  0.00     0.134 C 
HETATM   40  C20 UNL     1     -17.643  17.197 -26.132  1.00  0.00     0.009 C 
ENDBRANCH  32  33
ENDBRANCH  29  32
ENDBRANCH   1  28
TORSDOF 13
ENDMDL
