MODEL 2
REMARK VINA RESULT: -9.780318704      2.153      4.804
REMARK  13 active torsions:
REMARK  status: ('A' for Active; 'I' for Inactive)
REMARK    1  A    between atoms: C2_2  and  C4_4 
REMARK    2  A    between atoms: C4_4  and  N1_5 
REMARK    3  A    between atoms: N1_5  and  C5_6 
REMARK    4  A    between atoms: N1_5  and  S1_31 
REMARK    5  A    between atoms: C5_6  and  C6_7 
REMARK    6  A    between atoms: C6_7  and  O1_8 
REMARK    7  A    between atoms: C6_7  and  C7_10 
REMARK    8  A    between atoms: C7_10  and  C8_11 
REMARK    9  A    between atoms: C7_10  and  N2_18 
REMARK   10  A    between atoms: C8_11  and  C9_12 
REMARK       I    between atoms: N2_18  and  C15_20 
REMARK   11  A    between atoms: C15_20  and  O3_22 
REMARK   12  A    between atoms: O3_22  and  C16_23 
REMARK   13  A    between atoms: S1_31  and  C22_34 
ROOT
HETATM    1  C7  UNL     1     -18.212  11.917 -21.443  1.00  0.00     0.120 C 
ENDROOT
BRANCH   1   2
HETATM    2  C6  UNL     1     -16.818  11.394 -21.523  1.00  0.00     0.155 C 
BRANCH   2   3
HETATM    3  C5  UNL     1     -16.560  10.263 -20.550  1.00  0.00     0.141 C 
BRANCH   3   4
HETATM    4  N1  UNL     1     -16.421  10.738 -19.189  1.00  0.00    -0.204 NA
BRANCH   4   5
HETATM    5  C4  UNL     1     -15.513  11.836 -19.176  1.00  0.00     0.111 C 
BRANCH   5   6
HETATM    6  C2  UNL     1     -15.991  13.069 -18.488  1.00  0.00    -0.009 C 
HETATM    7  C1  UNL     1     -15.914  14.209 -19.509  1.00  0.00     0.011 C 
HETATM    8  C3  UNL     1     -17.423  12.962 -18.015  1.00  0.00     0.011 C 
ENDBRANCH   5   6
ENDBRANCH   4   5
BRANCH   4   9
HETATM    9  S1  UNL     1     -15.936   9.437 -18.194  1.00  0.00     0.243 S 
HETATM   10  O6  UNL     1     -15.002   9.905 -17.100  1.00  0.00    -0.206 OA
HETATM   11  O7  UNL     1     -15.149   8.416 -18.982  1.00  0.00    -0.206 OA
BRANCH   9  12
HETATM   12  C22 UNL     1     -17.263   8.601 -17.441  1.00  0.00     0.074 A 
HETATM   13  C23 UNL     1     -17.313   8.582 -16.051  1.00  0.00     0.027 A 
HETATM   14  C24 UNL     1     -18.324   7.946 -15.362  1.00  0.00     0.028 A 
HETATM   15  C25 UNL     1     -19.325   7.305 -16.059  1.00  0.00     0.046 A 
HETATM   16  N3  UNL     1     -20.361   6.653 -15.335  1.00  0.00    -0.102 NA
HETATM   17  C26 UNL     1     -19.273   7.326 -17.427  1.00  0.00     0.028 A 
HETATM   18  C27 UNL     1     -18.254   7.966 -18.135  1.00  0.00     0.027 A 
ENDBRANCH   9  12
ENDBRANCH   4   9
ENDBRANCH   3   4
ENDBRANCH   2   3
BRANCH   2  19
HETATM   19  O1  UNL     1     -16.394  11.054 -22.785  1.00  0.00    -0.392 OA
ATOM     20  H1  UNL     1     -16.834  11.583 -23.440  1.00  0.00     0.210 HD
ENDBRANCH   2  19
ENDBRANCH   1   2
BRANCH   1  21
HETATM   21  C8  UNL     1     -19.246  10.889 -21.850  1.00  0.00     0.066 C 
BRANCH  21  22
HETATM   22  C9  UNL     1     -20.095  10.422 -20.746  1.00  0.00    -0.056 A 
HETATM   23  C10 UNL     1     -20.058  11.001 -19.507  1.00  0.00     0.007 A 
HETATM   24  C11 UNL     1     -20.880  10.522 -18.474  1.00  0.00     0.001 A 
HETATM   25  C12 UNL     1     -21.739   9.463 -18.683  1.00  0.00     0.000 A 
HETATM   26  C13 UNL     1     -21.761   8.896 -19.935  1.00  0.00     0.001 A 
HETATM   27  C14 UNL     1     -20.951   9.367 -20.955  1.00  0.00     0.007 A 
ENDBRANCH  21  22
ENDBRANCH   1  21
BRANCH   1  28
HETATM   28  N2  UNL     1     -18.293  13.155 -22.144  1.00  0.00    -0.329 N 
HETATM   29  C15 UNL     1     -18.901  14.344 -21.651  1.00  0.00     0.361 C 
HETATM   30  O2  UNL     1     -19.419  14.347 -20.517  1.00  0.00    -0.238 OA
ATOM     31  H2  UNL     1     -17.882  13.192 -23.077  1.00  0.00     0.165 HD
BRANCH  29  32
HETATM   32  O3  UNL     1     -18.937  15.526 -22.403  1.00  0.00    -0.296 OA
BRANCH  32  33
HETATM   33  C16 UNL     1     -19.021  15.441 -23.798  1.00  0.00     0.170 C 
HETATM   34  C17 UNL     1     -20.343  16.078 -24.211  1.00  0.00     0.204 C 
HETATM   35  O4  UNL     1     -20.099  17.419 -24.061  1.00  0.00    -0.358 OA
HETATM   36  C18 UNL     1     -18.803  17.690 -24.397  1.00  0.00     0.275 C 
HETATM   37  O5  UNL     1     -18.104  18.351 -23.359  1.00  0.00    -0.332 OA
HETATM   38  C21 UNL     1     -18.055  16.373 -24.476  1.00  0.00     0.097 C 
HETATM   39  C19 UNL     1     -16.876  17.740 -23.121  1.00  0.00     0.134 C 
HETATM   40  C20 UNL     1     -16.810  16.587 -23.753  1.00  0.00     0.009 C 
ENDBRANCH  32  33
ENDBRANCH  29  32
ENDBRANCH   1  28
TORSDOF 13
ENDMDL
