MODEL 3
REMARK VINA RESULT: -9.744208377      1.981      4.855
REMARK  13 active torsions:
REMARK  status: ('A' for Active; 'I' for Inactive)
REMARK    1  A    between atoms: C2_2  and  C4_4 
REMARK    2  A    between atoms: C4_4  and  N1_5 
REMARK    3  A    between atoms: N1_5  and  C5_6 
REMARK    4  A    between atoms: N1_5  and  S1_31 
REMARK    5  A    between atoms: C5_6  and  C6_7 
REMARK    6  A    between atoms: C6_7  and  O1_8 
REMARK    7  A    between atoms: C6_7  and  C7_10 
REMARK    8  A    between atoms: C7_10  and  C8_11 
REMARK    9  A    between atoms: C7_10  and  N2_18 
REMARK   10  A    between atoms: C8_11  and  C9_12 
REMARK       I    between atoms: N2_18  and  C15_20 
REMARK   11  A    between atoms: C15_20  and  O3_22 
REMARK   12  A    between atoms: O3_22  and  C16_23 
REMARK   13  A    between atoms: S1_31  and  C22_34 
ROOT
HETATM    1  C7  UNL     1     -18.254  12.178 -21.563  1.00  0.00     0.120 C 
ENDROOT
BRANCH   1   2
HETATM    2  C6  UNL     1     -16.806  11.859 -21.715  1.00  0.00     0.155 C 
BRANCH   2   3
HETATM    3  C5  UNL     1     -16.181  11.354 -20.432  1.00  0.00     0.141 C 
BRANCH   3   4
HETATM    4  N1  UNL     1     -15.718  12.437 -19.590  1.00  0.00    -0.204 NA
BRANCH   4   5
HETATM    5  C4  UNL     1     -14.333  12.657 -19.845  1.00  0.00     0.111 C 
BRANCH   5   6
HETATM    6  C2  UNL     1     -14.016  13.593 -20.961  1.00  0.00    -0.009 C 
HETATM    7  C1  UNL     1     -14.707  14.922 -20.641  1.00  0.00     0.011 C 
HETATM    8  C3  UNL     1     -12.534  13.859 -21.103  1.00  0.00     0.011 C 
ENDBRANCH   5   6
ENDBRANCH   4   5
BRANCH   4   9
HETATM    9  S1  UNL     1     -16.063  12.060 -17.961  1.00  0.00     0.243 S 
HETATM   10  O6  UNL     1     -17.394  12.640 -17.536  1.00  0.00    -0.206 OA
HETATM   11  O7  UNL     1     -15.044  12.679 -17.033  1.00  0.00    -0.206 OA
BRANCH   9  12
HETATM   12  C22 UNL     1     -16.096  10.352 -17.630  1.00  0.00     0.074 A 
HETATM   13  C23 UNL     1     -14.878   9.693 -17.493  1.00  0.00     0.027 A 
HETATM   14  C24 UNL     1     -14.801   8.342 -17.231  1.00  0.00     0.028 A 
HETATM   15  C25 UNL     1     -15.958   7.607 -17.096  1.00  0.00     0.046 A 
HETATM   16  N3  UNL     1     -15.863   6.214 -16.826  1.00  0.00    -0.102 NA
HETATM   17  C26 UNL     1     -17.155   8.258 -17.231  1.00  0.00     0.028 A 
HETATM   18  C27 UNL     1     -17.246   9.625 -17.498  1.00  0.00     0.027 A 
ENDBRANCH   9  12
ENDBRANCH   4   9
ENDBRANCH   3   4
ENDBRANCH   2   3
BRANCH   2  19
HETATM   19  O1  UNL     1     -16.499  11.028 -22.764  1.00  0.00    -0.392 OA
ATOM     20  H1  UNL     1     -17.216  10.993 -23.386  1.00  0.00     0.210 HD
ENDBRANCH   2  19
ENDBRANCH   1   2
BRANCH   1  21
HETATM   21  C8  UNL     1     -19.149  10.995 -21.870  1.00  0.00     0.066 C 
BRANCH  21  22
HETATM   22  C9  UNL     1     -19.745  10.370 -20.681  1.00  0.00    -0.056 A 
HETATM   23  C10 UNL     1     -19.899   9.016 -20.574  1.00  0.00     0.007 A 
HETATM   24  C11 UNL     1     -20.481   8.456 -19.424  1.00  0.00     0.001 A 
HETATM   25  C12 UNL     1     -20.905   9.255 -18.383  1.00  0.00     0.000 A 
HETATM   26  C13 UNL     1     -20.741  10.613 -18.511  1.00  0.00     0.001 A 
HETATM   27  C14 UNL     1     -20.168  11.167 -19.644  1.00  0.00     0.007 A 
ENDBRANCH  21  22
ENDBRANCH   1  21
BRANCH   1  28
HETATM   28  N2  UNL     1     -18.557  13.361 -22.299  1.00  0.00    -0.329 N 
HETATM   29  C15 UNL     1     -18.724  14.659 -21.740  1.00  0.00     0.361 C 
HETATM   30  O2  UNL     1     -18.607  14.821 -20.509  1.00  0.00    -0.238 OA
ATOM     31  H2  UNL     1     -18.663  13.269 -23.309  1.00  0.00     0.165 HD
BRANCH  29  32
HETATM   32  O3  UNL     1     -19.018  15.777 -22.533  1.00  0.00    -0.296 OA
BRANCH  32  33
HETATM   33  C16 UNL     1     -19.218  15.600 -23.908  1.00  0.00     0.170 C 
HETATM   34  C17 UNL     1     -20.580  16.196 -24.247  1.00  0.00     0.204 C 
HETATM   35  O4  UNL     1     -20.344  17.546 -24.204  1.00  0.00    -0.358 OA
HETATM   36  C18 UNL     1     -19.085  17.807 -24.666  1.00  0.00     0.275 C 
HETATM   37  O5  UNL     1     -18.311  18.542 -23.736  1.00  0.00    -0.332 OA
HETATM   38  C21 UNL     1     -18.326  16.495 -24.724  1.00  0.00     0.097 C 
HETATM   39  C19 UNL     1     -17.059  17.960 -23.564  1.00  0.00     0.134 C 
HETATM   40  C20 UNL     1     -17.029  16.768 -24.125  1.00  0.00     0.009 C 
ENDBRANCH  32  33
ENDBRANCH  29  32
ENDBRANCH   1  28
TORSDOF 13
ENDMDL
