MODEL 5
REMARK VINA RESULT: -9.724996118      1.515      1.969
REMARK  13 active torsions:
REMARK  status: ('A' for Active; 'I' for Inactive)
REMARK    1  A    between atoms: C2_2  and  C4_4 
REMARK    2  A    between atoms: C4_4  and  N1_5 
REMARK    3  A    between atoms: N1_5  and  C5_6 
REMARK    4  A    between atoms: N1_5  and  S1_31 
REMARK    5  A    between atoms: C5_6  and  C6_7 
REMARK    6  A    between atoms: C6_7  and  O1_8 
REMARK    7  A    between atoms: C6_7  and  C7_10 
REMARK    8  A    between atoms: C7_10  and  C8_11 
REMARK    9  A    between atoms: C7_10  and  N2_18 
REMARK   10  A    between atoms: C8_11  and  C9_12 
REMARK       I    between atoms: N2_18  and  C15_20 
REMARK   11  A    between atoms: C15_20  and  O3_22 
REMARK   12  A    between atoms: O3_22  and  C16_23 
REMARK   13  A    between atoms: S1_31  and  C22_34 
ROOT
HETATM    1  C7  UNL     1     -17.043  14.322 -20.243  1.00  0.00     0.120 C 
ENDROOT
BRANCH   1   2
HETATM    2  C6  UNL     1     -18.038  13.976 -19.188  1.00  0.00     0.155 C 
BRANCH   2   3
HETATM    3  C5  UNL     1     -17.759  12.639 -18.536  1.00  0.00     0.141 C 
BRANCH   3   4
HETATM    4  N1  UNL     1     -17.865  11.542 -19.475  1.00  0.00    -0.204 NA
BRANCH   4   5
HETATM    5  C4  UNL     1     -19.071  10.830 -19.214  1.00  0.00     0.111 C 
BRANCH   5   6
HETATM    6  C2  UNL     1     -20.157  10.992 -20.224  1.00  0.00    -0.009 C 
HETATM    7  C1  UNL     1     -19.484  11.374 -21.546  1.00  0.00     0.011 C 
HETATM    8  C3  UNL     1     -20.943   9.721 -20.451  1.00  0.00     0.011 C 
ENDBRANCH   5   6
ENDBRANCH   4   5
BRANCH   4   9
HETATM    9  S1  UNL     1     -16.462  10.577 -19.363  1.00  0.00     0.243 S 
HETATM   10  O6  UNL     1     -15.215  11.393 -19.625  1.00  0.00    -0.206 OA
HETATM   11  O7  UNL     1     -16.460   9.497 -20.420  1.00  0.00    -0.206 OA
BRANCH   9  12
HETATM   12  C22 UNL     1     -16.272   9.794 -17.821  1.00  0.00     0.074 A 
HETATM   13  C23 UNL     1     -15.041   9.904 -17.183  1.00  0.00     0.027 A 
HETATM   14  C24 UNL     1     -14.793   9.319 -15.960  1.00  0.00     0.028 A 
HETATM   15  C25 UNL     1     -15.789   8.601 -15.335  1.00  0.00     0.046 A 
HETATM   16  N3  UNL     1     -15.519   8.003 -14.072  1.00  0.00    -0.102 NA
HETATM   17  C26 UNL     1     -17.000   8.495 -15.964  1.00  0.00     0.028 A 
HETATM   18  C27 UNL     1     -17.262   9.081 -17.204  1.00  0.00     0.027 A 
ENDBRANCH   9  12
ENDBRANCH   4   9
ENDBRANCH   3   4
ENDBRANCH   2   3
BRANCH   2  19
HETATM   19  O1  UNL     1     -18.242  14.946 -18.238  1.00  0.00    -0.392 OA
ATOM     20  H1  UNL     1     -19.136  14.923 -17.920  1.00  0.00     0.210 HD
ENDBRANCH   2  19
ENDBRANCH   1   2
BRANCH   1  21
HETATM   21  C8  UNL     1     -15.710  14.753 -19.670  1.00  0.00     0.066 C 
BRANCH  21  22
HETATM   22  C9  UNL     1     -14.750  15.228 -20.677  1.00  0.00    -0.056 A 
HETATM   23  C10 UNL     1     -14.474  16.556 -20.847  1.00  0.00     0.007 A 
HETATM   24  C11 UNL     1     -13.556  16.971 -21.825  1.00  0.00     0.001 A 
HETATM   25  C12 UNL     1     -12.915  16.054 -22.632  1.00  0.00     0.000 A 
HETATM   26  C13 UNL     1     -13.207  14.724 -22.445  1.00  0.00     0.001 A 
HETATM   27  C14 UNL     1     -14.113  14.313 -21.480  1.00  0.00     0.007 A 
ENDBRANCH  21  22
ENDBRANCH   1  21
BRANCH   1  28
HETATM   28  N2  UNL     1     -17.626  15.247 -21.157  1.00  0.00    -0.329 N 
HETATM   29  C15 UNL     1     -17.744  15.054 -22.563  1.00  0.00     0.361 C 
HETATM   30  O2  UNL     1     -17.313  14.005 -23.080  1.00  0.00    -0.238 OA
ATOM     31  H2  UNL     1     -17.989  16.119 -20.772  1.00  0.00     0.165 HD
BRANCH  29  32
HETATM   32  O3  UNL     1     -18.336  16.013 -23.397  1.00  0.00    -0.296 OA
BRANCH  32  33
HETATM   33  C16 UNL     1     -19.037  15.584 -24.532  1.00  0.00     0.170 C 
HETATM   34  C17 UNL     1     -20.524  15.673 -24.205  1.00  0.00     0.204 C 
HETATM   35  O4  UNL     1     -20.770  17.021 -24.257  1.00  0.00    -0.358 OA
HETATM   36  C18 UNL     1     -20.008  17.590 -25.239  1.00  0.00     0.275 C 
HETATM   37  O5  UNL     1     -19.212  18.654 -24.754  1.00  0.00    -0.332 OA
HETATM   38  C21 UNL     1     -18.952  16.583 -25.653  1.00  0.00     0.097 C 
HETATM   39  C19 UNL     1     -17.894  18.521 -25.179  1.00  0.00     0.134 C 
HETATM   40  C20 UNL     1     -17.703  17.329 -25.708  1.00  0.00     0.009 C 
ENDBRANCH  32  33
ENDBRANCH  29  32
ENDBRANCH   1  28
TORSDOF 13
ENDMDL
