MODEL 7
REMARK VINA RESULT: -8.947481131      2.447      8.194
REMARK  13 active torsions:
REMARK  status: ('A' for Active; 'I' for Inactive)
REMARK    1  A    between atoms: C2_2  and  C4_4 
REMARK    2  A    between atoms: C4_4  and  N1_5 
REMARK    3  A    between atoms: N1_5  and  C5_6 
REMARK    4  A    between atoms: N1_5  and  S1_28 
REMARK    5  A    between atoms: C5_6  and  C6_7 
REMARK    6  A    between atoms: C6_7  and  O1_8 
REMARK    7  A    between atoms: C6_7  and  C7_10 
REMARK    8  A    between atoms: C7_10  and  C8_11 
REMARK    9  A    between atoms: C7_10  and  N2_18 
REMARK   10  A    between atoms: C8_11  and  C9_12 
REMARK       I    between atoms: N2_18  and  C15_20 
REMARK   11  A    between atoms: C15_20  and  O3_22 
REMARK   12  A    between atoms: O3_22  and  C16_23 
REMARK   13  A    between atoms: S1_28  and  C20_31 
ROOT
HETATM    1  C6  UNL     1     -17.893  13.569 -19.082  1.00  0.00     0.160 C 
ENDROOT
BRANCH   1   2
HETATM    2  C5  UNL     1     -17.429  12.357 -18.367  1.00  0.00     0.174 C 
BRANCH   2   3
HETATM    3  N1  UNL     1     -17.370  11.133 -19.072  1.00  0.00    -0.283 N 
BRANCH   3   4
HETATM    4  C4  UNL     1     -18.498  10.295 -19.009  1.00  0.00     0.080 C 
BRANCH   4   5
HETATM    5  C2  UNL     1     -19.183  10.003 -20.318  1.00  0.00     0.017 C 
HETATM    6  C1  UNL     1     -18.846  10.924 -21.438  1.00  0.00     0.015 C 
HETATM    7  C3  UNL     1     -20.684   9.844 -20.131  1.00  0.00     0.015 C 
ENDBRANCH   4   5
ENDBRANCH   3   4
BRANCH   3   8
HETATM    8  S1  UNL     1     -15.908  10.308 -18.973  1.00  0.00     0.264 S 
HETATM    9  O5  UNL     1     -15.776   9.315 -20.101  1.00  0.00    -0.200 OA
HETATM   10  O6  UNL     1     -14.752  11.302 -19.198  1.00  0.00    -0.200 OA
BRANCH   8  11
HETATM   11  C20 UNL     1     -15.608   9.481 -17.462  1.00  0.00     0.080 A 
HETATM   12  C21 UNL     1     -16.603   8.972 -16.660  1.00  0.00     0.027 A 
HETATM   13  C22 UNL     1     -16.304   8.309 -15.472  1.00  0.00     0.028 A 
HETATM   14  C23 UNL     1     -15.005   8.131 -15.043  1.00  0.00     0.046 A 
HETATM   15  N3  UNL     1     -14.724   7.451 -13.824  1.00  0.00    -0.102 NA
HETATM   16  C24 UNL     1     -14.005   8.640 -15.845  1.00  0.00     0.028 A 
HETATM   17  C25 UNL     1     -14.295   9.296 -17.021  1.00  0.00     0.027 A 
ENDBRANCH   8  11
ENDBRANCH   3   8
ENDBRANCH   2   3
ENDBRANCH   1   2
BRANCH   1  18
HETATM   18  O1  UNL     1     -18.051  14.695 -18.297  1.00  0.00    -0.392 OA
ATOM     19  H1  UNL     1     -18.915  15.088 -18.320  1.00  0.00     0.210 HD
ENDBRANCH   1  18
BRANCH   1  20
HETATM   20  C7  UNL     1     -16.923  13.961 -20.217  1.00  0.00     0.121 C 
BRANCH  20  21
HETATM   21  C8  UNL     1     -15.756  14.676 -19.587  1.00  0.00     0.066 C 
BRANCH  21  22
HETATM   22  C9  UNL     1     -14.695  14.976 -20.595  1.00  0.00    -0.056 A 
HETATM   23  C10 UNL     1     -13.855  13.988 -21.052  1.00  0.00     0.007 A 
HETATM   24  C11 UNL     1     -12.862  14.271 -21.996  1.00  0.00     0.001 A 
HETATM   25  C12 UNL     1     -12.732  15.553 -22.467  1.00  0.00     0.000 A 
HETATM   26  C13 UNL     1     -13.554  16.554 -22.029  1.00  0.00     0.001 A 
HETATM   27  C14 UNL     1     -14.529  16.248 -21.095  1.00  0.00     0.007 A 
ENDBRANCH  21  22
ENDBRANCH  20  21
BRANCH  20  28
HETATM   28  N2  UNL     1     -17.661  15.002 -20.954  1.00  0.00    -0.329 N 
HETATM   29  C15 UNL     1     -17.788  14.943 -22.355  1.00  0.00     0.361 C 
HETATM   30  O2  UNL     1     -17.245  13.972 -22.946  1.00  0.00    -0.238 OA
ATOM     31  H2  UNL     1     -18.085  15.776 -20.442  1.00  0.00     0.165 HD
BRANCH  29  32
HETATM   32  O3  UNL     1     -18.477  15.895 -23.111  1.00  0.00    -0.296 OA
BRANCH  32  33
HETATM   33  C16 UNL     1     -18.822  15.623 -24.466  1.00  0.00     0.159 C 
HETATM   34  C17 UNL     1     -20.309  15.362 -24.612  1.00  0.00     0.061 C 
HETATM   35  C18 UNL     1     -20.827  16.584 -25.321  1.00  0.00     0.170 C 
HETATM   36  O4  UNL     1     -19.744  16.910 -26.153  1.00  0.00    -0.389 OA
HETATM   37  C19 UNL     1     -18.653  16.893 -25.265  1.00  0.00     0.200 C 
ENDBRANCH  32  33
ENDBRANCH  29  32
ENDBRANCH  20  28
ENDBRANCH   1  20
TORSDOF 13
ENDMDL
