MODEL 1
REMARK VINA RESULT: -9.187462981      0.000      0.000
REMARK  13 active torsions:
REMARK  status: ('A' for Active; 'I' for Inactive)
REMARK    1  A    between atoms: C2_2  and  C4_4 
REMARK    2  A    between atoms: C4_4  and  N1_5 
REMARK    3  A    between atoms: N1_5  and  C5_6 
REMARK    4  A    between atoms: N1_5  and  S1_28 
REMARK    5  A    between atoms: C5_6  and  C6_7 
REMARK    6  A    between atoms: C6_7  and  O1_8 
REMARK    7  A    between atoms: C6_7  and  C7_10 
REMARK    8  A    between atoms: C7_10  and  C8_11 
REMARK    9  A    between atoms: C7_10  and  N2_18 
REMARK   10  A    between atoms: C8_11  and  C9_12 
REMARK       I    between atoms: N2_18  and  C15_20 
REMARK   11  A    between atoms: C15_20  and  O3_22 
REMARK   12  A    between atoms: O3_22  and  C16_23 
REMARK   13  A    between atoms: S1_28  and  C20_31 
ROOT
HETATM    1  C6  UNL     1     -15.079  12.894 -19.629  1.00  0.00     0.160 C 
ENDROOT
BRANCH   1   2
HETATM    2  C5  UNL     1     -15.379  12.675 -21.063  1.00  0.00     0.174 C 
BRANCH   2   3
HETATM    3  N1  UNL     1     -15.733  13.786 -21.861  1.00  0.00    -0.283 N 
BRANCH   3   4
HETATM    4  C4  UNL     1     -14.921  14.931 -21.774  1.00  0.00     0.080 C 
BRANCH   4   5
HETATM    5  C2  UNL     1     -13.524  14.797 -22.323  1.00  0.00     0.017 C 
HETATM    6  C1  UNL     1     -12.430  14.858 -21.315  1.00  0.00     0.015 C 
HETATM    7  C3  UNL     1     -13.296  15.751 -23.485  1.00  0.00     0.015 C 
ENDBRANCH   4   5
ENDBRANCH   3   4
BRANCH   3   8
HETATM    8  S1  UNL     1     -17.378  14.128 -21.938  1.00  0.00     0.264 S 
HETATM    9  O5  UNL     1     -18.185  12.859 -22.063  1.00  0.00    -0.200 OA
HETATM   10  O6  UNL     1     -17.829  14.740 -20.598  1.00  0.00    -0.200 OA
BRANCH   8  11
HETATM   11  C20 UNL     1     -17.862  15.226 -23.210  1.00  0.00     0.080 A 
HETATM   12  C21 UNL     1     -17.615  16.580 -23.186  1.00  0.00     0.027 A 
HETATM   13  C22 UNL     1     -18.012  17.404 -24.236  1.00  0.00     0.028 A 
HETATM   14  C23 UNL     1     -18.668  16.909 -25.344  1.00  0.00     0.046 A 
HETATM   15  N3  UNL     1     -19.064  17.773 -26.405  1.00  0.00    -0.102 NA
HETATM   16  C24 UNL     1     -18.917  15.553 -25.371  1.00  0.00     0.028 A 
HETATM   17  C25 UNL     1     -18.527  14.733 -24.336  1.00  0.00     0.027 A 
ENDBRANCH   8  11
ENDBRANCH   3   8
ENDBRANCH   2   3
ENDBRANCH   1   2
BRANCH   1  18
HETATM   18  O1  UNL     1     -15.505  14.104 -19.114  1.00  0.00    -0.392 OA
ATOM     19  H1  UNL     1     -14.915  14.511 -18.491  1.00  0.00     0.210 HD
ENDBRANCH   1  18
BRANCH   1  20
HETATM   20  C7  UNL     1     -15.709  11.797 -18.745  1.00  0.00     0.121 C 
BRANCH  20  21
HETATM   21  C8  UNL     1     -15.049  10.491 -19.108  1.00  0.00     0.066 C 
BRANCH  21  22
HETATM   22  C9  UNL     1     -14.616   9.746 -17.887  1.00  0.00    -0.056 A 
HETATM   23  C10 UNL     1     -14.904   8.410 -17.736  1.00  0.00     0.007 A 
HETATM   24  C11 UNL     1     -14.498   7.714 -16.593  1.00  0.00     0.001 A 
HETATM   25  C12 UNL     1     -13.805   8.380 -15.614  1.00  0.00     0.000 A 
HETATM   26  C13 UNL     1     -13.507   9.709 -15.739  1.00  0.00     0.001 A 
HETATM   27  C14 UNL     1     -13.919  10.375 -16.880  1.00  0.00     0.007 A 
ENDBRANCH  21  22
ENDBRANCH  20  21
BRANCH  20  28
HETATM   28  N2  UNL     1     -17.085  11.690 -19.261  1.00  0.00    -0.329 N 
HETATM   29  C15 UNL     1     -18.160  12.292 -18.580  1.00  0.00     0.361 C 
HETATM   30  O2  UNL     1     -17.897  12.917 -17.518  1.00  0.00    -0.238 OA
ATOM     31  H2  UNL     1     -17.261  11.172 -20.122  1.00  0.00     0.165 HD
BRANCH  29  32
HETATM   32  O3  UNL     1     -19.486  12.231 -19.018  1.00  0.00    -0.296 OA
BRANCH  32  33
HETATM   33  C16 UNL     1     -20.194  10.996 -18.995  1.00  0.00     0.159 C 
HETATM   34  C17 UNL     1     -20.473  10.497 -20.399  1.00  0.00     0.061 C 
HETATM   35  C18 UNL     1     -19.557   9.314 -20.557  1.00  0.00     0.170 C 
HETATM   36  O4  UNL     1     -19.542   8.791 -19.255  1.00  0.00    -0.389 OA
HETATM   37  C19 UNL     1     -19.270   9.925 -18.467  1.00  0.00     0.200 C 
ENDBRANCH  32  33
ENDBRANCH  29  32
ENDBRANCH  20  28
ENDBRANCH   1  20
TORSDOF 13
ENDMDL
