MODEL 2
REMARK VINA RESULT: -9.165438195      1.464      2.227
REMARK  13 active torsions:
REMARK  status: ('A' for Active; 'I' for Inactive)
REMARK    1  A    between atoms: C2_2  and  C4_4 
REMARK    2  A    between atoms: C4_4  and  N1_5 
REMARK    3  A    between atoms: N1_5  and  C5_6 
REMARK    4  A    between atoms: N1_5  and  S1_28 
REMARK    5  A    between atoms: C5_6  and  C6_7 
REMARK    6  A    between atoms: C6_7  and  O1_8 
REMARK    7  A    between atoms: C6_7  and  C7_10 
REMARK    8  A    between atoms: C7_10  and  C8_11 
REMARK    9  A    between atoms: C7_10  and  N2_18 
REMARK   10  A    between atoms: C8_11  and  C9_12 
REMARK       I    between atoms: N2_18  and  C15_20 
REMARK   11  A    between atoms: C15_20  and  O3_22 
REMARK   12  A    between atoms: O3_22  and  C16_23 
REMARK   13  A    between atoms: S1_28  and  C20_31 
ROOT
HETATM    1  C6  UNL     1     -15.129  11.733 -18.544  1.00  0.00     0.160 C 
ENDROOT
BRANCH   1   2
HETATM    2  C5  UNL     1     -15.399  11.844 -19.996  1.00  0.00     0.174 C 
BRANCH   2   3
HETATM    3  N1  UNL     1     -15.568  13.129 -20.560  1.00  0.00    -0.283 N 
BRANCH   3   4
HETATM    4  C4  UNL     1     -14.497  14.034 -20.441  1.00  0.00     0.080 C 
BRANCH   4   5
HETATM    5  C2  UNL     1     -13.463  13.988 -21.535  1.00  0.00     0.017 C 
HETATM    6  C1  UNL     1     -12.056  13.810 -21.083  1.00  0.00     0.015 C 
HETATM    7  C3  UNL     1     -13.621  15.159 -22.491  1.00  0.00     0.015 C 
ENDBRANCH   4   5
ENDBRANCH   3   4
BRANCH   3   8
HETATM    8  S1  UNL     1     -17.077  13.833 -20.324  1.00  0.00     0.264 S 
HETATM    9  O5  UNL     1     -18.032  12.853 -19.688  1.00  0.00    -0.200 OA
HETATM   10  O6  UNL     1     -16.947  14.969 -19.291  1.00  0.00    -0.200 OA
BRANCH   8  11
HETATM   11  C20 UNL     1     -17.830  14.501 -21.754  1.00  0.00     0.080 A 
HETATM   12  C21 UNL     1     -18.927  13.944 -22.370  1.00  0.00     0.027 A 
HETATM   13  C22 UNL     1     -19.495  14.529 -23.500  1.00  0.00     0.028 A 
HETATM   14  C23 UNL     1     -18.989  15.687 -24.053  1.00  0.00     0.046 A 
HETATM   15  N3  UNL     1     -19.586  16.265 -25.209  1.00  0.00    -0.102 NA
HETATM   16  C24 UNL     1     -17.890  16.248 -23.438  1.00  0.00     0.028 A 
HETATM   17  C25 UNL     1     -17.325  15.674 -22.320  1.00  0.00     0.027 A 
ENDBRANCH   8  11
ENDBRANCH   3   8
ENDBRANCH   2   3
ENDBRANCH   1   2
BRANCH   1  18
HETATM   18  O1  UNL     1     -15.688  12.725 -17.760  1.00  0.00    -0.392 OA
ATOM     19  H1  UNL     1     -15.070  13.245 -17.260  1.00  0.00     0.210 HD
ENDBRANCH   1  18
BRANCH   1  20
HETATM   20  C7  UNL     1     -15.635  10.391 -17.976  1.00  0.00     0.121 C 
BRANCH  20  21
HETATM   21  C8  UNL     1     -14.529   9.382 -18.147  1.00  0.00     0.066 C 
BRANCH  21  22
HETATM   22  C9  UNL     1     -14.244   8.666 -16.866  1.00  0.00    -0.056 A 
HETATM   23  C10 UNL     1     -13.357   9.182 -15.952  1.00  0.00     0.007 A 
HETATM   24  C11 UNL     1     -13.091   8.511 -14.754  1.00  0.00     0.001 A 
HETATM   25  C12 UNL     1     -13.729   7.323 -14.496  1.00  0.00     0.000 A 
HETATM   26  C13 UNL     1     -14.616   6.789 -15.389  1.00  0.00     0.001 A 
HETATM   27  C14 UNL     1     -14.862   7.473 -16.567  1.00  0.00     0.007 A 
ENDBRANCH  21  22
ENDBRANCH  20  21
BRANCH  20  28
HETATM   28  N2  UNL     1     -16.679   9.985 -18.933  1.00  0.00    -0.329 N 
HETATM   29  C15 UNL     1     -17.824   9.288 -18.500  1.00  0.00     0.361 C 
HETATM   30  O2  UNL     1     -17.913   9.025 -17.271  1.00  0.00    -0.238 OA
ATOM     31  H2  UNL     1     -16.571  10.212 -19.921  1.00  0.00     0.165 HD
BRANCH  29  32
HETATM   32  O3  UNL     1     -18.851   8.880 -19.356  1.00  0.00    -0.296 OA
BRANCH  32  33
HETATM   33  C16 UNL     1     -19.837   9.811 -19.790  1.00  0.00     0.159 C 
HETATM   34  C17 UNL     1     -19.452  10.440 -21.115  1.00  0.00     0.061 C 
HETATM   35  C18 UNL     1     -20.412   9.833 -22.101  1.00  0.00     0.170 C 
HETATM   36  O4  UNL     1     -21.568   9.687 -21.320  1.00  0.00    -0.389 OA
HETATM   37  C19 UNL     1     -21.084   9.047 -20.164  1.00  0.00     0.200 C 
ENDBRANCH  32  33
ENDBRANCH  29  32
ENDBRANCH  20  28
ENDBRANCH   1  20
TORSDOF 13
ENDMDL
