MODEL 3
REMARK VINA RESULT: -9.105848639      2.555      8.363
REMARK  13 active torsions:
REMARK  status: ('A' for Active; 'I' for Inactive)
REMARK    1  A    between atoms: C2_2  and  C4_4 
REMARK    2  A    between atoms: C4_4  and  N1_5 
REMARK    3  A    between atoms: N1_5  and  C5_6 
REMARK    4  A    between atoms: N1_5  and  S1_28 
REMARK    5  A    between atoms: C5_6  and  C6_7 
REMARK    6  A    between atoms: C6_7  and  O1_8 
REMARK    7  A    between atoms: C6_7  and  C7_10 
REMARK    8  A    between atoms: C7_10  and  C8_11 
REMARK    9  A    between atoms: C7_10  and  N2_18 
REMARK   10  A    between atoms: C8_11  and  C9_12 
REMARK       I    between atoms: N2_18  and  C15_20 
REMARK   11  A    between atoms: C15_20  and  O3_22 
REMARK   12  A    between atoms: O3_22  and  C16_23 
REMARK   13  A    between atoms: S1_28  and  C20_31 
ROOT
HETATM    1  C6  UNL     1     -17.961  12.721 -18.607  1.00  0.00     0.160 C 
ENDROOT
BRANCH   1   2
HETATM    2  C5  UNL     1     -17.172  11.707 -17.870  1.00  0.00     0.174 C 
BRANCH   2   3
HETATM    3  N1  UNL     1     -17.076  10.401 -18.402  1.00  0.00    -0.283 N 
BRANCH   3   4
HETATM    4  C4  UNL     1     -18.127   9.509 -18.123  1.00  0.00     0.080 C 
BRANCH   4   5
HETATM    5  C2  UNL     1     -18.743   8.816 -19.309  1.00  0.00     0.017 C 
HETATM    6  C1  UNL     1     -19.284   9.712 -20.368  1.00  0.00     0.015 C 
HETATM    7  C3  UNL     1     -19.750   7.764 -18.870  1.00  0.00     0.015 C 
ENDBRANCH   4   5
ENDBRANCH   3   4
BRANCH   3   8
HETATM    8  S1  UNL     1     -15.552   9.696 -18.324  1.00  0.00     0.264 S 
HETATM    9  O5  UNL     1     -15.235   8.963 -19.604  1.00  0.00    -0.200 OA
HETATM   10  O6  UNL     1     -14.486  10.805 -18.242  1.00  0.00    -0.200 OA
BRANCH   8  11
HETATM   11  C20 UNL     1     -15.290   8.610 -16.978  1.00  0.00     0.080 A 
HETATM   12  C21 UNL     1     -15.434   7.244 -17.060  1.00  0.00     0.027 A 
HETATM   13  C22 UNL     1     -15.198   6.427 -15.957  1.00  0.00     0.028 A 
HETATM   14  C23 UNL     1     -14.810   6.943 -14.737  1.00  0.00     0.046 A 
HETATM   15  N3  UNL     1     -14.576   6.086 -13.624  1.00  0.00    -0.102 NA
HETATM   16  C24 UNL     1     -14.665   8.311 -14.652  1.00  0.00     0.028 A 
HETATM   17  C25 UNL     1     -14.897   9.124 -15.739  1.00  0.00     0.027 A 
ENDBRANCH   8  11
ENDBRANCH   3   8
ENDBRANCH   2   3
ENDBRANCH   1   2
BRANCH   1  18
HETATM   18  O1  UNL     1     -18.351  13.821 -17.867  1.00  0.00    -0.392 OA
ATOM     19  H1  UNL     1     -18.748  14.526 -18.365  1.00  0.00     0.210 HD
ENDBRANCH   1  18
BRANCH   1  20
HETATM   20  C7  UNL     1     -17.184  13.267 -19.824  1.00  0.00     0.121 C 
BRANCH  20  21
HETATM   21  C8  UNL     1     -16.456  14.508 -19.374  1.00  0.00     0.066 C 
BRANCH  21  22
HETATM   22  C9  UNL     1     -15.106  14.604 -20.007  1.00  0.00    -0.056 A 
HETATM   23  C10 UNL     1     -14.491  13.493 -20.533  1.00  0.00     0.007 A 
HETATM   24  C11 UNL     1     -13.228  13.585 -21.125  1.00  0.00     0.001 A 
HETATM   25  C12 UNL     1     -12.600  14.804 -21.178  1.00  0.00     0.000 A 
HETATM   26  C13 UNL     1     -13.189  15.926 -20.662  1.00  0.00     0.001 A 
HETATM   27  C14 UNL     1     -14.441  15.807 -20.082  1.00  0.00     0.007 A 
ENDBRANCH  21  22
ENDBRANCH  20  21
BRANCH  20  28
HETATM   28  N2  UNL     1     -18.247  13.747 -20.723  1.00  0.00    -0.329 N 
HETATM   29  C15 UNL     1     -18.207  13.468 -22.102  1.00  0.00     0.361 C 
HETATM   30  O2  UNL     1     -17.229  12.798 -22.531  1.00  0.00    -0.238 OA
ATOM     31  H2  UNL     1     -19.022  14.290 -20.342  1.00  0.00     0.165 HD
BRANCH  29  32
HETATM   32  O3  UNL     1     -19.185  13.890 -23.007  1.00  0.00    -0.296 OA
BRANCH  32  33
HETATM   33  C16 UNL     1     -18.827  14.685 -24.133  1.00  0.00     0.159 C 
HETATM   34  C17 UNL     1     -20.044  15.039 -24.964  1.00  0.00     0.061 C 
HETATM   35  C18 UNL     1     -20.246  16.508 -24.710  1.00  0.00     0.170 C 
HETATM   36  O4  UNL     1     -18.924  16.956 -24.565  1.00  0.00    -0.389 OA
HETATM   37  C19 UNL     1     -18.386  16.042 -23.640  1.00  0.00     0.200 C 
ENDBRANCH  32  33
ENDBRANCH  29  32
ENDBRANCH  20  28
ENDBRANCH   1  20
TORSDOF 13
ENDMDL
