MODEL 5
REMARK VINA RESULT: -9.031803066      2.554      5.965
REMARK  13 active torsions:
REMARK  status: ('A' for Active; 'I' for Inactive)
REMARK    1  A    between atoms: C2_2  and  C4_4 
REMARK    2  A    between atoms: C4_4  and  N1_5 
REMARK    3  A    between atoms: N1_5  and  C5_6 
REMARK    4  A    between atoms: N1_5  and  S1_28 
REMARK    5  A    between atoms: C5_6  and  C6_7 
REMARK    6  A    between atoms: C6_7  and  O1_8 
REMARK    7  A    between atoms: C6_7  and  C7_10 
REMARK    8  A    between atoms: C7_10  and  C8_11 
REMARK    9  A    between atoms: C7_10  and  N2_18 
REMARK   10  A    between atoms: C8_11  and  C9_12 
REMARK       I    between atoms: N2_18  and  C15_20 
REMARK   11  A    between atoms: C15_20  and  O3_22 
REMARK   12  A    between atoms: O3_22  and  C16_23 
REMARK   13  A    between atoms: S1_28  and  C20_31 
ROOT
HETATM    1  C6  UNL     1     -17.150  12.252 -18.203  1.00  0.00     0.160 C 
ENDROOT
BRANCH   1   2
HETATM    2  C5  UNL     1     -17.895  10.996 -18.454  1.00  0.00     0.174 C 
BRANCH   2   3
HETATM    3  N1  UNL     1     -19.034  11.036 -19.288  1.00  0.00    -0.283 N 
BRANCH   3   4
HETATM    4  C4  UNL     1     -20.111  10.194 -18.955  1.00  0.00     0.080 C 
BRANCH   4   5
HETATM    5  C2  UNL     1     -19.751   8.874 -18.325  1.00  0.00     0.017 C 
HETATM    6  C1  UNL     1     -19.482   7.761 -19.275  1.00  0.00     0.015 C 
HETATM    7  C3  UNL     1     -20.753   8.488 -17.248  1.00  0.00     0.015 C 
ENDBRANCH   4   5
ENDBRANCH   3   4
BRANCH   3   8
HETATM    8  S1  UNL     1     -18.723  11.115 -20.939  1.00  0.00     0.264 S 
HETATM    9  O5  UNL     1     -17.658  10.121 -21.331  1.00  0.00    -0.200 OA
HETATM   10  O6  UNL     1     -19.976  10.661 -21.711  1.00  0.00    -0.200 OA
BRANCH   8  11
HETATM   11  C20 UNL     1     -18.268  12.691 -21.548  1.00  0.00     0.080 A 
HETATM   12  C21 UNL     1     -18.777  13.873 -21.061  1.00  0.00     0.027 A 
HETATM   13  C22 UNL     1     -18.368  15.100 -21.576  1.00  0.00     0.028 A 
HETATM   14  C23 UNL     1     -17.438  15.192 -22.591  1.00  0.00     0.046 A 
HETATM   15  N3  UNL     1     -17.036  16.459 -23.101  1.00  0.00    -0.102 NA
HETATM   16  C24 UNL     1     -16.926  14.009 -23.081  1.00  0.00     0.028 A 
HETATM   17  C25 UNL     1     -17.327  12.792 -22.575  1.00  0.00     0.027 A 
ENDBRANCH   8  11
ENDBRANCH   3   8
ENDBRANCH   2   3
ENDBRANCH   1   2
BRANCH   1  18
HETATM   18  O1  UNL     1     -17.412  12.864 -16.992  1.00  0.00    -0.392 OA
ATOM     19  H1  UNL     1     -17.581  13.797 -17.035  1.00  0.00     0.210 HD
ENDBRANCH   1  18
BRANCH   1  20
HETATM   20  C7  UNL     1     -15.625  12.026 -18.257  1.00  0.00     0.121 C 
BRANCH  20  21
HETATM   21  C8  UNL     1     -15.223  12.005 -19.710  1.00  0.00     0.066 C 
BRANCH  21  22
HETATM   22  C9  UNL     1     -14.655  13.321 -20.134  1.00  0.00    -0.056 A 
HETATM   23  C10 UNL     1     -13.558  13.383 -20.960  1.00  0.00     0.007 A 
HETATM   24  C11 UNL     1     -13.028  14.615 -21.356  1.00  0.00     0.001 A 
HETATM   25  C12 UNL     1     -13.616  15.772 -20.910  1.00  0.00     0.000 A 
HETATM   26  C13 UNL     1     -14.708  15.737 -20.086  1.00  0.00     0.001 A 
HETATM   27  C14 UNL     1     -15.214  14.505 -19.710  1.00  0.00     0.007 A 
ENDBRANCH  21  22
ENDBRANCH  20  21
BRANCH  20  28
HETATM   28  N2  UNL     1     -15.468  10.636 -17.793  1.00  0.00    -0.329 N 
HETATM   29  C15 UNL     1     -14.510  10.305 -16.815  1.00  0.00     0.361 C 
HETATM   30  O2  UNL     1     -13.798  11.240 -16.361  1.00  0.00    -0.238 OA
ATOM     31  H2  UNL     1     -16.060   9.904 -18.186  1.00  0.00     0.165 HD
BRANCH  29  32
HETATM   32  O3  UNL     1     -14.315   9.009 -16.330  1.00  0.00    -0.296 OA
BRANCH  32  33
HETATM   33  C16 UNL     1     -14.719   8.669 -15.008  1.00  0.00     0.159 C 
HETATM   34  C17 UNL     1     -16.041   7.927 -15.012  1.00  0.00     0.061 C 
HETATM   35  C18 UNL     1     -15.670   6.515 -14.650  1.00  0.00     0.170 C 
HETATM   36  O4  UNL     1     -14.599   6.720 -13.767  1.00  0.00    -0.389 OA
HETATM   37  C19 UNL     1     -13.777   7.615 -14.477  1.00  0.00     0.200 C 
ENDBRANCH  32  33
ENDBRANCH  29  32
ENDBRANCH  20  28
ENDBRANCH   1  20
TORSDOF 13
ENDMDL
