MODEL 1
REMARK VINA RESULT: -9.242925695      0.000      0.000
REMARK  13 active torsions:
REMARK  status: ('A' for Active; 'I' for Inactive)
REMARK    1  A    between atoms: C2_2  and  C4_4 
REMARK    2  A    between atoms: C4_4  and  N1_5 
REMARK    3  A    between atoms: N1_5  and  C5_6 
REMARK    4  A    between atoms: N1_5  and  S1_31 
REMARK    5  A    between atoms: C5_6  and  C6_7 
REMARK    6  A    between atoms: C6_7  and  O1_8 
REMARK    7  A    between atoms: C6_7  and  C7_10 
REMARK    8  A    between atoms: C7_10  and  C8_11 
REMARK    9  A    between atoms: C7_10  and  N2_18 
REMARK   10  A    between atoms: C8_11  and  C9_12 
REMARK       I    between atoms: N2_18  and  C15_20 
REMARK   11  A    between atoms: C15_20  and  O3_22 
REMARK   12  A    between atoms: O3_22  and  C16_23 
REMARK   13  A    between atoms: S1_31  and  C22_34 
ROOT
HETATM    1  C7  UNL     1      -3.954  -2.219 -13.457  1.00  0.00     0.120 C 
ENDROOT
BRANCH   1   2
HETATM    2  C6  UNL     1      -5.116  -2.517 -12.572  1.00  0.00     0.155 C 
BRANCH   2   3
HETATM    3  C5  UNL     1      -6.438  -2.104 -13.183  1.00  0.00     0.141 C 
BRANCH   3   4
HETATM    4  N1  UNL     1      -6.315  -0.907 -13.989  1.00  0.00    -0.204 NA
BRANCH   4   5
HETATM    5  C4  UNL     1      -6.976   0.165 -13.323  1.00  0.00     0.111 C 
BRANCH   5   6
HETATM    6  C2  UNL     1      -7.838  -0.217 -12.167  1.00  0.00    -0.009 C 
HETATM    7  C1  UNL     1      -7.345   0.583 -10.958  1.00  0.00     0.011 C 
HETATM    8  C3  UNL     1      -9.296   0.117 -12.386  1.00  0.00     0.011 C 
ENDBRANCH   5   6
ENDBRANCH   4   5
BRANCH   4   9
HETATM    9  S1  UNL     1      -6.927  -1.225 -15.550  1.00  0.00     0.243 S 
HETATM   10  O6  UNL     1      -5.931  -0.830 -16.619  1.00  0.00    -0.206 OA
HETATM   11  O7  UNL     1      -8.159  -0.396 -15.829  1.00  0.00    -0.206 OA
BRANCH   9  12
HETATM   12  C22 UNL     1      -7.353  -2.891 -15.809  1.00  0.00     0.074 A 
HETATM   13  C23 UNL     1      -6.379  -3.738 -16.329  1.00  0.00     0.027 A 
HETATM   14  C24 UNL     1      -6.621  -5.074 -16.570  1.00  0.00     0.028 A 
HETATM   15  C25 UNL     1      -7.862  -5.603 -16.289  1.00  0.00     0.046 A 
HETATM   16  N3  UNL     1      -8.096  -6.983 -16.542  1.00  0.00    -0.102 NA
HETATM   17  C26 UNL     1      -8.818  -4.768 -15.776  1.00  0.00     0.028 A 
HETATM   18  C27 UNL     1      -8.585  -3.413 -15.530  1.00  0.00     0.027 A 
ENDBRANCH   9  12
ENDBRANCH   4   9
ENDBRANCH   3   4
ENDBRANCH   2   3
BRANCH   2  19
HETATM   19  O1  UNL     1      -5.178  -3.808 -12.107  1.00  0.00    -0.392 OA
ATOM     20  H1  UNL     1      -4.564  -3.938 -11.395  1.00  0.00     0.210 HD
ENDBRANCH   2  19
ENDBRANCH   1   2
BRANCH   1  21
HETATM   21  C8  UNL     1      -3.031  -3.407 -13.631  1.00  0.00     0.066 C 
BRANCH  21  22
HETATM   22  C9  UNL     1      -2.966  -3.919 -15.006  1.00  0.00    -0.056 A 
HETATM   23  C10 UNL     1      -2.852  -3.088 -16.086  1.00  0.00     0.007 A 
HETATM   24  C11 UNL     1      -2.801  -3.616 -17.387  1.00  0.00     0.001 A 
HETATM   25  C12 UNL     1      -2.863  -4.977 -17.603  1.00  0.00     0.000 A 
HETATM   26  C13 UNL     1      -2.978  -5.794 -16.505  1.00  0.00     0.001 A 
HETATM   27  C14 UNL     1      -3.029  -5.275 -15.221  1.00  0.00     0.007 A 
ENDBRANCH  21  22
ENDBRANCH   1  21
BRANCH   1  28
HETATM   28  N2  UNL     1      -3.313  -1.026 -13.011  1.00  0.00    -0.329 N 
HETATM   29  C15 UNL     1      -3.031   0.110 -13.819  1.00  0.00     0.361 C 
HETATM   30  O2  UNL     1      -3.350   0.105 -15.024  1.00  0.00    -0.238 OA
ATOM     31  H2  UNL     1      -3.034  -0.984 -12.030  1.00  0.00     0.165 HD
BRANCH  29  32
HETATM   32  O3  UNL     1      -2.399   1.251 -13.303  1.00  0.00    -0.296 OA
BRANCH  32  33
HETATM   33  C16 UNL     1      -1.764   1.169 -12.057  1.00  0.00     0.170 C 
HETATM   34  C17 UNL     1      -0.471   1.970 -12.155  1.00  0.00     0.204 C 
HETATM   35  O4  UNL     1      -0.910   3.268 -12.124  1.00  0.00    -0.358 OA
HETATM   36  C18 UNL     1      -1.992   3.368 -11.297  1.00  0.00     0.275 C 
HETATM   37  O5  UNL     1      -3.114   3.939 -11.943  1.00  0.00    -0.332 OA
HETATM   38  C21 UNL     1      -2.490   1.965 -11.006  1.00  0.00     0.097 C 
HETATM   39  C19 UNL     1      -4.256   3.176 -11.720  1.00  0.00     0.134 C 
HETATM   40  C20 UNL     1      -3.934   2.020 -11.176  1.00  0.00     0.009 C 
ENDBRANCH  32  33
ENDBRANCH  29  32
ENDBRANCH   1  28
TORSDOF 13
ENDMDL
