MODEL 3
REMARK VINA RESULT: -8.832667591      1.711      5.035
REMARK  13 active torsions:
REMARK  status: ('A' for Active; 'I' for Inactive)
REMARK    1  A    between atoms: C2_2  and  C4_4 
REMARK    2  A    between atoms: C4_4  and  N1_5 
REMARK    3  A    between atoms: N1_5  and  C5_6 
REMARK    4  A    between atoms: N1_5  and  S1_31 
REMARK    5  A    between atoms: C5_6  and  C6_7 
REMARK    6  A    between atoms: C6_7  and  O1_8 
REMARK    7  A    between atoms: C6_7  and  C7_10 
REMARK    8  A    between atoms: C7_10  and  C8_11 
REMARK    9  A    between atoms: C7_10  and  N2_18 
REMARK   10  A    between atoms: C8_11  and  C9_12 
REMARK       I    between atoms: N2_18  and  C15_20 
REMARK   11  A    between atoms: C15_20  and  O3_22 
REMARK   12  A    between atoms: O3_22  and  C16_23 
REMARK   13  A    between atoms: S1_31  and  C22_34 
ROOT
HETATM    1  C7  UNL     1      -5.755  -0.638 -14.889  1.00  0.00     0.120 C 
ENDROOT
BRANCH   1   2
HETATM    2  C6  UNL     1      -5.364  -1.289 -16.172  1.00  0.00     0.155 C 
BRANCH   2   3
HETATM    3  C5  UNL     1      -6.169  -2.537 -16.464  1.00  0.00     0.141 C 
BRANCH   3   4
HETATM    4  N1  UNL     1      -5.685  -3.683 -15.723  1.00  0.00    -0.204 NA
BRANCH   4   5
HETATM    5  C4  UNL     1      -4.995  -4.550 -16.618  1.00  0.00     0.111 C 
BRANCH   5   6
HETATM    6  C2  UNL     1      -3.589  -4.884 -16.249  1.00  0.00    -0.009 C 
HETATM    7  C1  UNL     1      -2.691  -4.330 -17.359  1.00  0.00     0.011 C 
HETATM    8  C3  UNL     1      -3.159  -4.256 -14.943  1.00  0.00     0.011 C 
ENDBRANCH   5   6
ENDBRANCH   4   5
BRANCH   4   9
HETATM    9  S1  UNL     1      -7.000  -4.426 -14.927  1.00  0.00     0.243 S 
HETATM   10  O6  UNL     1      -7.913  -3.394 -14.301  1.00  0.00    -0.206 OA
HETATM   11  O7  UNL     1      -6.524  -5.285 -13.779  1.00  0.00    -0.206 OA
BRANCH   9  12
HETATM   12  C22 UNL     1      -7.966  -5.434 -15.964  1.00  0.00     0.074 A 
HETATM   13  C23 UNL     1      -9.299  -5.081 -16.156  1.00  0.00     0.027 A 
HETATM   14  C24 UNL     1     -10.144  -5.817 -16.959  1.00  0.00     0.028 A 
HETATM   15  C25 UNL     1      -9.668  -6.939 -17.601  1.00  0.00     0.046 A 
HETATM   16  N3  UNL     1     -10.552  -7.687 -18.427  1.00  0.00    -0.102 NA
HETATM   17  C26 UNL     1      -8.356  -7.283 -17.412  1.00  0.00     0.028 A 
HETATM   18  C27 UNL     1      -7.492  -6.547 -16.600  1.00  0.00     0.027 A 
ENDBRANCH   9  12
ENDBRANCH   4   9
ENDBRANCH   3   4
ENDBRANCH   2   3
BRANCH   2  19
HETATM   19  O1  UNL     1      -5.345  -0.457 -17.265  1.00  0.00    -0.392 OA
ATOM     20  H1  UNL     1      -4.623   0.156 -17.207  1.00  0.00     0.210 HD
ENDBRANCH   2  19
ENDBRANCH   1   2
BRANCH   1  21
HETATM   21  C8  UNL     1      -7.171  -0.101 -14.912  1.00  0.00     0.066 C 
BRANCH  21  22
HETATM   22  C9  UNL     1      -7.653   0.374 -13.609  1.00  0.00    -0.056 A 
HETATM   23  C10 UNL     1      -7.859  -0.475 -12.557  1.00  0.00     0.007 A 
HETATM   24  C11 UNL     1      -8.329   0.016 -11.328  1.00  0.00     0.001 A 
HETATM   25  C12 UNL     1      -8.590   1.360 -11.154  1.00  0.00     0.000 A 
HETATM   26  C13 UNL     1      -8.377   2.196 -12.223  1.00  0.00     0.001 A 
HETATM   27  C14 UNL     1      -7.914   1.713 -13.437  1.00  0.00     0.007 A 
ENDBRANCH  21  22
ENDBRANCH   1  21
BRANCH   1  28
HETATM   28  N2  UNL     1      -4.762   0.316 -14.521  1.00  0.00    -0.329 N 
HETATM   29  C15 UNL     1      -3.704   0.090 -13.595  1.00  0.00     0.361 C 
HETATM   30  O2  UNL     1      -3.602  -1.018 -13.034  1.00  0.00    -0.238 OA
ATOM     31  H2  UNL     1      -4.813   1.236 -14.958  1.00  0.00     0.165 HD
BRANCH  29  32
HETATM   32  O3  UNL     1      -2.761   1.081 -13.289  1.00  0.00    -0.296 OA
BRANCH  32  33
HETATM   33  C16 UNL     1      -2.101   1.030 -12.054  1.00  0.00     0.170 C 
HETATM   34  C17 UNL     1      -0.768   1.751 -12.225  1.00  0.00     0.204 C 
HETATM   35  O4  UNL     1      -1.134   3.071 -12.255  1.00  0.00    -0.358 OA
HETATM   36  C18 UNL     1      -2.188   3.276 -11.410  1.00  0.00     0.275 C 
HETATM   37  O5  UNL     1      -3.293   3.874 -12.061  1.00  0.00    -0.332 OA
HETATM   38  C21 UNL     1      -2.754   1.920 -11.032  1.00  0.00     0.097 C 
HETATM   39  C19 UNL     1      -4.469   3.189 -11.771  1.00  0.00     0.134 C 
HETATM   40  C20 UNL     1      -4.197   2.047 -11.172  1.00  0.00     0.009 C 
ENDBRANCH  32  33
ENDBRANCH  29  32
ENDBRANCH   1  28
TORSDOF 13
ENDMDL
