MODEL 2
REMARK VINA RESULT: -8.850320207      1.632      4.756
REMARK  13 active torsions:
REMARK  status: ('A' for Active; 'I' for Inactive)
REMARK    1  A    between atoms: C2_2  and  C4_4 
REMARK    2  A    between atoms: C4_4  and  N1_5 
REMARK    3  A    between atoms: N1_5  and  C5_6 
REMARK    4  A    between atoms: N1_5  and  S1_31 
REMARK    5  A    between atoms: C5_6  and  C6_7 
REMARK    6  A    between atoms: C6_7  and  O1_8 
REMARK    7  A    between atoms: C6_7  and  C7_10 
REMARK    8  A    between atoms: C7_10  and  C8_11 
REMARK    9  A    between atoms: C7_10  and  N2_18 
REMARK   10  A    between atoms: C8_11  and  C9_12 
REMARK       I    between atoms: N2_18  and  C15_20 
REMARK   11  A    between atoms: C15_20  and  O3_22 
REMARK   12  A    between atoms: O3_22  and  C16_23 
REMARK   13  A    between atoms: S1_31  and  C22_34 
ROOT
HETATM    1  C7  UNL     1      -5.419  -0.437 -14.891  1.00  0.00     0.120 C 
ENDROOT
BRANCH   1   2
HETATM    2  C6  UNL     1      -4.968  -0.995 -16.198  1.00  0.00     0.155 C 
BRANCH   2   3
HETATM    3  C5  UNL     1      -5.020  -2.507 -16.239  1.00  0.00     0.141 C 
BRANCH   3   4
HETATM    4  N1  UNL     1      -5.703  -3.059 -15.088  1.00  0.00    -0.204 NA
BRANCH   4   5
HETATM    5  C4  UNL     1      -4.960  -4.175 -14.606  1.00  0.00     0.111 C 
BRANCH   5   6
HETATM    6  C2  UNL     1      -3.687  -4.471 -15.324  1.00  0.00    -0.009 C 
HETATM    7  C1  UNL     1      -2.547  -4.237 -14.327  1.00  0.00     0.011 C 
HETATM    8  C3  UNL     1      -3.601  -5.902 -15.804  1.00  0.00     0.011 C 
ENDBRANCH   5   6
ENDBRANCH   4   5
BRANCH   4   9
HETATM    9  S1  UNL     1      -7.308  -3.442 -15.526  1.00  0.00     0.243 S 
HETATM   10  O6  UNL     1      -7.772  -2.598 -16.693  1.00  0.00    -0.206 OA
HETATM   11  O7  UNL     1      -8.266  -3.127 -14.401  1.00  0.00    -0.206 OA
BRANCH   9  12
HETATM   12  C22 UNL     1      -7.538  -5.112 -15.951  1.00  0.00     0.074 A 
HETATM   13  C23 UNL     1      -8.425  -5.863 -15.185  1.00  0.00     0.027 A 
HETATM   14  C24 UNL     1      -8.673  -7.194 -15.444  1.00  0.00     0.028 A 
HETATM   15  C25 UNL     1      -8.031  -7.815 -16.492  1.00  0.00     0.046 A 
HETATM   16  N3  UNL     1      -8.298  -9.189 -16.747  1.00  0.00    -0.102 NA
HETATM   17  C26 UNL     1      -7.159  -7.075 -17.245  1.00  0.00     0.028 A 
HETATM   18  C27 UNL     1      -6.899  -5.727 -16.992  1.00  0.00     0.027 A 
ENDBRANCH   9  12
ENDBRANCH   4   9
ENDBRANCH   3   4
ENDBRANCH   2   3
BRANCH   2  19
HETATM   19  O1  UNL     1      -5.582  -0.458 -17.303  1.00  0.00    -0.392 OA
ATOM     20  H1  UNL     1      -5.963   0.387 -17.098  1.00  0.00     0.210 HD
ENDBRANCH   2  19
ENDBRANCH   1   2
BRANCH   1  21
HETATM   21  C8  UNL     1      -6.848   0.062 -14.930  1.00  0.00     0.066 C 
BRANCH  21  22
HETATM   22  C9  UNL     1      -7.369   0.488 -13.624  1.00  0.00    -0.056 A 
HETATM   23  C10 UNL     1      -7.477  -0.376 -12.569  1.00  0.00     0.007 A 
HETATM   24  C11 UNL     1      -7.989   0.067 -11.337  1.00  0.00     0.001 A 
HETATM   25  C12 UNL     1      -8.390   1.376 -11.165  1.00  0.00     0.000 A 
HETATM   26  C13 UNL     1      -8.273   2.226 -12.238  1.00  0.00     0.001 A 
HETATM   27  C14 UNL     1      -7.770   1.791 -13.453  1.00  0.00     0.007 A 
ENDBRANCH  21  22
ENDBRANCH   1  21
BRANCH   1  28
HETATM   28  N2  UNL     1      -4.466   0.518 -14.431  1.00  0.00    -0.329 N 
HETATM   29  C15 UNL     1      -3.358   0.235 -13.583  1.00  0.00     0.361 C 
HETATM   30  O2  UNL     1      -3.168  -0.931 -13.185  1.00  0.00    -0.238 OA
ATOM     31  H2  UNL     1      -4.589   1.484 -14.734  1.00  0.00     0.165 HD
BRANCH  29  32
HETATM   32  O3  UNL     1      -2.460   1.231 -13.176  1.00  0.00    -0.296 OA
BRANCH  32  33
HETATM   33  C16 UNL     1      -1.919   1.171 -11.886  1.00  0.00     0.170 C 
HETATM   34  C17 UNL     1      -0.597   1.930 -11.914  1.00  0.00     0.204 C 
HETATM   35  O4  UNL     1      -0.996   3.241 -11.953  1.00  0.00    -0.358 OA
HETATM   36  C18 UNL     1      -2.131   3.398 -11.209  1.00  0.00     0.275 C 
HETATM   37  O5  UNL     1      -3.186   3.981 -11.950  1.00  0.00    -0.332 OA
HETATM   38  C21 UNL     1      -2.692   2.020 -10.914  1.00  0.00     0.097 C 
HETATM   39  C19 UNL     1      -4.364   3.259 -11.788  1.00  0.00     0.134 C 
HETATM   40  C20 UNL     1      -4.117   2.111 -11.189  1.00  0.00     0.009 C 
ENDBRANCH  32  33
ENDBRANCH  29  32
ENDBRANCH   1  28
TORSDOF 13
ENDMDL
