MODEL 14
REMARK VINA RESULT: -8.441979323      1.742      4.949
REMARK  13 active torsions:
REMARK  status: ('A' for Active; 'I' for Inactive)
REMARK    1  A    between atoms: C2_2  and  C4_4 
REMARK    2  A    between atoms: C4_4  and  N1_5 
REMARK    3  A    between atoms: N1_5  and  C5_6 
REMARK    4  A    between atoms: N1_5  and  S1_31 
REMARK    5  A    between atoms: C5_6  and  C6_7 
REMARK    6  A    between atoms: C6_7  and  O1_8 
REMARK    7  A    between atoms: C6_7  and  C7_10 
REMARK    8  A    between atoms: C7_10  and  C8_11 
REMARK    9  A    between atoms: C7_10  and  N2_18 
REMARK   10  A    between atoms: C8_11  and  C9_12 
REMARK       I    between atoms: N2_18  and  C15_20 
REMARK   11  A    between atoms: C15_20  and  O3_22 
REMARK   12  A    between atoms: O3_22  and  C16_23 
REMARK   13  A    between atoms: S1_31  and  C22_34 
ROOT
HETATM    1  C7  UNL     1      -5.569  -0.313 -14.535  1.00  0.00     0.120 C 
ENDROOT
BRANCH   1   2
HETATM    2  C6  UNL     1      -4.962  -0.712 -15.838  1.00  0.00     0.155 C 
BRANCH   2   3
HETATM    3  C5  UNL     1      -4.966  -2.210 -16.051  1.00  0.00     0.141 C 
BRANCH   3   4
HETATM    4  N1  UNL     1      -5.685  -2.907 -15.006  1.00  0.00    -0.204 NA
BRANCH   4   5
HETATM    5  C4  UNL     1      -4.930  -4.049 -14.611  1.00  0.00     0.111 C 
BRANCH   5   6
HETATM    6  C2  UNL     1      -3.605  -4.216 -15.275  1.00  0.00    -0.009 C 
HETATM    7  C1  UNL     1      -2.535  -3.972 -14.206  1.00  0.00     0.011 C 
HETATM    8  C3  UNL     1      -3.398  -5.605 -15.833  1.00  0.00     0.011 C 
ENDBRANCH   5   6
ENDBRANCH   4   5
BRANCH   4   9
HETATM    9  S1  UNL     1      -7.253  -3.284 -15.567  1.00  0.00     0.243 S 
HETATM   10  O6  UNL     1      -7.611  -2.457 -16.783  1.00  0.00    -0.206 OA
HETATM   11  O7  UNL     1      -8.298  -2.942 -14.531  1.00  0.00    -0.206 OA
BRANCH   9  12
HETATM   12  C22 UNL     1      -7.463  -4.960 -15.982  1.00  0.00     0.074 A 
HETATM   13  C23 UNL     1      -8.398  -5.696 -15.261  1.00  0.00     0.027 A 
HETATM   14  C24 UNL     1      -8.636  -7.030 -15.516  1.00  0.00     0.028 A 
HETATM   15  C25 UNL     1      -7.933  -7.669 -16.514  1.00  0.00     0.046 A 
HETATM   16  N3  UNL     1      -8.190  -9.046 -16.765  1.00  0.00    -0.102 NA
HETATM   17  C26 UNL     1      -7.014  -6.942 -17.222  1.00  0.00     0.028 A 
HETATM   18  C27 UNL     1      -6.764  -5.592 -16.973  1.00  0.00     0.027 A 
ENDBRANCH   9  12
ENDBRANCH   4   9
ENDBRANCH   3   4
ENDBRANCH   2   3
BRANCH   2  19
HETATM   19  O1  UNL     1      -5.467  -0.064 -16.938  1.00  0.00    -0.392 OA
ATOM     20  H1  UNL     1      -6.380   0.160 -16.806  1.00  0.00     0.210 HD
ENDBRANCH   2  19
ENDBRANCH   1   2
BRANCH   1  21
HETATM   21  C8  UNL     1      -6.965   0.252 -14.690  1.00  0.00     0.066 C 
BRANCH  21  22
HETATM   22  C9  UNL     1      -7.623   0.581 -13.417  1.00  0.00    -0.056 A 
HETATM   23  C10 UNL     1      -7.740   1.868 -12.972  1.00  0.00     0.007 A 
HETATM   24  C11 UNL     1      -8.369   2.142 -11.746  1.00  0.00     0.001 A 
HETATM   25  C12 UNL     1      -8.880   1.124 -10.968  1.00  0.00     0.000 A 
HETATM   26  C13 UNL     1      -8.751  -0.162 -11.434  1.00  0.00     0.001 A 
HETATM   27  C14 UNL     1      -8.131  -0.434 -12.642  1.00  0.00     0.007 A 
ENDBRANCH  21  22
ENDBRANCH   1  21
BRANCH   1  28
HETATM   28  N2  UNL     1      -4.661   0.527 -13.828  1.00  0.00    -0.329 N 
HETATM   29  C15 UNL     1      -4.032   0.205 -12.592  1.00  0.00     0.361 C 
HETATM   30  O2  UNL     1      -4.269  -0.891 -12.046  1.00  0.00    -0.238 OA
ATOM     31  H2  UNL     1      -4.443   1.433 -14.242  1.00  0.00     0.165 HD
BRANCH  29  32
HETATM   32  O3  UNL     1      -3.145   1.086 -11.958  1.00  0.00    -0.296 OA
BRANCH  32  33
HETATM   33  C16 UNL     1      -3.235   2.456 -12.236  1.00  0.00     0.170 C 
HETATM   34  C17 UNL     1      -4.213   3.057 -11.232  1.00  0.00     0.204 C 
HETATM   35  O4  UNL     1      -3.483   3.087 -10.072  1.00  0.00    -0.358 OA
HETATM   36  C18 UNL     1      -2.175   3.361 -10.359  1.00  0.00     0.275 C 
HETATM   37  O5  UNL     1      -1.294   2.383  -9.842  1.00  0.00    -0.332 OA
HETATM   38  C21 UNL     1      -1.979   3.189 -11.853  1.00  0.00     0.097 C 
HETATM   39  C19 UNL     1      -0.391   1.965 -10.815  1.00  0.00     0.134 C 
HETATM   40  C20 UNL     1      -0.756   2.414 -11.999  1.00  0.00     0.009 C 
ENDBRANCH  32  33
ENDBRANCH  29  32
ENDBRANCH   1  28
TORSDOF 13
ENDMDL
