MODEL 4
REMARK VINA RESULT: -8.698660377      2.036      4.949
REMARK  13 active torsions:
REMARK  status: ('A' for Active; 'I' for Inactive)
REMARK    1  A    between atoms: C2_2  and  C4_4 
REMARK    2  A    between atoms: C4_4  and  N1_5 
REMARK    3  A    between atoms: N1_5  and  C5_6 
REMARK    4  A    between atoms: N1_5  and  S1_31 
REMARK    5  A    between atoms: C5_6  and  C6_7 
REMARK    6  A    between atoms: C6_7  and  O1_8 
REMARK    7  A    between atoms: C6_7  and  C7_10 
REMARK    8  A    between atoms: C7_10  and  C8_11 
REMARK    9  A    between atoms: C7_10  and  N2_18 
REMARK   10  A    between atoms: C8_11  and  C9_12 
REMARK       I    between atoms: N2_18  and  C15_20 
REMARK   11  A    between atoms: C15_20  and  O3_22 
REMARK   12  A    between atoms: O3_22  and  C16_23 
REMARK   13  A    between atoms: S1_31  and  C22_34 
ROOT
HETATM    1  C7  UNL     1      -5.689  -0.851 -15.097  1.00  0.00     0.120 C 
ENDROOT
BRANCH   1   2
HETATM    2  C6  UNL     1      -5.195  -1.510 -16.340  1.00  0.00     0.155 C 
BRANCH   2   3
HETATM    3  C5  UNL     1      -5.598  -2.966 -16.430  1.00  0.00     0.141 C 
BRANCH   3   4
HETATM    4  N1  UNL     1      -4.562  -3.849 -15.936  1.00  0.00    -0.204 NA
BRANCH   4   5
HETATM    5  C4  UNL     1      -3.292  -3.304 -16.282  1.00  0.00     0.111 C 
BRANCH   5   6
HETATM    6  C2  UNL     1      -2.241  -3.377 -15.227  1.00  0.00    -0.009 C 
HETATM    7  C1  UNL     1      -2.963  -3.570 -13.890  1.00  0.00     0.011 C 
HETATM    8  C3  UNL     1      -1.295  -4.541 -15.419  1.00  0.00     0.011 C 
ENDBRANCH   5   6
ENDBRANCH   4   5
BRANCH   4   9
HETATM    9  S1  UNL     1      -4.827  -5.417 -16.556  1.00  0.00     0.243 S 
HETATM   10  O6  UNL     1      -4.147  -6.465 -15.701  1.00  0.00    -0.206 OA
HETATM   11  O7  UNL     1      -4.217  -5.568 -17.930  1.00  0.00    -0.206 OA
BRANCH   9  12
HETATM   12  C22 UNL     1      -6.508  -5.843 -16.685  1.00  0.00     0.074 A 
HETATM   13  C23 UNL     1      -6.881  -6.720 -17.699  1.00  0.00     0.027 A 
HETATM   14  C24 UNL     1      -8.188  -7.117 -17.882  1.00  0.00     0.028 A 
HETATM   15  C25 UNL     1      -9.169  -6.640 -17.041  1.00  0.00     0.046 A 
HETATM   16  N3  UNL     1     -10.514  -7.059 -17.242  1.00  0.00    -0.102 NA
HETATM   17  C26 UNL     1      -8.800  -5.778 -16.043  1.00  0.00     0.028 A 
HETATM   18  C27 UNL     1      -7.480  -5.368 -15.849  1.00  0.00     0.027 A 
ENDBRANCH   9  12
ENDBRANCH   4   9
ENDBRANCH   3   4
ENDBRANCH   2   3
BRANCH   2  19
HETATM   19  O1  UNL     1      -5.494  -0.851 -17.508  1.00  0.00    -0.392 OA
ATOM     20  H1  UNL     1      -6.286  -0.336 -17.409  1.00  0.00     0.210 HD
ENDBRANCH   2  19
ENDBRANCH   1   2
BRANCH   1  21
HETATM   21  C8  UNL     1      -7.124  -0.381 -15.215  1.00  0.00     0.066 C 
BRANCH  21  22
HETATM   22  C9  UNL     1      -7.692   0.129 -13.960  1.00  0.00    -0.056 A 
HETATM   23  C10 UNL     1      -7.912   1.463 -13.752  1.00  0.00     0.007 A 
HETATM   24  C11 UNL     1      -8.449   1.914 -12.535  1.00  0.00     0.001 A 
HETATM   25  C12 UNL     1      -8.768   1.026 -11.528  1.00  0.00     0.000 A 
HETATM   26  C13 UNL     1      -8.539  -0.309 -11.758  1.00  0.00     0.001 A 
HETATM   27  C14 UNL     1      -8.009  -0.756 -12.957  1.00  0.00     0.007 A 
ENDBRANCH  21  22
ENDBRANCH   1  21
BRANCH   1  28
HETATM   28  N2  UNL     1      -4.763   0.157 -14.697  1.00  0.00    -0.329 N 
HETATM   29  C15 UNL     1      -4.090   0.207 -13.444  1.00  0.00     0.361 C 
HETATM   30  O2  UNL     1      -4.299  -0.682 -12.596  1.00  0.00    -0.238 OA
ATOM     31  H2  UNL     1      -4.568   0.904 -15.364  1.00  0.00     0.165 HD
BRANCH  29  32
HETATM   32  O3  UNL     1      -3.188   1.232 -13.126  1.00  0.00    -0.296 OA
BRANCH  32  33
HETATM   33  C16 UNL     1      -2.511   1.183 -11.900  1.00  0.00     0.170 C 
HETATM   34  C17 UNL     1      -1.127   1.781 -12.125  1.00  0.00     0.204 C 
HETATM   35  O4  UNL     1      -1.383   3.125 -12.213  1.00  0.00    -0.358 OA
HETATM   36  C18 UNL     1      -2.400   3.456 -11.363  1.00  0.00     0.275 C 
HETATM   37  O5  UNL     1      -3.463   4.113 -12.026  1.00  0.00    -0.332 OA
HETATM   38  C21 UNL     1      -3.069   2.171 -10.913  1.00  0.00     0.097 C 
HETATM   39  C19 UNL     1      -4.687   3.543 -11.686  1.00  0.00     0.134 C 
HETATM   40  C20 UNL     1      -4.499   2.412 -11.038  1.00  0.00     0.009 C 
ENDBRANCH  32  33
ENDBRANCH  29  32
ENDBRANCH   1  28
TORSDOF 13
ENDMDL
