MODEL 8
REMARK VINA RESULT: -8.587340075      1.824      2.637
REMARK  13 active torsions:
REMARK  status: ('A' for Active; 'I' for Inactive)
REMARK    1  A    between atoms: C2_2  and  C4_4 
REMARK    2  A    between atoms: C4_4  and  N1_5 
REMARK    3  A    between atoms: N1_5  and  C5_6 
REMARK    4  A    between atoms: N1_5  and  S1_31 
REMARK    5  A    between atoms: C5_6  and  C6_7 
REMARK    6  A    between atoms: C6_7  and  O1_8 
REMARK    7  A    between atoms: C6_7  and  C7_10 
REMARK    8  A    between atoms: C7_10  and  C8_11 
REMARK    9  A    between atoms: C7_10  and  N2_18 
REMARK   10  A    between atoms: C8_11  and  C9_12 
REMARK       I    between atoms: N2_18  and  C15_20 
REMARK   11  A    between atoms: C15_20  and  O3_22 
REMARK   12  A    between atoms: O3_22  and  C16_23 
REMARK   13  A    between atoms: S1_31  and  C22_34 
ROOT
HETATM    1  C7  UNL     1      -4.049  -2.495 -13.851  1.00  0.00     0.120 C 
ENDROOT
BRANCH   1   2
HETATM    2  C6  UNL     1      -5.226  -3.049 -13.123  1.00  0.00     0.155 C 
BRANCH   2   3
HETATM    3  C5  UNL     1      -5.871  -4.209 -13.850  1.00  0.00     0.141 C 
BRANCH   3   4
HETATM    4  N1  UNL     1      -6.666  -3.771 -14.978  1.00  0.00    -0.204 NA
BRANCH   4   5
HETATM    5  C4  UNL     1      -7.257  -2.513 -14.662  1.00  0.00     0.111 C 
BRANCH   5   6
HETATM    6  C2  UNL     1      -7.184  -1.472 -15.726  1.00  0.00    -0.009 C 
HETATM    7  C1  UNL     1      -6.918  -0.135 -15.027  1.00  0.00     0.011 C 
HETATM    8  C3  UNL     1      -6.063  -1.715 -16.711  1.00  0.00     0.011 C 
ENDBRANCH   5   6
ENDBRANCH   4   5
BRANCH   4   9
HETATM    9  S1  UNL     1      -7.803  -4.985 -15.362  1.00  0.00     0.243 S 
HETATM   10  O6  UNL     1      -9.164  -4.388 -15.650  1.00  0.00    -0.206 OA
HETATM   11  O7  UNL     1      -8.017  -5.917 -14.193  1.00  0.00    -0.206 OA
BRANCH   9  12
HETATM   12  C22 UNL     1      -7.350  -5.960 -16.729  1.00  0.00     0.074 A 
HETATM   13  C23 UNL     1      -8.240  -6.945 -17.149  1.00  0.00     0.027 A 
HETATM   14  C24 UNL     1      -7.970  -7.768 -18.221  1.00  0.00     0.028 A 
HETATM   15  C25 UNL     1      -6.786  -7.623 -18.911  1.00  0.00     0.046 A 
HETATM   16  N3  UNL     1      -6.522  -8.480 -20.015  1.00  0.00    -0.102 NA
HETATM   17  C26 UNL     1      -5.913  -6.653 -18.496  1.00  0.00     0.028 A 
HETATM   18  C27 UNL     1      -6.174  -5.815 -17.411  1.00  0.00     0.027 A 
ENDBRANCH   9  12
ENDBRANCH   4   9
ENDBRANCH   3   4
ENDBRANCH   2   3
BRANCH   2  19
HETATM   19  O1  UNL     1      -5.000  -3.367 -11.806  1.00  0.00    -0.392 OA
ATOM     20  H1  UNL     1      -5.463  -2.769 -11.232  1.00  0.00     0.210 HD
ENDBRANCH   2  19
ENDBRANCH   1   2
BRANCH   1  21
HETATM   21  C8  UNL     1      -2.936  -3.508 -14.020  1.00  0.00     0.066 C 
BRANCH  21  22
HETATM   22  C9  UNL     1      -2.825  -4.055 -15.379  1.00  0.00    -0.056 A 
HETATM   23  C10 UNL     1      -2.806  -3.252 -16.486  1.00  0.00     0.007 A 
HETATM   24  C11 UNL     1      -2.707  -3.812 -17.770  1.00  0.00     0.001 A 
HETATM   25  C12 UNL     1      -2.625  -5.179 -17.943  1.00  0.00     0.000 A 
HETATM   26  C13 UNL     1      -2.647  -5.968 -16.818  1.00  0.00     0.001 A 
HETATM   27  C14 UNL     1      -2.745  -5.416 -15.551  1.00  0.00     0.007 A 
ENDBRANCH  21  22
ENDBRANCH   1  21
BRANCH   1  28
HETATM   28  N2  UNL     1      -3.651  -1.269 -13.243  1.00  0.00    -0.329 N 
HETATM   29  C15 UNL     1      -3.309  -0.076 -13.940  1.00  0.00     0.361 C 
HETATM   30  O2  UNL     1      -3.342  -0.058 -15.186  1.00  0.00    -0.238 OA
ATOM     31  H2  UNL     1      -3.609  -1.244 -12.224  1.00  0.00     0.165 HD
BRANCH  29  32
HETATM   32  O3  UNL     1      -2.930   1.094 -13.268  1.00  0.00    -0.296 OA
BRANCH  32  33
HETATM   33  C16 UNL     1      -2.212   0.986 -12.069  1.00  0.00     0.170 C 
HETATM   34  C17 UNL     1      -0.846   1.622 -12.302  1.00  0.00     0.204 C 
HETATM   35  O4  UNL     1      -1.127   2.964 -12.301  1.00  0.00    -0.358 OA
HETATM   36  C18 UNL     1      -2.122   3.225 -11.401  1.00  0.00     0.275 C 
HETATM   37  O5  UNL     1      -3.217   3.900 -11.989  1.00  0.00    -0.332 OA
HETATM   38  C21 UNL     1      -2.754   1.903 -11.007  1.00  0.00     0.097 C 
HETATM   39  C19 UNL     1      -4.419   3.288 -11.645  1.00  0.00     0.134 C 
HETATM   40  C20 UNL     1      -4.191   2.124 -11.072  1.00  0.00     0.009 C 
ENDBRANCH  32  33
ENDBRANCH  29  32
ENDBRANCH   1  28
TORSDOF 13
ENDMDL
