MODEL 7
REMARK VINA RESULT: -8.587896327      1.251      3.877
REMARK  13 active torsions:
REMARK  status: ('A' for Active; 'I' for Inactive)
REMARK    1  A    between atoms: C2_2  and  C4_4 
REMARK    2  A    between atoms: C4_4  and  N1_5 
REMARK    3  A    between atoms: N1_5  and  C5_6 
REMARK    4  A    between atoms: N1_5  and  S1_31 
REMARK    5  A    between atoms: C5_6  and  C6_7 
REMARK    6  A    between atoms: C6_7  and  O1_8 
REMARK    7  A    between atoms: C6_7  and  C7_10 
REMARK    8  A    between atoms: C7_10  and  C8_11 
REMARK    9  A    between atoms: C7_10  and  N2_18 
REMARK   10  A    between atoms: C8_11  and  C9_12 
REMARK       I    between atoms: N2_18  and  C15_20 
REMARK   11  A    between atoms: C15_20  and  O3_22 
REMARK   12  A    between atoms: O3_22  and  C16_23 
REMARK   13  A    between atoms: S1_31  and  C22_34 
ROOT
HETATM    1  C7  UNL     1      -3.889  -2.391 -13.981  1.00  0.00     0.120 C 
ENDROOT
BRANCH   1   2
HETATM    2  C6  UNL     1      -5.128  -2.890 -13.318  1.00  0.00     0.155 C 
BRANCH   2   3
HETATM    3  C5  UNL     1      -5.974  -3.752 -14.230  1.00  0.00     0.141 C 
BRANCH   3   4
HETATM    4  N1  UNL     1      -7.344  -3.288 -14.301  1.00  0.00    -0.204 NA
BRANCH   4   5
HETATM    5  C4  UNL     1      -8.122  -4.260 -14.993  1.00  0.00     0.111 C 
BRANCH   5   6
HETATM    6  C2  UNL     1      -7.536  -5.629 -15.073  1.00  0.00    -0.009 C 
HETATM    7  C1  UNL     1      -8.640  -6.613 -14.672  1.00  0.00     0.011 C 
HETATM    8  C3  UNL     1      -7.072  -5.990 -16.466  1.00  0.00     0.011 C 
ENDBRANCH   5   6
ENDBRANCH   4   5
BRANCH   4   9
HETATM    9  S1  UNL     1      -7.371  -1.744 -15.029  1.00  0.00     0.243 S 
HETATM   10  O6  UNL     1      -8.512  -1.626 -16.016  1.00  0.00    -0.206 OA
HETATM   11  O7  UNL     1      -6.118  -1.504 -15.837  1.00  0.00    -0.206 OA
BRANCH   9  12
HETATM   12  C22 UNL     1      -7.514  -0.437 -13.891  1.00  0.00     0.074 A 
HETATM   13  C23 UNL     1      -7.676  -0.759 -12.547  1.00  0.00     0.027 A 
HETATM   14  C24 UNL     1      -7.799   0.206 -11.570  1.00  0.00     0.028 A 
HETATM   15  C25 UNL     1      -7.759   1.538 -11.920  1.00  0.00     0.046 A 
HETATM   16  N3  UNL     1      -7.886   2.522 -10.901  1.00  0.00    -0.102 NA
HETATM   17  C26 UNL     1      -7.598   1.852 -13.243  1.00  0.00     0.028 A 
HETATM   18  C27 UNL     1      -7.474   0.884 -14.241  1.00  0.00     0.027 A 
ENDBRANCH   9  12
ENDBRANCH   4   9
ENDBRANCH   3   4
ENDBRANCH   2   3
BRANCH   2  19
HETATM   19  O1  UNL     1      -4.933  -3.510 -12.108  1.00  0.00    -0.392 OA
ATOM     20  H1  UNL     1      -4.013  -3.707 -11.977  1.00  0.00     0.210 HD
ENDBRANCH   2  19
ENDBRANCH   1   2
BRANCH   1  21
HETATM   21  C8  UNL     1      -2.823  -3.460 -14.107  1.00  0.00     0.066 C 
BRANCH  21  22
HETATM   22  C9  UNL     1      -2.840  -4.175 -15.390  1.00  0.00    -0.056 A 
HETATM   23  C10 UNL     1      -2.611  -3.539 -16.578  1.00  0.00     0.007 A 
HETATM   24  C11 UNL     1      -2.643  -4.256 -17.786  1.00  0.00     0.001 A 
HETATM   25  C12 UNL     1      -2.903  -5.611 -17.800  1.00  0.00     0.000 A 
HETATM   26  C13 UNL     1      -3.131  -6.230 -16.595  1.00  0.00     0.001 A 
HETATM   27  C14 UNL     1      -3.100  -5.525 -15.403  1.00  0.00     0.007 A 
ENDBRANCH  21  22
ENDBRANCH   1  21
BRANCH   1  28
HETATM   28  N2  UNL     1      -3.460  -1.193 -13.340  1.00  0.00    -0.329 N 
HETATM   29  C15 UNL     1      -3.279   0.065 -13.981  1.00  0.00     0.361 C 
HETATM   30  O2  UNL     1      -3.500   0.173 -15.203  1.00  0.00    -0.238 OA
ATOM     31  H2  UNL     1      -3.266  -1.241 -12.340  1.00  0.00     0.165 HD
BRANCH  29  32
HETATM   32  O3  UNL     1      -2.856   1.202 -13.279  1.00  0.00    -0.296 OA
BRANCH  32  33
HETATM   33  C16 UNL     1      -2.141   1.036 -12.086  1.00  0.00     0.170 C 
HETATM   34  C17 UNL     1      -0.764   1.658 -12.293  1.00  0.00     0.204 C 
HETATM   35  O4  UNL     1      -1.023   3.003 -12.240  1.00  0.00    -0.358 OA
HETATM   36  C18 UNL     1      -2.014   3.245 -11.331  1.00  0.00     0.275 C 
HETATM   37  O5  UNL     1      -3.098   3.961 -11.892  1.00  0.00    -0.332 OA
HETATM   38  C21 UNL     1      -2.669   1.920 -10.989  1.00  0.00     0.097 C 
HETATM   39  C19 UNL     1      -4.310   3.356 -11.573  1.00  0.00     0.134 C 
HETATM   40  C20 UNL     1      -4.102   2.167 -11.045  1.00  0.00     0.009 C 
ENDBRANCH  32  33
ENDBRANCH  29  32
ENDBRANCH   1  28
TORSDOF 13
ENDMDL
