MODEL 1
REMARK VINA RESULT: -11.302111187      0.000      0.000
REMARK  14 active torsions:
REMARK  status: ('A' for Active; 'I' for Inactive)
REMARK    1  A    between atoms: C2_2  and  N1_5 
REMARK       I    between atoms: N1_5  and  C5_7 
REMARK    2  A    between atoms: C5_7  and  C6_9 
REMARK    3  A    between atoms: N2_18  and  C15_19 
REMARK    4  A    between atoms: C15_19  and  C16_20 
REMARK    5  A    between atoms: C16_20  and  O2_21 
REMARK    6  A    between atoms: C16_20  and  C17_23 
REMARK    7  A    between atoms: C17_23  and  C18_24 
REMARK    8  A    between atoms: C17_23  and  N3_31 
REMARK    9  A    between atoms: C18_24  and  C19_25 
REMARK       I    between atoms: N3_31  and  C25_33 
REMARK   10  A    between atoms: C25_33  and  C26_35 
REMARK   11  A    between atoms: C26_35  and  C27_36 
REMARK   12  A    between atoms: C26_35  and  N5_40 
REMARK   13  A    between atoms: C27_36  and  C28_37 
REMARK       I    between atoms: N5_40  and  C29_42 
REMARK   14  A    between atoms: C29_42  and  C30_44 
ROOT
HETATM    1  C17 UNL     1      -3.907 -19.826  57.490  1.00  0.00     0.119 C 
ENDROOT
BRANCH   1   2
HETATM    2  C16 UNL     1      -3.212 -18.489  57.339  1.00  0.00     0.169 C 
BRANCH   2   3
HETATM    3  C15 UNL     1      -3.461 -17.739  56.086  1.00  0.00     0.307 C 
BRANCH   3   4
HETATM    4  N2  UNL     1      -2.921 -18.213  54.865  1.00  0.00     0.105 N 
HETATM    5  C6  UNL     1      -3.702 -17.822  53.703  1.00  0.00     0.314 C 
HETATM    6  C7  UNL     1      -2.985 -18.328  52.472  1.00  0.00     0.050 C 
HETATM    7  C8  UNL     1      -1.887 -17.320  52.183  1.00  0.00    -0.006 C 
HETATM    8  C9  UNL     1      -0.758 -18.041  51.495  1.00  0.00     0.005 C 
HETATM    9  C13 UNL     1      -1.472 -16.724  53.512  1.00  0.00     0.018 C 
HETATM   10  C10 UNL     1       0.220 -17.010  50.973  1.00  0.00     0.000 C 
HETATM   11  C11 UNL     1       0.242 -15.879  51.982  1.00  0.00     0.000 C 
HETATM   12  C12 UNL     1       0.019 -16.389  53.382  1.00  0.00     0.007 C 
HETATM   13  C14 UNL     1      -1.572 -17.717  54.631  1.00  0.00     0.278 C 
BRANCH   5  14
HETATM   14  C5  UNL     1      -5.061 -18.398  53.681  1.00  0.00     0.252 C 
HETATM   15  N1  UNL     1      -6.171 -17.755  53.098  1.00  0.00    -0.351 N 
ATOM     16  H1  UNL     1      -6.014 -16.842  52.670  1.00  0.00     0.163 HD
HETATM   17  O1  UNL     1      -5.263 -19.515  54.202  1.00  0.00    -0.271 OA
BRANCH  15  18
HETATM   18  C2  UNL     1      -7.501 -18.284  53.061  1.00  0.00     0.022 C 
HETATM   19  C1  UNL     1      -8.070 -18.452  54.456  1.00  0.00     0.037 C 
HETATM   20  C3  UNL     1      -7.580 -19.627  52.377  1.00  0.00     0.037 C 
HETATM   21  C4  UNL     1      -8.421 -17.335  52.330  1.00  0.00     0.037 C 
ENDBRANCH  15  18
ENDBRANCH   5  14
ENDBRANCH   3   4
ENDBRANCH   2   3
BRANCH   2  22
HETATM   22  O2  UNL     1      -3.248 -17.724  58.490  1.00  0.00    -0.392 OA
ATOM     23  H2  UNL     1      -2.544 -17.894  59.104  1.00  0.00     0.210 HD
ENDBRANCH   2  22
ENDBRANCH   1   2
BRANCH   1  24
HETATM   24  C18 UNL     1      -5.294 -19.567  58.065  1.00  0.00     0.066 C 
BRANCH  24  25
HETATM   25  C19 UNL     1      -5.925 -20.829  58.531  1.00  0.00    -0.056 A 
HETATM   26  C20 UNL     1      -6.367 -20.955  59.812  1.00  0.00     0.007 A 
HETATM   27  C21 UNL     1      -6.959 -22.112  60.275  1.00  0.00     0.001 A 
HETATM   28  C22 UNL     1      -7.110 -23.186  59.410  1.00  0.00     0.000 A 
HETATM   29  C23 UNL     1      -6.657 -23.052  58.108  1.00  0.00     0.001 A 
HETATM   30  C24 UNL     1      -6.070 -21.904  57.649  1.00  0.00     0.007 A 
ENDBRANCH  24  25
ENDBRANCH   1  24
BRANCH   1  31
HETATM   31  N3  UNL     1      -3.240 -20.565  58.596  1.00  0.00    -0.352 N 
HETATM   32  C25 UNL     1      -2.177 -21.457  58.361  1.00  0.00     0.241 C 
HETATM   33  O3  UNL     1      -1.795 -21.619  57.168  1.00  0.00    -0.271 OA
ATOM     34  H3  UNL     1      -3.563 -20.421  59.553  1.00  0.00     0.163 HD
BRANCH  32  35
HETATM   35  C26 UNL     1      -1.514 -22.199  59.494  1.00  0.00     0.185 C 
BRANCH  35  36
HETATM   36  C27 UNL     1      -0.161 -22.722  59.058  1.00  0.00     0.134 C 
BRANCH  36  37
HETATM   37  C28 UNL     1       0.865 -22.586  60.130  1.00  0.00     0.233 C 
HETATM   38  N4  UNL     1       0.486 -22.899  61.460  1.00  0.00    -0.062 NA
HETATM   39  O4  UNL     1       2.029 -22.203  59.842  1.00  0.00    -0.277 OA
ENDBRANCH  36  37
ENDBRANCH  35  36
BRANCH  35  40
HETATM   40  N5  UNL     1      -2.330 -23.320  59.866  1.00  0.00    -0.342 N 
HETATM   41  C29 UNL     1      -3.328 -23.273  60.873  1.00  0.00     0.268 C 
HETATM   42  O5  UNL     1      -3.510 -22.197  61.469  1.00  0.00    -0.266 OA
ATOM     43  H5  UNL     1      -2.183 -24.203  59.377  1.00  0.00     0.163 HD
BRANCH  41  44
HETATM   44  C30 UNL     1      -4.137 -24.451  61.220  1.00  0.00     0.101 A 
HETATM   45  C31 UNL     1      -4.921 -24.425  62.353  1.00  0.00     0.036 A 
HETATM   46  C32 UNL     1      -5.712 -25.474  62.767  1.00  0.00     0.016 A 
HETATM   47  C33 UNL     1      -5.693 -26.613  61.967  1.00  0.00    -0.009 A 
HETATM   48  C34 UNL     1      -6.466 -27.709  62.326  1.00  0.00     0.013 A 
HETATM   49  C38 UNL     1      -4.896 -26.620  60.830  1.00  0.00     0.043 A 
HETATM   50  C35 UNL     1      -6.422 -28.820  61.514  1.00  0.00     0.001 A 
HETATM   51  C36 UNL     1      -5.635 -28.846  60.376  1.00  0.00     0.002 A 
HETATM   52  C37 UNL     1      -4.872 -27.753  60.028  1.00  0.00     0.030 A 
HETATM   53  N6  UNL     1      -4.138 -25.551  60.475  1.00  0.00    -0.351 N 
ATOM     54  H6  UNL     1      -3.566 -25.593  59.631  1.00  0.00     0.166 HD
ENDBRANCH  41  44
ENDBRANCH  35  40
ENDBRANCH  32  35
ENDBRANCH   1  31
TORSDOF 14
ENDMDL
