MODEL 7
REMARK VINA RESULT: -10.226102261      2.411      5.616
REMARK  14 active torsions:
REMARK  status: ('A' for Active; 'I' for Inactive)
REMARK    1  A    between atoms: C2_2  and  N1_5 
REMARK       I    between atoms: N1_5  and  C5_7 
REMARK    2  A    between atoms: C5_7  and  C6_9 
REMARK    3  A    between atoms: N2_18  and  C15_19 
REMARK    4  A    between atoms: C15_19  and  C16_20 
REMARK    5  A    between atoms: C16_20  and  O2_21 
REMARK    6  A    between atoms: C16_20  and  C17_23 
REMARK    7  A    between atoms: C17_23  and  C18_24 
REMARK    8  A    between atoms: C17_23  and  N3_31 
REMARK    9  A    between atoms: C18_24  and  C19_25 
REMARK       I    between atoms: N3_31  and  C25_33 
REMARK   10  A    between atoms: C25_33  and  C26_35 
REMARK   11  A    between atoms: C26_35  and  C27_36 
REMARK   12  A    between atoms: C26_35  and  N5_40 
REMARK   13  A    between atoms: C27_36  and  C28_37 
REMARK       I    between atoms: N5_40  and  C29_42 
REMARK   14  A    between atoms: C29_42  and  C30_44 
ROOT
HETATM    1  C17 UNL     1      -4.574 -19.796  57.571  1.00  0.00     0.119 C 
ENDROOT
BRANCH   1   2
HETATM    2  C16 UNL     1      -3.612 -18.708  58.005  1.00  0.00     0.169 C 
BRANCH   2   3
HETATM    3  C15 UNL     1      -2.216 -19.117  58.283  1.00  0.00     0.307 C 
BRANCH   3   4
HETATM    4  N2  UNL     1      -1.343 -19.417  57.208  1.00  0.00     0.105 N 
HETATM    5  C6  UNL     1      -1.420 -20.803  56.777  1.00  0.00     0.314 C 
HETATM    6  C7  UNL     1      -0.499 -20.970  55.589  1.00  0.00     0.050 C 
HETATM    7  C8  UNL     1      -1.272 -20.459  54.386  1.00  0.00    -0.006 C 
HETATM    8  C9  UNL     1      -0.279 -19.938  53.379  1.00  0.00     0.005 C 
HETATM    9  C13 UNL     1      -2.211 -19.383  54.886  1.00  0.00     0.018 C 
HETATM   10  C10 UNL     1      -1.012 -19.670  52.081  1.00  0.00     0.000 C 
HETATM   11  C11 UNL     1      -2.393 -19.171  52.455  1.00  0.00     0.000 C 
HETATM   12  C12 UNL     1      -2.362 -18.379  53.736  1.00  0.00     0.007 C 
HETATM   13  C14 UNL     1      -1.625 -18.610  56.030  1.00  0.00     0.278 C 
BRANCH   5  14
HETATM   14  C5  UNL     1      -0.983 -21.769  57.804  1.00  0.00     0.252 C 
HETATM   15  N1  UNL     1       0.332 -21.829  58.305  1.00  0.00    -0.351 N 
ATOM     16  H1  UNL     1       1.010 -21.164  57.932  1.00  0.00     0.163 HD
HETATM   17  O1  UNL     1      -1.804 -22.586  58.267  1.00  0.00    -0.271 OA
BRANCH  15  18
HETATM   18  C2  UNL     1       0.791 -22.754  59.299  1.00  0.00     0.022 C 
HETATM   19  C1  UNL     1       0.730 -24.183  58.797  1.00  0.00     0.037 C 
HETATM   20  C3  UNL     1      -0.011 -22.690  60.575  1.00  0.00     0.037 C 
HETATM   21  C4  UNL     1       2.236 -22.478  59.643  1.00  0.00     0.037 C 
ENDBRANCH  15  18
ENDBRANCH   5  14
ENDBRANCH   3   4
ENDBRANCH   2   3
BRANCH   2  22
HETATM   22  O2  UNL     1      -3.740 -17.545  57.270  1.00  0.00    -0.392 OA
ATOM     23  H2  UNL     1      -4.634 -17.303  57.059  1.00  0.00     0.210 HD
ENDBRANCH   2  22
ENDBRANCH   1   2
BRANCH   1  24
HETATM   24  C18 UNL     1      -5.885 -19.128  57.176  1.00  0.00     0.066 C 
BRANCH  24  25
HETATM   25  C19 UNL     1      -6.120 -19.234  55.713  1.00  0.00    -0.056 A 
HETATM   26  C20 UNL     1      -5.551 -20.235  54.987  1.00  0.00     0.007 A 
HETATM   27  C21 UNL     1      -5.752 -20.363  53.628  1.00  0.00     0.001 A 
HETATM   28  C22 UNL     1      -6.559 -19.444  52.975  1.00  0.00     0.000 A 
HETATM   29  C23 UNL     1      -7.134 -18.427  53.719  1.00  0.00     0.001 A 
HETATM   30  C24 UNL     1      -6.935 -18.299  55.067  1.00  0.00     0.007 A 
ENDBRANCH  24  25
ENDBRANCH   1  24
BRANCH   1  31
HETATM   31  N3  UNL     1      -4.965 -20.568  58.782  1.00  0.00    -0.352 N 
HETATM   32  C25 UNL     1      -5.331 -21.925  58.714  1.00  0.00     0.241 C 
HETATM   33  O3  UNL     1      -5.319 -22.484  57.581  1.00  0.00    -0.271 OA
ATOM     34  H3  UNL     1      -4.967 -20.099  59.688  1.00  0.00     0.163 HD
BRANCH  32  35
HETATM   35  C26 UNL     1      -5.726 -22.692  59.951  1.00  0.00     0.185 C 
BRANCH  35  36
HETATM   36  C27 UNL     1      -5.842 -21.754  61.134  1.00  0.00     0.134 C 
BRANCH  36  37
HETATM   37  C28 UNL     1      -5.236 -22.330  62.368  1.00  0.00     0.233 C 
HETATM   38  N4  UNL     1      -6.093 -22.979  63.292  1.00  0.00    -0.062 NA
HETATM   39  O4  UNL     1      -3.996 -22.232  62.565  1.00  0.00    -0.277 OA
ENDBRANCH  36  37
ENDBRANCH  35  36
BRANCH  35  40
HETATM   40  N5  UNL     1      -4.713 -23.665  60.246  1.00  0.00    -0.342 N 
HETATM   41  C29 UNL     1      -4.987 -25.000  60.637  1.00  0.00     0.268 C 
HETATM   42  O5  UNL     1      -6.177 -25.352  60.728  1.00  0.00    -0.266 OA
ATOM     43  H5  UNL     1      -3.737 -23.379  60.170  1.00  0.00     0.163 HD
BRANCH  41  44
HETATM   44  C30 UNL     1      -3.913 -25.960  60.931  1.00  0.00     0.101 A 
HETATM   45  C31 UNL     1      -4.175 -27.311  60.870  1.00  0.00     0.036 A 
HETATM   46  C32 UNL     1      -3.241 -28.291  61.129  1.00  0.00     0.016 A 
HETATM   47  C33 UNL     1      -1.966 -27.850  61.471  1.00  0.00    -0.009 A 
HETATM   48  C34 UNL     1      -0.976 -28.783  61.747  1.00  0.00     0.013 A 
HETATM   49  C38 UNL     1      -1.721 -26.485  61.529  1.00  0.00     0.043 A 
HETATM   50  C35 UNL     1       0.273 -28.314  62.085  1.00  0.00     0.001 A 
HETATM   51  C36 UNL     1       0.537 -26.957  62.146  1.00  0.00     0.002 A 
HETATM   52  C37 UNL     1      -0.452 -26.039  61.871  1.00  0.00     0.030 A 
HETATM   53  N6  UNL     1      -2.687 -25.569  61.261  1.00  0.00    -0.351 N 
ATOM     54  H6  UNL     1      -2.469 -24.573  61.312  1.00  0.00     0.166 HD
ENDBRANCH  41  44
ENDBRANCH  35  40
ENDBRANCH  32  35
ENDBRANCH   1  31
TORSDOF 14
ENDMDL
