MODEL 2
REMARK VINA RESULT: -11.030800937      0.846      1.431
REMARK  14 active torsions:
REMARK  status: ('A' for Active; 'I' for Inactive)
REMARK    1  A    between atoms: C2_2  and  N1_5 
REMARK       I    between atoms: N1_5  and  C5_7 
REMARK    2  A    between atoms: C5_7  and  C6_9 
REMARK    3  A    between atoms: N2_18  and  C15_19 
REMARK    4  A    between atoms: C15_19  and  C16_20 
REMARK    5  A    between atoms: C16_20  and  O2_21 
REMARK    6  A    between atoms: C16_20  and  C17_23 
REMARK    7  A    between atoms: C17_23  and  C18_24 
REMARK    8  A    between atoms: C17_23  and  N3_31 
REMARK    9  A    between atoms: C18_24  and  C19_25 
REMARK       I    between atoms: N3_31  and  C25_33 
REMARK   10  A    between atoms: C25_33  and  C26_35 
REMARK   11  A    between atoms: C26_35  and  C27_36 
REMARK   12  A    between atoms: C26_35  and  N5_40 
REMARK   13  A    between atoms: C27_36  and  C28_37 
REMARK       I    between atoms: N5_40  and  C29_42 
REMARK   14  A    between atoms: C29_42  and  C30_44 
ROOT
HETATM    1  C17 UNL     1      -3.886 -19.840  57.512  1.00  0.00     0.119 C 
ENDROOT
BRANCH   1   2
HETATM    2  C16 UNL     1      -3.209 -18.495  57.344  1.00  0.00     0.169 C 
BRANCH   2   3
HETATM    3  C15 UNL     1      -3.477 -17.759  56.087  1.00  0.00     0.307 C 
BRANCH   3   4
HETATM    4  N2  UNL     1      -2.931 -18.230  54.867  1.00  0.00     0.105 N 
HETATM    5  C6  UNL     1      -3.707 -17.838  53.702  1.00  0.00     0.314 C 
HETATM    6  C7  UNL     1      -2.983 -18.341  52.473  1.00  0.00     0.050 C 
HETATM    7  C8  UNL     1      -1.886 -17.330  52.192  1.00  0.00    -0.006 C 
HETATM    8  C9  UNL     1      -0.752 -18.049  51.508  1.00  0.00     0.005 C 
HETATM    9  C13 UNL     1      -1.478 -16.737  53.524  1.00  0.00     0.018 C 
HETATM   10  C10 UNL     1       0.227 -17.015  50.993  1.00  0.00     0.000 C 
HETATM   11  C11 UNL     1       0.242 -15.886  52.004  1.00  0.00     0.000 C 
HETATM   12  C12 UNL     1       0.013 -16.398  53.402  1.00  0.00     0.007 C 
HETATM   13  C14 UNL     1      -1.582 -17.732  54.641  1.00  0.00     0.278 C 
BRANCH   5  14
HETATM   14  C5  UNL     1      -5.065 -18.417  53.673  1.00  0.00     0.252 C 
HETATM   15  N1  UNL     1      -6.175 -17.770  53.093  1.00  0.00    -0.351 N 
ATOM     16  H1  UNL     1      -6.019 -16.854  52.673  1.00  0.00     0.163 HD
HETATM   17  O1  UNL     1      -5.266 -19.538  54.183  1.00  0.00    -0.271 OA
BRANCH  15  18
HETATM   18  C2  UNL     1      -7.504 -18.302  53.049  1.00  0.00     0.022 C 
HETATM   19  C1  UNL     1      -8.079 -18.475  54.441  1.00  0.00     0.037 C 
HETATM   20  C3  UNL     1      -7.578 -19.642  52.361  1.00  0.00     0.037 C 
HETATM   21  C4  UNL     1      -8.423 -17.351  52.317  1.00  0.00     0.037 C 
ENDBRANCH  15  18
ENDBRANCH   5  14
ENDBRANCH   3   4
ENDBRANCH   2   3
BRANCH   2  22
HETATM   22  O2  UNL     1      -3.247 -17.721  58.488  1.00  0.00    -0.392 OA
ATOM     23  H2  UNL     1      -2.858 -18.124  59.256  1.00  0.00     0.210 HD
ENDBRANCH   2  22
ENDBRANCH   1   2
BRANCH   1  24
HETATM   24  C18 UNL     1      -5.289 -19.590  58.052  1.00  0.00     0.066 C 
BRANCH  24  25
HETATM   25  C19 UNL     1      -5.923 -20.857  58.501  1.00  0.00    -0.056 A 
HETATM   26  C20 UNL     1      -6.280 -21.034  59.802  1.00  0.00     0.007 A 
HETATM   27  C21 UNL     1      -6.873 -22.197  60.250  1.00  0.00     0.001 A 
HETATM   28  C22 UNL     1      -7.114 -23.223  59.348  1.00  0.00     0.000 A 
HETATM   29  C23 UNL     1      -6.747 -23.037  58.026  1.00  0.00     0.001 A 
HETATM   30  C24 UNL     1      -6.159 -21.884  57.581  1.00  0.00     0.007 A 
ENDBRANCH  24  25
ENDBRANCH   1  24
BRANCH   1  31
HETATM   31  N3  UNL     1      -3.231 -20.543  58.647  1.00  0.00    -0.352 N 
HETATM   32  C25 UNL     1      -2.141 -21.413  58.456  1.00  0.00     0.241 C 
HETATM   33  O3  UNL     1      -1.724 -21.586  57.276  1.00  0.00    -0.271 OA
ATOM     34  H3  UNL     1      -3.581 -20.389  59.593  1.00  0.00     0.163 HD
BRANCH  32  35
HETATM   35  C26 UNL     1      -1.489 -22.118  59.618  1.00  0.00     0.185 C 
BRANCH  35  36
HETATM   36  C27 UNL     1      -0.217 -22.805  59.169  1.00  0.00     0.134 C 
BRANCH  36  37
HETATM   37  C28 UNL     1       0.895 -22.619  60.143  1.00  0.00     0.233 C 
HETATM   38  N4  UNL     1       0.659 -22.957  61.499  1.00  0.00    -0.062 NA
HETATM   39  O4  UNL     1       2.005 -22.172  59.752  1.00  0.00    -0.277 OA
ENDBRANCH  36  37
ENDBRANCH  35  36
BRANCH  35  40
HETATM   40  N5  UNL     1      -2.385 -23.118  60.126  1.00  0.00    -0.342 N 
HETATM   41  C29 UNL     1      -2.916 -23.112  61.441  1.00  0.00     0.268 C 
HETATM   42  O5  UNL     1      -2.589 -22.183  62.201  1.00  0.00    -0.266 OA
ATOM     43  H5  UNL     1      -2.657 -23.879  59.503  1.00  0.00     0.163 HD
BRANCH  41  44
HETATM   44  C30 UNL     1      -3.830 -24.162  61.915  1.00  0.00     0.101 A 
HETATM   45  C31 UNL     1      -4.394 -25.031  61.008  1.00  0.00     0.036 A 
HETATM   46  C32 UNL     1      -5.262 -26.045  61.349  1.00  0.00     0.016 A 
HETATM   47  C33 UNL     1      -5.564 -26.169  62.702  1.00  0.00    -0.009 A 
HETATM   48  C34 UNL     1      -6.433 -27.169  63.116  1.00  0.00     0.013 A 
HETATM   49  C38 UNL     1      -4.986 -25.283  63.601  1.00  0.00     0.043 A 
HETATM   50  C35 UNL     1      -6.713 -27.262  64.460  1.00  0.00     0.001 A 
HETATM   51  C36 UNL     1      -6.146 -26.388  65.372  1.00  0.00     0.002 A 
HETATM   52  C37 UNL     1      -5.284 -25.400  64.951  1.00  0.00     0.030 A 
HETATM   53  N6  UNL     1      -4.136 -24.303  63.201  1.00  0.00    -0.351 N 
ATOM     54  H6  UNL     1      -3.730 -23.671  63.891  1.00  0.00     0.166 HD
ENDBRANCH  41  44
ENDBRANCH  35  40
ENDBRANCH  32  35
ENDBRANCH   1  31
TORSDOF 14
ENDMDL
