MODEL 8
REMARK VINA RESULT: -10.074034986      2.980     10.116
REMARK  14 active torsions:
REMARK  status: ('A' for Active; 'I' for Inactive)
REMARK    1  A    between atoms: C2_2  and  N1_5 
REMARK       I    between atoms: N1_5  and  C5_7 
REMARK    2  A    between atoms: C5_7  and  C6_9 
REMARK    3  A    between atoms: N2_18  and  C15_19 
REMARK    4  A    between atoms: C15_19  and  C16_20 
REMARK    5  A    between atoms: C16_20  and  O2_21 
REMARK    6  A    between atoms: C16_20  and  C17_23 
REMARK    7  A    between atoms: C17_23  and  C18_24 
REMARK    8  A    between atoms: C17_23  and  N3_31 
REMARK    9  A    between atoms: C18_24  and  C19_25 
REMARK       I    between atoms: N3_31  and  C25_33 
REMARK   10  A    between atoms: C25_33  and  C26_35 
REMARK   11  A    between atoms: C26_35  and  C27_36 
REMARK   12  A    between atoms: C26_35  and  N5_40 
REMARK   13  A    between atoms: C27_36  and  C28_37 
REMARK       I    between atoms: N5_40  and  C29_42 
REMARK   14  A    between atoms: C29_42  and  C30_44 
ROOT
HETATM    1  C17 UNL     1      -4.508 -19.009  55.693  1.00  0.00     0.119 C 
ENDROOT
BRANCH   1   2
HETATM    2  C16 UNL     1      -4.096 -19.447  57.084  1.00  0.00     0.169 C 
BRANCH   2   3
HETATM    3  C15 UNL     1      -3.263 -20.668  57.185  1.00  0.00     0.307 C 
BRANCH   3   4
HETATM    4  N2  UNL     1      -2.600 -20.967  58.402  1.00  0.00     0.105 N 
HETATM    5  C6  UNL     1      -2.907 -22.293  58.912  1.00  0.00     0.314 C 
HETATM    6  C7  UNL     1      -2.087 -22.508  60.164  1.00  0.00     0.050 C 
HETATM    7  C8  UNL     1      -0.702 -22.913  59.693  1.00  0.00    -0.006 C 
HETATM    8  C9  UNL     1       0.294 -22.469  60.733  1.00  0.00     0.005 C 
HETATM    9  C13 UNL     1      -0.478 -22.248  58.352  1.00  0.00     0.018 C 
HETATM   10  C10 UNL     1       1.635 -23.091  60.404  1.00  0.00     0.000 C 
HETATM   11  C11 UNL     1       1.739 -23.133  58.893  1.00  0.00     0.000 C 
HETATM   12  C12 UNL     1       1.027 -21.965  58.261  1.00  0.00     0.007 C 
HETATM   13  C14 UNL     1      -1.152 -20.910  58.265  1.00  0.00     0.278 C 
BRANCH   5  14
HETATM   14  C5  UNL     1      -4.324 -22.470  59.285  1.00  0.00     0.252 C 
HETATM   15  N1  UNL     1      -4.790 -22.435  60.614  1.00  0.00    -0.351 N 
ATOM     16  H1  UNL     1      -4.101 -22.276  61.350  1.00  0.00     0.163 HD
HETATM   17  O1  UNL     1      -5.174 -22.665  58.392  1.00  0.00    -0.271 OA
BRANCH  15  18
HETATM   18  C2  UNL     1      -6.156 -22.605  61.012  1.00  0.00     0.022 C 
HETATM   19  C1  UNL     1      -6.711 -23.931  60.532  1.00  0.00     0.037 C 
HETATM   20  C3  UNL     1      -7.060 -21.520  60.484  1.00  0.00     0.037 C 
HETATM   21  C4  UNL     1      -6.265 -22.610  62.519  1.00  0.00     0.037 C 
ENDBRANCH  15  18
ENDBRANCH   5  14
ENDBRANCH   3   4
ENDBRANCH   2   3
BRANCH   2  22
HETATM   22  O2  UNL     1      -3.689 -18.399  57.886  1.00  0.00    -0.392 OA
ATOM     23  H2  UNL     1      -4.171 -18.309  58.700  1.00  0.00     0.210 HD
ENDBRANCH   2  22
ENDBRANCH   1   2
BRANCH   1  24
HETATM   24  C18 UNL     1      -5.575 -19.977  55.198  1.00  0.00     0.066 C 
BRANCH  24  25
HETATM   25  C19 UNL     1      -6.514 -19.304  54.263  1.00  0.00    -0.056 A 
HETATM   26  C20 UNL     1      -7.296 -18.272  54.683  1.00  0.00     0.007 A 
HETATM   27  C21 UNL     1      -8.175 -17.625  53.839  1.00  0.00     0.001 A 
HETATM   28  C22 UNL     1      -8.271 -18.036  52.518  1.00  0.00     0.000 A 
HETATM   29  C23 UNL     1      -7.473 -19.087  52.097  1.00  0.00     0.001 A 
HETATM   30  C24 UNL     1      -6.601 -19.730  52.933  1.00  0.00     0.007 A 
ENDBRANCH  24  25
ENDBRANCH   1  24
BRANCH   1  31
HETATM   31  N3  UNL     1      -3.374 -19.291  54.772  1.00  0.00    -0.352 N 
HETATM   32  C25 UNL     1      -2.336 -18.365  54.562  1.00  0.00     0.241 C 
HETATM   33  O3  UNL     1      -2.388 -17.268  55.186  1.00  0.00    -0.271 OA
ATOM     34  H3  UNL     1      -3.348 -20.183  54.277  1.00  0.00     0.163 HD
BRANCH  32  35
HETATM   35  C26 UNL     1      -1.195 -18.667  53.624  1.00  0.00     0.185 C 
BRANCH  35  36
HETATM   36  C27 UNL     1      -0.021 -17.756  53.914  1.00  0.00     0.134 C 
BRANCH  36  37
HETATM   37  C28 UNL     1       0.694 -17.348  52.672  1.00  0.00     0.233 C 
HETATM   38  N4  UNL     1       1.724 -18.192  52.187  1.00  0.00    -0.062 NA
HETATM   39  O4  UNL     1       0.377 -16.280  52.086  1.00  0.00    -0.277 OA
ENDBRANCH  36  37
ENDBRANCH  35  36
BRANCH  35  40
HETATM   40  N5  UNL     1      -1.621 -18.435  52.273  1.00  0.00    -0.342 N 
HETATM   41  C29 UNL     1      -1.417 -19.350  51.210  1.00  0.00     0.268 C 
HETATM   42  O5  UNL     1      -0.836 -20.421  51.461  1.00  0.00    -0.266 OA
ATOM     43  H5  UNL     1      -2.099 -17.558  52.065  1.00  0.00     0.163 HD
BRANCH  41  44
HETATM   44  C30 UNL     1      -1.870 -19.065  49.840  1.00  0.00     0.101 A 
HETATM   45  C31 UNL     1      -1.510 -19.913  48.816  1.00  0.00     0.036 A 
HETATM   46  C32 UNL     1      -1.880 -19.734  47.501  1.00  0.00     0.016 A 
HETATM   47  C33 UNL     1      -2.665 -18.617  47.228  1.00  0.00    -0.009 A 
HETATM   48  C34 UNL     1      -3.072 -18.375  45.923  1.00  0.00     0.013 A 
HETATM   49  C38 UNL     1      -3.016 -17.773  48.273  1.00  0.00     0.043 A 
HETATM   50  C35 UNL     1      -3.845 -17.260  45.688  1.00  0.00     0.001 A 
HETATM   51  C36 UNL     1      -4.206 -16.408  46.717  1.00  0.00     0.002 A 
HETATM   52  C37 UNL     1      -3.797 -16.657  48.008  1.00  0.00     0.030 A 
HETATM   53  N6  UNL     1      -2.619 -18.006  49.551  1.00  0.00    -0.351 N 
ATOM     54  H6  UNL     1      -2.898 -17.364  50.293  1.00  0.00     0.166 HD
ENDBRANCH  41  44
ENDBRANCH  35  40
ENDBRANCH  32  35
ENDBRANCH   1  31
TORSDOF 14
ENDMDL
