MODEL 3
REMARK VINA RESULT: -10.882971600      0.904      1.443
REMARK  14 active torsions:
REMARK  status: ('A' for Active; 'I' for Inactive)
REMARK    1  A    between atoms: C2_2  and  N1_5 
REMARK       I    between atoms: N1_5  and  C5_7 
REMARK    2  A    between atoms: C5_7  and  C6_9 
REMARK    3  A    between atoms: N2_18  and  C15_19 
REMARK    4  A    between atoms: C15_19  and  C16_20 
REMARK    5  A    between atoms: C16_20  and  O2_21 
REMARK    6  A    between atoms: C16_20  and  C17_23 
REMARK    7  A    between atoms: C17_23  and  C18_24 
REMARK    8  A    between atoms: C17_23  and  N3_31 
REMARK    9  A    between atoms: C18_24  and  C19_25 
REMARK       I    between atoms: N3_31  and  C25_33 
REMARK   10  A    between atoms: C25_33  and  C26_35 
REMARK   11  A    between atoms: C26_35  and  C27_36 
REMARK   12  A    between atoms: C26_35  and  N5_40 
REMARK   13  A    between atoms: C27_36  and  C28_37 
REMARK       I    between atoms: N5_40  and  C29_42 
REMARK   14  A    between atoms: C29_42  and  C30_44 
ROOT
HETATM    1  C17 UNL     1      -3.824 -19.841  57.621  1.00  0.00     0.119 C 
ENDROOT
BRANCH   1   2
HETATM    2  C16 UNL     1      -3.218 -18.497  57.271  1.00  0.00     0.169 C 
BRANCH   2   3
HETATM    3  C15 UNL     1      -3.620 -17.893  55.979  1.00  0.00     0.307 C 
BRANCH   3   4
HETATM    4  N2  UNL     1      -3.030 -18.354  54.775  1.00  0.00     0.105 N 
HETATM    5  C6  UNL     1      -3.756 -17.939  53.587  1.00  0.00     0.314 C 
HETATM    6  C7  UNL     1      -2.989 -18.433  52.380  1.00  0.00     0.050 C 
HETATM    7  C8  UNL     1      -1.871 -17.431  52.156  1.00  0.00    -0.006 C 
HETATM    8  C9  UNL     1      -0.719 -18.153  51.507  1.00  0.00     0.005 C 
HETATM    9  C13 UNL     1      -1.510 -16.860  53.511  1.00  0.00     0.018 C 
HETATM   10  C10 UNL     1       0.290 -17.123  51.045  1.00  0.00     0.000 C 
HETATM   11  C11 UNL     1       0.277 -16.008  52.071  1.00  0.00     0.000 C 
HETATM   12  C12 UNL     1      -0.012 -16.536  53.452  1.00  0.00     0.007 C 
HETATM   13  C14 UNL     1      -1.668 -17.868  54.609  1.00  0.00     0.278 C 
BRANCH   5  14
HETATM   14  C5  UNL     1      -5.118 -18.502  53.496  1.00  0.00     0.252 C 
HETATM   15  N1  UNL     1      -6.234 -17.772  53.040  1.00  0.00    -0.351 N 
ATOM     16  H1  UNL     1      -6.080 -16.804  52.759  1.00  0.00     0.163 HD
HETATM   17  O1  UNL     1      -5.316 -19.686  53.837  1.00  0.00    -0.271 OA
BRANCH  15  18
HETATM   18  C2  UNL     1      -7.567 -18.287  52.942  1.00  0.00     0.022 C 
HETATM   19  C1  UNL     1      -8.467 -17.348  52.164  1.00  0.00     0.037 C 
HETATM   20  C3  UNL     1      -8.209 -18.515  54.288  1.00  0.00     0.037 C 
HETATM   21  C4  UNL     1      -7.566 -19.601  52.197  1.00  0.00     0.037 C 
ENDBRANCH  15  18
ENDBRANCH   5  14
ENDBRANCH   3   4
ENDBRANCH   2   3
BRANCH   2  22
HETATM   22  O2  UNL     1      -3.191 -17.618  58.338  1.00  0.00    -0.392 OA
ATOM     23  H2  UNL     1      -2.450 -17.724  58.923  1.00  0.00     0.210 HD
ENDBRANCH   2  22
ENDBRANCH   1   2
BRANCH   1  24
HETATM   24  C18 UNL     1      -5.136 -19.584  58.351  1.00  0.00     0.066 C 
BRANCH  24  25
HETATM   25  C19 UNL     1      -5.827 -20.859  58.674  1.00  0.00    -0.056 A 
HETATM   26  C20 UNL     1      -6.056 -21.791  57.709  1.00  0.00     0.007 A 
HETATM   27  C21 UNL     1      -6.692 -22.985  57.978  1.00  0.00     0.001 A 
HETATM   28  C22 UNL     1      -7.115 -23.250  59.272  1.00  0.00     0.000 A 
HETATM   29  C23 UNL     1      -6.880 -22.297  60.249  1.00  0.00     0.001 A 
HETATM   30  C24 UNL     1      -6.249 -21.112  59.983  1.00  0.00     0.007 A 
ENDBRANCH  24  25
ENDBRANCH   1  24
BRANCH   1  31
HETATM   31  N3  UNL     1      -2.985 -20.457  58.684  1.00  0.00    -0.352 N 
HETATM   32  C25 UNL     1      -2.041 -21.461  58.400  1.00  0.00     0.241 C 
HETATM   33  O3  UNL     1      -1.919 -21.835  57.200  1.00  0.00    -0.271 OA
ATOM     34  H3  UNL     1      -3.098 -20.141  59.648  1.00  0.00     0.163 HD
BRANCH  32  35
HETATM   35  C26 UNL     1      -1.200 -22.075  59.491  1.00  0.00     0.185 C 
BRANCH  35  36
HETATM   36  C27 UNL     1       0.169 -22.438  58.957  1.00  0.00     0.134 C 
BRANCH  36  37
HETATM   37  C28 UNL     1       1.198 -22.481  60.033  1.00  0.00     0.233 C 
HETATM   38  N4  UNL     1       2.559 -22.590  59.652  1.00  0.00    -0.062 NA
HETATM   39  O4  UNL     1       0.847 -22.422  61.241  1.00  0.00    -0.277 OA
ENDBRANCH  36  37
ENDBRANCH  35  36
BRANCH  35  40
HETATM   40  N5  UNL     1      -1.834 -23.277  59.956  1.00  0.00    -0.342 N 
HETATM   41  C29 UNL     1      -2.477 -23.397  61.214  1.00  0.00     0.268 C 
HETATM   42  O5  UNL     1      -2.496 -22.403  61.961  1.00  0.00    -0.266 OA
ATOM     43  H5  UNL     1      -1.822 -24.093  59.344  1.00  0.00     0.163 HD
BRANCH  41  44
HETATM   44  C30 UNL     1      -3.111 -24.652  61.646  1.00  0.00     0.101 A 
HETATM   45  C31 UNL     1      -2.330 -25.666  62.155  1.00  0.00     0.036 A 
HETATM   46  C32 UNL     1      -2.824 -26.878  62.585  1.00  0.00     0.016 A 
HETATM   47  C33 UNL     1      -4.201 -27.053  62.483  1.00  0.00    -0.009 A 
HETATM   48  C34 UNL     1      -4.766 -28.252  62.896  1.00  0.00     0.013 A 
HETATM   49  C38 UNL     1      -4.971 -26.020  61.966  1.00  0.00     0.043 A 
HETATM   50  C35 UNL     1      -6.131 -28.393  62.779  1.00  0.00     0.001 A 
HETATM   51  C36 UNL     1      -6.916 -27.374  62.268  1.00  0.00     0.002 A 
HETATM   52  C37 UNL     1      -6.345 -26.188  61.861  1.00  0.00     0.030 A 
HETATM   53  N6  UNL     1      -4.422 -24.846  61.560  1.00  0.00    -0.351 N 
ATOM     54  H6  UNL     1      -5.021 -24.109  61.187  1.00  0.00     0.166 HD
ENDBRANCH  41  44
ENDBRANCH  35  40
ENDBRANCH  32  35
ENDBRANCH   1  31
TORSDOF 14
ENDMDL
