MODEL 5
REMARK VINA RESULT: -7.876225256      4.118      5.753
REMARK  1 active torsions:
REMARK  status: ('A' for Active; 'I' for Inactive)
REMARK    1  A    between atoms: C2_2  and  C3_3 
ROOT
HETATM    1  C3  UNL     1      29.278  45.644  11.457  1.00  0.00     0.034 A 
HETATM    2  C4  UNL     1      30.338  45.849  12.326  1.00  0.00     0.018 A 
HETATM    3  C5  UNL     1      31.735  45.512  11.987  1.00  0.00     0.069 C 
HETATM    4  N1  UNL     1      30.097  46.380  13.538  1.00  0.00    -0.343 N 
ATOM      5  H1  UNL     1      30.871  46.534  14.184  1.00  0.00     0.167 HD
HETATM    6  C6  UNL     1      28.844  46.709  13.907  1.00  0.00     0.154 A 
HETATM    7  C7  UNL     1      28.388  47.260  15.096  1.00  0.00     0.114 A 
HETATM    8  C8  UNL     1      29.196  47.614  16.242  1.00  0.00     0.105 C 
HETATM    9  N2  UNL     1      29.841  47.879  17.160  1.00  0.00    -0.191 NA
HETATM   10  C9  UNL     1      27.032  47.387  14.937  1.00  0.00     0.047 A 
HETATM   11  C10 UNL     1      26.120  47.946  15.988  1.00  0.00     0.071 C 
HETATM   12  N3  UNL     1      26.717  46.934  13.722  1.00  0.00    -0.292 N 
ATOM     13  H3  UNL     1      25.769  46.914  13.345  1.00  0.00     0.187 HD
HETATM   14  N4  UNL     1      27.786  46.516  13.069  1.00  0.00    -0.202 N 
HETATM   15  C11 UNL     1      28.002  45.986  11.852  1.00  0.00     0.276 A 
HETATM   16  O1  UNL     1      26.994  45.818  11.092  1.00  0.00    -0.266 OA
ENDROOT
BRANCH   1  17
HETATM   17  C2  UNL     1      29.518  45.065  10.130  1.00  0.00     0.042 C 
HETATM   18  C1  UNL     1      29.807  46.105   9.073  1.00  0.00     0.010 C 
ENDBRANCH   1  17
TORSDOF 1
ENDMDL
