MODEL 4
REMARK VINA RESULT: -7.935389474      1.129      1.275
REMARK  1 active torsions:
REMARK  status: ('A' for Active; 'I' for Inactive)
REMARK    1  A    between atoms: C2_2  and  C3_3 
ROOT
HETATM    1  C3  UNL     1      33.418  47.978  10.237  1.00  0.00     0.034 A 
HETATM    2  C4  UNL     1      33.418  47.894  11.620  1.00  0.00     0.018 A 
HETATM    3  C5  UNL     1      34.539  48.367  12.457  1.00  0.00     0.069 C 
HETATM    4  N1  UNL     1      32.353  47.359  12.243  1.00  0.00    -0.343 N 
ATOM      5  H1  UNL     1      32.344  47.293  13.260  1.00  0.00     0.167 HD
HETATM    6  C6  UNL     1      31.298  46.910  11.536  1.00  0.00     0.154 A 
HETATM    7  C7  UNL     1      30.117  46.331  11.981  1.00  0.00     0.114 A 
HETATM    8  C8  UNL     1      29.752  46.078  13.356  1.00  0.00     0.105 C 
HETATM    9  N2  UNL     1      29.472  45.860  14.453  1.00  0.00    -0.191 NA
HETATM   10  C9  UNL     1      29.398  46.063  10.844  1.00  0.00     0.047 A 
HETATM   11  C10 UNL     1      28.039  45.428  10.850  1.00  0.00     0.071 C 
HETATM   12  N3  UNL     1      30.121  46.465   9.796  1.00  0.00    -0.292 N 
ATOM     13  H3  UNL     1      29.819  46.382   8.825  1.00  0.00     0.187 HD
HETATM   14  N4  UNL     1      31.276  46.982  10.174  1.00  0.00    -0.202 N 
HETATM   15  C11 UNL     1      32.330  47.512   9.529  1.00  0.00     0.276 A 
HETATM   16  O1  UNL     1      32.279  47.565   8.258  1.00  0.00    -0.266 OA
ENDROOT
BRANCH   1  17
HETATM   17  C2  UNL     1      34.571  48.556   9.537  1.00  0.00     0.042 C 
HETATM   18  C1  UNL     1      34.406  50.029   9.241  1.00  0.00     0.010 C 
ENDBRANCH   1  17
TORSDOF 1
ENDMDL
