MODEL 3
REMARK VINA RESULT: -8.165775014      2.080      5.670
REMARK  1 active torsions:
REMARK  status: ('A' for Active; 'I' for Inactive)
REMARK    1  A    between atoms: C2_2  and  C3_3 
ROOT
HETATM    1  C3  UNL     1      30.200  45.716  11.124  1.00  0.00     0.034 A 
HETATM    2  C4  UNL     1      30.383  46.128   9.814  1.00  0.00     0.018 A 
HETATM    3  C5  UNL     1      29.480  45.737   8.713  1.00  0.00     0.069 C 
HETATM    4  N1  UNL     1      31.428  46.921   9.518  1.00  0.00    -0.343 N 
ATOM      5  H1  UNL     1      31.571  47.229   8.556  1.00  0.00     0.167 HD
HETATM    6  C6  UNL     1      32.288  47.312  10.478  1.00  0.00     0.154 A 
HETATM    7  C7  UNL     1      33.413  48.118  10.382  1.00  0.00     0.114 A 
HETATM    8  C8  UNL     1      33.925  48.736   9.179  1.00  0.00     0.105 C 
HETATM    9  N2  UNL     1      34.340  49.212   8.215  1.00  0.00    -0.191 NA
HETATM   10  C9  UNL     1      33.914  48.189  11.657  1.00  0.00     0.047 A 
HETATM   11  C10 UNL     1      35.143  48.966  12.026  1.00  0.00     0.071 C 
HETATM   12  N3  UNL     1      33.122  47.465  12.451  1.00  0.00    -0.292 N 
ATOM     13  H3  UNL     1      33.267  47.348  13.453  1.00  0.00     0.187 HD
HETATM   14  N4  UNL     1      32.127  46.919  11.774  1.00  0.00    -0.202 N 
HETATM   15  C11 UNL     1      31.090  46.126  12.095  1.00  0.00     0.276 A 
HETATM   16  O1  UNL     1      30.968  45.776  13.313  1.00  0.00    -0.266 OA
ENDROOT
BRANCH   1  17
HETATM   17  C2  UNL     1      29.068  44.849  11.470  1.00  0.00     0.042 C 
HETATM   18  C1  UNL     1      27.825  45.621  11.848  1.00  0.00     0.010 C 
ENDBRANCH   1  17
TORSDOF 1
ENDMDL
