MODEL 1
REMARK VINA RESULT: -9.031323895      0.000      0.000
REMARK  1 active torsions:
REMARK  status: ('A' for Active; 'I' for Inactive)
REMARK    1  A    between atoms: C2_2  and  C3_3 
ROOT
HETATM    1  C3  UNL     1      34.017  48.706   9.690  1.00  0.00     0.034 A 
HETATM    2  C4  UNL     1      33.988  48.490  11.058  1.00  0.00     0.018 A 
HETATM    3  C5  UNL     1      35.007  49.030  11.981  1.00  0.00     0.069 C 
HETATM    4  N1  UNL     1      32.992  47.756  11.584  1.00  0.00    -0.343 N 
ATOM      5  H1  UNL     1      32.963  47.592  12.590  1.00  0.00     0.167 HD
HETATM    6  C6  UNL     1      32.032  47.236  10.795  1.00  0.00     0.154 A 
HETATM    7  C7  UNL     1      30.932  46.461  11.135  1.00  0.00     0.114 A 
HETATM    8  C8  UNL     1      30.566  46.028  12.465  1.00  0.00     0.105 C 
HETATM    9  N2  UNL     1      30.288  45.670  13.524  1.00  0.00    -0.191 NA
HETATM   10  C9  UNL     1      30.291  46.208   9.949  1.00  0.00     0.047 A 
HETATM   11  C10 UNL     1      29.035  45.394   9.839  1.00  0.00     0.071 C 
HETATM   12  N3  UNL     1      30.980  46.804   8.973  1.00  0.00    -0.292 N 
ATOM     13  H3  UNL     1      30.721  46.774   7.987  1.00  0.00     0.187 HD
HETATM   14  N4  UNL     1      32.039  47.436   9.446  1.00  0.00    -0.202 N 
HETATM   15  C11 UNL     1      33.026  48.166   8.897  1.00  0.00     0.276 A 
HETATM   16  O1  UNL     1      33.005  48.334   7.635  1.00  0.00    -0.266 OA
ENDROOT
BRANCH   1  17
HETATM   17  C2  UNL     1      35.096  49.503   9.094  1.00  0.00     0.042 C 
HETATM   18  C1  UNL     1      36.234  48.658   8.568  1.00  0.00     0.010 C 
ENDBRANCH   1  17
TORSDOF 1
ENDMDL
