MODEL 6
REMARK VINA RESULT: -7.718692329      1.624      1.987
REMARK  1 active torsions:
REMARK  status: ('A' for Active; 'I' for Inactive)
REMARK    1  A    between atoms: C2_2  and  C3_3 
ROOT
HETATM    1  C3  UNL     1      33.971  48.109  11.910  1.00  0.00     0.034 A 
HETATM    2  C4  UNL     1      33.237  47.684  13.006  1.00  0.00     0.018 A 
HETATM    3  C5  UNL     1      33.683  47.879  14.400  1.00  0.00     0.069 C 
HETATM    4  N1  UNL     1      32.062  47.063  12.804  1.00  0.00    -0.343 N 
ATOM      5  H1  UNL     1      31.515  46.746  13.605  1.00  0.00     0.167 HD
HETATM    6  C6  UNL     1      31.600  46.854  11.556  1.00  0.00     0.154 A 
HETATM    7  C7  UNL     1      30.427  46.241  11.138  1.00  0.00     0.114 A 
HETATM    8  C8  UNL     1      29.407  45.671  11.990  1.00  0.00     0.105 C 
HETATM    9  N2  UNL     1      28.606  45.201  12.672  1.00  0.00    -0.191 NA
HETATM   10  C9  UNL     1      30.460  46.299   9.769  1.00  0.00     0.047 A 
HETATM   11  C10 UNL     1      29.379  45.749   8.886  1.00  0.00     0.071 C 
HETATM   12  N3  UNL     1      31.589  46.914   9.410  1.00  0.00    -0.292 N 
ATOM     13  H3  UNL     1      31.865  47.090   8.444  1.00  0.00     0.187 HD
HETATM   14  N4  UNL     1      32.305  47.264  10.463  1.00  0.00    -0.202 N 
HETATM   15  C11 UNL     1      33.483  47.887  10.639  1.00  0.00     0.276 A 
HETATM   16  O1  UNL     1      34.118  48.258   9.599  1.00  0.00    -0.266 OA
ENDROOT
BRANCH   1  17
HETATM   17  C2  UNL     1      35.257  48.788  12.107  1.00  0.00     0.042 C 
HETATM   18  C1  UNL     1      36.431  47.836  12.137  1.00  0.00     0.010 C 
ENDBRANCH   1  17
TORSDOF 1
ENDMDL
