MODEL 2
REMARK VINA RESULT: -8.274808128      1.612      4.768
REMARK  1 active torsions:
REMARK  status: ('A' for Active; 'I' for Inactive)
REMARK    1  A    between atoms: C2_2  and  C3_3 
ROOT
HETATM    1  C3  UNL     1      30.856  47.482  10.889  1.00  0.00     0.034 A 
HETATM    2  C4  UNL     1      31.598  47.270  12.040  1.00  0.00     0.018 A 
HETATM    3  C5  UNL     1      30.995  46.857  13.323  1.00  0.00     0.069 C 
HETATM    4  N1  UNL     1      32.931  47.447  12.001  1.00  0.00    -0.343 N 
ATOM      5  H1  UNL     1      33.485  47.294  12.843  1.00  0.00     0.167 HD
HETATM    6  C6  UNL     1      33.541  47.824  10.861  1.00  0.00     0.154 A 
HETATM    7  C7  UNL     1      34.886  48.058  10.614  1.00  0.00     0.114 A 
HETATM    8  C8  UNL     1      35.966  47.941  11.568  1.00  0.00     0.105 C 
HETATM    9  N2  UNL     1      36.822  47.864  12.336  1.00  0.00    -0.191 NA
HETATM   10  C9  UNL     1      34.952  48.416   9.292  1.00  0.00     0.047 A 
HETATM   11  C10 UNL     1      36.229  48.762   8.585  1.00  0.00     0.071 C 
HETATM   12  N3  UNL     1      33.712  48.391   8.797  1.00  0.00    -0.292 N 
ATOM     13  H3  UNL     1      33.475  48.617   7.831  1.00  0.00     0.187 HD
HETATM   14  N4  UNL     1      32.832  48.038   9.716  1.00  0.00    -0.202 N 
HETATM   15  C11 UNL     1      31.498  47.868   9.730  1.00  0.00     0.276 A 
HETATM   16  O1  UNL     1      30.864  48.075   8.645  1.00  0.00    -0.266 OA
ENDROOT
BRANCH   1  17
HETATM   17  C2  UNL     1      29.401  47.297  10.908  1.00  0.00     0.042 C 
HETATM   18  C1  UNL     1      28.976  45.903  10.508  1.00  0.00     0.010 C 
ENDBRANCH   1  17
TORSDOF 1
ENDMDL
