MODEL 2
REMARK VINA RESULT: -5.561212055      1.526      1.763
REMARK  8 active torsions:
REMARK  status: ('A' for Active; 'I' for Inactive)
REMARK    1  A    between atoms: S1_2  and  C2_5 
REMARK    2  A    between atoms: C2_5  and  C3_6 
REMARK    3  A    between atoms: C3_6  and  C4_7 
REMARK    4  A    between atoms: C4_7  and  N1_8 
REMARK    5  A    between atoms: C5_9  and  C6_10 
REMARK    6  A    between atoms: C6_10  and  N2_11 
REMARK    7  A    between atoms: N3_14  and  C8_15 
REMARK    8  A    between atoms: C8_15  and  C9_16 
ROOT
HETATM    1  N1  UNL     1      17.381  20.052  19.911  1.00  0.00    -0.348 N 
HETATM    2  C5  UNL     1      17.987  21.189  20.222  1.00  0.00     0.031 A 
HETATM    3  C15 UNL     1      19.270  20.907  20.631  1.00  0.00     0.040 A 
HETATM    4  C16 UNL     1      19.423  19.545  20.558  1.00  0.00    -0.006 A 
HETATM    5  C17 UNL     1      20.452  18.657  20.825  1.00  0.00     0.037 A 
HETATM    6  C18 UNL     1      20.289  17.298  20.646  1.00  0.00     0.035 A 
HETATM    7 CL1  UNL     1      21.600  16.160  20.986  1.00  0.00    -0.084 Cl
HETATM    8  C19 UNL     1      19.113  16.784  20.200  1.00  0.00     0.026 A 
HETATM    9  C20 UNL     1      18.078  17.639  19.926  1.00  0.00     0.032 A 
HETATM   10  C21 UNL     1      18.236  19.019  20.106  1.00  0.00     0.045 A 
ENDROOT
BRANCH   2  11
HETATM   11  C6  UNL     1      17.384  22.536  20.169  1.00  0.00     0.191 C 
BRANCH  11  12
HETATM   12  N2  UNL     1      16.802  23.011  21.370  1.00  0.00    -0.290 N 
HETATM   13  C7  UNL     1      15.443  23.124  21.503  1.00  0.00     0.330 A 
HETATM   14  O3  UNL     1      14.578  22.847  20.636  1.00  0.00    -0.246 OA
HETATM   15  N3  UNL     1      15.144  23.587  22.726  1.00  0.00    -0.289 N 
HETATM   16  C10 UNL     1      16.283  23.785  23.413  1.00  0.00     0.069 A 
HETATM   17  C11 UNL     1      16.624  24.226  24.666  1.00  0.00     0.049 A 
HETATM   18  C14 UNL     1      17.303  23.415  22.538  1.00  0.00     0.081 A 
HETATM   19  C12 UNL     1      17.941  24.307  25.068  1.00  0.00     0.090 A 
HETATM   20  N4  UNL     1      18.899  23.943  24.200  1.00  0.00    -0.373 N 
HETATM   21  C13 UNL     1      18.610  23.506  22.966  1.00  0.00     0.119 A 
ATOM     22  H4  UNL     1      19.876  24.000  24.489  1.00  0.00     0.164 HD
BRANCH  15  23
HETATM   23  C8  UNL     1      13.836  23.860  23.298  1.00  0.00     0.251 C 
BRANCH  23  24
HETATM   24  C9  UNL     1      13.445  25.314  23.139  1.00  0.00     0.403 C 
HETATM   25  F1  UNL     1      14.083  25.920  22.097  1.00  0.00    -0.169 F 
HETATM   26  F2  UNL     1      12.082  25.352  22.938  1.00  0.00    -0.169 F 
HETATM   27  F3  UNL     1      13.757  25.961  24.337  1.00  0.00    -0.169 F 
ENDBRANCH  23  24
ENDBRANCH  15  23
ENDBRANCH  11  12
ENDBRANCH   2  11
BRANCH   1  28
HETATM   28  C4  UNL     1      16.010  19.824  19.392  1.00  0.00     0.130 C 
BRANCH  28  29
HETATM   29  C3  UNL     1      15.094  19.488  20.530  1.00  0.00     0.035 C 
BRANCH  29  30
HETATM   30  C2  UNL     1      13.796  18.861  20.231  1.00  0.00     0.141 C 
BRANCH  30  31
HETATM   31  S1  UNL     1      13.856  17.123  20.069  1.00  0.00     0.140 S 
HETATM   32  C1  UNL     1      12.338  16.366  20.452  1.00  0.00     0.161 C 
HETATM   33  O1  UNL     1      14.899  16.598  21.040  1.00  0.00    -0.228 OA
HETATM   34  O2  UNL     1      14.293  16.757  18.655  1.00  0.00    -0.228 OA
ENDBRANCH  30  31
ENDBRANCH  29  30
ENDBRANCH  28  29
ENDBRANCH   1  28
TORSDOF 8
ENDMDL
