MODEL 1
REMARK VINA RESULT: -5.582092961      0.000      0.000
REMARK  8 active torsions:
REMARK  status: ('A' for Active; 'I' for Inactive)
REMARK    1  A    between atoms: S1_2  and  C2_5 
REMARK    2  A    between atoms: C2_5  and  C3_6 
REMARK    3  A    between atoms: C3_6  and  C4_7 
REMARK    4  A    between atoms: C4_7  and  N1_8 
REMARK    5  A    between atoms: C5_9  and  C6_10 
REMARK    6  A    between atoms: C6_10  and  N2_11 
REMARK    7  A    between atoms: N3_14  and  C8_15 
REMARK    8  A    between atoms: C8_15  and  C9_16 
ROOT
HETATM    1  N1  UNL     1      18.232  19.961  19.915  1.00  0.00    -0.348 N 
HETATM    2  C5  UNL     1      18.724  21.134  20.285  1.00  0.00     0.031 A 
HETATM    3  C15 UNL     1      19.941  20.928  20.893  1.00  0.00     0.040 A 
HETATM    4  C16 UNL     1      20.172  19.576  20.880  1.00  0.00    -0.006 A 
HETATM    5  C17 UNL     1      21.190  18.748  21.325  1.00  0.00     0.037 A 
HETATM    6  C18 UNL     1      21.126  17.380  21.158  1.00  0.00     0.035 A 
HETATM    7 CL1  UNL     1      22.424  16.321  21.725  1.00  0.00    -0.084 Cl
HETATM    8  C19 UNL     1      20.060  16.795  20.551  1.00  0.00     0.026 A 
HETATM    9  C20 UNL     1      19.037  17.589  20.100  1.00  0.00     0.032 A 
HETATM   10  C21 UNL     1      19.097  18.978  20.266  1.00  0.00     0.045 A 
ENDROOT
BRANCH   2  11
HETATM   11  C6  UNL     1      18.070  22.446  20.105  1.00  0.00     0.191 C 
BRANCH  11  12
HETATM   12  N2  UNL     1      17.237  22.882  21.164  1.00  0.00    -0.290 N 
HETATM   13  C7  UNL     1      15.872  22.892  21.035  1.00  0.00     0.330 A 
HETATM   14  O3  UNL     1      15.211  22.546  20.026  1.00  0.00    -0.246 OA
HETATM   15  N3  UNL     1      15.313  23.339  22.169  1.00  0.00    -0.289 N 
HETATM   16  C10 UNL     1      16.283  23.626  23.055  1.00  0.00     0.069 A 
HETATM   17  C11 UNL     1      16.346  24.099  24.341  1.00  0.00     0.049 A 
HETATM   18  C14 UNL     1      17.475  23.329  22.398  1.00  0.00     0.081 A 
HETATM   19  C12 UNL     1      17.552  24.282  24.984  1.00  0.00     0.090 A 
HETATM   20  N4  UNL     1      18.683  23.987  24.321  1.00  0.00    -0.373 N 
HETATM   21  C13 UNL     1      18.666  23.522  23.063  1.00  0.00     0.119 A 
ATOM     22  H4  UNL     1      19.579  24.119  24.788  1.00  0.00     0.164 HD
BRANCH  15  23
HETATM   23  C8  UNL     1      13.903  23.515  22.477  1.00  0.00     0.251 C 
BRANCH  23  24
HETATM   24  C9  UNL     1      13.199  22.189  22.666  1.00  0.00     0.403 C 
HETATM   25  F1  UNL     1      14.060  21.173  22.957  1.00  0.00    -0.169 F 
HETATM   26  F2  UNL     1      12.298  22.348  23.697  1.00  0.00    -0.169 F 
HETATM   27  F3  UNL     1      12.509  21.913  21.483  1.00  0.00    -0.169 F 
ENDBRANCH  23  24
ENDBRANCH  15  23
ENDBRANCH  11  12
ENDBRANCH   2  11
BRANCH   1  28
HETATM   28  C4  UNL     1      16.969  19.649  19.198  1.00  0.00     0.130 C 
BRANCH  28  29
HETATM   29  C3  UNL     1      15.916  19.253  20.189  1.00  0.00     0.035 C 
BRANCH  29  30
HETATM   30  C2  UNL     1      14.652  18.691  19.689  1.00  0.00     0.141 C 
BRANCH  30  31
HETATM   31  S1  UNL     1      14.530  16.955  19.827  1.00  0.00     0.140 S 
HETATM   32  C1  UNL     1      14.422  16.169  18.279  1.00  0.00     0.161 C 
HETATM   33  O1  UNL     1      13.265  16.634  20.604  1.00  0.00    -0.228 OA
HETATM   34  O2  UNL     1      15.722  16.421  20.614  1.00  0.00    -0.228 OA
ENDBRANCH  30  31
ENDBRANCH  29  30
ENDBRANCH  28  29
ENDBRANCH   1  28
TORSDOF 8
ENDMDL
