MODEL 3
REMARK VINA RESULT: -5.531400394      4.341      5.621
REMARK  8 active torsions:
REMARK  status: ('A' for Active; 'I' for Inactive)
REMARK    1  A    between atoms: S1_2  and  C2_5 
REMARK    2  A    between atoms: C2_5  and  C3_6 
REMARK    3  A    between atoms: C3_6  and  C4_7 
REMARK    4  A    between atoms: C4_7  and  N1_8 
REMARK    5  A    between atoms: C5_9  and  C6_10 
REMARK    6  A    between atoms: C6_10  and  N2_11 
REMARK    7  A    between atoms: N3_14  and  C8_15 
REMARK    8  A    between atoms: C8_15  and  C9_16 
ROOT
HETATM    1  N1  UNL     1      20.891  21.879  21.648  1.00  0.00    -0.348 N 
HETATM    2  C5  UNL     1      19.772  22.562  21.452  1.00  0.00     0.031 A 
HETATM    3  C15 UNL     1      18.803  21.697  20.996  1.00  0.00     0.040 A 
HETATM    4  C16 UNL     1      19.379  20.455  20.920  1.00  0.00    -0.006 A 
HETATM    5  C17 UNL     1      18.948  19.193  20.543  1.00  0.00     0.037 A 
HETATM    6  C18 UNL     1      19.797  18.106  20.578  1.00  0.00     0.035 A 
HETATM    7 CL1  UNL     1      19.250  16.493  20.098  1.00  0.00    -0.084 Cl
HETATM    8  C19 UNL     1      21.088  18.234  20.983  1.00  0.00     0.026 A 
HETATM    9  C20 UNL     1      21.542  19.470  21.362  1.00  0.00     0.032 A 
HETATM   10  C21 UNL     1      20.686  20.578  21.329  1.00  0.00     0.045 A 
ENDROOT
BRANCH   2  11
HETATM   11  C6  UNL     1      19.593  24.013  21.658  1.00  0.00     0.191 C 
BRANCH  11  12
HETATM   12  N2  UNL     1      18.335  24.425  22.165  1.00  0.00    -0.290 N 
HETATM   13  C7  UNL     1      17.388  24.981  21.345  1.00  0.00     0.330 A 
HETATM   14  O3  UNL     1      17.494  25.196  20.114  1.00  0.00    -0.246 OA
HETATM   15  N3  UNL     1      16.291  25.278  22.058  1.00  0.00    -0.289 N 
HETATM   16  C10 UNL     1      16.490  24.928  23.341  1.00  0.00     0.069 A 
HETATM   17  C11 UNL     1      15.769  24.973  24.506  1.00  0.00     0.049 A 
HETATM   18  C14 UNL     1      17.777  24.396  23.376  1.00  0.00     0.081 A 
HETATM   19  C12 UNL     1      16.291  24.508  25.695  1.00  0.00     0.090 A 
HETATM   20  N4  UNL     1      17.535  24.002  25.694  1.00  0.00    -0.373 N 
HETATM   21  C13 UNL     1      18.274  23.938  24.577  1.00  0.00     0.119 A 
ATOM     22  H4  UNL     1      17.929  23.656  26.569  1.00  0.00     0.164 HD
BRANCH  15  23
HETATM   23  C8  UNL     1      15.049  25.880  21.602  1.00  0.00     0.251 C 
BRANCH  23  24
HETATM   24  C9  UNL     1      15.096  27.391  21.677  1.00  0.00     0.403 C 
HETATM   25  F1  UNL     1      15.657  27.844  22.835  1.00  0.00    -0.169 F 
HETATM   26  F2  UNL     1      15.832  27.832  20.598  1.00  0.00    -0.169 F 
HETATM   27  F3  UNL     1      13.782  27.853  21.564  1.00  0.00    -0.169 F 
ENDBRANCH  23  24
ENDBRANCH  15  23
ENDBRANCH  11  12
ENDBRANCH   2  11
BRANCH   1  28
HETATM   28  C4  UNL     1      22.204  22.345  22.159  1.00  0.00     0.130 C 
BRANCH  28  29
HETATM   29  C3  UNL     1      22.248  22.179  23.648  1.00  0.00     0.035 C 
BRANCH  29  30
HETATM   30  C2  UNL     1      23.558  22.027  24.303  1.00  0.00     0.141 C 
BRANCH  30  31
HETATM   31  S1  UNL     1      23.716  20.584  25.272  1.00  0.00     0.140 S 
HETATM   32  C1  UNL     1      25.342  19.965  25.284  1.00  0.00     0.161 C 
HETATM   33  O1  UNL     1      22.814  19.517  24.675  1.00  0.00    -0.228 OA
HETATM   34  O2  UNL     1      23.243  20.868  26.693  1.00  0.00    -0.228 OA
ENDBRANCH  30  31
ENDBRANCH  29  30
ENDBRANCH  28  29
ENDBRANCH   1  28
TORSDOF 8
ENDMDL
