MODEL 3
REMARK VINA RESULT: -7.222208649      1.395      2.979
REMARK  14 active torsions:
REMARK  status: ('A' for Active; 'I' for Inactive)
REMARK       I    between atoms: C2_2  and  N1_4 
REMARK    1  A    between atoms: N1_4  and  C3_6 
REMARK    2  A    between atoms: C4_7  and  O2_8 
REMARK    3  A    between atoms: O2_8  and  C5_9 
REMARK    4  A    between atoms: C8_12  and  N2_13 
REMARK    5  A    between atoms: C11_19  and  C12_20 
REMARK    6  A    between atoms: C12_20  and  O6_21 
REMARK    7  A    between atoms: C13_23  and  O7_24 
REMARK    8  A    between atoms: O7_24  and  C14_25 
REMARK    9  A    between atoms: C15_27  and  C16_28 
REMARK   10  A    between atoms: C16_28  and  O9_29 
REMARK   11  A    between atoms: C17_31  and  O10_32 
REMARK   12  A    between atoms: C18_34  and  O11_35 
REMARK   13  A    between atoms: C19_37  and  N3_38 
REMARK       I    between atoms: N3_38  and  C20_40 
REMARK   14  A    between atoms: C22_43  and  O13_44 
ROOT
HETATM    1  C3  UNL     1      36.523  91.123  -4.294  1.00  0.00     0.171 C 
HETATM    2  C4  UNL     1      37.581  90.195  -3.702  1.00  0.00     0.292 C 
HETATM    3  O5  UNL     1      37.337  90.012  -2.339  1.00  0.00    -0.349 OA
HETATM    4  C11 UNL     1      37.255  91.220  -1.657  1.00  0.00     0.180 C 
HETATM    5  C13 UNL     1      36.045  91.955  -2.050  1.00  0.00     0.186 C 
HETATM    6  C22 UNL     1      35.403  91.313  -3.258  1.00  0.00     0.177 C 
ENDROOT
BRANCH   5   7
HETATM    7  O7  UNL     1      36.143  93.325  -2.175  1.00  0.00    -0.348 OA
BRANCH   7   8
HETATM    8  C14 UNL     1      35.142  94.040  -1.590  1.00  0.00     0.286 C 
HETATM    9  O8  UNL     1      34.423  93.097  -0.801  1.00  0.00    -0.349 OA
HETATM   10  C15 UNL     1      33.581  93.776   0.055  1.00  0.00     0.179 C 
HETATM   11  C17 UNL     1      32.399  94.260  -0.754  1.00  0.00     0.180 C 
HETATM   12  C18 UNL     1      32.938  95.165  -1.842  1.00  0.00     0.177 C 
HETATM   13  C19 UNL     1      34.101  94.536  -2.581  1.00  0.00     0.170 C 
BRANCH  10  14
HETATM   14  C16 UNL     1      33.173  92.847   1.178  1.00  0.00     0.198 C 
BRANCH  14  15
HETATM   15  O9  UNL     1      31.989  93.289   1.759  1.00  0.00    -0.398 OA
ATOM     16  H9  UNL     1      31.449  92.547   2.007  1.00  0.00     0.209 HD
ENDBRANCH  14  15
ENDBRANCH  10  14
BRANCH  11  17
HETATM   17  O10 UNL     1      31.763  93.138  -1.283  1.00  0.00    -0.390 OA
ATOM     18  H10 UNL     1      31.001  93.440  -1.763  1.00  0.00     0.210 HD
ENDBRANCH  11  17
BRANCH  12  19
HETATM   19  O11 UNL     1      31.893  95.343  -2.758  1.00  0.00    -0.391 OA
ATOM     20  H11 UNL     1      32.066  96.165  -3.203  1.00  0.00     0.210 HD
ENDBRANCH  12  19
BRANCH  13  21
HETATM   21  N3  UNL     1      34.593  95.475  -3.523  1.00  0.00    -0.349 N 
HETATM   22  C20 UNL     1      34.707  95.069  -4.895  1.00  0.00     0.214 C 
HETATM   23  C21 UNL     1      35.202  95.960  -5.948  1.00  0.00     0.117 C 
HETATM   24  O12 UNL     1      34.364  93.890  -5.208  1.00  0.00    -0.274 OA
ATOM     25  H3  UNL     1      34.859  96.416  -3.233  1.00  0.00     0.163 HD
ENDBRANCH  13  21
ENDBRANCH   7   8
ENDBRANCH   5   7
BRANCH   4  26
HETATM   26  C12 UNL     1      37.305  90.849  -0.185  1.00  0.00     0.198 C 
BRANCH  26  27
HETATM   27  O6  UNL     1      36.045  90.867   0.399  1.00  0.00    -0.398 OA
ATOM     28  H6  UNL     1      35.669  89.996   0.462  1.00  0.00     0.209 HD
ENDBRANCH  26  27
ENDBRANCH   4  26
BRANCH   6  29
HETATM   29  O13 UNL     1      34.913  90.048  -2.975  1.00  0.00    -0.391 OA
ATOM     30  H13 UNL     1      34.091  90.174  -2.515  1.00  0.00     0.210 HD
ENDBRANCH   6  29
BRANCH   1  31
HETATM   31  N1  UNL     1      37.165  92.352  -4.648  1.00  0.00    -0.349 N 
HETATM   32  C2  UNL     1      37.590  92.585  -5.974  1.00  0.00     0.214 C 
HETATM   33  C1  UNL     1      38.266  93.847  -6.385  1.00  0.00     0.117 C 
HETATM   34  O1  UNL     1      37.376  91.670  -6.828  1.00  0.00    -0.274 OA
ATOM     35  H1  UNL     1      37.317  93.066  -3.936  1.00  0.00     0.163 HD
ENDBRANCH   1  31
BRANCH   2  36
HETATM   36  O2  UNL     1      37.423  88.942  -4.304  1.00  0.00    -0.318 OA
BRANCH  36  37
HETATM   37  C5  UNL     1      38.406  88.101  -4.763  1.00  0.00     0.072 A 
HETATM   38  C6  UNL     1      39.735  88.193  -4.447  1.00  0.00     0.039 A 
HETATM   39  C7  UNL     1      40.670  87.310  -4.950  1.00  0.00     0.039 A 
HETATM   40  C8  UNL     1      40.319  86.290  -5.792  1.00  0.00     0.103 A 
HETATM   41  C9  UNL     1      38.978  86.193  -6.113  1.00  0.00     0.039 A 
HETATM   42  C10 UNL     1      38.044  87.072  -5.615  1.00  0.00     0.039 A 
BRANCH  40  43
HETATM   43  N2  UNL     1      41.278  85.367  -6.317  1.00  0.00    -0.116 N 
HETATM   44  O3  UNL     1      41.881  84.596  -5.548  1.00  0.00    -0.532 OA
HETATM   45  O4  UNL     1      41.553  85.309  -7.657  1.00  0.00    -0.532 OA
ENDBRANCH  40  43
ENDBRANCH  36  37
ENDBRANCH   2  36
TORSDOF 14
ENDMDL
