MODEL 1
REMARK VINA RESULT: -7.597379798      0.000      0.000
REMARK  14 active torsions:
REMARK  status: ('A' for Active; 'I' for Inactive)
REMARK       I    between atoms: C2_2  and  N1_4 
REMARK    1  A    between atoms: N1_4  and  C3_6 
REMARK    2  A    between atoms: C4_7  and  O2_8 
REMARK    3  A    between atoms: O2_8  and  C5_9 
REMARK    4  A    between atoms: C8_12  and  N2_13 
REMARK    5  A    between atoms: C11_19  and  C12_20 
REMARK    6  A    between atoms: C12_20  and  O6_21 
REMARK    7  A    between atoms: C13_23  and  O7_24 
REMARK    8  A    between atoms: O7_24  and  C14_25 
REMARK    9  A    between atoms: C15_27  and  C16_28 
REMARK   10  A    between atoms: C16_28  and  O9_29 
REMARK   11  A    between atoms: C17_31  and  O10_32 
REMARK   12  A    between atoms: C18_34  and  O11_35 
REMARK   13  A    between atoms: C19_37  and  N3_38 
REMARK       I    between atoms: N3_38  and  C20_40 
REMARK   14  A    between atoms: C22_43  and  O13_44 
ROOT
HETATM    1  C3  UNL     1      37.236  90.550  -2.681  1.00  0.00     0.171 C 
HETATM    2  C4  UNL     1      37.895  90.389  -4.049  1.00  0.00     0.292 C 
HETATM    3  O5  UNL     1      38.127  91.647  -4.610  1.00  0.00    -0.349 OA
HETATM    4  C11 UNL     1      36.970  92.414  -4.669  1.00  0.00     0.180 C 
HETATM    5  C13 UNL     1      36.534  92.799  -3.320  1.00  0.00     0.186 C 
HETATM    6  C22 UNL     1      37.308  92.030  -2.273  1.00  0.00     0.177 C 
ENDROOT
BRANCH   5   7
HETATM    7  O7  UNL     1      35.179  92.808  -3.066  1.00  0.00    -0.348 OA
BRANCH   7   8
HETATM    8  C14 UNL     1      34.768  93.685  -2.107  1.00  0.00     0.286 C 
HETATM    9  O8  UNL     1      33.914  92.930  -1.253  1.00  0.00    -0.349 OA
HETATM   10  C15 UNL     1      33.690  93.644  -0.095  1.00  0.00     0.179 C 
HETATM   11  C17 UNL     1      32.692  94.734  -0.416  1.00  0.00     0.180 C 
HETATM   12  C18 UNL     1      33.302  95.599  -1.498  1.00  0.00     0.177 C 
HETATM   13  C19 UNL     1      33.854  94.776  -2.643  1.00  0.00     0.170 C 
BRANCH  10  14
HETATM   14  C16 UNL     1      33.190  92.698   0.974  1.00  0.00     0.198 C 
BRANCH  14  15
HETATM   15  O9  UNL     1      32.274  93.344   1.797  1.00  0.00    -0.398 OA
ATOM     16  H9  UNL     1      31.488  92.818   1.888  1.00  0.00     0.209 HD
ENDBRANCH  14  15
ENDBRANCH  10  14
BRANCH  11  17
HETATM   17  O10 UNL     1      31.519  94.116  -0.849  1.00  0.00    -0.390 OA
ATOM     18  H10 UNL     1      30.844  94.299  -0.207  1.00  0.00     0.210 HD
ENDBRANCH  11  17
BRANCH  12  19
HETATM   19  O11 UNL     1      32.261  96.391  -2.002  1.00  0.00    -0.391 OA
ATOM     20  H11 UNL     1      32.413  97.270  -1.674  1.00  0.00     0.210 HD
ENDBRANCH  12  19
BRANCH  13  21
HETATM   21  N3  UNL     1      34.473  95.654  -3.569  1.00  0.00    -0.349 N 
HETATM   22  C20 UNL     1      34.148  95.518  -4.960  1.00  0.00     0.214 C 
HETATM   23  C21 UNL     1      34.730  96.373  -5.998  1.00  0.00     0.117 C 
HETATM   24  O12 UNL     1      33.323  94.620  -5.304  1.00  0.00    -0.274 OA
ATOM     25  H3  UNL     1      35.133  96.365  -3.253  1.00  0.00     0.163 HD
ENDBRANCH  13  21
ENDBRANCH   7   8
ENDBRANCH   5   7
BRANCH   4  26
HETATM   26  C12 UNL     1      37.318  93.589  -5.568  1.00  0.00     0.198 C 
BRANCH  26  27
HETATM   27  O6  UNL     1      38.668  93.608  -5.897  1.00  0.00    -0.398 OA
ATOM     28  H6  UNL     1      38.823  94.024  -6.738  1.00  0.00     0.209 HD
ENDBRANCH  26  27
ENDBRANCH   4  26
BRANCH   6  29
HETATM   29  O13 UNL     1      38.652  92.370  -2.268  1.00  0.00    -0.391 OA
ATOM     30  H13 UNL     1      38.913  92.450  -3.178  1.00  0.00     0.210 HD
ENDBRANCH   6  29
BRANCH   1  31
HETATM   31  N1  UNL     1      35.893  90.067  -2.781  1.00  0.00    -0.349 N 
HETATM   32  C2  UNL     1      35.199  89.626  -1.632  1.00  0.00     0.214 C 
HETATM   33  C1  UNL     1      33.803  89.112  -1.692  1.00  0.00     0.117 C 
HETATM   34  O1  UNL     1      35.811  89.681  -0.521  1.00  0.00    -0.274 OA
ATOM     35  H1  UNL     1      35.432  90.041  -3.690  1.00  0.00     0.163 HD
ENDBRANCH   1  31
BRANCH   2  36
HETATM   36  O2  UNL     1      39.151  89.809  -3.843  1.00  0.00    -0.318 OA
BRANCH  36  37
HETATM   37  C5  UNL     1      39.677  88.703  -4.463  1.00  0.00     0.072 A 
HETATM   38  C6  UNL     1      38.954  87.763  -5.147  1.00  0.00     0.039 A 
HETATM   39  C7  UNL     1      39.553  86.672  -5.747  1.00  0.00     0.039 A 
HETATM   40  C8  UNL     1      40.906  86.471  -5.692  1.00  0.00     0.103 A 
HETATM   41  C9  UNL     1      41.639  87.419  -5.004  1.00  0.00     0.039 A 
HETATM   42  C10 UNL     1      41.045  88.506  -4.404  1.00  0.00     0.039 A 
BRANCH  40  43
HETATM   43  N2  UNL     1      41.538  85.347  -6.312  1.00  0.00    -0.116 N 
HETATM   44  O3  UNL     1      41.961  84.411  -5.611  1.00  0.00    -0.532 OA
HETATM   45  O4  UNL     1      41.690  85.274  -7.671  1.00  0.00    -0.532 OA
ENDBRANCH  40  43
ENDBRANCH  36  37
ENDBRANCH   2  36
TORSDOF 14
ENDMDL
