MODEL 2
REMARK VINA RESULT: -7.546251690      1.666      3.674
REMARK  14 active torsions:
REMARK  status: ('A' for Active; 'I' for Inactive)
REMARK       I    between atoms: C2_2  and  N1_4 
REMARK    1  A    between atoms: N1_4  and  C3_6 
REMARK    2  A    between atoms: C4_7  and  O2_8 
REMARK    3  A    between atoms: O2_8  and  C5_9 
REMARK    4  A    between atoms: C8_12  and  N2_13 
REMARK    5  A    between atoms: C11_19  and  C12_20 
REMARK    6  A    between atoms: C12_20  and  O6_21 
REMARK    7  A    between atoms: C13_23  and  O7_24 
REMARK    8  A    between atoms: O7_24  and  C14_25 
REMARK    9  A    between atoms: C15_27  and  C16_28 
REMARK   10  A    between atoms: C16_28  and  O9_29 
REMARK   11  A    between atoms: C17_31  and  O10_32 
REMARK   12  A    between atoms: C18_34  and  O11_35 
REMARK   13  A    between atoms: C19_37  and  N3_38 
REMARK       I    between atoms: N3_38  and  C20_40 
REMARK   14  A    between atoms: C22_43  and  O13_44 
ROOT
HETATM    1  C3  UNL     1      37.664  91.567  -3.183  1.00  0.00     0.171 C 
HETATM    2  C4  UNL     1      37.827  90.320  -4.050  1.00  0.00     0.292 C 
HETATM    3  O5  UNL     1      37.329  90.568  -5.330  1.00  0.00    -0.349 OA
HETATM    4  C11 UNL     1      36.016  91.022  -5.301  1.00  0.00     0.180 C 
HETATM    5  C13 UNL     1      35.947  92.370  -4.720  1.00  0.00     0.186 C 
HETATM    6  C22 UNL     1      37.268  92.743  -4.089  1.00  0.00     0.177 C 
ENDROOT
BRANCH   5   7
HETATM    7  O7  UNL     1      34.875  92.656  -3.901  1.00  0.00    -0.348 OA
BRANCH   7   8
HETATM    8  C14 UNL     1      34.007  93.592  -4.378  1.00  0.00     0.286 C 
HETATM    9  O8  UNL     1      34.674  94.188  -5.487  1.00  0.00    -0.349 OA
HETATM   10  C15 UNL     1      33.766  94.931  -6.212  1.00  0.00     0.179 C 
HETATM   11  C17 UNL     1      33.515  96.214  -5.452  1.00  0.00     0.180 C 
HETATM   12  C18 UNL     1      32.967  95.833  -4.093  1.00  0.00     0.177 C 
HETATM   13  C19 UNL     1      33.799  94.758  -3.425  1.00  0.00     0.170 C 
BRANCH  10  14
HETATM   14  C16 UNL     1      34.328  95.177  -7.594  1.00  0.00     0.198 C 
BRANCH  14  15
HETATM   15  O9  UNL     1      35.717  95.114  -7.565  1.00  0.00    -0.398 OA
ATOM     16  H9  UNL     1      36.089  95.865  -8.014  1.00  0.00     0.209 HD
ENDBRANCH  14  15
ENDBRANCH  10  14
BRANCH  11  17
HETATM   17  O10 UNL     1      34.732  96.887  -5.349  1.00  0.00    -0.390 OA
ATOM     18  H10 UNL     1      35.162  96.582  -4.559  1.00  0.00     0.210 HD
ENDBRANCH  11  17
BRANCH  12  19
HETATM   19  O11 UNL     1      33.042  96.988  -3.301  1.00  0.00    -0.391 OA
ATOM     20  H11 UNL     1      33.920  97.004  -2.936  1.00  0.00     0.210 HD
ENDBRANCH  12  19
BRANCH  13  21
HETATM   21  N3  UNL     1      33.176  94.407  -2.199  1.00  0.00    -0.349 N 
HETATM   22  C20 UNL     1      33.938  94.526  -0.988  1.00  0.00     0.214 C 
HETATM   23  C21 UNL     1      33.391  94.190   0.328  1.00  0.00     0.117 C 
HETATM   24  O12 UNL     1      35.133  94.938  -1.063  1.00  0.00    -0.274 OA
ATOM     25  H3  UNL     1      32.211  94.078  -2.180  1.00  0.00     0.163 HD
ENDBRANCH  13  21
ENDBRANCH   7   8
ENDBRANCH   5   7
BRANCH   4  26
HETATM   26  C12 UNL     1      35.536  90.941  -6.740  1.00  0.00     0.198 C 
BRANCH  26  27
HETATM   27  O6  UNL     1      35.834  92.095  -7.454  1.00  0.00    -0.398 OA
ATOM     28  H6  UNL     1      36.632  92.003  -7.962  1.00  0.00     0.209 HD
ENDBRANCH  26  27
ENDBRANCH   4  26
BRANCH   6  29
HETATM   29  O13 UNL     1      38.277  92.869  -5.032  1.00  0.00    -0.391 OA
ATOM     30  H13 UNL     1      38.122  93.691  -5.483  1.00  0.00     0.210 HD
ENDBRANCH   6  29
BRANCH   1  31
HETATM   31  N1  UNL     1      36.682  91.282  -2.183  1.00  0.00    -0.349 N 
HETATM   32  C2  UNL     1      37.057  91.125  -0.830  1.00  0.00     0.214 C 
HETATM   33  C1  UNL     1      36.068  90.824   0.242  1.00  0.00     0.117 C 
HETATM   34  O1  UNL     1      38.288  91.252  -0.545  1.00  0.00    -0.274 OA
ATOM     35  H1  UNL     1      35.702  91.191  -2.449  1.00  0.00     0.163 HD
ENDBRANCH   1  31
BRANCH   2  36
HETATM   36  O2  UNL     1      39.199  90.088  -4.195  1.00  0.00    -0.318 OA
BRANCH  36  37
HETATM   37  C5  UNL     1      39.813  88.963  -4.689  1.00  0.00     0.072 A 
HETATM   38  C6  UNL     1      41.131  88.640  -4.509  1.00  0.00     0.039 A 
HETATM   39  C7  UNL     1      41.681  87.489  -5.038  1.00  0.00     0.039 A 
HETATM   40  C8  UNL     1      40.938  86.605  -5.772  1.00  0.00     0.103 A 
HETATM   41  C9  UNL     1      39.607  86.928  -5.956  1.00  0.00     0.039 A 
HETATM   42  C10 UNL     1      39.056  88.074  -5.431  1.00  0.00     0.039 A 
BRANCH  40  43
HETATM   43  N2  UNL     1      41.496  85.408  -6.323  1.00  0.00    -0.116 N 
HETATM   44  O3  UNL     1      41.858  84.489  -5.567  1.00  0.00    -0.532 OA
HETATM   45  O4  UNL     1      41.644  85.247  -7.675  1.00  0.00    -0.532 OA
ENDBRANCH  40  43
ENDBRANCH  36  37
ENDBRANCH   2  36
TORSDOF 14
ENDMDL
