MODEL 11
REMARK VINA RESULT: -7.739835932      1.679      2.031
REMARK  5 active torsions:
REMARK  status: ('A' for Active; 'I' for Inactive)
REMARK    1  A    between atoms: C5_8  and  C6_9 
REMARK    2  A    between atoms: C9_15  and  O1_16 
REMARK    3  A    between atoms: O1_16  and  C10_17 
REMARK    4  A    between atoms: C10_17  and  C12_19 
REMARK    5  A    between atoms: C17_25  and  C18_26 
REMARK       I    between atoms: C18_26  and  N5_28 
ROOT
HETATM    1  C6  UNL     1      29.309  47.009   7.695  1.00  0.00    -0.004 A 
HETATM    2  C7  UNL     1      28.086  46.850   8.351  1.00  0.00     0.101 A 
HETATM    3  N3  UNL     1      27.842  45.898   9.207  1.00  0.00    -0.351 N 
ATOM      4  H3  UNL     1      26.927  45.842   9.654  1.00  0.00     0.166 HD
HETATM    5  C8  UNL     1      28.823  44.955   9.518  1.00  0.00     0.149 A 
HETATM    6  N4  UNL     1      28.408  43.991  10.467  1.00  0.00    -0.080 NA
HETATM    7  C9  UNL     1      30.043  45.035   8.921  1.00  0.00     0.111 A 
HETATM    8  C21 UNL     1      30.283  46.115   7.972  1.00  0.00     0.054 A 
ENDROOT
BRANCH   7   9
HETATM    9  O1  UNL     1      31.090  44.244   9.083  1.00  0.00    -0.338 OA
BRANCH   9  10
HETATM   10  C10 UNL     1      32.223  43.771   8.485  1.00  0.00     0.159 C 
HETATM   11  C11 UNL     1      32.208  42.213   8.512  1.00  0.00     0.045 C 
BRANCH  10  12
HETATM   12  C12 UNL     1      33.449  44.286   9.088  1.00  0.00    -0.011 A 
HETATM   13  C13 UNL     1      33.502  44.625  10.435  1.00  0.00     0.053 A 
HETATM   14  C14 UNL     1      34.585  45.261  11.026  1.00  0.00     0.117 A 
HETATM   15  F1  UNL     1      34.543  45.570  12.351  1.00  0.00    -0.206 F 
HETATM   16  C15 UNL     1      35.667  45.577  10.247  1.00  0.00     0.043 A 
HETATM   17  C16 UNL     1      35.644  45.251   8.892  1.00  0.00     0.021 A 
HETATM   18  C17 UNL     1      34.551  44.618   8.335  1.00  0.00     0.041 A 
BRANCH  18  19
HETATM   19  C18 UNL     1      34.693  44.263   6.904  1.00  0.00     0.253 C 
HETATM   20  O2  UNL     1      34.220  44.982   6.028  1.00  0.00    -0.267 OA
HETATM   21  N5  UNL     1      35.389  43.060   6.572  1.00  0.00    -0.357 N 
HETATM   22  C19 UNL     1      35.519  42.703   5.171  1.00  0.00     0.152 C 
HETATM   23  C20 UNL     1      35.939  42.192   7.579  1.00  0.00     0.152 C 
ENDBRANCH  18  19
ENDBRANCH  10  12
ENDBRANCH   9  10
ENDBRANCH   7   9
BRANCH   1  24
HETATM   24  C5  UNL     1      29.401  48.067   6.682  1.00  0.00     0.016 A 
HETATM   25  C2  UNL     1      30.337  48.413   5.777  1.00  0.00     0.034 A 
HETATM   26  C1  UNL     1      31.651  47.735   5.626  1.00  0.00     0.070 C 
HETATM   27  N1  UNL     1      29.893  49.473   5.068  1.00  0.00    -0.303 N 
HETATM   28  N2  UNL     1      28.703  49.836   5.474  1.00  0.00    -0.307 N 
ATOM     29  H1  UNL     1      30.414  49.929   4.319  1.00  0.00     0.186 HD
HETATM   30  C3  UNL     1      27.903  50.945   4.960  1.00  0.00     0.177 C 
HETATM   31  C4  UNL     1      28.344  48.995   6.477  1.00  0.00     0.123 A 
ENDBRANCH   1  24
TORSDOF 5
ENDMDL
