MODEL 5
REMARK VINA RESULT: -7.996256088      3.250      7.838
REMARK  5 active torsions:
REMARK  status: ('A' for Active; 'I' for Inactive)
REMARK    1  A    between atoms: C5_8  and  C6_9 
REMARK    2  A    between atoms: C9_15  and  O1_16 
REMARK    3  A    between atoms: O1_16  and  C10_17 
REMARK    4  A    between atoms: C10_17  and  C12_19 
REMARK    5  A    between atoms: C17_25  and  C18_26 
REMARK       I    between atoms: C18_26  and  N5_28 
ROOT
HETATM    1  C6  UNL     1      36.362  45.943   7.430  1.00  0.00    -0.004 A 
HETATM    2  C7  UNL     1      36.569  47.282   7.087  1.00  0.00     0.101 A 
HETATM    3  N3  UNL     1      35.605  48.141   6.907  1.00  0.00    -0.351 N 
ATOM      4  H3  UNL     1      35.826  49.105   6.661  1.00  0.00     0.166 HD
HETATM    5  C8  UNL     1      34.271  47.750   7.047  1.00  0.00     0.149 A 
HETATM    6  N4  UNL     1      33.345  48.796   6.826  1.00  0.00    -0.080 NA
HETATM    7  C9  UNL     1      33.981  46.463   7.377  1.00  0.00     0.111 A 
HETATM    8  C21 UNL     1      35.084  45.530   7.576  1.00  0.00     0.054 A 
ENDROOT
BRANCH   7   9
HETATM    9  O1  UNL     1      32.794  45.908   7.554  1.00  0.00    -0.338 OA
BRANCH   9  10
HETATM   10  C10 UNL     1      31.856  45.097   6.983  1.00  0.00     0.159 C 
HETATM   11  C11 UNL     1      31.187  45.842   5.788  1.00  0.00     0.045 C 
BRANCH  10  12
HETATM   12  C12 UNL     1      30.847  44.630   7.930  1.00  0.00    -0.011 A 
HETATM   13  C13 UNL     1      29.699  45.372   8.183  1.00  0.00     0.053 A 
HETATM   14  C14 UNL     1      28.785  45.058   9.180  1.00  0.00     0.117 A 
HETATM   15  F1  UNL     1      27.695  45.853   9.366  1.00  0.00    -0.206 F 
HETATM   16  C15 UNL     1      29.019  43.960   9.965  1.00  0.00     0.043 A 
HETATM   17  C16 UNL     1      30.162  43.197   9.736  1.00  0.00     0.021 A 
HETATM   18  C17 UNL     1      31.052  43.535   8.736  1.00  0.00     0.041 A 
BRANCH  18  19
HETATM   19  C18 UNL     1      32.181  42.593   8.555  1.00  0.00     0.253 C 
HETATM   20  O2  UNL     1      32.099  41.658   7.764  1.00  0.00    -0.267 OA
HETATM   21  N5  UNL     1      33.363  42.800   9.331  1.00  0.00    -0.357 N 
HETATM   22  C19 UNL     1      34.467  41.871   9.166  1.00  0.00     0.152 C 
HETATM   23  C20 UNL     1      33.479  43.878  10.276  1.00  0.00     0.152 C 
ENDBRANCH  18  19
ENDBRANCH  10  12
ENDBRANCH   9  10
ENDBRANCH   7   9
BRANCH   1  24
HETATM   24  C5  UNL     1      37.541  45.073   7.499  1.00  0.00     0.016 A 
HETATM   25  C2  UNL     1      37.819  43.840   7.034  1.00  0.00     0.034 A 
HETATM   26  C1  UNL     1      36.854  42.982   6.297  1.00  0.00     0.070 C 
HETATM   27  N1  UNL     1      39.087  43.518   7.369  1.00  0.00    -0.303 N 
HETATM   28  N2  UNL     1      39.650  44.491   8.037  1.00  0.00    -0.307 N 
ATOM     29  H1  UNL     1      39.543  42.636   7.134  1.00  0.00     0.186 HD
HETATM   30  C3  UNL     1      41.007  44.511   8.579  1.00  0.00     0.177 C 
HETATM   31  C4  UNL     1      38.735  45.488   8.148  1.00  0.00     0.123 A 
ENDBRANCH   1  24
TORSDOF 5
ENDMDL
