MODEL 1
REMARK VINA RESULT: -8.573360274      0.000      0.000
REMARK  5 active torsions:
REMARK  status: ('A' for Active; 'I' for Inactive)
REMARK    1  A    between atoms: C5_8  and  C6_9 
REMARK    2  A    between atoms: C9_15  and  O1_16 
REMARK    3  A    between atoms: O1_16  and  C10_17 
REMARK    4  A    between atoms: C10_17  and  C12_19 
REMARK    5  A    between atoms: C17_25  and  C18_26 
REMARK       I    between atoms: C18_26  and  N5_28 
ROOT
HETATM    1  C6  UNL     1      28.731  46.116   8.442  1.00  0.00    -0.004 A 
HETATM    2  C7  UNL     1      28.162  45.603   9.611  1.00  0.00     0.101 A 
HETATM    3  N3  UNL     1      28.545  44.493  10.176  1.00  0.00    -0.351 N 
ATOM      4  H3  UNL     1      28.088  44.177  11.031  1.00  0.00     0.166 HD
HETATM    5  C8  UNL     1      29.576  43.733   9.619  1.00  0.00     0.149 A 
HETATM    6  N4  UNL     1      29.879  42.561  10.352  1.00  0.00    -0.080 NA
HETATM    7  C9  UNL     1      30.184  44.160   8.480  1.00  0.00     0.111 A 
HETATM    8  C21 UNL     1      29.734  45.408   7.877  1.00  0.00     0.054 A 
ENDROOT
BRANCH   7   9
HETATM    9  O1  UNL     1      31.168  43.585   7.809  1.00  0.00    -0.338 OA
BRANCH   9  10
HETATM   10  C10 UNL     1      32.508  43.325   7.816  1.00  0.00     0.159 C 
HETATM   11  C11 UNL     1      32.758  41.919   8.439  1.00  0.00     0.045 C 
BRANCH  10  12
HETATM   12  C12 UNL     1      33.288  44.345   8.513  1.00  0.00    -0.011 A 
HETATM   13  C13 UNL     1      33.600  44.216   9.861  1.00  0.00     0.053 A 
HETATM   14  C14 UNL     1      34.200  45.218  10.610  1.00  0.00     0.117 A 
HETATM   15  F1  UNL     1      34.454  45.009  11.931  1.00  0.00    -0.206 F 
HETATM   16  C15 UNL     1      34.505  46.405   9.997  1.00  0.00     0.043 A 
HETATM   17  C16 UNL     1      34.203  46.565   8.646  1.00  0.00     0.021 A 
HETATM   18  C17 UNL     1      33.606  45.548   7.928  1.00  0.00     0.041 A 
BRANCH  18  19
HETATM   19  C18 UNL     1      33.413  45.827   6.486  1.00  0.00     0.253 C 
HETATM   20  O2  UNL     1      32.422  46.435   6.091  1.00  0.00    -0.267 OA
HETATM   21  N5  UNL     1      34.407  45.364   5.569  1.00  0.00    -0.357 N 
HETATM   22  C19 UNL     1      34.214  45.625   4.154  1.00  0.00     0.152 C 
HETATM   23  C20 UNL     1      35.569  44.638   6.004  1.00  0.00     0.152 C 
ENDBRANCH  18  19
ENDBRANCH  10  12
ENDBRANCH   9  10
ENDBRANCH   7   9
BRANCH   1  24
HETATM   24  C5  UNL     1      28.127  47.324   7.869  1.00  0.00     0.016 A 
HETATM   25  C2  UNL     1      28.624  48.412   7.249  1.00  0.00     0.034 A 
HETATM   26  C1  UNL     1      30.072  48.666   7.030  1.00  0.00     0.070 C 
HETATM   27  N1  UNL     1      27.603  49.223   6.898  1.00  0.00    -0.303 N 
HETATM   28  N2  UNL     1      26.457  48.709   7.262  1.00  0.00    -0.307 N 
ATOM     29  H1  UNL     1      27.710  50.114   6.414  1.00  0.00     0.186 HD
HETATM   30  C3  UNL     1      25.132  49.295   7.067  1.00  0.00     0.177 C 
HETATM   31  C4  UNL     1      26.719  47.524   7.871  1.00  0.00     0.123 A 
ENDBRANCH   1  24
TORSDOF 5
ENDMDL
