MODEL 6
REMARK VINA RESULT: -7.963506067      3.176      7.420
REMARK  5 active torsions:
REMARK  status: ('A' for Active; 'I' for Inactive)
REMARK    1  A    between atoms: C5_8  and  C6_9 
REMARK    2  A    between atoms: C9_15  and  O1_16 
REMARK    3  A    between atoms: O1_16  and  C10_17 
REMARK    4  A    between atoms: C10_17  and  C12_19 
REMARK    5  A    between atoms: C17_25  and  C18_26 
REMARK       I    between atoms: C18_26  and  N5_28 
ROOT
HETATM    1  C6  UNL     1      35.768  47.185   7.040  1.00  0.00    -0.004 A 
HETATM    2  C7  UNL     1      35.480  48.551   6.983  1.00  0.00     0.101 A 
HETATM    3  N3  UNL     1      34.290  49.048   7.175  1.00  0.00    -0.351 N 
ATOM      4  H3  UNL     1      34.149  50.057   7.122  1.00  0.00     0.166 HD
HETATM    5  C8  UNL     1      33.207  48.211   7.452  1.00  0.00     0.149 A 
HETATM    6  N4  UNL     1      31.987  48.902   7.640  1.00  0.00    -0.080 NA
HETATM    7  C9  UNL     1      33.401  46.867   7.523  1.00  0.00     0.111 A 
HETATM    8  C21 UNL     1      34.745  46.345   7.308  1.00  0.00     0.054 A 
ENDROOT
BRANCH   7   9
HETATM    9  O1  UNL     1      32.511  45.921   7.771  1.00  0.00    -0.338 OA
BRANCH   9  10
HETATM   10  C10 UNL     1      31.613  45.068   7.196  1.00  0.00     0.159 C 
HETATM   11  C11 UNL     1      30.843  45.813   6.065  1.00  0.00     0.045 C 
BRANCH  10  12
HETATM   12  C12 UNL     1      30.681  44.481   8.156  1.00  0.00    -0.011 A 
HETATM   13  C13 UNL     1      29.487  45.115   8.480  1.00  0.00     0.053 A 
HETATM   14  C14 UNL     1      28.640  44.687   9.492  1.00  0.00     0.117 A 
HETATM   15  F1  UNL     1      27.497  45.381   9.750  1.00  0.00    -0.206 F 
HETATM   16  C15 UNL     1      28.991  43.581  10.221  1.00  0.00     0.043 A 
HETATM   17  C16 UNL     1      30.183  42.925   9.920  1.00  0.00     0.021 A 
HETATM   18  C17 UNL     1      31.005  43.375   8.906  1.00  0.00     0.041 A 
BRANCH  18  19
HETATM   19  C18 UNL     1      32.199  42.538   8.647  1.00  0.00     0.253 C 
HETATM   20  O2  UNL     1      32.147  41.597   7.860  1.00  0.00    -0.267 OA
HETATM   21  N5  UNL     1      33.408  42.852   9.342  1.00  0.00    -0.357 N 
HETATM   22  C19 UNL     1      34.576  42.026   9.099  1.00  0.00     0.152 C 
HETATM   23  C20 UNL     1      33.490  43.940  10.279  1.00  0.00     0.152 C 
ENDBRANCH  18  19
ENDBRANCH  10  12
ENDBRANCH   9  10
ENDBRANCH   7   9
BRANCH   1  24
HETATM   24  C5  UNL     1      37.134  46.767   6.702  1.00  0.00     0.016 A 
HETATM   25  C2  UNL     1      38.101  46.110   7.371  1.00  0.00     0.034 A 
HETATM   26  C1  UNL     1      37.985  45.653   8.781  1.00  0.00     0.070 C 
HETATM   27  N1  UNL     1      39.175  45.969   6.565  1.00  0.00    -0.303 N 
HETATM   28  N2  UNL     1      38.950  46.507   5.395  1.00  0.00    -0.307 N 
ATOM     29  H1  UNL     1      40.043  45.505   6.833  1.00  0.00     0.186 HD
HETATM   30  C3  UNL     1      39.875  46.565   4.265  1.00  0.00     0.177 C 
HETATM   31  C4  UNL     1      37.693  47.020   5.420  1.00  0.00     0.123 A 
ENDBRANCH   1  24
TORSDOF 5
ENDMDL
