MODEL 2
REMARK VINA RESULT: -8.257373383      1.266      1.650
REMARK  5 active torsions:
REMARK  status: ('A' for Active; 'I' for Inactive)
REMARK    1  A    between atoms: C5_8  and  C6_9 
REMARK    2  A    between atoms: C9_15  and  O1_16 
REMARK    3  A    between atoms: O1_16  and  C10_17 
REMARK    4  A    between atoms: C10_17  and  C12_19 
REMARK    5  A    between atoms: C17_25  and  C18_26 
REMARK       I    between atoms: C18_26  and  N5_28 
ROOT
HETATM    1  C6  UNL     1      29.241  47.354   7.751  1.00  0.00    -0.004 A 
HETATM    2  C7  UNL     1      28.141  47.310   8.613  1.00  0.00     0.101 A 
HETATM    3  N3  UNL     1      27.876  46.303   9.397  1.00  0.00    -0.351 N 
ATOM      4  H3  UNL     1      27.058  46.337  10.004  1.00  0.00     0.166 HD
HETATM    5  C8  UNL     1      28.704  45.179   9.412  1.00  0.00     0.149 A 
HETATM    6  N4  UNL     1      28.287  44.176  10.319  1.00  0.00    -0.080 NA
HETATM    7  C9  UNL     1      29.796  45.139   8.602  1.00  0.00     0.111 A 
HETATM    8  C21 UNL     1      30.065  46.284   7.741  1.00  0.00     0.054 A 
ENDROOT
BRANCH   7   9
HETATM    9  O1  UNL     1      30.690  44.173   8.475  1.00  0.00    -0.338 OA
BRANCH   9  10
HETATM   10  C10 UNL     1      31.910  43.856   7.951  1.00  0.00     0.159 C 
HETATM   11  C11 UNL     1      32.139  42.319   8.068  1.00  0.00     0.045 C 
BRANCH  10  12
HETATM   12  C12 UNL     1      33.010  44.591   8.570  1.00  0.00    -0.011 A 
HETATM   13  C13 UNL     1      33.311  44.437   9.918  1.00  0.00     0.053 A 
HETATM   14  C14 UNL     1      34.238  45.218  10.593  1.00  0.00     0.117 A 
HETATM   15  F1  UNL     1      34.457  45.006  11.920  1.00  0.00    -0.206 F 
HETATM   16  C15 UNL     1      34.899  46.200   9.902  1.00  0.00     0.043 A 
HETATM   17  C16 UNL     1      34.619  46.379   8.549  1.00  0.00     0.021 A 
HETATM   18  C17 UNL     1      33.690  45.585   7.906  1.00  0.00     0.041 A 
BRANCH  18  19
HETATM   19  C18 UNL     1      33.549  45.836   6.453  1.00  0.00     0.253 C 
HETATM   20  O2  UNL     1      32.772  46.691   6.036  1.00  0.00    -0.267 OA
HETATM   21  N5  UNL     1      34.334  45.052   5.552  1.00  0.00    -0.357 N 
HETATM   22  C19 UNL     1      34.188  45.287   4.127  1.00  0.00     0.152 C 
HETATM   23  C20 UNL     1      35.239  44.034   6.014  1.00  0.00     0.152 C 
ENDBRANCH  18  19
ENDBRANCH  10  12
ENDBRANCH   9  10
ENDBRANCH   7   9
BRANCH   1  24
HETATM   24  C5  UNL     1      29.352  48.511   6.855  1.00  0.00     0.016 A 
HETATM   25  C2  UNL     1      30.341  49.380   6.572  1.00  0.00     0.034 A 
HETATM   26  C1  UNL     1      31.678  49.372   7.222  1.00  0.00     0.070 C 
HETATM   27  N1  UNL     1      29.906  50.254   5.639  1.00  0.00    -0.303 N 
HETATM   28  N2  UNL     1      28.671  49.992   5.300  1.00  0.00    -0.307 N 
ATOM     29  H1  UNL     1      30.464  51.015   5.252  1.00  0.00     0.186 HD
HETATM   30  C3  UNL     1      27.854  50.721   4.331  1.00  0.00     0.177 C 
HETATM   31  C4  UNL     1      28.272  48.914   6.024  1.00  0.00     0.123 A 
ENDBRANCH   1  24
TORSDOF 5
ENDMDL
