MODEL 4
REMARK VINA RESULT: -8.038529378      2.292      4.221
REMARK  5 active torsions:
REMARK  status: ('A' for Active; 'I' for Inactive)
REMARK    1  A    between atoms: C5_8  and  C6_9 
REMARK    2  A    between atoms: C9_15  and  O1_16 
REMARK    3  A    between atoms: O1_16  and  C10_17 
REMARK    4  A    between atoms: C10_17  and  C12_19 
REMARK    5  A    between atoms: C17_25  and  C18_26 
REMARK       I    between atoms: C18_26  and  N5_28 
ROOT
HETATM    1  C6  UNL     1      29.984  48.481   6.612  1.00  0.00    -0.004 A 
HETATM    2  C7  UNL     1      30.317  49.832   6.736  1.00  0.00     0.101 A 
HETATM    3  N3  UNL     1      31.456  50.335   6.350  1.00  0.00    -0.351 N 
ATOM      4  H3  UNL     1      31.634  51.332   6.467  1.00  0.00     0.166 HD
HETATM    5  C8  UNL     1      32.435  49.519   5.779  1.00  0.00     0.149 A 
HETATM    6  N4  UNL     1      33.611  50.213   5.408  1.00  0.00    -0.080 NA
HETATM    7  C9  UNL     1      32.192  48.189   5.623  1.00  0.00     0.111 A 
HETATM    8  C21 UNL     1      30.906  47.661   6.061  1.00  0.00     0.054 A 
ENDROOT
BRANCH   7   9
HETATM    9  O1  UNL     1      32.985  47.265   5.109  1.00  0.00    -0.338 OA
BRANCH   9  10
HETATM   10  C10 UNL     1      33.945  46.340   5.406  1.00  0.00     0.159 C 
HETATM   11  C11 UNL     1      34.024  45.290   4.257  1.00  0.00     0.045 C 
BRANCH  10  12
HETATM   12  C12 UNL     1      33.730  45.682   6.693  1.00  0.00    -0.011 A 
HETATM   13  C13 UNL     1      32.796  44.663   6.834  1.00  0.00     0.053 A 
HETATM   14  C14 UNL     1      32.440  44.110   8.055  1.00  0.00     0.117 A 
HETATM   15  F1  UNL     1      31.502  43.124   8.099  1.00  0.00    -0.206 F 
HETATM   16  C15 UNL     1      33.035  44.589   9.193  1.00  0.00     0.043 A 
HETATM   17  C16 UNL     1      33.975  45.612   9.084  1.00  0.00     0.021 A 
HETATM   18  C17 UNL     1      34.308  46.141   7.853  1.00  0.00     0.041 A 
BRANCH  18  19
HETATM   19  C18 UNL     1      35.375  47.167   7.879  1.00  0.00     0.253 C 
HETATM   20  O2  UNL     1      35.101  48.355   8.027  1.00  0.00    -0.267 OA
HETATM   21  N5  UNL     1      36.729  46.739   7.721  1.00  0.00    -0.357 N 
HETATM   22  C19 UNL     1      37.777  47.744   7.733  1.00  0.00     0.152 C 
HETATM   23  C20 UNL     1      37.076  45.356   7.531  1.00  0.00     0.152 C 
ENDBRANCH  18  19
ENDBRANCH  10  12
ENDBRANCH   9  10
ENDBRANCH   7   9
BRANCH   1  24
HETATM   24  C5  UNL     1      28.705  48.044   7.184  1.00  0.00     0.016 A 
HETATM   25  C2  UNL     1      28.349  47.056   8.027  1.00  0.00     0.034 A 
HETATM   26  C1  UNL     1      29.290  46.051   8.590  1.00  0.00     0.070 C 
HETATM   27  N1  UNL     1      27.017  47.120   8.244  1.00  0.00    -0.303 N 
HETATM   28  N2  UNL     1      26.487  48.111   7.575  1.00  0.00    -0.307 N 
ATOM     29  H1  UNL     1      26.497  46.482   8.846  1.00  0.00     0.186 HD
HETATM   30  C3  UNL     1      25.077  48.492   7.545  1.00  0.00     0.177 C 
HETATM   31  C4  UNL     1      27.491  48.725   6.897  1.00  0.00     0.123 A 
ENDBRANCH   1  24
TORSDOF 5
ENDMDL
