MODEL 10
REMARK VINA RESULT: -6.391404326      2.119      5.485
REMARK  15 active torsions:
REMARK  status: ('A' for Active; 'I' for Inactive)
REMARK       I    between atoms: C2_2  and  N1_4 
REMARK    1  A    between atoms: N1_4  and  C3_6 
REMARK    2  A    between atoms: C3_6  and  C4_7 
REMARK    3  A    between atoms: C3_6  and  C8_17 
REMARK    4  A    between atoms: C4_7  and  O2_8 
REMARK    5  A    between atoms: C4_7  and  C5_10 
REMARK    6  A    between atoms: C5_10  and  C6_11 
REMARK    7  A    between atoms: C6_11  and  O3_12 
REMARK    8  A    between atoms: C6_11  and  C7_14 
REMARK    9  A    between atoms: C8_17  and  O6_18 
REMARK   10  A    between atoms: C8_17  and  C9_20 
REMARK   11  A    between atoms: C9_20  and  O7_21 
REMARK   12  A    between atoms: C9_20  and  C10_23 
REMARK   13  A    between atoms: C10_23  and  O8_24 
REMARK   14  A    between atoms: C10_23  and  C11_26 
REMARK   15  A    between atoms: C11_26  and  O9_27 
ROOT
HETATM    1  C3  UNL     1      31.830 -21.197 -16.589  1.00  0.00     0.144 C 
ENDROOT
BRANCH   1   2
HETATM    2  N1  UNL     1      31.939 -19.751 -16.412  1.00  0.00    -0.352 N 
HETATM    3  C2  UNL     1      31.155 -19.074 -15.405  1.00  0.00     0.214 C 
HETATM    4  C1  UNL     1      31.262 -17.605 -15.222  1.00  0.00     0.117 C 
HETATM    5  O1  UNL     1      30.392 -19.791 -14.709  1.00  0.00    -0.274 OA
ATOM      6  H1  UNL     1      32.574 -19.215 -17.005  1.00  0.00     0.163 HD
ENDBRANCH   1   2
BRANCH   1   7
HETATM    7  C4  UNL     1      33.073 -21.846 -15.985  1.00  0.00     0.146 C 
BRANCH   7   8
HETATM    8  O2  UNL     1      32.729 -22.582 -14.850  1.00  0.00    -0.393 OA
ATOM      9  H2  UNL     1      33.220 -22.274 -14.098  1.00  0.00     0.210 HD
ENDBRANCH   7   8
BRANCH   7  10
HETATM   10  C5  UNL     1      33.921 -22.600 -16.924  1.00  0.00     0.076 C 
BRANCH  10  11
HETATM   11  C6  UNL     1      35.408 -22.298 -16.746  1.00  0.00     0.221 C 
BRANCH  11  12
HETATM   12  O3  UNL     1      35.691 -21.747 -15.528  1.00  0.00    -0.385 OA
ATOM     13  H3  UNL     1      36.093 -20.889 -15.599  1.00  0.00     0.210 HD
ENDBRANCH  11  12
BRANCH  11  14
HETATM   14  C7  UNL     1      35.847 -21.460 -17.886  1.00  0.00     0.203 C 
HETATM   15  O4  UNL     1      35.020 -21.231 -18.801  1.00  0.00    -0.646 OA
HETATM   16  O5  UNL     1      37.112 -20.914 -18.010  1.00  0.00    -0.646 OA
ENDBRANCH  11  14
ENDBRANCH  10  11
ENDBRANCH   7  10
ENDBRANCH   1   7
BRANCH   1  17
HETATM   17  C8  UNL     1      31.533 -21.620 -17.984  1.00  0.00     0.174 C 
BRANCH  17  18
HETATM   18  O6  UNL     1      30.599 -22.689 -17.869  1.00  0.00    -0.391 OA
ATOM     19  H6  UNL     1      31.120 -23.483 -17.862  1.00  0.00     0.210 HD
ENDBRANCH  17  18
BRANCH  17  20
HETATM   20  C9  UNL     1      30.860 -20.616 -18.855  1.00  0.00     0.179 C 
BRANCH  20  21
HETATM   21  O7  UNL     1      29.465 -20.860 -18.912  1.00  0.00    -0.390 OA
ATOM     22  H7  UNL     1      29.181 -20.972 -19.811  1.00  0.00     0.210 HD
ENDBRANCH  20  21
BRANCH  20  23
HETATM   23  C10 UNL     1      31.298 -20.611 -20.296  1.00  0.00     0.173 C 
BRANCH  23  24
HETATM   24  O8  UNL     1      32.407 -21.494 -20.345  1.00  0.00    -0.391 OA
ATOM     25  H8  UNL     1      33.134 -20.995 -19.990  1.00  0.00     0.210 HD
ENDBRANCH  23  24
BRANCH  23  26
HETATM   26  C11 UNL     1      31.811 -19.273 -20.752  1.00  0.00     0.198 C 
BRANCH  26  27
HETATM   27  O9  UNL     1      31.044 -18.296 -20.102  1.00  0.00    -0.398 OA
ATOM     28  H9  UNL     1      30.867 -18.620 -19.226  1.00  0.00     0.209 HD
ENDBRANCH  26  27
ENDBRANCH  23  26
ENDBRANCH  20  23
ENDBRANCH  17  20
ENDBRANCH   1  17
TORSDOF 15
ENDMDL
