MODEL 11
REMARK VINA RESULT: -6.383566523      2.034      5.538
REMARK  15 active torsions:
REMARK  status: ('A' for Active; 'I' for Inactive)
REMARK       I    between atoms: C2_2  and  N1_4 
REMARK    1  A    between atoms: N1_4  and  C3_6 
REMARK    2  A    between atoms: C3_6  and  C4_7 
REMARK    3  A    between atoms: C3_6  and  C8_17 
REMARK    4  A    between atoms: C4_7  and  O2_8 
REMARK    5  A    between atoms: C4_7  and  C5_10 
REMARK    6  A    between atoms: C5_10  and  C6_11 
REMARK    7  A    between atoms: C6_11  and  O3_12 
REMARK    8  A    between atoms: C6_11  and  C7_14 
REMARK    9  A    between atoms: C8_17  and  O6_18 
REMARK   10  A    between atoms: C8_17  and  C9_20 
REMARK   11  A    between atoms: C9_20  and  O7_21 
REMARK   12  A    between atoms: C9_20  and  C10_23 
REMARK   13  A    between atoms: C10_23  and  O8_24 
REMARK   14  A    between atoms: C10_23  and  C11_26 
REMARK   15  A    between atoms: C11_26  and  O9_27 
ROOT
HETATM    1  C3  UNL     1      31.045 -18.811 -16.902  1.00  0.00     0.144 C 
ENDROOT
BRANCH   1   2
HETATM    2  N1  UNL     1      29.839 -18.494 -16.140  1.00  0.00    -0.352 N 
HETATM    3  C2  UNL     1      28.535 -18.852 -16.648  1.00  0.00     0.214 C 
HETATM    4  C1  UNL     1      27.307 -18.532 -15.878  1.00  0.00     0.117 C 
HETATM    5  O1  UNL     1      28.505 -19.438 -17.760  1.00  0.00    -0.274 OA
ATOM      6  H1  UNL     1      29.918 -18.016 -15.241  1.00  0.00     0.163 HD
ENDBRANCH   1   2
BRANCH   1   7
HETATM    7  C4  UNL     1      31.797 -19.916 -16.165  1.00  0.00     0.146 C 
BRANCH   7   8
HETATM    8  O2  UNL     1      31.841 -19.638 -14.797  1.00  0.00    -0.393 OA
ATOM      9  H2  UNL     1      31.826 -20.446 -14.299  1.00  0.00     0.210 HD
ENDBRANCH   7   8
BRANCH   7  10
HETATM   10  C5  UNL     1      31.362 -21.292 -16.458  1.00  0.00     0.076 C 
BRANCH  10  11
HETATM   11  C6  UNL     1      31.444 -21.630 -17.946  1.00  0.00     0.221 C 
BRANCH  11  12
HETATM   12  O3  UNL     1      30.240 -21.509 -18.581  1.00  0.00    -0.385 OA
ATOM     13  H3  UNL     1      30.317 -21.101 -19.435  1.00  0.00     0.210 HD
ENDBRANCH  11  12
BRANCH  11  14
HETATM   14  C7  UNL     1      32.046 -22.976 -18.079  1.00  0.00     0.203 C 
HETATM   15  O4  UNL     1      31.795 -23.632 -19.119  1.00  0.00    -0.646 OA
HETATM   16  O5  UNL     1      32.868 -23.561 -17.133  1.00  0.00    -0.646 OA
ENDBRANCH  11  14
ENDBRANCH  10  11
ENDBRANCH   7  10
ENDBRANCH   1   7
BRANCH   1  17
HETATM   17  C8  UNL     1      31.877 -17.626 -17.246  1.00  0.00     0.174 C 
BRANCH  17  18
HETATM   18  O6  UNL     1      33.225 -18.084 -17.216  1.00  0.00    -0.391 OA
ATOM     19  H6  UNL     1      33.722 -17.449 -17.718  1.00  0.00     0.210 HD
ENDBRANCH  17  18
BRANCH  17  20
HETATM   20  C9  UNL     1      31.697 -17.061 -18.613  1.00  0.00     0.179 C 
BRANCH  20  21
HETATM   21  O7  UNL     1      30.330 -17.090 -18.988  1.00  0.00    -0.390 OA
ATOM     22  H7  UNL     1      30.243 -17.185 -19.929  1.00  0.00     0.210 HD
ENDBRANCH  20  21
BRANCH  20  23
HETATM   23  C10 UNL     1      32.404 -17.799 -19.718  1.00  0.00     0.173 C 
BRANCH  23  24
HETATM   24  O8  UNL     1      33.391 -16.895 -20.189  1.00  0.00    -0.391 OA
ATOM     25  H8  UNL     1      33.049 -16.566 -21.012  1.00  0.00     0.210 HD
ENDBRANCH  23  24
BRANCH  23  26
HETATM   26  C11 UNL     1      31.515 -18.095 -20.895  1.00  0.00     0.198 C 
BRANCH  26  27
HETATM   27  O9  UNL     1      30.930 -19.347 -20.662  1.00  0.00    -0.398 OA
ATOM     28  H9  UNL     1      31.257 -19.935 -21.333  1.00  0.00     0.209 HD
ENDBRANCH  26  27
ENDBRANCH  23  26
ENDBRANCH  20  23
ENDBRANCH  17  20
ENDBRANCH   1  17
TORSDOF 15
ENDMDL
