MODEL 2
REMARK VINA RESULT: -6.867317009      1.655      2.177
REMARK  15 active torsions:
REMARK  status: ('A' for Active; 'I' for Inactive)
REMARK       I    between atoms: C2_2  and  N1_4 
REMARK    1  A    between atoms: N1_4  and  C3_6 
REMARK    2  A    between atoms: C3_6  and  C4_7 
REMARK    3  A    between atoms: C3_6  and  C8_17 
REMARK    4  A    between atoms: C4_7  and  O2_8 
REMARK    5  A    between atoms: C4_7  and  C5_10 
REMARK    6  A    between atoms: C5_10  and  C6_11 
REMARK    7  A    between atoms: C6_11  and  O3_12 
REMARK    8  A    between atoms: C6_11  and  C7_14 
REMARK    9  A    between atoms: C8_17  and  O6_18 
REMARK   10  A    between atoms: C8_17  and  C9_20 
REMARK   11  A    between atoms: C9_20  and  O7_21 
REMARK   12  A    between atoms: C9_20  and  C10_23 
REMARK   13  A    between atoms: C10_23  and  O8_24 
REMARK   14  A    between atoms: C10_23  and  C11_26 
REMARK   15  A    between atoms: C11_26  and  O9_27 
ROOT
HETATM    1  C3  UNL     1      31.861 -20.830 -16.470  1.00  0.00     0.144 C 
ENDROOT
BRANCH   1   2
HETATM    2  N1  UNL     1      31.998 -20.337 -17.839  1.00  0.00    -0.352 N 
HETATM    3  C2  UNL     1      31.136 -20.833 -18.886  1.00  0.00     0.214 C 
HETATM    4  C1  UNL     1      31.271 -20.336 -20.278  1.00  0.00     0.117 C 
HETATM    5  O1  UNL     1      30.282 -21.694 -18.553  1.00  0.00    -0.274 OA
ATOM      6  H1  UNL     1      32.708 -19.637 -18.057  1.00  0.00     0.163 HD
ENDBRANCH   1   2
BRANCH   1   7
HETATM    7  C4  UNL     1      31.376 -19.677 -15.595  1.00  0.00     0.146 C 
BRANCH   7   8
HETATM    8  O2  UNL     1      32.111 -18.522 -15.871  1.00  0.00    -0.393 OA
ATOM      9  H2  UNL     1      31.550 -17.757 -15.818  1.00  0.00     0.210 HD
ENDBRANCH   7   8
BRANCH   7  10
HETATM   10  C5  UNL     1      29.922 -19.445 -15.589  1.00  0.00     0.076 C 
BRANCH  10  11
HETATM   11  C6  UNL     1      29.542 -18.080 -16.158  1.00  0.00     0.221 C 
BRANCH  11  12
HETATM   12  O3  UNL     1      29.499 -17.104 -15.202  1.00  0.00    -0.385 OA
ATOM     13  H3  UNL     1      29.244 -16.259 -15.552  1.00  0.00     0.210 HD
ENDBRANCH  11  12
BRANCH  11  14
HETATM   14  C7  UNL     1      28.270 -18.228 -16.902  1.00  0.00     0.203 C 
HETATM   15  O4  UNL     1      27.969 -17.339 -17.735  1.00  0.00    -0.646 OA
HETATM   16  O5  UNL     1      27.389 -19.282 -16.740  1.00  0.00    -0.646 OA
ENDBRANCH  11  14
ENDBRANCH  10  11
ENDBRANCH   7  10
ENDBRANCH   1   7
BRANCH   1  17
HETATM   17  C8  UNL     1      33.068 -21.529 -15.950  1.00  0.00     0.174 C 
BRANCH  17  18
HETATM   18  O6  UNL     1      32.626 -22.256 -14.808  1.00  0.00    -0.391 OA
ATOM     19  H6  UNL     1      33.386 -22.738 -14.503  1.00  0.00     0.210 HD
ENDBRANCH  17  18
BRANCH  17  20
HETATM   20  C9  UNL     1      33.679 -22.553 -16.842  1.00  0.00     0.179 C 
BRANCH  20  21
HETATM   21  O7  UNL     1      32.693 -23.457 -17.313  1.00  0.00    -0.390 OA
ATOM     22  H7  UNL     1      32.540 -23.332 -18.243  1.00  0.00     0.210 HD
ENDBRANCH  20  21
BRANCH  20  23
HETATM   23  C10 UNL     1      34.718 -23.435 -16.201  1.00  0.00     0.173 C 
BRANCH  23  24
HETATM   24  O8  UNL     1      35.554 -22.546 -15.475  1.00  0.00    -0.391 OA
ATOM     25  H8  UNL     1      35.631 -22.934 -14.611  1.00  0.00     0.210 HD
ENDBRANCH  23  24
BRANCH  23  26
HETATM   26  C11 UNL     1      35.609 -24.121 -17.200  1.00  0.00     0.198 C 
BRANCH  26  27
HETATM   27  O9  UNL     1      36.440 -23.137 -17.751  1.00  0.00    -0.398 OA
ATOM     28  H9  UNL     1      36.844 -23.515 -18.523  1.00  0.00     0.209 HD
ENDBRANCH  26  27
ENDBRANCH  23  26
ENDBRANCH  20  23
ENDBRANCH  17  20
ENDBRANCH   1  17
TORSDOF 15
ENDMDL
