MODEL 7
REMARK VINA RESULT: -6.492270990      1.829      2.447
REMARK  15 active torsions:
REMARK  status: ('A' for Active; 'I' for Inactive)
REMARK       I    between atoms: C2_2  and  N1_4 
REMARK    1  A    between atoms: N1_4  and  C3_6 
REMARK    2  A    between atoms: C3_6  and  C4_7 
REMARK    3  A    between atoms: C3_6  and  C8_17 
REMARK    4  A    between atoms: C4_7  and  O2_8 
REMARK    5  A    between atoms: C4_7  and  C5_10 
REMARK    6  A    between atoms: C5_10  and  C6_11 
REMARK    7  A    between atoms: C6_11  and  O3_12 
REMARK    8  A    between atoms: C6_11  and  C7_14 
REMARK    9  A    between atoms: C8_17  and  O6_18 
REMARK   10  A    between atoms: C8_17  and  C9_20 
REMARK   11  A    between atoms: C9_20  and  O7_21 
REMARK   12  A    between atoms: C9_20  and  C10_23 
REMARK   13  A    between atoms: C10_23  and  O8_24 
REMARK   14  A    between atoms: C10_23  and  C11_26 
REMARK   15  A    between atoms: C11_26  and  O9_27 
ROOT
HETATM    1  C3  UNL     1      32.480 -20.454 -17.836  1.00  0.00     0.144 C 
ENDROOT
BRANCH   1   2
HETATM    2  N1  UNL     1      32.493 -19.626 -19.040  1.00  0.00    -0.352 N 
HETATM    3  C2  UNL     1      31.440 -19.744 -20.022  1.00  0.00     0.214 C 
HETATM    4  C1  UNL     1      31.448 -18.906 -21.247  1.00  0.00     0.117 C 
HETATM    5  O1  UNL     1      30.535 -20.584 -19.780  1.00  0.00    -0.274 OA
ATOM      6  H1  UNL     1      33.251 -18.959 -19.188  1.00  0.00     0.163 HD
ENDBRANCH   1   2
BRANCH   1   7
HETATM    7  C4  UNL     1      32.034 -19.583 -16.664  1.00  0.00     0.146 C 
BRANCH   7   8
HETATM    8  O2  UNL     1      32.607 -18.313 -16.764  1.00  0.00    -0.393 OA
ATOM      9  H2  UNL     1      32.328 -17.771 -16.035  1.00  0.00     0.210 HD
ENDBRANCH   7   8
BRANCH   7  10
HETATM   10  C5  UNL     1      30.584 -19.541 -16.413  1.00  0.00     0.076 C 
BRANCH  10  11
HETATM   11  C6  UNL     1      29.989 -18.151 -16.632  1.00  0.00     0.221 C 
BRANCH  11  12
HETATM   12  O3  UNL     1      30.018 -17.381 -15.504  1.00  0.00    -0.385 OA
ATOM     13  H3  UNL     1      29.525 -16.575 -15.598  1.00  0.00     0.210 HD
ENDBRANCH  11  12
BRANCH  11  14
HETATM   14  C7  UNL     1      28.629 -18.315 -17.196  1.00  0.00     0.203 C 
HETATM   15  O4  UNL     1      28.236 -19.479 -17.452  1.00  0.00    -0.646 OA
HETATM   16  O5  UNL     1      27.762 -17.270 -17.460  1.00  0.00    -0.646 OA
ENDBRANCH  11  14
ENDBRANCH  10  11
ENDBRANCH   7  10
ENDBRANCH   1   7
BRANCH   1  17
HETATM   17  C8  UNL     1      33.743 -21.203 -17.598  1.00  0.00     0.174 C 
BRANCH  17  18
HETATM   18  O6  UNL     1      34.760 -20.212 -17.488  1.00  0.00    -0.391 OA
ATOM     19  H6  UNL     1      35.583 -20.681 -17.556  1.00  0.00     0.210 HD
ENDBRANCH  17  18
BRANCH  17  20
HETATM   20  C9  UNL     1      33.828 -21.979 -16.329  1.00  0.00     0.179 C 
BRANCH  20  21
HETATM   21  O7  UNL     1      34.964 -21.585 -15.578  1.00  0.00    -0.390 OA
ATOM     22  H7  UNL     1      34.715 -21.353 -14.691  1.00  0.00     0.210 HD
ENDBRANCH  20  21
BRANCH  20  23
HETATM   23  C10 UNL     1      33.982 -23.468 -16.489  1.00  0.00     0.173 C 
BRANCH  23  24
HETATM   24  O8  UNL     1      33.547 -24.016 -15.255  1.00  0.00    -0.391 OA
ATOM     25  H8  UNL     1      32.899 -23.402 -14.929  1.00  0.00     0.210 HD
ENDBRANCH  23  24
BRANCH  23  26
HETATM   26  C11 UNL     1      35.413 -23.899 -16.654  1.00  0.00     0.198 C 
BRANCH  26  27
HETATM   27  O9  UNL     1      35.883 -24.254 -15.382  1.00  0.00    -0.398 OA
ATOM     28  H9  UNL     1      35.126 -24.504 -14.866  1.00  0.00     0.209 HD
ENDBRANCH  26  27
ENDBRANCH  23  26
ENDBRANCH  20  23
ENDBRANCH  17  20
ENDBRANCH   1  17
TORSDOF 15
ENDMDL
