MODEL 4
REMARK VINA RESULT: -6.658654242      1.673      2.407
REMARK  15 active torsions:
REMARK  status: ('A' for Active; 'I' for Inactive)
REMARK       I    between atoms: C2_2  and  N1_4 
REMARK    1  A    between atoms: N1_4  and  C3_6 
REMARK    2  A    between atoms: C3_6  and  C4_7 
REMARK    3  A    between atoms: C3_6  and  C8_17 
REMARK    4  A    between atoms: C4_7  and  O2_8 
REMARK    5  A    between atoms: C4_7  and  C5_10 
REMARK    6  A    between atoms: C5_10  and  C6_11 
REMARK    7  A    between atoms: C6_11  and  O3_12 
REMARK    8  A    between atoms: C6_11  and  C7_14 
REMARK    9  A    between atoms: C8_17  and  O6_18 
REMARK   10  A    between atoms: C8_17  and  C9_20 
REMARK   11  A    between atoms: C9_20  and  O7_21 
REMARK   12  A    between atoms: C9_20  and  C10_23 
REMARK   13  A    between atoms: C10_23  and  O8_24 
REMARK   14  A    between atoms: C10_23  and  C11_26 
REMARK   15  A    between atoms: C11_26  and  O9_27 
ROOT
HETATM    1  C3  UNL     1      32.044 -21.156 -16.730  1.00  0.00     0.144 C 
ENDROOT
BRANCH   1   2
HETATM    2  N1  UNL     1      32.372 -20.847 -18.121  1.00  0.00    -0.352 N 
HETATM    3  C2  UNL     1      31.953 -21.728 -19.186  1.00  0.00     0.214 C 
HETATM    4  C1  UNL     1      32.283 -21.419 -20.600  1.00  0.00     0.117 C 
HETATM    5  O1  UNL     1      31.305 -22.752 -18.849  1.00  0.00    -0.274 OA
ATOM      6  H1  UNL     1      32.900 -20.002 -18.341  1.00  0.00     0.163 HD
ENDBRANCH   1   2
BRANCH   1   7
HETATM    7  C4  UNL     1      31.390 -19.924 -16.110  1.00  0.00     0.146 C 
BRANCH   7   8
HETATM    8  O2  UNL     1      31.989 -19.628 -14.884  1.00  0.00    -0.393 OA
ATOM      9  H2  UNL     1      31.409 -19.091 -14.358  1.00  0.00     0.210 HD
ENDBRANCH   7   8
BRANCH   7  10
HETATM   10  C5  UNL     1      31.274 -18.750 -16.991  1.00  0.00     0.076 C 
BRANCH  10  11
HETATM   11  C6  UNL     1      29.891 -18.105 -16.932  1.00  0.00     0.221 C 
BRANCH  11  12
HETATM   12  O3  UNL     1      29.602 -17.588 -15.701  1.00  0.00    -0.385 OA
ATOM     13  H3  UNL     1      28.692 -17.329 -15.617  1.00  0.00     0.210 HD
ENDBRANCH  11  12
BRANCH  11  14
HETATM   14  C7  UNL     1      28.898 -19.101 -17.398  1.00  0.00     0.203 C 
HETATM   15  O4  UNL     1      27.719 -18.993 -16.985  1.00  0.00    -0.646 OA
HETATM   16  O5  UNL     1      29.186 -20.146 -18.258  1.00  0.00    -0.646 OA
ENDBRANCH  11  14
ENDBRANCH  10  11
ENDBRANCH   7  10
ENDBRANCH   1   7
BRANCH   1  17
HETATM   17  C8  UNL     1      33.181 -21.709 -15.945  1.00  0.00     0.174 C 
BRANCH  17  18
HETATM   18  O6  UNL     1      32.599 -22.263 -14.769  1.00  0.00    -0.391 OA
ATOM     19  H6  UNL     1      32.358 -21.520 -14.229  1.00  0.00     0.210 HD
ENDBRANCH  17  18
BRANCH  17  20
HETATM   20  C9  UNL     1      33.933 -22.834 -16.566  1.00  0.00     0.179 C 
BRANCH  20  21
HETATM   21  O7  UNL     1      33.705 -24.039 -15.856  1.00  0.00    -0.390 OA
ATOM     22  H7  UNL     1      33.845 -24.792 -16.419  1.00  0.00     0.210 HD
ENDBRANCH  20  21
BRANCH  20  23
HETATM   23  C10 UNL     1      35.432 -22.684 -16.576  1.00  0.00     0.173 C 
BRANCH  23  24
HETATM   24  O8  UNL     1      35.712 -21.742 -15.552  1.00  0.00    -0.391 OA
ATOM     25  H8  UNL     1      35.222 -22.047 -14.798  1.00  0.00     0.210 HD
ENDBRANCH  23  24
BRANCH  23  26
HETATM   26  C11 UNL     1      35.957 -22.083 -17.850  1.00  0.00     0.198 C 
BRANCH  26  27
HETATM   27  O9  UNL     1      37.045 -21.271 -17.502  1.00  0.00    -0.398 OA
ATOM     28  H9  UNL     1      37.606 -21.215 -18.267  1.00  0.00     0.209 HD
ENDBRANCH  26  27
ENDBRANCH  23  26
ENDBRANCH  20  23
ENDBRANCH  17  20
ENDBRANCH   1  17
TORSDOF 15
ENDMDL
