MODEL 9
REMARK VINA RESULT: -6.439519597      2.137      4.212
REMARK  15 active torsions:
REMARK  status: ('A' for Active; 'I' for Inactive)
REMARK       I    between atoms: C2_2  and  N1_4 
REMARK    1  A    between atoms: N1_4  and  C3_6 
REMARK    2  A    between atoms: C3_6  and  C4_7 
REMARK    3  A    between atoms: C3_6  and  C8_17 
REMARK    4  A    between atoms: C4_7  and  O2_8 
REMARK    5  A    between atoms: C4_7  and  C5_10 
REMARK    6  A    between atoms: C5_10  and  C6_11 
REMARK    7  A    between atoms: C6_11  and  O3_12 
REMARK    8  A    between atoms: C6_11  and  C7_14 
REMARK    9  A    between atoms: C8_17  and  O6_18 
REMARK   10  A    between atoms: C8_17  and  C9_20 
REMARK   11  A    between atoms: C9_20  and  O7_21 
REMARK   12  A    between atoms: C9_20  and  C10_23 
REMARK   13  A    between atoms: C10_23  and  O8_24 
REMARK   14  A    between atoms: C10_23  and  C11_26 
REMARK   15  A    between atoms: C11_26  and  O9_27 
ROOT
HETATM    1  C3  UNL     1      31.055 -20.338 -17.311  1.00  0.00     0.144 C 
ENDROOT
BRANCH   1   2
HETATM    2  N1  UNL     1      29.902 -19.649 -16.734  1.00  0.00    -0.352 N 
HETATM    3  C2  UNL     1      30.055 -18.348 -16.125  1.00  0.00     0.214 C 
HETATM    4  C1  UNL     1      28.888 -17.644 -15.538  1.00  0.00     0.117 C 
HETATM    5  O1  UNL     1      31.214 -17.860 -16.121  1.00  0.00    -0.274 OA
ATOM      6  H1  UNL     1      28.982 -20.089 -16.763  1.00  0.00     0.163 HD
ENDBRANCH   1   2
BRANCH   1   7
HETATM    7  C4  UNL     1      30.708 -20.728 -18.746  1.00  0.00     0.146 C 
BRANCH   7   8
HETATM    8  O2  UNL     1      29.323 -20.731 -18.921  1.00  0.00    -0.393 OA
ATOM      9  H2  UNL     1      29.091 -20.247 -19.705  1.00  0.00     0.210 HD
ENDBRANCH   7   8
BRANCH   7  10
HETATM   10  C5  UNL     1      31.419 -19.986 -19.800  1.00  0.00     0.076 C 
BRANCH  10  11
HETATM   11  C6  UNL     1      31.887 -20.888 -20.940  1.00  0.00     0.221 C 
BRANCH  11  12
HETATM   12  O3  UNL     1      30.869 -21.251 -21.777  1.00  0.00    -0.385 OA
ATOM     13  H3  UNL     1      31.181 -21.579 -22.612  1.00  0.00     0.210 HD
ENDBRANCH  11  12
BRANCH  11  14
HETATM   14  C7  UNL     1      32.601 -22.044 -20.350  1.00  0.00     0.203 C 
HETATM   15  O4  UNL     1      33.767 -21.860 -19.926  1.00  0.00    -0.646 OA
HETATM   16  O5  UNL     1      32.068 -23.315 -20.237  1.00  0.00    -0.646 OA
ENDBRANCH  11  14
ENDBRANCH  10  11
ENDBRANCH   7  10
ENDBRANCH   1   7
BRANCH   1  17
HETATM   17  C8  UNL     1      31.574 -21.457 -16.479  1.00  0.00     0.174 C 
BRANCH  17  18
HETATM   18  O6  UNL     1      31.296 -22.643 -17.218  1.00  0.00    -0.391 OA
ATOM     19  H6  UNL     1      31.831 -23.321 -16.823  1.00  0.00     0.210 HD
ENDBRANCH  17  18
BRANCH  17  20
HETATM   20  C9  UNL     1      33.045 -21.487 -16.248  1.00  0.00     0.179 C 
BRANCH  20  21
HETATM   21  O7  UNL     1      33.707 -20.591 -17.124  1.00  0.00    -0.390 OA
ATOM     22  H7  UNL     1      33.197 -19.798 -17.240  1.00  0.00     0.210 HD
ENDBRANCH  20  21
BRANCH  20  23
HETATM   23  C10 UNL     1      33.713 -22.814 -16.495  1.00  0.00     0.173 C 
BRANCH  23  24
HETATM   24  O8  UNL     1      33.394 -23.602 -15.359  1.00  0.00    -0.391 OA
ATOM     25  H8  UNL     1      34.104 -24.230 -15.289  1.00  0.00     0.210 HD
ENDBRANCH  23  24
BRANCH  23  26
HETATM   26  C11 UNL     1      35.214 -22.723 -16.530  1.00  0.00     0.198 C 
BRANCH  26  27
HETATM   27  O9  UNL     1      35.593 -21.821 -15.527  1.00  0.00    -0.398 OA
ATOM     28  H9  UNL     1      36.161 -22.292 -14.929  1.00  0.00     0.209 HD
ENDBRANCH  26  27
ENDBRANCH  23  26
ENDBRANCH  20  23
ENDBRANCH  17  20
ENDBRANCH   1  17
TORSDOF 15
ENDMDL
