MODEL 3
REMARK VINA RESULT: -6.713238062      1.629      2.047
REMARK  15 active torsions:
REMARK  status: ('A' for Active; 'I' for Inactive)
REMARK       I    between atoms: C2_2  and  N1_4 
REMARK    1  A    between atoms: N1_4  and  C3_6 
REMARK    2  A    between atoms: C3_6  and  C4_7 
REMARK    3  A    between atoms: C3_6  and  C8_17 
REMARK    4  A    between atoms: C4_7  and  O2_8 
REMARK    5  A    between atoms: C4_7  and  C5_10 
REMARK    6  A    between atoms: C5_10  and  C6_11 
REMARK    7  A    between atoms: C6_11  and  O3_12 
REMARK    8  A    between atoms: C6_11  and  C7_14 
REMARK    9  A    between atoms: C8_17  and  O6_18 
REMARK   10  A    between atoms: C8_17  and  C9_20 
REMARK   11  A    between atoms: C9_20  and  O7_21 
REMARK   12  A    between atoms: C9_20  and  C10_23 
REMARK   13  A    between atoms: C10_23  and  O8_24 
REMARK   14  A    between atoms: C10_23  and  C11_26 
REMARK   15  A    between atoms: C11_26  and  O9_27 
ROOT
HETATM    1  C3  UNL     1      31.759 -20.129 -17.504  1.00  0.00     0.144 C 
ENDROOT
BRANCH   1   2
HETATM    2  N1  UNL     1      32.345 -20.179 -18.843  1.00  0.00    -0.352 N 
HETATM    3  C2  UNL     1      31.509 -20.397 -20.000  1.00  0.00     0.214 C 
HETATM    4  C1  UNL     1      32.098 -20.449 -21.361  1.00  0.00     0.117 C 
HETATM    5  O1  UNL     1      30.277 -20.538 -19.787  1.00  0.00    -0.274 OA
ATOM      6  H1  UNL     1      33.351 -20.059 -18.960  1.00  0.00     0.163 HD
ENDBRANCH   1   2
BRANCH   1   7
HETATM    7  C4  UNL     1      31.956 -18.719 -16.951  1.00  0.00     0.146 C 
BRANCH   7   8
HETATM    8  O2  UNL     1      33.202 -18.221 -17.338  1.00  0.00    -0.393 OA
ATOM      9  H2  UNL     1      33.228 -17.279 -17.220  1.00  0.00     0.210 HD
ENDBRANCH   7   8
BRANCH   7  10
HETATM   10  C5  UNL     1      30.856 -17.774 -17.203  1.00  0.00     0.076 C 
BRANCH  10  11
HETATM   11  C6  UNL     1      29.695 -17.949 -16.225  1.00  0.00     0.221 C 
BRANCH  11  12
HETATM   12  O3  UNL     1      29.924 -18.935 -15.307  1.00  0.00    -0.385 OA
ATOM     13  H3  UNL     1      29.478 -18.779 -14.483  1.00  0.00     0.210 HD
ENDBRANCH  11  12
BRANCH  11  14
HETATM   14  C7  UNL     1      28.457 -18.154 -17.011  1.00  0.00     0.203 C 
HETATM   15  O4  UNL     1      28.077 -19.332 -17.212  1.00  0.00    -0.646 OA
HETATM   16  O5  UNL     1      27.691 -17.131 -17.541  1.00  0.00    -0.646 OA
ENDBRANCH  11  14
ENDBRANCH  10  11
ENDBRANCH   7  10
ENDBRANCH   1   7
BRANCH   1  17
HETATM   17  C8  UNL     1      32.221 -21.214 -16.596  1.00  0.00     0.174 C 
BRANCH  17  18
HETATM   18  O6  UNL     1      31.049 -21.690 -15.943  1.00  0.00    -0.391 OA
ATOM     19  H6  UNL     1      30.996 -21.204 -15.128  1.00  0.00     0.210 HD
ENDBRANCH  17  18
BRANCH  17  20
HETATM   20  C9  UNL     1      32.812 -22.417 -17.245  1.00  0.00     0.179 C 
BRANCH  20  21
HETATM   21  O7  UNL     1      31.792 -23.292 -17.698  1.00  0.00    -0.390 OA
ATOM     22  H7  UNL     1      31.969 -23.581 -18.585  1.00  0.00     0.210 HD
ENDBRANCH  20  21
BRANCH  20  23
HETATM   23  C10 UNL     1      33.674 -23.275 -16.357  1.00  0.00     0.173 C 
BRANCH  23  24
HETATM   24  O8  UNL     1      33.259 -22.966 -15.035  1.00  0.00    -0.391 OA
ATOM     25  H8  UNL     1      33.968 -23.267 -14.479  1.00  0.00     0.210 HD
ENDBRANCH  23  24
BRANCH  23  26
HETATM   26  C11 UNL     1      35.133 -22.921 -16.429  1.00  0.00     0.198 C 
BRANCH  26  27
HETATM   27  O9  UNL     1      35.350 -21.887 -15.507  1.00  0.00    -0.398 OA
ATOM     28  H9  UNL     1      35.056 -22.204 -14.661  1.00  0.00     0.209 HD
ENDBRANCH  26  27
ENDBRANCH  23  26
ENDBRANCH  20  23
ENDBRANCH  17  20
ENDBRANCH   1  17
TORSDOF 15
ENDMDL
