MODEL 13
REMARK VINA RESULT: -10.700225763      2.805      3.870
REMARK  7 active torsions:
REMARK  status: ('A' for Active; 'I' for Inactive)
REMARK    1  A    between atoms: C2_5  and  O1_6 
REMARK    2  A    between atoms: O1_6  and  C3_7 
REMARK    3  A    between atoms: C3_7  and  C4_8 
REMARK    4  A    between atoms: C3_7  and  C16_21 
REMARK    5  A    between atoms: C9_14  and  C10_15 
REMARK    6  A    between atoms: C18_26  and  N3_27 
REMARK    7  A    between atoms: C25_37  and  C26_38 
ROOT
HETATM    1  N1  UNL     1      46.377   0.511  73.176  1.00  0.00    -0.063 NA
HETATM    2  C1  UNL     1      47.067   0.408  74.390  1.00  0.00     0.195 A 
HETATM    3  N2  UNL     1      46.532  -0.219  75.434  1.00  0.00    -0.311 N 
ATOM      4  H2  UNL     1      45.613  -0.642  75.313  1.00  0.00     0.170 HD
HETATM    5  C2  UNL     1      47.132  -0.336  76.663  1.00  0.00     0.149 A 
HETATM    6  C17 UNL     1      48.409   0.277  76.771  1.00  0.00     0.105 A 
HETATM    7  C18 UNL     1      48.914   0.907  75.676  1.00  0.00     0.113 A 
HETATM    8  N5  UNL     1      48.259   0.977  74.495  1.00  0.00    -0.316 N 
ATOM      9  H5  UNL     1      48.676   1.461  73.699  1.00  0.00     0.170 HD
ENDROOT
BRANCH   5  10
HETATM   10  O1  UNL     1      46.597  -0.936  77.616  1.00  0.00    -0.316 OA
BRANCH  10  11
HETATM   11  C3  UNL     1      46.009  -1.590  78.666  1.00  0.00     0.271 C 
BRANCH  11  12
HETATM   12  C4  UNL     1      44.599  -1.015  78.565  1.00  0.00    -0.009 A 
HETATM   13  C5  UNL     1      44.276   0.076  79.315  1.00  0.00     0.012 A 
HETATM   14  C6  UNL     1      43.083   0.783  79.050  1.00  0.00     0.024 A 
HETATM   15  C7  UNL     1      42.279   0.345  78.046  1.00  0.00     0.035 A 
HETATM   16 CL1  UNL     1      40.800   1.219  77.679  1.00  0.00    -0.084 Cl
HETATM   17  C8  UNL     1      42.583  -0.765  77.270  1.00  0.00     0.036 A 
HETATM   18  C9  UNL     1      43.765  -1.440  77.556  1.00  0.00    -0.015 A 
BRANCH  18  19
HETATM   19  C10 UNL     1      43.994  -2.655  76.821  1.00  0.00    -0.025 A 
HETATM   20  C11 UNL     1      44.409  -3.812  77.359  1.00  0.00     0.012 A 
HETATM   21  C12 UNL     1      44.587  -4.930  76.521  1.00  0.00     0.001 A 
HETATM   22  C13 UNL     1      44.338  -4.839  75.167  1.00  0.00     0.000 A 
HETATM   23  C14 UNL     1      43.914  -3.640  74.637  1.00  0.00     0.001 A 
HETATM   24  C15 UNL     1      43.748  -2.576  75.450  1.00  0.00     0.012 A 
ENDBRANCH  18  19
ENDBRANCH  11  12
BRANCH  11  25
HETATM   25  C16 UNL     1      46.765  -1.197  79.875  1.00  0.00     0.418 C 
HETATM   26  F1  UNL     1      47.246   0.069  79.944  1.00  0.00    -0.168 F 
HETATM   27  F2  UNL     1      46.072  -1.537  81.054  1.00  0.00    -0.168 F 
HETATM   28  F3  UNL     1      47.912  -2.021  79.959  1.00  0.00    -0.168 F 
ENDBRANCH  11  25
ENDBRANCH  10  11
ENDBRANCH   5  10
BRANCH   7  29
HETATM   29  N3  UNL     1      50.202   1.549  75.704  1.00  0.00    -0.347 N 
HETATM   30  C19 UNL     1      50.795   1.759  74.379  1.00  0.00     0.130 C 
HETATM   31  C20 UNL     1      52.242   2.081  74.474  1.00  0.00     0.032 C 
HETATM   32  C21 UNL     1      52.417   3.310  75.344  1.00  0.00    -0.008 C 
HETATM   33  C22 UNL     1      51.700   3.202  76.645  1.00  0.00     0.056 C 
HETATM   34  C24 UNL     1      51.905   4.568  74.638  1.00  0.00     0.243 C 
HETATM   35  C27 UNL     1      53.894   3.544  75.451  1.00  0.00     0.055 C 
HETATM   36  C23 UNL     1      50.870   1.972  76.868  1.00  0.00     0.066 C 
HETATM   37  N4  UNL     1      53.049   5.150  73.982  1.00  0.00    -0.060 N 
HETATM   38  C25 UNL     1      54.142   4.879  74.860  1.00  0.00     0.286 C 
ATOM     39  H42 UNL     1      53.192   4.823  73.027  1.00  0.00     0.278 HD
ATOM     40  H41 UNL     1      52.938   6.137  73.749  1.00  0.00     0.278 HD
BRANCH  38  41
HETATM   41  C26 UNL     1      55.464   5.023  74.178  1.00  0.00     0.204 C 
HETATM   42  O2  UNL     1      55.945   4.030  73.604  1.00  0.00    -0.646 OA
HETATM   43  O3  UNL     1      56.171   6.206  74.171  1.00  0.00    -0.646 OA
ENDBRANCH  38  41
ENDBRANCH   7  29
TORSDOF 7
ENDMDL
