MODEL 16
REMARK VINA RESULT: -10.575443824      2.909      4.952
REMARK  7 active torsions:
REMARK  status: ('A' for Active; 'I' for Inactive)
REMARK    1  A    between atoms: C2_5  and  O1_6 
REMARK    2  A    between atoms: O1_6  and  C3_7 
REMARK    3  A    between atoms: C3_7  and  C4_8 
REMARK    4  A    between atoms: C3_7  and  C16_21 
REMARK    5  A    between atoms: C9_14  and  C10_15 
REMARK    6  A    between atoms: C18_26  and  N3_27 
REMARK    7  A    between atoms: C25_37  and  C26_38 
ROOT
HETATM    1  N1  UNL     1      46.843   1.384  70.369  1.00  0.00    -0.063 NA
HETATM    2  C1  UNL     1      46.783   1.114  71.742  1.00  0.00     0.195 A 
HETATM    3  N2  UNL     1      45.653   0.711  72.315  1.00  0.00    -0.311 N 
ATOM      4  H2  UNL     1      44.838   0.581  71.717  1.00  0.00     0.170 HD
HETATM    5  C2  UNL     1      45.508   0.457  73.656  1.00  0.00     0.149 A 
HETATM    6  C17 UNL     1      46.676   0.658  74.437  1.00  0.00     0.105 A 
HETATM    7  C18 UNL     1      47.808   1.073  73.807  1.00  0.00     0.113 A 
HETATM    8  N5  UNL     1      47.872   1.301  72.475  1.00  0.00    -0.316 N 
ATOM      9  H5  UNL     1      48.742   1.611  72.042  1.00  0.00     0.170 HD
ENDROOT
BRANCH   5  10
HETATM   10  O1  UNL     1      44.430   0.075  74.154  1.00  0.00    -0.316 OA
BRANCH  10  11
HETATM   11  C3  UNL     1      43.243  -0.338  74.699  1.00  0.00     0.271 C 
BRANCH  11  12
HETATM   12  C4  UNL     1      43.755  -1.461  75.598  1.00  0.00    -0.009 A 
HETATM   13  C5  UNL     1      44.462  -2.482  75.040  1.00  0.00     0.012 A 
HETATM   14  C6  UNL     1      45.167  -3.385  75.866  1.00  0.00     0.024 A 
HETATM   15  C7  UNL     1      45.113  -3.208  77.212  1.00  0.00     0.035 A 
HETATM   16 CL1  UNL     1      45.999  -4.301  78.265  1.00  0.00    -0.084 Cl
HETATM   17  C8  UNL     1      44.396  -2.179  77.807  1.00  0.00     0.036 A 
HETATM   18  C9  UNL     1      43.713  -1.307  76.965  1.00  0.00    -0.015 A 
BRANCH  18  19
HETATM   19  C10 UNL     1      42.881  -0.326  77.610  1.00  0.00    -0.025 A 
HETATM   20  C11 UNL     1      41.590  -0.104  77.319  1.00  0.00     0.012 A 
HETATM   21  C12 UNL     1      40.890   0.887  78.036  1.00  0.00     0.001 A 
HETATM   22  C13 UNL     1      41.520   1.617  79.022  1.00  0.00     0.000 A 
HETATM   23  C14 UNL     1      42.847   1.372  79.301  1.00  0.00     0.001 A 
HETATM   24  C15 UNL     1      43.507   0.422  78.608  1.00  0.00     0.012 A 
ENDBRANCH  18  19
ENDBRANCH  11  12
BRANCH  11  25
HETATM   25  C16 UNL     1      42.396  -0.772  73.569  1.00  0.00     0.418 C 
HETATM   26  F1  UNL     1      41.432  -1.696  73.809  1.00  0.00    -0.168 F 
HETATM   27  F2  UNL     1      41.872   0.327  72.860  1.00  0.00    -0.168 F 
HETATM   28  F3  UNL     1      43.235  -1.374  72.602  1.00  0.00    -0.168 F 
ENDBRANCH  11  25
ENDBRANCH  10  11
ENDBRANCH   5  10
BRANCH   7  29
HETATM   29  N3  UNL     1      49.034   1.297  74.527  1.00  0.00    -0.347 N 
HETATM   30  C19 UNL     1      50.209   1.478  73.669  1.00  0.00     0.130 C 
HETATM   31  C20 UNL     1      51.473   1.344  74.438  1.00  0.00     0.032 C 
HETATM   32  C21 UNL     1      51.470   2.353  75.568  1.00  0.00    -0.008 C 
HETATM   33  C22 UNL     1      50.221   2.309  76.379  1.00  0.00     0.056 C 
HETATM   34  C24 UNL     1      51.625   3.781  75.040  1.00  0.00     0.243 C 
HETATM   35  C27 UNL     1      52.736   2.125  76.339  1.00  0.00     0.055 C 
HETATM   36  C23 UNL     1      49.148   1.361  75.928  1.00  0.00     0.066 C 
HETATM   37  N4  UNL     1      53.036   4.072  75.087  1.00  0.00    -0.060 N 
HETATM   38  C25 UNL     1      53.504   3.388  76.249  1.00  0.00     0.286 C 
ATOM     39  H42 UNL     1      53.540   3.834  74.233  1.00  0.00     0.278 HD
ATOM     40  H41 UNL     1      53.257   5.068  75.075  1.00  0.00     0.278 HD
BRANCH  38  41
HETATM   41  C26 UNL     1      54.989   3.214  76.244  1.00  0.00     0.204 C 
HETATM   42  O2  UNL     1      55.459   2.129  76.630  1.00  0.00    -0.646 OA
HETATM   43  O3  UNL     1      55.851   4.209  75.839  1.00  0.00    -0.646 OA
ENDBRANCH  38  41
ENDBRANCH   7  29
TORSDOF 7
ENDMDL
