MODEL 9
REMARK VINA RESULT: -11.085175667      3.099      4.302
REMARK  7 active torsions:
REMARK  status: ('A' for Active; 'I' for Inactive)
REMARK    1  A    between atoms: C2_5  and  O1_6 
REMARK    2  A    between atoms: O1_6  and  C3_7 
REMARK    3  A    between atoms: C3_7  and  C4_8 
REMARK    4  A    between atoms: C3_7  and  C16_21 
REMARK    5  A    between atoms: C9_14  and  C10_15 
REMARK    6  A    between atoms: C18_26  and  N3_27 
REMARK    7  A    between atoms: C25_37  and  C26_38 
ROOT
HETATM    1  N1  UNL     1      45.244   0.931  73.609  1.00  0.00    -0.063 NA
HETATM    2  C1  UNL     1      46.253   0.719  74.556  1.00  0.00     0.195 A 
HETATM    3  N2  UNL     1      46.000   0.094  75.702  1.00  0.00    -0.311 N 
ATOM      4  H2  UNL     1      45.052  -0.247  75.857  1.00  0.00     0.170 HD
HETATM    5  C2  UNL     1      46.926  -0.125  76.692  1.00  0.00     0.149 A 
HETATM    6  C17 UNL     1      48.227   0.376  76.420  1.00  0.00     0.105 A 
HETATM    7  C18 UNL     1      48.438   1.009  75.234  1.00  0.00     0.113 A 
HETATM    8  N5  UNL     1      47.469   1.184  74.306  1.00  0.00    -0.316 N 
ATOM      9  H5  UNL     1      47.671   1.665  73.429  1.00  0.00     0.170 HD
ENDROOT
BRANCH   5  10
HETATM   10  O1  UNL     1      46.648  -0.720  77.752  1.00  0.00    -0.316 OA
BRANCH  10  11
HETATM   11  C3  UNL     1      46.336  -1.372  78.915  1.00  0.00     0.271 C 
BRANCH  11  12
HETATM   12  C4  UNL     1      44.857  -1.010  79.019  1.00  0.00    -0.009 A 
HETATM   13  C5  UNL     1      44.511   0.240  79.434  1.00  0.00     0.012 A 
HETATM   14  C6  UNL     1      43.180   0.687  79.288  1.00  0.00     0.024 A 
HETATM   15  C7  UNL     1      42.269  -0.158  78.737  1.00  0.00     0.035 A 
HETATM   16 CL1  UNL     1      40.610   0.378  78.523  1.00  0.00    -0.084 Cl
HETATM   17  C8  UNL     1      42.594  -1.438  78.311  1.00  0.00     0.036 A 
HETATM   18  C9  UNL     1      43.914  -1.848  78.468  1.00  0.00    -0.015 A 
BRANCH  18  19
HETATM   19  C10 UNL     1      44.196  -3.219  78.132  1.00  0.00    -0.025 A 
HETATM   20  C11 UNL     1      44.588  -3.648  76.923  1.00  0.00     0.012 A 
HETATM   21  C12 UNL     1      44.837  -5.022  76.734  1.00  0.00     0.001 A 
HETATM   22  C13 UNL     1      44.681  -5.913  77.775  1.00  0.00     0.000 A 
HETATM   23  C14 UNL     1      44.275  -5.449  79.007  1.00  0.00     0.001 A 
HETATM   24  C15 UNL     1      44.038  -4.131  79.175  1.00  0.00     0.012 A 
ENDBRANCH  18  19
ENDBRANCH  11  12
BRANCH  11  25
HETATM   25  C16 UNL     1      47.203  -0.791  79.962  1.00  0.00     0.418 C 
HETATM   26  F1  UNL     1      47.730   0.440  79.745  1.00  0.00    -0.168 F 
HETATM   27  F2  UNL     1      46.600  -0.861  81.233  1.00  0.00    -0.168 F 
HETATM   28  F3  UNL     1      48.324  -1.638  80.120  1.00  0.00    -0.168 F 
ENDBRANCH  11  25
ENDBRANCH  10  11
ENDBRANCH   5  10
BRANCH   7  29
HETATM   29  N3  UNL     1      49.728   1.541  74.883  1.00  0.00    -0.347 N 
HETATM   30  C19 UNL     1      50.012   2.857  75.465  1.00  0.00     0.130 C 
HETATM   31  C20 UNL     1      51.168   3.511  74.799  1.00  0.00     0.032 C 
HETATM   32  C21 UNL     1      52.375   2.602  74.906  1.00  0.00    -0.008 C 
HETATM   33  C22 UNL     1      52.090   1.208  74.466  1.00  0.00     0.056 C 
HETATM   34  C24 UNL     1      52.895   2.534  76.344  1.00  0.00     0.243 C 
HETATM   35  C27 UNL     1      53.485   3.286  74.164  1.00  0.00     0.055 C 
HETATM   36  C23 UNL     1      50.676   0.892  74.071  1.00  0.00     0.066 C 
HETATM   37  N4  UNL     1      53.926   3.537  76.443  1.00  0.00    -0.060 N 
HETATM   38  C25 UNL     1      54.552   3.534  75.160  1.00  0.00     0.286 C 
ATOM     39  H42 UNL     1      53.589   4.452  76.739  1.00  0.00     0.278 HD
ATOM     40  H41 UNL     1      54.571   3.396  77.220  1.00  0.00     0.278 HD
BRANCH  38  41
HETATM   41  C26 UNL     1      55.353   4.774  74.919  1.00  0.00     0.204 C 
HETATM   42  O2  UNL     1      55.894   5.326  75.893  1.00  0.00    -0.646 OA
HETATM   43  O3  UNL     1      55.506   5.328  73.667  1.00  0.00    -0.646 OA
ENDBRANCH  38  41
ENDBRANCH   7  29
TORSDOF 7
ENDMDL
