MODEL 18
REMARK VINA RESULT: -10.432567425      4.407      9.234
REMARK  7 active torsions:
REMARK  status: ('A' for Active; 'I' for Inactive)
REMARK    1  A    between atoms: C2_5  and  O1_6 
REMARK    2  A    between atoms: O1_6  and  C3_7 
REMARK    3  A    between atoms: C3_7  and  C4_8 
REMARK    4  A    between atoms: C3_7  and  C16_21 
REMARK    5  A    between atoms: C9_14  and  C10_15 
REMARK    6  A    between atoms: C18_26  and  N3_27 
REMARK    7  A    between atoms: C25_37  and  C26_38 
ROOT
HETATM    1  N1  UNL     1      47.990  -0.964  80.164  1.00  0.00    -0.063 NA
HETATM    2  C1  UNL     1      46.960  -0.597  79.289  1.00  0.00     0.195 A 
HETATM    3  N2  UNL     1      47.200  -0.369  78.001  1.00  0.00    -0.311 N 
ATOM      4  H2  UNL     1      48.156  -0.495  77.668  1.00  0.00     0.170 HD
HETATM    5  C2  UNL     1      46.252   0.022  77.089  1.00  0.00     0.149 A 
HETATM    6  C17 UNL     1      44.942   0.183  77.614  1.00  0.00     0.105 A 
HETATM    7  C18 UNL     1      44.746  -0.060  78.938  1.00  0.00     0.113 A 
HETATM    8  N5  UNL     1      45.736  -0.447  79.775  1.00  0.00    -0.316 N 
ATOM      9  H5  UNL     1      45.544  -0.619  80.762  1.00  0.00     0.170 HD
ENDROOT
BRANCH   5  10
HETATM   10  O1  UNL     1      46.519   0.222  75.888  1.00  0.00    -0.316 OA
BRANCH  10  11
HETATM   11  C3  UNL     1      46.815   0.434  74.567  1.00  0.00     0.271 C 
BRANCH  11  12
HETATM   12  C4  UNL     1      46.186  -0.818  73.962  1.00  0.00    -0.009 A 
HETATM   13  C5  UNL     1      46.263  -1.992  74.647  1.00  0.00     0.012 A 
HETATM   14  C6  UNL     1      45.474  -3.093  74.248  1.00  0.00     0.024 A 
HETATM   15  C7  UNL     1      44.655  -2.948  73.173  1.00  0.00     0.035 A 
HETATM   16 CL1  UNL     1      43.645  -4.293  72.668  1.00  0.00    -0.084 Cl
HETATM   17  C8  UNL     1      44.562  -1.764  72.455  1.00  0.00     0.036 A 
HETATM   18  C9  UNL     1      45.352  -0.699  72.874  1.00  0.00    -0.015 A 
BRANCH  18  19
HETATM   19  C10 UNL     1      45.327   0.474  72.040  1.00  0.00    -0.025 A 
HETATM   20  C11 UNL     1      46.246   0.773  71.109  1.00  0.00     0.012 A 
HETATM   21  C12 UNL     1      46.096   1.954  70.356  1.00  0.00     0.001 A 
HETATM   22  C13 UNL     1      45.021   2.791  70.571  1.00  0.00     0.000 A 
HETATM   23  C14 UNL     1      44.091   2.464  71.534  1.00  0.00     0.001 A 
HETATM   24  C15 UNL     1      44.247   1.330  72.249  1.00  0.00     0.012 A 
ENDBRANCH  18  19
ENDBRANCH  11  12
BRANCH  11  25
HETATM   25  C16 UNL     1      48.289   0.505  74.479  1.00  0.00     0.418 C 
HETATM   26  F1  UNL     1      49.004  -0.591  74.832  1.00  0.00    -0.168 F 
HETATM   27  F2  UNL     1      48.711   1.000  73.229  1.00  0.00    -0.168 F 
HETATM   28  F3  UNL     1      48.729   1.519  75.362  1.00  0.00    -0.168 F 
ENDBRANCH  11  25
ENDBRANCH  10  11
ENDBRANCH   5  10
BRANCH   7  29
HETATM   29  N3  UNL     1      43.448   0.077  79.545  1.00  0.00    -0.347 N 
HETATM   30  C19 UNL     1      42.773   1.343  79.237  1.00  0.00     0.130 C 
HETATM   31  C20 UNL     1      41.630   1.590  80.153  1.00  0.00     0.032 C 
HETATM   32  C21 UNL     1      40.664   0.426  80.058  1.00  0.00    -0.008 C 
HETATM   33  C22 UNL     1      41.334  -0.895  80.214  1.00  0.00     0.056 C 
HETATM   34  C24 UNL     1      39.935   0.417  78.712  1.00  0.00     0.243 C 
HETATM   35  C27 UNL     1      39.572   0.705  81.047  1.00  0.00     0.055 C 
HETATM   36  C23 UNL     1      42.828  -0.891  80.356  1.00  0.00     0.066 C 
HETATM   37  N4  UNL     1      38.700   1.130  78.924  1.00  0.00    -0.060 N 
HETATM   38  C25 UNL     1      38.321   0.802  80.260  1.00  0.00     0.286 C 
ATOM     39  H42 UNL     1      38.762   2.132  78.743  1.00  0.00     0.278 HD
ATOM     40  H41 UNL     1      37.981   0.933  78.228  1.00  0.00     0.278 HD
BRANCH  38  41
HETATM   41  C26 UNL     1      37.311   1.756  80.812  1.00  0.00     0.204 C 
HETATM   42  O2  UNL     1      37.230   1.883  82.047  1.00  0.00    -0.646 OA
HETATM   43  O3  UNL     1      36.464   2.488  80.009  1.00  0.00    -0.646 OA
ENDBRANCH  38  41
ENDBRANCH   7  29
TORSDOF 7
ENDMDL
