MODEL 12
REMARK VINA RESULT: -10.833644652      5.450      8.908
REMARK  7 active torsions:
REMARK  status: ('A' for Active; 'I' for Inactive)
REMARK    1  A    between atoms: C2_5  and  O1_6 
REMARK    2  A    between atoms: O1_6  and  C3_7 
REMARK    3  A    between atoms: C3_7  and  C4_8 
REMARK    4  A    between atoms: C3_7  and  C16_21 
REMARK    5  A    between atoms: C9_14  and  C10_15 
REMARK    6  A    between atoms: C18_26  and  N3_27 
REMARK    7  A    between atoms: C25_37  and  C26_38 
ROOT
HETATM    1  N1  UNL     1      40.331   1.072  78.130  1.00  0.00    -0.063 NA
HETATM    2  C1  UNL     1      41.332   0.228  77.633  1.00  0.00     0.195 A 
HETATM    3  N2  UNL     1      41.760   0.335  76.378  1.00  0.00    -0.311 N 
ATOM      4  H2  UNL     1      41.352   1.068  75.799  1.00  0.00     0.170 HD
HETATM    5  C2  UNL     1      42.713  -0.472  75.810  1.00  0.00     0.149 A 
HETATM    6  C17 UNL     1      43.241  -1.476  76.665  1.00  0.00     0.105 A 
HETATM    7  C18 UNL     1      42.770  -1.547  77.940  1.00  0.00     0.113 A 
HETATM    8  N5  UNL     1      41.827  -0.709  78.428  1.00  0.00    -0.316 N 
ATOM      9  H5  UNL     1      41.503  -0.798  79.391  1.00  0.00     0.170 HD
ENDROOT
BRANCH   5  10
HETATM   10  O1  UNL     1      43.091  -0.336  74.629  1.00  0.00    -0.316 OA
BRANCH  10  11
HETATM   11  C3  UNL     1      43.500  -0.190  73.330  1.00  0.00     0.271 C 
BRANCH  11  12
HETATM   12  C4  UNL     1      45.012  -0.253  73.532  1.00  0.00    -0.009 A 
HETATM   13  C5  UNL     1      45.716   0.910  73.614  1.00  0.00     0.012 A 
HETATM   14  C6  UNL     1      47.055   0.892  74.060  1.00  0.00     0.024 A 
HETATM   15  C7  UNL     1      47.611  -0.302  74.394  1.00  0.00     0.035 A 
HETATM   16 CL1  UNL     1      49.269  -0.353  74.974  1.00  0.00    -0.084 Cl
HETATM   17  C8  UNL     1      46.917  -1.502  74.316  1.00  0.00     0.036 A 
HETATM   18  C9  UNL     1      45.600  -1.450  73.872  1.00  0.00    -0.015 A 
BRANCH  18  19
HETATM   19  C10 UNL     1      44.945  -2.718  73.684  1.00  0.00    -0.025 A 
HETATM   20  C11 UNL     1      44.129  -3.015  72.662  1.00  0.00     0.012 A 
HETATM   21  C12 UNL     1      43.558  -4.302  72.597  1.00  0.00     0.001 A 
HETATM   22  C13 UNL     1      43.834  -5.242  73.568  1.00  0.00     0.000 A 
HETATM   23  C14 UNL     1      44.674  -4.912  74.609  1.00  0.00     0.001 A 
HETATM   24  C15 UNL     1      45.214  -3.677  74.661  1.00  0.00     0.012 A 
ENDBRANCH  18  19
ENDBRANCH  11  12
BRANCH  11  25
HETATM   25  C16 UNL     1      42.979   1.117  72.876  1.00  0.00     0.418 C 
HETATM   26  F1  UNL     1      42.849   2.107  73.793  1.00  0.00    -0.168 F 
HETATM   27  F2  UNL     1      43.660   1.578  71.732  1.00  0.00    -0.168 F 
HETATM   28  F3  UNL     1      41.670   0.915  72.379  1.00  0.00    -0.168 F 
ENDBRANCH  11  25
ENDBRANCH  10  11
ENDBRANCH   5  10
BRANCH   7  29
HETATM   29  N3  UNL     1      43.256  -2.533  78.868  1.00  0.00    -0.347 N 
HETATM   30  C19 UNL     1      42.304  -3.612  79.149  1.00  0.00     0.130 C 
HETATM   31  C20 UNL     1      42.695  -4.386  80.356  1.00  0.00     0.032 C 
HETATM   32  C21 UNL     1      44.091  -4.937  80.155  1.00  0.00    -0.008 C 
HETATM   33  C22 UNL     1      45.065  -3.899  79.719  1.00  0.00     0.056 C 
HETATM   34  C24 UNL     1      44.104  -6.051  79.105  1.00  0.00     0.243 C 
HETATM   35  C27 UNL     1      44.449  -5.649  81.426  1.00  0.00     0.055 C 
HETATM   36  C23 UNL     1      44.528  -2.520  79.470  1.00  0.00     0.066 C 
HETATM   37  N4  UNL     1      43.966  -7.287  79.834  1.00  0.00    -0.060 N 
HETATM   38  C25 UNL     1      44.674  -7.065  81.054  1.00  0.00     0.286 C 
ATOM     39  H42 UNL     1      43.000  -7.589  79.962  1.00  0.00     0.278 HD
ATOM     40  H41 UNL     1      44.275  -8.111  79.318  1.00  0.00     0.278 HD
BRANCH  38  41
HETATM   41  C26 UNL     1      44.302  -8.054  82.111  1.00  0.00     0.204 C 
HETATM   42  O2  UNL     1      44.754  -9.209  82.025  1.00  0.00    -0.646 OA
HETATM   43  O3  UNL     1      43.476  -7.737  83.167  1.00  0.00    -0.646 OA
ENDBRANCH  38  41
ENDBRANCH   7  29
TORSDOF 7
ENDMDL
