MODEL 1
REMARK VINA RESULT: -11.083729789      0.000      0.000
REMARK  2 active torsions:
REMARK  status: ('A' for Active; 'I' for Inactive)
REMARK    1  A    between atoms: C2_2  and  C3_3 
REMARK    2  A    between atoms: C3_3  and  C4_4 
ROOT
HETATM    1  C4  UNL     1     122.979  16.958  27.001  1.00  0.00     0.024 A 
HETATM    2  C5  UNL     1     122.422  15.880  26.351  1.00  0.00    -0.037 A 
HETATM    3  C6  UNL     1     121.328  16.062  25.388  1.00  0.00     0.050 C 
HETATM    4  C7  UNL     1     122.912  14.603  26.616  1.00  0.00     0.005 A 
HETATM    5  C8  UNL     1     122.380  13.486  25.984  1.00  0.00     0.029 A 
HETATM    6  C9  UNL     1     122.849  12.211  26.230  1.00  0.00     0.007 A 
HETATM    7  C10 UNL     1     122.499  10.968  25.742  1.00  0.00    -0.020 A 
HETATM    8  C11 UNL     1     121.425  10.744  24.747  1.00  0.00     0.052 C 
HETATM    9  C12 UNL     1     123.316  10.077  26.355  1.00  0.00     0.056 A 
HETATM   10  C13 UNL     1     123.307   8.617  26.145  1.00  0.00     0.077 C 
HETATM   11  O1  UNL     1     124.117  10.722  27.163  1.00  0.00    -0.314 OA
HETATM   12  C14 UNL     1     123.880  12.024  27.130  1.00  0.00     0.089 A 
HETATM   13  C15 UNL     1     124.422  13.117  27.769  1.00  0.00     0.076 A 
HETATM   14  C16 UNL     1     123.937  14.392  27.509  1.00  0.00     0.093 A 
HETATM   15  O2  UNL     1     124.435  15.455  28.103  1.00  0.00    -0.274 OA
HETATM   16  C17 UNL     1     124.004  16.674  27.883  1.00  0.00     0.295 A 
HETATM   17  O3  UNL     1     124.597  17.585  28.542  1.00  0.00    -0.259 OA
ENDROOT
BRANCH   1  18
HETATM   18  C3  UNL     1     122.543  18.332  26.800  1.00  0.00     0.045 C 
BRANCH  18  19
HETATM   19  C2  UNL     1     121.497  18.827  27.749  1.00  0.00     0.000 C 
HETATM   20  C1  UNL     1     121.311  20.307  27.768  1.00  0.00     0.005 C 
ENDBRANCH  18  19
ENDBRANCH   1  18
TORSDOF 2
ENDMDL
