MODEL 4
REMARK VINA RESULT: -9.154888842      1.321      6.623
REMARK  2 active torsions:
REMARK  status: ('A' for Active; 'I' for Inactive)
REMARK    1  A    between atoms: C2_2  and  C3_3 
REMARK    2  A    between atoms: C3_3  and  C4_4 
ROOT
HETATM    1  C4  UNL     1     122.261   9.993  25.819  1.00  0.00     0.024 A 
HETATM    2  C5  UNL     1     121.873  11.303  25.648  1.00  0.00    -0.037 A 
HETATM    3  C6  UNL     1     120.709  11.643  24.819  1.00  0.00     0.050 C 
HETATM    4  C7  UNL     1     122.600  12.311  26.276  1.00  0.00     0.005 A 
HETATM    5  C8  UNL     1     122.246  13.647  26.131  1.00  0.00     0.029 A 
HETATM    6  C9  UNL     1     122.950  14.663  26.743  1.00  0.00     0.007 A 
HETATM    7  C10 UNL     1     122.804  16.036  26.757  1.00  0.00    -0.020 A 
HETATM    8  C11 UNL     1     121.736  16.760  26.028  1.00  0.00     0.052 C 
HETATM    9  C12 UNL     1     123.802  16.516  27.539  1.00  0.00     0.056 A 
HETATM   10  C13 UNL     1     124.045  17.938  27.845  1.00  0.00     0.077 C 
HETATM   11  O1  UNL     1     124.515  15.512  27.979  1.00  0.00    -0.314 OA
HETATM   12  C14 UNL     1     124.045  14.360  27.529  1.00  0.00     0.089 A 
HETATM   13  C15 UNL     1     124.415  13.042  27.686  1.00  0.00     0.076 A 
HETATM   14  C16 UNL     1     123.694  12.033  27.063  1.00  0.00     0.093 A 
HETATM   15  O2  UNL     1     124.023  10.766  27.195  1.00  0.00    -0.274 OA
HETATM   16  C17 UNL     1     123.367   9.786  26.621  1.00  0.00     0.295 A 
HETATM   17  O3  UNL     1     123.820   8.621  26.855  1.00  0.00    -0.259 OA
ENDROOT
BRANCH   1  18
HETATM   18  C3  UNL     1     121.574   8.864  25.209  1.00  0.00     0.045 C 
BRANCH  18  19
HETATM   19  C2  UNL     1     120.395   8.335  25.963  1.00  0.00     0.000 C 
HETATM   20  C1  UNL     1     120.656   7.101  26.759  1.00  0.00     0.005 C 
ENDBRANCH  18  19
ENDBRANCH   1  18
TORSDOF 2
ENDMDL
