MODEL 2
REMARK VINA RESULT: -9.272682335      1.525      6.731
REMARK  2 active torsions:
REMARK  status: ('A' for Active; 'I' for Inactive)
REMARK    1  A    between atoms: C2_2  and  C3_3 
REMARK    2  A    between atoms: C3_3  and  C4_4 
ROOT
HETATM    1  C4  UNL     1     122.895  14.166  26.179  1.00  0.00     0.024 A 
HETATM    2  C5  UNL     1     122.184  15.343  26.128  1.00  0.00    -0.037 A 
HETATM    3  C6  UNL     1     121.149  15.557  25.107  1.00  0.00     0.050 C 
HETATM    4  C7  UNL     1     122.454  16.338  27.064  1.00  0.00     0.005 A 
HETATM    5  C8  UNL     1     121.761  17.543  27.051  1.00  0.00     0.029 A 
HETATM    6  C9  UNL     1     122.011  18.543  27.968  1.00  0.00     0.007 A 
HETATM    7  C10 UNL     1     121.473  19.799  28.163  1.00  0.00    -0.020 A 
HETATM    8  C11 UNL     1     120.398  20.376  27.322  1.00  0.00     0.052 C 
HETATM    9  C12 UNL     1     122.122  20.329  29.229  1.00  0.00     0.056 A 
HETATM   10  C13 UNL     1     121.880  21.664  29.805  1.00  0.00     0.077 C 
HETATM   11  O1  UNL     1     122.999  19.462  29.664  1.00  0.00    -0.314 OA
HETATM   12  C14 UNL     1     122.978  18.356  28.936  1.00  0.00     0.089 A 
HETATM   13  C15 UNL     1     123.678  17.170  28.968  1.00  0.00     0.076 A 
HETATM   14  C16 UNL     1     123.412  16.175  28.037  1.00  0.00     0.093 A 
HETATM   15  O2  UNL     1     124.064  15.032  28.043  1.00  0.00    -0.274 OA
HETATM   16  C17 UNL     1     123.841  14.070  27.181  1.00  0.00     0.295 A 
HETATM   17  O3  UNL     1     124.560  13.032  27.329  1.00  0.00    -0.259 OA
ENDROOT
BRANCH   1  18
HETATM   18  C3  UNL     1     122.694  13.063  25.250  1.00  0.00     0.045 C 
BRANCH  18  19
HETATM   19  C2  UNL     1     121.915  11.901  25.779  1.00  0.00     0.000 C 
HETATM   20  C1  UNL     1     120.652  11.599  25.044  1.00  0.00     0.005 C 
ENDBRANCH  18  19
ENDBRANCH   1  18
TORSDOF 2
ENDMDL
