MODEL 3
REMARK VINA RESULT: -9.256706687      1.788      6.939
REMARK  2 active torsions:
REMARK  status: ('A' for Active; 'I' for Inactive)
REMARK    1  A    between atoms: C2_2  and  C3_3 
REMARK    2  A    between atoms: C3_3  and  C4_4 
ROOT
HETATM    1  C4  UNL     1     123.256  12.056  25.911  1.00  0.00     0.024 A 
HETATM    2  C5  UNL     1     123.602  13.062  26.785  1.00  0.00    -0.037 A 
HETATM    3  C6  UNL     1     124.575  12.827  27.860  1.00  0.00     0.050 C 
HETATM    4  C7  UNL     1     123.018  14.318  26.637  1.00  0.00     0.005 A 
HETATM    5  C8  UNL     1     123.337  15.363  27.495  1.00  0.00     0.029 A 
HETATM    6  C9  UNL     1     122.772  16.615  27.367  1.00  0.00     0.007 A 
HETATM    7  C10 UNL     1     122.920  17.792  28.074  1.00  0.00    -0.020 A 
HETATM    8  C11 UNL     1     123.819  17.947  29.241  1.00  0.00     0.052 C 
HETATM    9  C12 UNL     1     122.101  18.696  27.481  1.00  0.00     0.056 A 
HETATM   10  C13 UNL     1     121.926  20.099  27.897  1.00  0.00     0.077 C 
HETATM   11  O1  UNL     1     121.490  18.120  26.478  1.00  0.00    -0.314 OA
HETATM   12  C14 UNL     1     121.859  16.854  26.359  1.00  0.00     0.089 A 
HETATM   13  C15 UNL     1     121.526  15.832  25.497  1.00  0.00     0.076 A 
HETATM   14  C16 UNL     1     122.106  14.579  25.640  1.00  0.00     0.093 A 
HETATM   15  O2  UNL     1     121.809  13.584  24.832  1.00  0.00    -0.274 OA
HETATM   16  C17 UNL     1     122.334  12.387  24.936  1.00  0.00     0.295 A 
HETATM   17  O3  UNL     1     121.937  11.543  24.073  1.00  0.00    -0.259 OA
ENDROOT
BRANCH   1  18
HETATM   18  C3  UNL     1     123.803  10.709  25.977  1.00  0.00     0.045 C 
BRANCH  18  19
HETATM   19  C2  UNL     1     122.946   9.691  26.661  1.00  0.00     0.000 C 
HETATM   20  C1  UNL     1     123.464   8.293  26.614  1.00  0.00     0.005 C 
ENDBRANCH  18  19
ENDBRANCH   1  18
TORSDOF 2
ENDMDL
