MODEL 6
REMARK VINA RESULT: -7.174248608      2.577      4.668
REMARK  1 active torsions:
REMARK  status: ('A' for Active; 'I' for Inactive)
REMARK    1  A    between atoms: C7_7  and  C8_8 
ROOT
HETATM    1  C1  UNL     1      24.943  20.569  21.492  1.00  0.00     0.015 C 
HETATM    2  C2  UNL     1      23.564  21.170  21.419  1.00  0.00    -0.046 C 
HETATM    3  C3  UNL     1      22.701  20.691  22.586  1.00  0.00     0.015 C 
HETATM    4  C4  UNL     1      23.595  22.677  21.501  1.00  0.00     0.018 C 
HETATM    5  C5  UNL     1      22.615  23.147  20.478  1.00  0.00     0.022 C 
HETATM    6  C6  UNL     1      23.128  24.368  19.807  1.00  0.00    -0.007 C 
HETATM    7  C7  UNL     1      23.948  24.061  18.822  1.00  0.00     0.022 C 
HETATM    8  C9  UNL     1      24.071  22.584  18.733  1.00  0.00     0.062 C 
HETATM    9  C10 UNL     1      24.249  22.121  17.316  1.00  0.00     0.189 C 
HETATM   10  O3  UNL     1      23.252  22.748  16.520  1.00  0.00    -0.318 OA
HETATM   11  C11 UNL     1      22.014  22.940  17.147  1.00  0.00     0.297 C 
HETATM   12  O4  UNL     1      21.217  23.761  16.636  1.00  0.00    -0.262 OA
HETATM   13  C12 UNL     1      21.678  22.194  18.360  1.00  0.00     0.178 A 
HETATM   14  C13 UNL     1      20.301  22.326  18.906  1.00  0.00     0.219 A 
HETATM   15  O5  UNL     1      20.747  21.178  18.235  1.00  0.00    -0.363 OA
HETATM   16  C14 UNL     1      22.782  22.124  19.347  1.00  0.00     0.020 C 
HETATM   17  C15 UNL     1      22.895  20.835  20.089  1.00  0.00     0.023 C 
ENDROOT
BRANCH   7  18
HETATM   18  C8  UNL     1      24.621  25.057  17.964  1.00  0.00     0.205 C 
HETATM   19  O1  UNL     1      25.530  24.703  17.168  1.00  0.00    -0.644 OA
HETATM   20  O2  UNL     1      24.292  26.391  17.996  1.00  0.00    -0.644 OA
ENDBRANCH   7  18
TORSDOF 1
ENDMDL
