MODEL 15
REMARK VINA RESULT: -5.736004037      2.452      4.601
REMARK  1 active torsions:
REMARK  status: ('A' for Active; 'I' for Inactive)
REMARK    1  A    between atoms: C7_7  and  C8_8 
ROOT
HETATM    1  C1  UNL     1      19.860  23.177  21.239  1.00  0.00     0.015 C 
HETATM    2  C2  UNL     1      21.103  24.004  21.038  1.00  0.00    -0.046 C 
HETATM    3  C3  UNL     1      20.975  25.355  21.742  1.00  0.00     0.015 C 
HETATM    4  C4  UNL     1      22.329  23.337  21.613  1.00  0.00     0.018 C 
HETATM    5  C5  UNL     1      23.402  23.543  20.596  1.00  0.00     0.022 C 
HETATM    6  C6  UNL     1      24.254  22.331  20.504  1.00  0.00    -0.007 C 
HETATM    7  C7  UNL     1      23.721  21.434  19.700  1.00  0.00     0.022 C 
HETATM    8  C9  UNL     1      22.440  21.961  19.165  1.00  0.00     0.062 C 
HETATM    9  C10 UNL     1      22.184  21.495  17.761  1.00  0.00     0.189 C 
HETATM   10  O3  UNL     1      23.362  21.730  16.999  1.00  0.00    -0.318 OA
HETATM   11  C11 UNL     1      24.078  22.885  17.339  1.00  0.00     0.297 C 
HETATM   12  O4  UNL     1      25.265  22.976  16.949  1.00  0.00    -0.262 OA
HETATM   13  C12 UNL     1      23.441  23.943  18.125  1.00  0.00     0.178 A 
HETATM   14  C13 UNL     1      24.193  25.208  18.337  1.00  0.00     0.219 A 
HETATM   15  O5  UNL     1      23.107  25.108  17.455  1.00  0.00    -0.363 OA
HETATM   16  C14 UNL     1      22.641  23.443  19.267  1.00  0.00     0.020 C 
HETATM   17  C15 UNL     1      21.390  24.202  19.553  1.00  0.00     0.023 C 
ENDROOT
BRANCH   7  18
HETATM   18  C8  UNL     1      24.332  20.123  19.401  1.00  0.00     0.205 C 
HETATM   19  O1  UNL     1      25.503  20.054  18.944  1.00  0.00    -0.644 OA
HETATM   20  O2  UNL     1      23.660  18.941  19.602  1.00  0.00    -0.644 OA
ENDBRANCH   7  18
TORSDOF 1
ENDMDL
