MODEL 3
REMARK VINA RESULT: -7.436313720      1.209      1.484
REMARK  1 active torsions:
REMARK  status: ('A' for Active; 'I' for Inactive)
REMARK    1  A    between atoms: C7_7  and  C8_8 
ROOT
HETATM    1  C1  UNL     1      23.479  24.522  17.090  1.00  0.00     0.015 C 
HETATM    2  C2  UNL     1      24.149  23.346  17.751  1.00  0.00    -0.046 C 
HETATM    3  C3  UNL     1      25.444  22.982  17.025  1.00  0.00     0.015 C 
HETATM    4  C4  UNL     1      24.531  23.640  19.182  1.00  0.00     0.018 C 
HETATM    5  C5  UNL     1      24.169  22.410  19.945  1.00  0.00     0.022 C 
HETATM    6  C6  UNL     1      23.620  22.780  21.274  1.00  0.00    -0.007 C 
HETATM    7  C7  UNL     1      22.336  23.061  21.197  1.00  0.00     0.022 C 
HETATM    8  C9  UNL     1      21.887  22.906  19.790  1.00  0.00     0.062 C 
HETATM    9  C10 UNL     1      20.473  22.409  19.703  1.00  0.00     0.189 C 
HETATM   10  O3  UNL     1      20.351  21.281  20.560  1.00  0.00    -0.318 OA
HETATM   11  C11 UNL     1      21.483  20.459  20.639  1.00  0.00     0.297 C 
HETATM   12  O4  UNL     1      21.563  19.659  21.600  1.00  0.00    -0.262 OA
HETATM   13  C12 UNL     1      22.529  20.546  19.619  1.00  0.00     0.178 A 
HETATM   14  C13 UNL     1      23.639  19.557  19.666  1.00  0.00     0.219 A 
HETATM   15  O5  UNL     1      22.611  19.502  18.713  1.00  0.00    -0.363 OA
HETATM   16  C14 UNL     1      22.890  21.934  19.245  1.00  0.00     0.020 C 
HETATM   17  C15 UNL     1      23.211  22.145  17.804  1.00  0.00     0.023 C 
ENDROOT
BRANCH   7  18
HETATM   18  C8  UNL     1      21.505  23.462  22.351  1.00  0.00     0.205 C 
HETATM   19  O1  UNL     1      20.612  24.340  22.219  1.00  0.00    -0.644 OA
HETATM   20  O2  UNL     1      21.667  22.906  23.597  1.00  0.00    -0.644 OA
ENDBRANCH   7  18
TORSDOF 1
ENDMDL
