MODEL 13
REMARK VINA RESULT: -6.164847634      2.526      4.983
REMARK  1 active torsions:
REMARK  status: ('A' for Active; 'I' for Inactive)
REMARK    1  A    between atoms: C7_7  and  C8_8 
ROOT
HETATM    1  C1  UNL     1      22.437  19.092  19.240  1.00  0.00     0.015 C 
HETATM    2  C2  UNL     1      22.546  20.194  20.260  1.00  0.00    -0.046 C 
HETATM    3  C3  UNL     1      22.180  19.683  21.654  1.00  0.00     0.015 C 
HETATM    4  C4  UNL     1      23.952  20.738  20.362  1.00  0.00     0.018 C 
HETATM    5  C5  UNL     1      23.794  22.219  20.452  1.00  0.00     0.022 C 
HETATM    6  C6  UNL     1      24.871  22.892  19.683  1.00  0.00    -0.007 C 
HETATM    7  C7  UNL     1      24.561  22.978  18.406  1.00  0.00     0.022 C 
HETATM    8  C9  UNL     1      23.228  22.363  18.186  1.00  0.00     0.062 C 
HETATM    9  C10 UNL     1      22.460  23.061  17.102  1.00  0.00     0.189 C 
HETATM   10  O3  UNL     1      22.505  24.458  17.362  1.00  0.00    -0.318 OA
HETATM   11  C11 UNL     1      22.483  24.819  18.715  1.00  0.00     0.297 C 
HETATM   12  O4  UNL     1      22.846  25.980  19.020  1.00  0.00    -0.262 OA
HETATM   13  C12 UNL     1      22.045  23.858  19.728  1.00  0.00     0.178 A 
HETATM   14  C13 UNL     1      21.904  24.332  21.131  1.00  0.00     0.219 A 
HETATM   15  O5  UNL     1      20.804  24.071  20.301  1.00  0.00    -0.363 OA
HETATM   16  C14 UNL     1      22.593  22.495  19.538  1.00  0.00     0.020 C 
HETATM   17  C15 UNL     1      21.665  21.379  19.878  1.00  0.00     0.023 C 
ENDROOT
BRANCH   7  18
HETATM   18  C8  UNL     1      25.429  23.597  17.383  1.00  0.00     0.205 C 
HETATM   19  O1  UNL     1      26.193  22.886  16.681  1.00  0.00    -0.644 OA
HETATM   20  O2  UNL     1      25.441  24.953  17.158  1.00  0.00    -0.644 OA
ENDBRANCH   7  18
TORSDOF 1
ENDMDL
