MODEL 1
REMARK VINA RESULT: -9.258668435      0.000      0.000
REMARK  1 active torsions:
REMARK  status: ('A' for Active; 'I' for Inactive)
REMARK    1  A    between atoms: C7_7  and  C8_8 
ROOT
HETATM    1  C1  UNL     1      22.776  24.508  16.473  1.00  0.00     0.015 C 
HETATM    2  C2  UNL     1      23.644  23.972  17.582  1.00  0.00    -0.046 C 
HETATM    3  C3  UNL     1      25.124  24.189  17.266  1.00  0.00     0.015 C 
HETATM    4  C4  UNL     1      23.381  24.668  18.896  1.00  0.00     0.018 C 
HETATM    5  C5  UNL     1      23.371  23.583  19.920  1.00  0.00     0.022 C 
HETATM    6  C6  UNL     1      22.324  23.855  20.938  1.00  0.00    -0.007 C 
HETATM    7  C7  UNL     1      21.145  23.429  20.534  1.00  0.00     0.022 C 
HETATM    8  C9  UNL     1      21.283  22.820  19.186  1.00  0.00     0.062 C 
HETATM    9  C10 UNL     1      20.339  21.670  18.990  1.00  0.00     0.189 C 
HETATM   10  O3  UNL     1      20.456  20.809  20.116  1.00  0.00    -0.318 OA
HETATM   11  C11 UNL     1      21.742  20.702  20.660  1.00  0.00     0.297 C 
HETATM   12  O4  UNL     1      21.853  20.239  21.819  1.00  0.00    -0.262 OA
HETATM   13  C12 UNL     1      22.909  21.122  19.883  1.00  0.00     0.178 A 
HETATM   14  C13 UNL     1      24.259  20.857  20.447  1.00  0.00     0.219 A 
HETATM   15  O5  UNL     1      23.722  20.121  19.380  1.00  0.00    -0.363 OA
HETATM   16  C14 UNL     1      22.725  22.409  19.172  1.00  0.00     0.020 C 
HETATM   17  C15 UNL     1      23.362  22.493  17.826  1.00  0.00     0.023 C 
ENDROOT
BRANCH   7  18
HETATM   18  C8  UNL     1      19.904  23.553  21.324  1.00  0.00     0.205 C 
HETATM   19  O1  UNL     1      19.927  23.405  22.574  1.00  0.00    -0.644 OA
HETATM   20  O2  UNL     1      18.690  23.827  20.741  1.00  0.00    -0.644 OA
ENDBRANCH   7  18
TORSDOF 1
ENDMDL
