MODEL 7
REMARK VINA RESULT: -9.725657110      3.116      9.219
REMARK  7 active torsions:
REMARK  status: ('A' for Active; 'I' for Inactive)
REMARK    1  A    between atoms: C2_2  and  N1_3 
REMARK    2  A    between atoms: N2_6  and  C5_7 
REMARK    3  A    between atoms: C5_7  and  C6_8 
REMARK    4  A    between atoms: C9_11  and  N3_12 
REMARK    5  A    between atoms: N3_12  and  C10_14 
REMARK    6  A    between atoms: C13_20  and  C14_21 
REMARK    7  A    between atoms: N6_30  and  C20_31 
ROOT
HETATM    1  C10 UNL     1      19.145  40.026  -8.685  1.00  0.00     0.684 A 
HETATM    2  N4  UNL     1      18.251  40.821  -9.343  1.00  0.00    -0.199 N 
ATOM      3  H4  UNL     1      17.659  41.461  -8.814  1.00  0.00     0.183 HD
HETATM    4  C11 UNL     1      18.146  40.766 -10.669  1.00  0.00     0.150 A 
HETATM    5  C12 UNL     1      18.909  39.931 -11.443  1.00  0.00     0.160 A 
HETATM    6  F1  UNL     1      18.808  39.870 -12.795  1.00  0.00    -0.202 F 
HETATM    7  C13 UNL     1      19.815  39.125 -10.788  1.00  0.00     0.099 A 
HETATM    8  N7  UNL     1      19.871  39.226  -9.466  1.00  0.00    -0.188 N 
ATOM      9  H7  UNL     1      20.546  38.623  -8.995  1.00  0.00     0.184 HD
ENDROOT
BRANCH   1  10
HETATM   10  N3  UNL     1      19.244  40.098  -7.265  1.00  0.00    -0.176 N 
ATOM     11  H3  UNL     1      18.428  40.464  -6.774  1.00  0.00     0.186 HD
BRANCH  10  12
HETATM   12  C9  UNL     1      20.333  39.723  -6.463  1.00  0.00     0.120 A 
HETATM   13  C8  UNL     1      21.600  40.239  -6.571  1.00  0.00     0.050 A 
HETATM   14  C7  UNL     1      22.585  39.790  -5.723  1.00  0.00     0.014 A 
HETATM   15  C6  UNL     1      22.303  38.840  -4.785  1.00  0.00    -0.015 A 
HETATM   16  C25 UNL     1      21.005  38.325  -4.689  1.00  0.00     0.098 A 
HETATM   17  N8  UNL     1      20.082  38.779  -5.518  1.00  0.00    -0.351 N 
ATOM     18  H8  UNL     1      19.136  38.402  -5.446  1.00  0.00     0.166 HD
BRANCH  15  19
HETATM   19  C5  UNL     1      23.336  38.315  -3.838  1.00  0.00     0.312 C 
BRANCH  19  20
HETATM   20  N2  UNL     1      24.330  37.632  -4.599  1.00  0.00     0.096 N 
HETATM   21  C4  UNL     1      23.779  36.454  -5.291  1.00  0.00     0.303 C 
HETATM   22  C3  UNL     1      24.835  35.996  -6.236  1.00  0.00     0.302 C 
HETATM   23  N1  UNL     1      26.071  35.612  -5.599  1.00  0.00     0.091 N 
HETATM   24  C27 UNL     1      26.493  36.498  -4.554  1.00  0.00     0.302 C 
HETATM   25  C26 UNL     1      25.374  37.075  -3.740  1.00  0.00     0.303 C 
BRANCH  23  26
HETATM   26  C2  UNL     1      25.972  34.239  -5.217  1.00  0.00     0.268 C 
HETATM   27  C1  UNL     1      25.712  33.298  -6.363  1.00  0.00     0.037 C 
ENDBRANCH  23  26
ENDBRANCH  19  20
ENDBRANCH  15  19
ENDBRANCH  10  12
ENDBRANCH   1  10
BRANCH   7  28
HETATM   28  C14 UNL     1      20.699  38.183 -11.476  1.00  0.00    -0.001 A 
HETATM   29  C15 UNL     1      20.831  36.872 -11.019  1.00  0.00     0.058 A 
HETATM   30  C16 UNL     1      21.658  35.974 -11.654  1.00  0.00     0.146 A 
HETATM   31  F2  UNL     1      21.764  34.721 -11.190  1.00  0.00    -0.204 F 
HETATM   32  C17 UNL     1      22.395  36.326 -12.775  1.00  0.00     0.099 A 
HETATM   33  N5  UNL     1      23.257  35.706 -13.591  1.00  0.00    -0.342 N 
HETATM   34  C23 UNL     1      22.253  37.625 -13.215  1.00  0.00     0.067 A 
HETATM   35  C18 UNL     1      23.683  36.555 -14.548  1.00  0.00     0.080 A 
ATOM     36  H5  UNL     1      23.549  34.733 -13.502  1.00  0.00     0.167 HD
HETATM   37  C19 UNL     1      24.645  36.238 -15.638  1.00  0.00     0.089 C 
HETATM   38  N6  UNL     1      23.065  37.720 -14.309  1.00  0.00    -0.331 N 
HETATM   39  C24 UNL     1      21.427  38.533 -12.584  1.00  0.00     0.046 A 
BRANCH  38  40
HETATM   40  C20 UNL     1      23.244  38.911 -15.112  1.00  0.00     0.083 C 
HETATM   41  C21 UNL     1      23.483  40.124 -14.222  1.00  0.00     0.032 C 
HETATM   42  C22 UNL     1      21.981  39.197 -15.928  1.00  0.00     0.032 C 
ENDBRANCH  38  40
ENDBRANCH   7  28
TORSDOF 7
ENDMDL
