MODEL 6
REMARK VINA RESULT: -9.728863139      2.052      5.870
REMARK  7 active torsions:
REMARK  status: ('A' for Active; 'I' for Inactive)
REMARK    1  A    between atoms: C2_2  and  N1_3 
REMARK    2  A    between atoms: N2_6  and  C5_7 
REMARK    3  A    between atoms: C5_7  and  C6_8 
REMARK    4  A    between atoms: C9_11  and  N3_12 
REMARK    5  A    between atoms: N3_12  and  C10_14 
REMARK    6  A    between atoms: C13_20  and  C14_21 
REMARK    7  A    between atoms: N6_30  and  C20_31 
ROOT
HETATM    1  C10 UNL     1      20.658  40.182  -6.026  1.00  0.00     0.684 A 
HETATM    2  N4  UNL     1      20.580  41.118  -5.035  1.00  0.00    -0.199 N 
ATOM      3  H4  UNL     1      19.922  41.892  -5.123  1.00  0.00     0.183 HD
HETATM    4  C11 UNL     1      21.354  41.027  -3.956  1.00  0.00     0.150 A 
HETATM    5  C12 UNL     1      22.259  40.013  -3.772  1.00  0.00     0.160 A 
HETATM    6  F1  UNL     1      23.051  39.914  -2.674  1.00  0.00    -0.202 F 
HETATM    7  C13 UNL     1      22.346  39.064  -4.767  1.00  0.00     0.099 A 
HETATM    8  N7  UNL     1      21.548  39.211  -5.817  1.00  0.00    -0.188 N 
ATOM      9  H7  UNL     1      21.623  38.501  -6.546  1.00  0.00     0.184 HD
ENDROOT
BRANCH   1  10
HETATM   10  N3  UNL     1      19.822  40.296  -7.175  1.00  0.00    -0.176 N 
ATOM     11  H3  UNL     1      19.031  40.936  -7.095  1.00  0.00     0.186 HD
BRANCH  10  12
HETATM   12  C9  UNL     1      19.958  39.630  -8.402  1.00  0.00     0.120 A 
HETATM   13  C8  UNL     1      19.991  40.246  -9.628  1.00  0.00     0.050 A 
HETATM   14  C7  UNL     1      20.130  39.482 -10.762  1.00  0.00     0.014 A 
HETATM   15  C6  UNL     1      20.233  38.125 -10.668  1.00  0.00    -0.015 A 
HETATM   16  C25 UNL     1      20.197  37.514  -9.409  1.00  0.00     0.098 A 
HETATM   17  N8  UNL     1      20.064  38.276  -8.339  1.00  0.00    -0.351 N 
ATOM     18  H8  UNL     1      20.038  37.829  -7.422  1.00  0.00     0.166 HD
BRANCH  15  19
HETATM   19  C5  UNL     1      20.385  37.245 -11.870  1.00  0.00     0.312 C 
BRANCH  19  20
HETATM   20  N2  UNL     1      21.731  37.349 -12.330  1.00  0.00     0.096 N 
HETATM   21  C4  UNL     1      21.807  37.946 -13.673  1.00  0.00     0.303 C 
HETATM   22  C3  UNL     1      23.248  38.233 -13.919  1.00  0.00     0.302 C 
HETATM   23  N1  UNL     1      24.095  37.065 -13.892  1.00  0.00     0.091 N 
HETATM   24  C27 UNL     1      23.800  36.152 -12.828  1.00  0.00     0.302 C 
HETATM   25  C26 UNL     1      22.342  36.032 -12.498  1.00  0.00     0.303 C 
BRANCH  23  26
HETATM   26  C2  UNL     1      24.102  36.485 -15.197  1.00  0.00     0.268 C 
HETATM   27  C1  UNL     1      24.828  37.303 -16.232  1.00  0.00     0.037 C 
ENDBRANCH  23  26
ENDBRANCH  19  20
ENDBRANCH  15  19
ENDBRANCH  10  12
ENDBRANCH   1  10
BRANCH   7  28
HETATM   28  C14 UNL     1      23.263  37.924  -4.714  1.00  0.00    -0.001 A 
HETATM   29  C15 UNL     1      23.960  37.629  -3.543  1.00  0.00     0.058 A 
HETATM   30  C16 UNL     1      24.825  36.562  -3.476  1.00  0.00     0.146 A 
HETATM   31  F2  UNL     1      25.481  36.304  -2.336  1.00  0.00    -0.204 F 
HETATM   32  C17 UNL     1      25.044  35.730  -4.565  1.00  0.00     0.099 A 
HETATM   33  N5  UNL     1      25.795  34.648  -4.811  1.00  0.00    -0.342 N 
HETATM   34  C23 UNL     1      24.348  36.034  -5.714  1.00  0.00     0.067 A 
HETATM   35  C18 UNL     1      25.613  34.237  -6.081  1.00  0.00     0.080 A 
ATOM     36  H5  UNL     1      26.415  34.201  -4.135  1.00  0.00     0.167 HD
HETATM   37  C19 UNL     1      26.271  33.069  -6.730  1.00  0.00     0.089 C 
HETATM   38  N6  UNL     1      24.730  35.088  -6.623  1.00  0.00    -0.331 N 
HETATM   39  C24 UNL     1      23.478  37.103  -5.791  1.00  0.00     0.046 A 
BRANCH  38  40
HETATM   40  C20 UNL     1      24.253  35.002  -7.986  1.00  0.00     0.083 C 
HETATM   41  C21 UNL     1      25.236  35.673  -8.938  1.00  0.00     0.032 C 
HETATM   42  C22 UNL     1      22.918  35.735  -8.132  1.00  0.00     0.032 C 
ENDBRANCH  38  40
ENDBRANCH   7  28
TORSDOF 7
ENDMDL
