MODEL 5
REMARK VINA RESULT: -9.790021249      1.130      1.468
REMARK  7 active torsions:
REMARK  status: ('A' for Active; 'I' for Inactive)
REMARK    1  A    between atoms: C2_2  and  N1_3 
REMARK    2  A    between atoms: N2_6  and  C5_7 
REMARK    3  A    between atoms: C5_7  and  C6_8 
REMARK    4  A    between atoms: C9_11  and  N3_12 
REMARK    5  A    between atoms: N3_12  and  C10_14 
REMARK    6  A    between atoms: C13_20  and  C14_21 
REMARK    7  A    between atoms: N6_30  and  C20_31 
ROOT
HETATM    1  C10 UNL     1      24.376  34.640  -9.778  1.00  0.00     0.684 A 
HETATM    2  N4  UNL     1      25.084  33.474  -9.746  1.00  0.00    -0.199 N 
ATOM      3  H4  UNL     1      25.189  32.923 -10.598  1.00  0.00     0.183 HD
HETATM    4  C11 UNL     1      25.637  33.049  -8.612  1.00  0.00     0.150 A 
HETATM    5  C12 UNL     1      25.537  33.738  -7.432  1.00  0.00     0.160 A 
HETATM    6  F1  UNL     1      26.099  33.312  -6.272  1.00  0.00    -0.202 F 
HETATM    7  C13 UNL     1      24.824  34.917  -7.453  1.00  0.00     0.099 A 
HETATM    8  N7  UNL     1      24.297  35.286  -8.614  1.00  0.00    -0.188 N 
ATOM      9  H7  UNL     1      23.772  36.160  -8.615  1.00  0.00     0.184 HD
ENDROOT
BRANCH   1  10
HETATM   10  N3  UNL     1      23.790  35.080 -11.001  1.00  0.00    -0.176 N 
ATOM     11  H3  UNL     1      24.214  34.723 -11.858  1.00  0.00     0.186 HD
BRANCH  10  12
HETATM   12  C9  UNL     1      22.698  35.945 -11.165  1.00  0.00     0.120 A 
HETATM   13  C8  UNL     1      21.691  36.120 -10.247  1.00  0.00     0.050 A 
HETATM   14  C7  UNL     1      20.673  37.000 -10.524  1.00  0.00     0.014 A 
HETATM   15  C6  UNL     1      20.664  37.692 -11.700  1.00  0.00    -0.015 A 
HETATM   16  C25 UNL     1      21.698  37.502 -12.624  1.00  0.00     0.098 A 
HETATM   17  N8  UNL     1      22.662  36.649 -12.327  1.00  0.00    -0.351 N 
ATOM     18  H8  UNL     1      23.415  36.512 -13.002  1.00  0.00     0.166 HD
BRANCH  15  19
HETATM   19  C5  UNL     1      19.579  38.662 -12.053  1.00  0.00     0.312 C 
BRANCH  19  20
HETATM   20  N2  UNL     1      19.850  39.894 -11.387  1.00  0.00     0.096 N 
HETATM   21  C4  UNL     1      19.233  39.942 -10.051  1.00  0.00     0.303 C 
HETATM   22  C3  UNL     1      19.799  41.143  -9.375  1.00  0.00     0.302 C 
HETATM   23  N1  UNL     1      19.520  42.387 -10.050  1.00  0.00     0.091 N 
HETATM   24  C27 UNL     1      19.671  42.328 -11.474  1.00  0.00     0.302 C 
HETATM   25  C26 UNL     1      19.251  41.026 -12.089  1.00  0.00     0.303 C 
BRANCH  23  26
HETATM   26  C2  UNL     1      18.252  42.868  -9.600  1.00  0.00     0.268 C 
HETATM   27  C1  UNL     1      18.195  43.170  -8.126  1.00  0.00     0.037 C 
ENDBRANCH  23  26
ENDBRANCH  19  20
ENDBRANCH  15  19
ENDBRANCH  10  12
ENDBRANCH   1  10
BRANCH   7  28
HETATM   28  C14 UNL     1      24.630  35.763  -6.274  1.00  0.00    -0.001 A 
HETATM   29  C15 UNL     1      25.246  35.443  -5.064  1.00  0.00     0.058 A 
HETATM   30  C16 UNL     1      25.074  36.227  -3.946  1.00  0.00     0.146 A 
HETATM   31  F2  UNL     1      25.678  35.893  -2.798  1.00  0.00    -0.204 F 
HETATM   32  C17 UNL     1      24.285  37.367  -3.969  1.00  0.00     0.099 A 
HETATM   33  N5  UNL     1      23.931  38.308  -3.082  1.00  0.00    -0.342 N 
HETATM   34  C23 UNL     1      23.684  37.670  -5.172  1.00  0.00     0.067 A 
HETATM   35  C18 UNL     1      23.120  39.213  -3.665  1.00  0.00     0.080 A 
ATOM     36  H5  UNL     1      24.232  38.336  -2.108  1.00  0.00     0.167 HD
HETATM   37  C19 UNL     1      22.518  40.405  -3.008  1.00  0.00     0.089 C 
HETATM   38  N6  UNL     1      22.976  38.815  -4.937  1.00  0.00    -0.331 N 
HETATM   39  C24 UNL     1      23.850  36.890  -6.298  1.00  0.00     0.046 A 
BRANCH  38  40
HETATM   40  C20 UNL     1      22.176  39.515  -5.919  1.00  0.00     0.083 C 
HETATM   41  C21 UNL     1      21.282  38.538  -6.674  1.00  0.00     0.032 C 
HETATM   42  C22 UNL     1      23.076  40.190  -6.957  1.00  0.00     0.032 C 
ENDBRANCH  38  40
ENDBRANCH   7  28
TORSDOF 7
ENDMDL
