MODEL 8
REMARK VINA RESULT: -9.621705296      1.975      6.188
REMARK  7 active torsions:
REMARK  status: ('A' for Active; 'I' for Inactive)
REMARK    1  A    between atoms: C2_2  and  N1_3 
REMARK    2  A    between atoms: N2_6  and  C5_7 
REMARK    3  A    between atoms: C5_7  and  C6_8 
REMARK    4  A    between atoms: C9_11  and  N3_12 
REMARK    5  A    between atoms: N3_12  and  C10_14 
REMARK    6  A    between atoms: C13_20  and  C14_21 
REMARK    7  A    between atoms: N6_30  and  C20_31 
ROOT
HETATM    1  C10 UNL     1      24.477  37.031  -4.028  1.00  0.00     0.684 A 
HETATM    2  N4  UNL     1      25.195  36.110  -3.321  1.00  0.00    -0.199 N 
ATOM      3  H4  UNL     1      25.392  36.272  -2.334  1.00  0.00     0.183 HD
HETATM    4  C11 UNL     1      25.639  35.001  -3.911  1.00  0.00     0.150 A 
HETATM    5  C12 UNL     1      25.411  34.718  -5.232  1.00  0.00     0.160 A 
HETATM    6  F1  UNL     1      25.860  33.591  -5.840  1.00  0.00    -0.202 F 
HETATM    7  C13 UNL     1      24.687  35.642  -5.954  1.00  0.00     0.099 A 
HETATM    8  N7  UNL     1      24.273  36.726  -5.310  1.00  0.00    -0.188 N 
ATOM      9  H7  UNL     1      23.739  37.401  -5.856  1.00  0.00     0.184 HD
ENDROOT
BRANCH   1  10
HETATM   10  N3  UNL     1      24.009  38.211  -3.381  1.00  0.00    -0.176 N 
ATOM     11  H3  UNL     1      24.617  38.601  -2.660  1.00  0.00     0.186 HD
BRANCH  10  12
HETATM   12  C9  UNL     1      22.811  38.901  -3.619  1.00  0.00     0.120 A 
HETATM   13  C8  UNL     1      22.582  40.214  -3.290  1.00  0.00     0.050 A 
HETATM   14  C7  UNL     1      21.363  40.778  -3.577  1.00  0.00     0.014 A 
HETATM   15  C6  UNL     1      20.389  40.038  -4.182  1.00  0.00    -0.015 A 
HETATM   16  C25 UNL     1      20.639  38.700  -4.510  1.00  0.00     0.098 A 
HETATM   17  N8  UNL     1      21.822  38.188  -4.221  1.00  0.00    -0.351 N 
ATOM     18  H8  UNL     1      22.002  37.213  -4.462  1.00  0.00     0.166 HD
BRANCH  15  19
HETATM   19  C5  UNL     1      19.042  40.601  -4.516  1.00  0.00     0.312 C 
BRANCH  19  20
HETATM   20  N2  UNL     1      19.172  41.394  -5.694  1.00  0.00     0.096 N 
HETATM   21  C4  UNL     1      18.008  42.273  -5.895  1.00  0.00     0.303 C 
HETATM   22  C3  UNL     1      18.381  43.214  -6.987  1.00  0.00     0.302 C 
HETATM   23  N1  UNL     1      18.687  42.570  -8.242  1.00  0.00     0.091 N 
HETATM   24  C27 UNL     1      19.491  41.391  -8.115  1.00  0.00     0.302 C 
HETATM   25  C26 UNL     1      19.196  40.566  -6.898  1.00  0.00     0.303 C 
BRANCH  23  26
HETATM   26  C2  UNL     1      17.467  42.391  -8.964  1.00  0.00     0.268 C 
HETATM   27  C1  UNL     1      17.545  41.360 -10.058  1.00  0.00     0.037 C 
ENDBRANCH  23  26
ENDBRANCH  19  20
ENDBRANCH  15  19
ENDBRANCH  10  12
ENDBRANCH   1  10
BRANCH   7  28
HETATM   28  C14 UNL     1      24.363  35.481  -7.373  1.00  0.00    -0.001 A 
HETATM   29  C15 UNL     1      25.213  34.766  -8.217  1.00  0.00     0.058 A 
HETATM   30  C16 UNL     1      24.923  34.605  -9.552  1.00  0.00     0.146 A 
HETATM   31  F2  UNL     1      25.759  33.914 -10.338  1.00  0.00    -0.204 F 
HETATM   32  C17 UNL     1      23.776  35.141 -10.120  1.00  0.00     0.099 A 
HETATM   33  N5  UNL     1      23.229  35.159 -11.343  1.00  0.00    -0.342 N 
HETATM   34  C23 UNL     1      22.946  35.843  -9.273  1.00  0.00     0.067 A 
HETATM   35  C18 UNL     1      22.071  35.849 -11.322  1.00  0.00     0.080 A 
ATOM     36  H5  UNL     1      23.629  34.715 -12.169  1.00  0.00     0.167 HD
HETATM   37  C19 UNL     1      21.172  36.091 -12.484  1.00  0.00     0.089 C 
HETATM   38  N6  UNL     1      21.909  36.262 -10.057  1.00  0.00    -0.331 N 
HETATM   39  C24 UNL     1      23.229  36.011  -7.932  1.00  0.00     0.046 A 
BRANCH  38  40
HETATM   40  C20 UNL     1      20.780  37.042  -9.598  1.00  0.00     0.083 C 
HETATM   41  C21 UNL     1      20.578  38.262 -10.489  1.00  0.00     0.032 C 
HETATM   42  C22 UNL     1      21.032  37.561  -8.180  1.00  0.00     0.032 C 
ENDBRANCH  38  40
ENDBRANCH   7  28
TORSDOF 7
ENDMDL
