MODEL 1
REMARK VINA RESULT: -10.498211270      0.000      0.000
REMARK  7 active torsions:
REMARK  status: ('A' for Active; 'I' for Inactive)
REMARK    1  A    between atoms: C2_2  and  N1_3 
REMARK    2  A    between atoms: N2_6  and  C5_7 
REMARK    3  A    between atoms: C5_7  and  C6_8 
REMARK    4  A    between atoms: C9_11  and  N3_12 
REMARK    5  A    between atoms: N3_12  and  C10_14 
REMARK    6  A    between atoms: C13_20  and  C14_21 
REMARK    7  A    between atoms: N6_30  and  C20_31 
ROOT
HETATM    1  C10 UNL     1      25.145  34.234  -9.320  1.00  0.00     0.684 A 
HETATM    2  N4  UNL     1      25.664  33.008  -9.019  1.00  0.00    -0.199 N 
ATOM      3  H4  UNL     1      25.882  32.353  -9.769  1.00  0.00     0.183 HD
HETATM    4  C11 UNL     1      25.888  32.661  -7.753  1.00  0.00     0.150 A 
HETATM    5  C12 UNL     1      25.620  33.490  -6.695  1.00  0.00     0.160 A 
HETATM    6  F1  UNL     1      25.845  33.144  -5.402  1.00  0.00    -0.202 F 
HETATM    7  C13 UNL     1      25.095  34.731  -6.989  1.00  0.00     0.099 A 
HETATM    8  N7  UNL     1      24.895  35.016  -8.269  1.00  0.00    -0.188 N 
ATOM      9  H7  UNL     1      24.507  35.937  -8.472  1.00  0.00     0.184 HD
ENDROOT
BRANCH   1  10
HETATM   10  N3  UNL     1      24.912  34.589 -10.681  1.00  0.00    -0.176 N 
ATOM     11  H3  UNL     1      25.656  34.359 -11.340  1.00  0.00     0.186 HD
BRANCH  10  12
HETATM   12  C9  UNL     1      23.780  35.218 -11.220  1.00  0.00     0.120 A 
HETATM   13  C8  UNL     1      23.793  36.065 -12.300  1.00  0.00     0.050 A 
HETATM   14  C7  UNL     1      22.613  36.620 -12.735  1.00  0.00     0.014 A 
HETATM   15  C6  UNL     1      21.441  36.330 -12.098  1.00  0.00    -0.015 A 
HETATM   16  C25 UNL     1      21.447  35.465 -10.998  1.00  0.00     0.098 A 
HETATM   17  N8  UNL     1      22.598  34.948 -10.606  1.00  0.00    -0.351 N 
ATOM     18  H8  UNL     1      22.599  34.316  -9.804  1.00  0.00     0.166 HD
BRANCH  15  19
HETATM   19  C5  UNL     1      20.129  36.907 -12.529  1.00  0.00     0.312 C 
BRANCH  19  20
HETATM   20  N2  UNL     1      20.097  38.279 -12.140  1.00  0.00     0.096 N 
HETATM   21  C4  UNL     1      19.999  38.434 -10.679  1.00  0.00     0.303 C 
HETATM   22  C3  UNL     1      20.235  39.877 -10.398  1.00  0.00     0.302 C 
HETATM   23  N1  UNL     1      19.277  40.763 -11.014  1.00  0.00     0.091 N 
HETATM   24  C27 UNL     1      18.951  40.423 -12.368  1.00  0.00     0.302 C 
HETATM   25  C26 UNL     1      18.900  38.950 -12.644  1.00  0.00     0.303 C 
BRANCH  23  26
HETATM   26  C2  UNL     1      18.155  40.890 -10.140  1.00  0.00     0.268 C 
HETATM   27  C1  UNL     1      18.518  41.186  -8.710  1.00  0.00     0.037 C 
ENDBRANCH  23  26
ENDBRANCH  19  20
ENDBRANCH  15  19
ENDBRANCH  10  12
ENDBRANCH   1  10
BRANCH   7  28
HETATM   28  C14 UNL     1      24.757  35.725  -5.969  1.00  0.00    -0.001 A 
HETATM   29  C15 UNL     1      25.357  35.680  -4.710  1.00  0.00     0.058 A 
HETATM   30  C16 UNL     1      25.051  36.606  -3.740  1.00  0.00     0.146 A 
HETATM   31  F2  UNL     1      25.643  36.536  -2.540  1.00  0.00    -0.204 F 
HETATM   32  C17 UNL     1      24.137  37.625  -3.966  1.00  0.00     0.099 A 
HETATM   33  N5  UNL     1      23.642  38.646  -3.253  1.00  0.00    -0.342 N 
HETATM   34  C23 UNL     1      23.555  37.656  -5.214  1.00  0.00     0.067 A 
HETATM   35  C18 UNL     1      22.756  39.341  -3.993  1.00  0.00     0.080 A 
ATOM     36  H5  UNL     1      23.898  38.866  -2.290  1.00  0.00     0.167 HD
HETATM   37  C19 UNL     1      21.995  40.543  -3.553  1.00  0.00     0.089 C 
HETATM   38  N6  UNL     1      22.710  38.730  -5.186  1.00  0.00    -0.331 N 
HETATM   39  C24 UNL     1      23.854  36.731  -6.194  1.00  0.00     0.046 A 
BRANCH  38  40
HETATM   40  C20 UNL     1      21.875  39.163  -6.286  1.00  0.00     0.083 C 
HETATM   41  C21 UNL     1      21.396  37.964  -7.095  1.00  0.00     0.032 C 
HETATM   42  C22 UNL     1      22.671  40.057  -7.240  1.00  0.00     0.032 C 
ENDBRANCH  38  40
ENDBRANCH   7  28
TORSDOF 7
ENDMDL
