MODEL 3
REMARK VINA RESULT: -10.164936080      0.944      1.244
REMARK  7 active torsions:
REMARK  status: ('A' for Active; 'I' for Inactive)
REMARK    1  A    between atoms: C2_2  and  N1_3 
REMARK    2  A    between atoms: N2_6  and  C5_7 
REMARK    3  A    between atoms: C5_7  and  C6_8 
REMARK    4  A    between atoms: C9_11  and  N3_12 
REMARK    5  A    between atoms: N3_12  and  C10_14 
REMARK    6  A    between atoms: C13_20  and  C14_21 
REMARK    7  A    between atoms: N6_30  and  C20_31 
ROOT
HETATM    1  C10 UNL     1      25.149  34.291  -9.242  1.00  0.00     0.684 A 
HETATM    2  N4  UNL     1      25.688  33.062  -8.992  1.00  0.00    -0.199 N 
ATOM      3  H4  UNL     1      25.889  32.431  -9.768  1.00  0.00     0.183 HD
HETATM    4  C11 UNL     1      25.953  32.681  -7.744  1.00  0.00     0.150 A 
HETATM    5  C12 UNL     1      25.710  33.477  -6.655  1.00  0.00     0.160 A 
HETATM    6  F1  UNL     1      25.978  33.096  -5.380  1.00  0.00    -0.202 F 
HETATM    7  C13 UNL     1      25.165  34.720  -6.897  1.00  0.00     0.099 A 
HETATM    8  N7  UNL     1      24.924  35.040  -8.162  1.00  0.00    -0.188 N 
ATOM      9  H7  UNL     1      24.521  35.962  -8.327  1.00  0.00     0.184 HD
ENDROOT
BRANCH   1  10
HETATM   10  N3  UNL     1      24.872  34.682 -10.585  1.00  0.00    -0.176 N 
ATOM     11  H3  UNL     1      25.641  34.593 -11.248  1.00  0.00     0.186 HD
BRANCH  10  12
HETATM   12  C9  UNL     1      23.663  35.175 -11.100  1.00  0.00     0.120 A 
HETATM   13  C8  UNL     1      22.460  35.147 -10.441  1.00  0.00     0.050 A 
HETATM   14  C7  UNL     1      21.344  35.663 -11.053  1.00  0.00     0.014 A 
HETATM   15  C6  UNL     1      21.433  36.198 -12.306  1.00  0.00    -0.015 A 
HETATM   16  C25 UNL     1      22.668  36.219 -12.963  1.00  0.00     0.098 A 
HETATM   17  N8  UNL     1      23.722  35.715 -12.346  1.00  0.00    -0.351 N 
ATOM     18  H8  UNL     1      24.622  35.731 -12.827  1.00  0.00     0.166 HD
BRANCH  15  19
HETATM   19  C5  UNL     1      20.249  36.774 -13.020  1.00  0.00     0.312 C 
BRANCH  19  20
HETATM   20  N2  UNL     1      20.376  38.194 -13.017  1.00  0.00     0.096 N 
HETATM   21  C4  UNL     1      19.697  38.803 -11.861  1.00  0.00     0.303 C 
HETATM   22  C3  UNL     1      20.120  40.231 -11.837  1.00  0.00     0.302 C 
HETATM   23  N1  UNL     1      19.758  40.974 -13.020  1.00  0.00     0.091 N 
HETATM   24  C27 UNL     1      19.977  40.266 -14.246  1.00  0.00     0.302 C 
HETATM   25  C26 UNL     1      19.706  38.793 -14.170  1.00  0.00     0.303 C 
BRANCH  23  26
HETATM   26  C2  UNL     1      18.433  41.478 -12.846  1.00  0.00     0.268 C 
HETATM   27  C1  UNL     1      18.206  42.175 -11.531  1.00  0.00     0.037 C 
ENDBRANCH  23  26
ENDBRANCH  19  20
ENDBRANCH  15  19
ENDBRANCH  10  12
ENDBRANCH   1  10
BRANCH   7  28
HETATM   28  C14 UNL     1      24.850  35.681  -5.839  1.00  0.00    -0.001 A 
HETATM   29  C15 UNL     1      25.433  35.562  -4.578  1.00  0.00     0.058 A 
HETATM   30  C16 UNL     1      25.148  36.457  -3.572  1.00  0.00     0.146 A 
HETATM   31  F2  UNL     1      25.724  36.316  -2.370  1.00  0.00    -0.204 F 
HETATM   32  C17 UNL     1      24.271  37.515  -3.763  1.00  0.00     0.099 A 
HETATM   33  N5  UNL     1      23.802  38.521  -3.012  1.00  0.00    -0.342 N 
HETATM   34  C23 UNL     1      23.704  37.618  -5.015  1.00  0.00     0.067 A 
HETATM   35  C18 UNL     1      22.948  39.276  -3.731  1.00  0.00     0.080 A 
ATOM     36  H5  UNL     1      24.055  38.691  -2.039  1.00  0.00     0.167 HD
HETATM   37  C19 UNL     1      22.222  40.483  -3.248  1.00  0.00     0.089 C 
HETATM   38  N6  UNL     1      22.895  38.718  -4.949  1.00  0.00    -0.331 N 
HETATM   39  C24 UNL     1      23.983  36.726  -6.030  1.00  0.00     0.046 A 
BRANCH  38  40
HETATM   40  C20 UNL     1      22.087  39.224  -6.037  1.00  0.00     0.083 C 
HETATM   41  C21 UNL     1      21.478  38.073  -6.830  1.00  0.00     0.032 C 
HETATM   42  C22 UNL     1      22.949  40.030  -7.011  1.00  0.00     0.032 C 
ENDBRANCH  38  40
ENDBRANCH   7  28
TORSDOF 7
ENDMDL
