MODEL 18
REMARK VINA RESULT: -9.236838721      2.470      3.168
REMARK  7 active torsions:
REMARK  status: ('A' for Active; 'I' for Inactive)
REMARK    1  A    between atoms: C2_2  and  N1_3 
REMARK    2  A    between atoms: N2_6  and  C5_7 
REMARK    3  A    between atoms: C5_7  and  C6_8 
REMARK    4  A    between atoms: C9_11  and  N3_12 
REMARK    5  A    between atoms: N3_12  and  C10_14 
REMARK    6  A    between atoms: C13_20  and  C14_21 
REMARK    7  A    between atoms: N6_30  and  C20_31 
ROOT
HETATM    1  C10 UNL     1      23.496  34.707  -9.724  1.00  0.00     0.684 A 
HETATM    2  N4  UNL     1      24.444  33.726  -9.784  1.00  0.00    -0.199 N 
ATOM      3  H4  UNL     1      24.494  33.121 -10.603  1.00  0.00     0.183 HD
HETATM    4  C11 UNL     1      25.303  33.554  -8.781  1.00  0.00     0.150 A 
HETATM    5  C12 UNL     1      25.294  34.330  -7.651  1.00  0.00     0.160 A 
HETATM    6  F1  UNL     1      26.167  34.160  -6.626  1.00  0.00    -0.202 F 
HETATM    7  C13 UNL     1      24.341  35.322  -7.581  1.00  0.00     0.099 A 
HETATM    8  N7  UNL     1      23.514  35.443  -8.612  1.00  0.00    -0.188 N 
ATOM      9  H7  UNL     1      22.813  36.181  -8.546  1.00  0.00     0.184 HD
ENDROOT
BRANCH   1  10
HETATM   10  N3  UNL     1      22.584  34.877 -10.806  1.00  0.00    -0.176 N 
ATOM     11  H3  UNL     1      21.805  34.220 -10.846  1.00  0.00     0.186 HD
BRANCH  10  12
HETATM   12  C9  UNL     1      22.633  35.843 -11.823  1.00  0.00     0.120 A 
HETATM   13  C8  UNL     1      21.690  36.821 -12.021  1.00  0.00     0.050 A 
HETATM   14  C7  UNL     1      21.851  37.712 -13.055  1.00  0.00     0.014 A 
HETATM   15  C6  UNL     1      22.938  37.623 -13.875  1.00  0.00    -0.015 A 
HETATM   16  C25 UNL     1      23.889  36.619 -13.658  1.00  0.00     0.098 A 
HETATM   17  N8  UNL     1      23.705  35.779 -12.656  1.00  0.00    -0.351 N 
ATOM     18  H8  UNL     1      24.400  35.049 -12.499  1.00  0.00     0.166 HD
BRANCH  15  19
HETATM   19  C5  UNL     1      23.162  38.566 -15.016  1.00  0.00     0.312 C 
BRANCH  19  20
HETATM   20  N2  UNL     1      22.306  39.692 -14.838  1.00  0.00     0.096 N 
HETATM   21  C4  UNL     1      21.661  40.096 -16.098  1.00  0.00     0.303 C 
HETATM   22  C3  UNL     1      20.616  41.092 -15.729  1.00  0.00     0.302 C 
HETATM   23  N1  UNL     1      21.131  42.275 -15.082  1.00  0.00     0.091 N 
HETATM   24  C27 UNL     1      22.137  42.012 -14.096  1.00  0.00     0.302 C 
HETATM   25  C26 UNL     1      23.058  40.878 -14.434  1.00  0.00     0.303 C 
BRANCH  23  26
HETATM   26  C2  UNL     1      21.510  43.211 -16.092  1.00  0.00     0.268 C 
HETATM   27  C1  UNL     1      22.312  44.378 -15.581  1.00  0.00     0.037 C 
ENDBRANCH  23  26
ENDBRANCH  19  20
ENDBRANCH  15  19
ENDBRANCH  10  12
ENDBRANCH   1  10
BRANCH   7  28
HETATM   28  C14 UNL     1      24.206  36.230  -6.441  1.00  0.00    -0.001 A 
HETATM   29  C15 UNL     1      25.153  36.226  -5.417  1.00  0.00     0.058 A 
HETATM   30  C16 UNL     1      25.041  37.073  -4.338  1.00  0.00     0.146 A 
HETATM   31  F2  UNL     1      25.967  37.046  -3.369  1.00  0.00    -0.204 F 
HETATM   32  C17 UNL     1      23.988  37.968  -4.218  1.00  0.00     0.099 A 
HETATM   33  N5  UNL     1      23.610  38.891  -3.323  1.00  0.00    -0.342 N 
HETATM   34  C23 UNL     1      23.062  37.960  -5.238  1.00  0.00     0.067 A 
HETATM   35  C18 UNL     1      22.468  39.485  -3.725  1.00  0.00     0.080 A 
ATOM     36  H5  UNL     1      24.112  39.113  -2.464  1.00  0.00     0.167 HD
HETATM   37  C19 UNL     1      21.735  40.559  -3.001  1.00  0.00     0.089 C 
HETATM   38  N6  UNL     1      22.143  38.910  -4.891  1.00  0.00    -0.331 N 
HETATM   39  C24 UNL     1      23.164  37.114  -6.324  1.00  0.00     0.046 A 
BRANCH  38  40
HETATM   40  C20 UNL     1      20.974  39.261  -5.669  1.00  0.00     0.083 C 
HETATM   41  C21 UNL     1      21.097  40.682  -6.206  1.00  0.00     0.032 C 
HETATM   42  C22 UNL     1      19.720  39.221  -4.793  1.00  0.00     0.032 C 
ENDBRANCH  38  40
ENDBRANCH   7  28
TORSDOF 7
ENDMDL
