MODEL 11
REMARK VINA RESULT: -9.397542506      1.567      2.303
REMARK  7 active torsions:
REMARK  status: ('A' for Active; 'I' for Inactive)
REMARK    1  A    between atoms: C2_2  and  N1_3 
REMARK    2  A    between atoms: N2_6  and  C5_7 
REMARK    3  A    between atoms: C5_7  and  C6_8 
REMARK    4  A    between atoms: C9_11  and  N3_12 
REMARK    5  A    between atoms: N3_12  and  C10_14 
REMARK    6  A    between atoms: C13_20  and  C14_21 
REMARK    7  A    between atoms: N6_30  and  C20_31 
ROOT
HETATM    1  C10 UNL     1      23.506  34.707  -9.762  1.00  0.00     0.684 A 
HETATM    2  N4  UNL     1      24.441  33.715  -9.817  1.00  0.00    -0.199 N 
ATOM      3  H4  UNL     1      24.489  33.110 -10.637  1.00  0.00     0.183 HD
HETATM    4  C11 UNL     1      25.292  33.531  -8.810  1.00  0.00     0.150 A 
HETATM    5  C12 UNL     1      25.287  34.305  -7.679  1.00  0.00     0.160 A 
HETATM    6  F1  UNL     1      26.151  34.124  -6.648  1.00  0.00    -0.202 F 
HETATM    7  C13 UNL     1      24.345  35.310  -7.613  1.00  0.00     0.099 A 
HETATM    8  N7  UNL     1      23.526  35.442  -8.649  1.00  0.00    -0.188 N 
ATOM      9  H7  UNL     1      22.835  36.189  -8.587  1.00  0.00     0.184 HD
ENDROOT
BRANCH   1  10
HETATM   10  N3  UNL     1      22.603  34.891 -10.849  1.00  0.00    -0.176 N 
ATOM     11  H3  UNL     1      22.402  34.064 -11.412  1.00  0.00     0.186 HD
BRANCH  10  12
HETATM   12  C9  UNL     1      21.958  36.075 -11.236  1.00  0.00     0.120 A 
HETATM   13  C8  UNL     1      20.900  36.644 -10.573  1.00  0.00     0.050 A 
HETATM   14  C7  UNL     1      20.352  37.810 -11.052  1.00  0.00     0.014 A 
HETATM   15  C6  UNL     1      20.857  38.394 -12.177  1.00  0.00    -0.015 A 
HETATM   16  C25 UNL     1      21.936  37.800 -12.841  1.00  0.00     0.098 A 
HETATM   17  N8  UNL     1      22.440  36.680 -12.354  1.00  0.00    -0.351 N 
ATOM     18  H8  UNL     1      23.227  36.248 -12.839  1.00  0.00     0.166 HD
BRANCH  15  19
HETATM   19  C5  UNL     1      20.300  39.663 -12.744  1.00  0.00     0.312 C 
BRANCH  19  20
HETATM   20  N2  UNL     1      19.033  39.902 -12.135  1.00  0.00     0.096 N 
HETATM   21  C4  UNL     1      17.991  40.198 -13.132  1.00  0.00     0.303 C 
HETATM   22  C3  UNL     1      16.694  40.168 -12.400  1.00  0.00     0.302 C 
HETATM   23  N1  UNL     1      16.594  41.139 -11.338  1.00  0.00     0.091 N 
HETATM   24  C27 UNL     1      17.776  41.253 -10.535  1.00  0.00     0.302 C 
HETATM   25  C26 UNL     1      19.059  41.098 -11.294  1.00  0.00     0.303 C 
BRANCH  23  26
HETATM   26  C2  UNL     1      16.125  42.368 -11.894  1.00  0.00     0.268 C 
HETATM   27  C1  UNL     1      14.819  42.252 -12.634  1.00  0.00     0.037 C 
ENDBRANCH  23  26
ENDBRANCH  19  20
ENDBRANCH  15  19
ENDBRANCH  10  12
ENDBRANCH   1  10
BRANCH   7  28
HETATM   28  C14 UNL     1      24.216  36.219  -6.473  1.00  0.00    -0.001 A 
HETATM   29  C15 UNL     1      25.165  36.213  -5.451  1.00  0.00     0.058 A 
HETATM   30  C16 UNL     1      25.058  37.060  -4.372  1.00  0.00     0.146 A 
HETATM   31  F2  UNL     1      25.986  37.031  -3.406  1.00  0.00    -0.204 F 
HETATM   32  C17 UNL     1      24.007  37.957  -4.250  1.00  0.00     0.099 A 
HETATM   33  N5  UNL     1      23.633  38.881  -3.354  1.00  0.00    -0.342 N 
HETATM   34  C23 UNL     1      23.078  37.951  -5.267  1.00  0.00     0.067 A 
HETATM   35  C18 UNL     1      22.491  39.477  -3.753  1.00  0.00     0.080 A 
ATOM     36  H5  UNL     1      24.138  39.102  -2.496  1.00  0.00     0.167 HD
HETATM   37  C19 UNL     1      21.763  40.553  -3.027  1.00  0.00     0.089 C 
HETATM   38  N6  UNL     1      22.162  38.903  -4.919  1.00  0.00    -0.331 N 
HETATM   39  C24 UNL     1      23.176  37.104  -6.353  1.00  0.00     0.046 A 
BRANCH  38  40
HETATM   40  C20 UNL     1      20.992  39.256  -5.693  1.00  0.00     0.083 C 
HETATM   41  C21 UNL     1      21.120  40.673  -6.238  1.00  0.00     0.032 C 
HETATM   42  C22 UNL     1      19.741  39.227  -4.812  1.00  0.00     0.032 C 
ENDBRANCH  38  40
ENDBRANCH   7  28
TORSDOF 7
ENDMDL
