MODEL 1
REMARK VINA RESULT: -10.385821412      0.000      0.000
REMARK  5 active torsions:
REMARK  status: ('A' for Active; 'I' for Inactive)
REMARK    1  A    between atoms: C11_12  and  O2_13 
REMARK    2  A    between atoms: C15_20  and  C16_21 
REMARK    3  A    between atoms: C16_21  and  C17_22 
REMARK    4  A    between atoms: C25_40  and  N7_41 
REMARK    5  A    between atoms: N7_41  and  C26_43 
ROOT
HETATM    1  C1  UNL     1       9.137  37.625  21.481  1.00  0.00     0.049 C 
HETATM    2  C2  UNL     1       8.658  38.742  22.437  1.00  0.00    -0.055 A 
HETATM    3  C3  UNL     1       8.036  38.060  23.558  1.00  0.00     0.017 A 
HETATM    4  C4  UNL     1       7.452  38.675  24.629  1.00  0.00    -0.026 A 
HETATM    5  C5  UNL     1       7.496  40.027  24.594  1.00  0.00     0.010 A 
HETATM    6  C6  UNL     1       8.099  40.738  23.510  1.00  0.00     0.009 A 
HETATM    7  C7  UNL     1       8.679  40.109  22.430  1.00  0.00    -0.046 A 
HETATM    8  C8  UNL     1       9.214  41.045  21.347  1.00  0.00     0.039 C 
HETATM    9  C9  UNL     1      10.178  40.445  20.344  1.00  0.00     0.017 C 
HETATM   10  C10 UNL     1       8.141  41.606  20.431  1.00  0.00     0.188 C 
HETATM   11  O1  UNL     1       7.134  40.796  20.151  1.00  0.00    -0.316 OA
HETATM   12  C11 UNL     1       6.444  39.819  19.638  1.00  0.00     0.262 C 
HETATM   13  N1  UNL     1       5.071  39.449  19.836  1.00  0.00    -0.316 N 
ATOM     14  H1  UNL     1       4.560  39.305  18.964  1.00  0.00     0.170 HD
HETATM   15  C12 UNL     1       4.269  39.240  21.010  1.00  0.00     0.036 A 
HETATM   16  C13 UNL     1       2.947  39.683  20.741  1.00  0.00     0.030 A 
HETATM   17  C14 UNL     1       1.920  39.627  21.625  1.00  0.00     0.011 A 
HETATM   18  C15 UNL     1       2.197  39.099  22.875  1.00  0.00    -0.034 A 
HETATM   19  C20 UNL     1       3.498  38.644  23.205  1.00  0.00    -0.031 A 
HETATM   20  C21 UNL     1       4.524  38.716  22.263  1.00  0.00     0.039 A 
HETATM   21  C22 UNL     1       3.552  38.209  24.626  1.00  0.00     0.164 C 
HETATM   22  N6  UNL     1       4.381  38.999  25.527  1.00  0.00    -0.350 N 
HETATM   23  C23 UNL     1       3.929  40.384  25.674  1.00  0.00     0.153 C 
HETATM   24  C24 UNL     1       5.504  38.607  26.253  1.00  0.00     0.247 C 
HETATM   25  O3  UNL     1       5.499  38.869  27.504  1.00  0.00    -0.271 OA
HETATM   26  C25 UNL     1       6.726  37.919  25.745  1.00  0.00     0.208 C 
ENDROOT
BRANCH  26  27
HETATM   27  N7  UNL     1       7.570  37.689  26.893  1.00  0.00    -0.373 N 
ATOM     28  H7  UNL     1       7.797  38.470  27.508  1.00  0.00     0.161 HD
BRANCH  27  29
HETATM   29  C26 UNL     1       8.088  36.412  27.184  1.00  0.00     0.029 A 
HETATM   30  C27 UNL     1       8.330  35.467  26.212  1.00  0.00     0.030 A 
HETATM   31  C28 UNL     1       8.824  34.240  26.585  1.00  0.00     0.018 A 
HETATM   32  C29 UNL     1       9.099  33.883  27.889  1.00  0.00     0.015 A 
HETATM   33  C30 UNL     1       9.595  32.635  28.213  1.00  0.00     0.127 A 
HETATM   34  C33 UNL     1       8.849  34.849  28.847  1.00  0.00    -0.019 A 
HETATM   35  N8  UNL     1       9.840  31.668  27.199  1.00  0.00    -0.082 NA
HETATM   36  N9  UNL     1       9.830  32.388  29.516  1.00  0.00    -0.354 N 
HETATM   37  C31 UNL     1       9.604  33.295  30.494  1.00  0.00     0.090 A 
ATOM     38  H9  UNL     1      10.196  31.473  29.778  1.00  0.00     0.166 HD
HETATM   39  C32 UNL     1       9.109  34.538  30.167  1.00  0.00     0.029 A 
HETATM   40  C34 UNL     1       8.356  36.080  28.492  1.00  0.00     0.041 A 
ENDBRANCH  27  29
ENDBRANCH  26  27
BRANCH  18  41
HETATM   41  C16 UNL     1       1.017  38.918  23.788  1.00  0.00     0.049 A 
HETATM   42  C18 UNL     1       0.571  40.067  24.611  1.00  0.00     0.024 A 
HETATM   43  C19 UNL     1      -0.256  39.671  23.445  1.00  0.00     0.024 A 
BRANCH  41  44
HETATM   44  C17 UNL     1       0.698  37.521  24.250  1.00  0.00     0.126 A 
HETATM   45  N2  UNL     1       0.066  37.253  25.397  1.00  0.00    -0.271 N 
HETATM   46  N3  UNL     1      -0.010  35.939  25.469  1.00  0.00    -0.227 N 
ATOM     47  H2  UNL     1      -0.286  37.927  26.078  1.00  0.00     0.190 HD
HETATM   48  N4  UNL     1       0.553  35.397  24.409  1.00  0.00    -0.227 N 
ATOM     49  H3  UNL     1      -0.441  35.418  26.233  1.00  0.00     0.210 HD
HETATM   50  N5  UNL     1       0.990  36.388  23.656  1.00  0.00    -0.271 N 
ATOM     51  H4  UNL     1       0.636  34.400  24.207  1.00  0.00     0.210 HD
ATOM     52  H5  UNL     1       1.473  36.290  22.764  1.00  0.00     0.190 HD
ENDBRANCH  41  44
ENDBRANCH  18  41
BRANCH  12  53
HETATM   53  O2  UNL     1       7.042  39.007  18.799  1.00  0.00    -0.327 OA
ATOM     54  H2  UNL     1       7.152  38.099  19.052  1.00  0.00     0.221 HD
ENDBRANCH  12  53
TORSDOF 5
ENDMDL
