MODEL 3
REMARK VINA RESULT: -10.026905601      3.833      6.035
REMARK  5 active torsions:
REMARK  status: ('A' for Active; 'I' for Inactive)
REMARK    1  A    between atoms: C11_12  and  O2_13 
REMARK    2  A    between atoms: C15_20  and  C16_21 
REMARK    3  A    between atoms: C16_21  and  C17_22 
REMARK    4  A    between atoms: C25_40  and  N7_41 
REMARK    5  A    between atoms: N7_41  and  C26_43 
ROOT
HETATM    1  C1  UNL     1       3.066  34.791  24.593  1.00  0.00     0.049 C 
HETATM    2  C2  UNL     1       3.735  36.185  24.592  1.00  0.00    -0.055 A 
HETATM    3  C3  UNL     1       4.672  36.172  25.701  1.00  0.00     0.017 A 
HETATM    4  C4  UNL     1       5.461  37.221  26.078  1.00  0.00    -0.026 A 
HETATM    5  C5  UNL     1       5.325  38.330  25.314  1.00  0.00     0.010 A 
HETATM    6  C6  UNL     1       4.416  38.385  24.213  1.00  0.00     0.009 A 
HETATM    7  C7  UNL     1       3.617  37.324  23.846  1.00  0.00    -0.046 A 
HETATM    8  C8  UNL     1       2.669  37.602  22.680  1.00  0.00     0.039 C 
HETATM    9  C9  UNL     1       2.056  36.396  21.999  1.00  0.00     0.017 C 
HETATM   10  C10 UNL     1       1.428  38.387  23.067  1.00  0.00     0.188 C 
HETATM   11  O1  UNL     1       0.930  38.132  24.266  1.00  0.00    -0.316 OA
HETATM   12  C11 UNL     1       0.319  37.528  25.244  1.00  0.00     0.262 C 
HETATM   13  N1  UNL     1       0.127  37.932  26.608  1.00  0.00    -0.316 N 
ATOM     14  H1  UNL     1      -0.842  37.860  26.920  1.00  0.00     0.170 HD
HETATM   15  C12 UNL     1       1.020  38.418  27.624  1.00  0.00     0.036 A 
HETATM   16  C13 UNL     1       0.330  39.374  28.415  1.00  0.00     0.030 A 
HETATM   17  C14 UNL     1       0.867  40.031  29.473  1.00  0.00     0.011 A 
HETATM   18  C15 UNL     1       2.183  39.739  29.791  1.00  0.00    -0.034 A 
HETATM   19  C20 UNL     1       2.926  38.797  29.035  1.00  0.00    -0.031 A 
HETATM   20  C21 UNL     1       2.332  38.141  27.958  1.00  0.00     0.039 A 
HETATM   21  C22 UNL     1       4.329  38.731  29.523  1.00  0.00     0.164 C 
HETATM   22  N6  UNL     1       5.366  39.199  28.612  1.00  0.00    -0.350 N 
HETATM   23  C23 UNL     1       5.251  40.620  28.276  1.00  0.00     0.153 C 
HETATM   24  C24 UNL     1       6.427  38.489  28.053  1.00  0.00     0.247 C 
HETATM   25  O3  UNL     1       7.591  38.998  28.181  1.00  0.00    -0.271 OA
HETATM   26  C25 UNL     1       6.369  37.195  27.311  1.00  0.00     0.208 C 
ENDROOT
BRANCH  26  27
HETATM   27  N7  UNL     1       7.733  36.854  26.983  1.00  0.00    -0.373 N 
ATOM     28  H7  UNL     1       8.282  37.495  26.411  1.00  0.00     0.161 HD
BRANCH  27  29
HETATM   29  C26 UNL     1       8.323  35.657  27.434  1.00  0.00     0.029 A 
HETATM   30  C27 UNL     1       8.787  34.686  26.576  1.00  0.00     0.030 A 
HETATM   31  C28 UNL     1       9.338  33.541  27.101  1.00  0.00     0.018 A 
HETATM   32  C29 UNL     1       9.458  33.293  28.452  1.00  0.00     0.015 A 
HETATM   33  C30 UNL     1      10.020  32.125  28.931  1.00  0.00     0.127 A 
HETATM   34  C33 UNL     1       8.986  34.284  29.294  1.00  0.00    -0.019 A 
HETATM   35  N8  UNL     1      10.494  31.130  28.032  1.00  0.00    -0.082 NA
HETATM   36  N9  UNL     1      10.091  31.982  30.268  1.00  0.00    -0.354 N 
HETATM   37  C31 UNL     1       9.644  32.918  31.138  1.00  0.00     0.090 A 
ATOM     38  H9  UNL     1      10.501  31.127  30.644  1.00  0.00     0.166 HD
HETATM   39  C32 UNL     1       9.085  34.081  30.656  1.00  0.00     0.029 A 
HETATM   40  C34 UNL     1       8.434  35.434  28.787  1.00  0.00     0.041 A 
ENDBRANCH  27  29
ENDBRANCH  26  27
BRANCH  18  41
HETATM   41  C16 UNL     1       2.712  40.372  31.046  1.00  0.00     0.049 A 
HETATM   42  C18 UNL     1       3.703  41.468  30.928  1.00  0.00     0.024 A 
HETATM   43  C19 UNL     1       2.316  41.811  31.326  1.00  0.00     0.024 A 
BRANCH  41  44
HETATM   44  C17 UNL     1       2.673  39.557  32.311  1.00  0.00     0.126 A 
HETATM   45  N2  UNL     1       1.634  38.789  32.659  1.00  0.00    -0.271 N 
HETATM   46  N3  UNL     1       1.952  38.258  33.823  1.00  0.00    -0.227 N 
ATOM     47  H2  UNL     1       0.774  38.644  32.131  1.00  0.00     0.190 HD
HETATM   48  N4  UNL     1       3.145  38.675  34.197  1.00  0.00    -0.227 N 
ATOM     49  H3  UNL     1       1.362  37.619  34.356  1.00  0.00     0.210 HD
HETATM   50  N5  UNL     1       3.585  39.481  33.251  1.00  0.00    -0.271 N 
ATOM     51  H4  UNL     1       3.634  38.422  35.056  1.00  0.00     0.210 HD
ATOM     52  H5  UNL     1       4.482  39.964  33.250  1.00  0.00     0.190 HD
ENDBRANCH  41  44
ENDBRANCH  18  41
BRANCH  12  53
HETATM   53  O2  UNL     1      -0.229  36.360  25.009  1.00  0.00    -0.327 OA
ATOM     54  H2  UNL     1      -0.819  35.999  25.660  1.00  0.00     0.221 HD
ENDBRANCH  12  53
TORSDOF 5
ENDMDL
