MODEL 2
REMARK VINA RESULT: -10.119915131      3.312      6.845
REMARK  5 active torsions:
REMARK  status: ('A' for Active; 'I' for Inactive)
REMARK    1  A    between atoms: C11_12  and  O2_13 
REMARK    2  A    between atoms: C15_20  and  C16_21 
REMARK    3  A    between atoms: C16_21  and  C17_22 
REMARK    4  A    between atoms: C25_40  and  N7_41 
REMARK    5  A    between atoms: N7_41  and  C26_43 
ROOT
HETATM    1  C1  UNL     1       6.878  42.141  28.818  1.00  0.00     0.049 C 
HETATM    2  C2  UNL     1       5.975  41.613  27.679  1.00  0.00    -0.055 A 
HETATM    3  C3  UNL     1       6.602  40.387  27.216  1.00  0.00     0.017 A 
HETATM    4  C4  UNL     1       6.143  39.605  26.195  1.00  0.00    -0.026 A 
HETATM    5  C5  UNL     1       5.004  40.050  25.613  1.00  0.00     0.010 A 
HETATM    6  C6  UNL     1       4.355  41.250  26.037  1.00  0.00     0.009 A 
HETATM    7  C7  UNL     1       4.830  42.038  27.064  1.00  0.00    -0.046 A 
HETATM    8  C8  UNL     1       4.027  43.311  27.326  1.00  0.00     0.039 C 
HETATM    9  C9  UNL     1       4.266  44.006  28.651  1.00  0.00     0.017 C 
HETATM   10  C10 UNL     1       4.314  44.435  26.345  1.00  0.00     0.188 C 
HETATM   11  O1  UNL     1       5.563  44.528  25.918  1.00  0.00    -0.316 OA
HETATM   12  C11 UNL     1       6.842  44.768  25.891  1.00  0.00     0.262 C 
HETATM   13  N1  UNL     1       7.801  44.571  24.841  1.00  0.00    -0.316 N 
ATOM     14  H1  UNL     1       8.379  45.392  24.660  1.00  0.00     0.170 HD
HETATM   15  C12 UNL     1       8.114  43.454  23.993  1.00  0.00     0.036 A 
HETATM   16  C13 UNL     1       8.478  43.946  22.711  1.00  0.00     0.030 A 
HETATM   17  C14 UNL     1       8.844  43.167  21.663  1.00  0.00     0.011 A 
HETATM   18  C15 UNL     1       8.858  41.799  21.872  1.00  0.00    -0.034 A 
HETATM   19  C20 UNL     1       8.499  41.247  23.128  1.00  0.00    -0.031 A 
HETATM   20  C21 UNL     1       8.134  42.084  24.180  1.00  0.00     0.039 A 
HETATM   21  C22 UNL     1       8.510  39.761  23.064  1.00  0.00     0.164 C 
HETATM   22  N6  UNL     1       7.227  39.086  23.212  1.00  0.00    -0.350 N 
HETATM   23  C23 UNL     1       6.272  39.405  22.149  1.00  0.00     0.153 C 
HETATM   24  C24 UNL     1       6.817  38.191  24.199  1.00  0.00     0.247 C 
HETATM   25  O3  UNL     1       6.317  37.085  23.800  1.00  0.00    -0.271 OA
HETATM   26  C25 UNL     1       6.885  38.369  25.679  1.00  0.00     0.208 C 
ENDROOT
BRANCH  26  27
HETATM   27  N7  UNL     1       6.386  37.145  26.259  1.00  0.00    -0.373 N 
ATOM     28  H7  UNL     1       5.427  36.857  26.064  1.00  0.00     0.161 HD
BRANCH  27  29
HETATM   29  C26 UNL     1       7.191  36.339  27.087  1.00  0.00     0.029 A 
HETATM   30  C27 UNL     1       7.262  36.512  28.451  1.00  0.00     0.030 A 
HETATM   31  C28 UNL     1       8.085  35.688  29.184  1.00  0.00     0.018 A 
HETATM   32  C29 UNL     1       8.856  34.684  28.637  1.00  0.00     0.015 A 
HETATM   33  C30 UNL     1       9.667  33.883  29.417  1.00  0.00     0.127 A 
HETATM   34  C33 UNL     1       8.766  34.530  27.265  1.00  0.00    -0.019 A 
HETATM   35  N8  UNL     1       9.733  34.073  30.825  1.00  0.00    -0.082 NA
HETATM   36  N9  UNL     1      10.380  32.931  28.784  1.00  0.00    -0.354 N 
HETATM   37  C31 UNL     1      10.330  32.737  27.446  1.00  0.00     0.090 A 
ATOM     38  H9  UNL     1      10.986  32.328  29.340  1.00  0.00     0.166 HD
HETATM   39  C32 UNL     1       9.520  33.537  26.672  1.00  0.00     0.029 A 
HETATM   40  C34 UNL     1       7.950  35.343  26.518  1.00  0.00     0.041 A 
ENDBRANCH  27  29
ENDBRANCH  26  27
BRANCH  18  41
HETATM   41  C16 UNL     1       9.398  40.967  20.743  1.00  0.00     0.049 A 
HETATM   42  C18 UNL     1       8.513  40.664  19.593  1.00  0.00     0.024 A 
HETATM   43  C19 UNL     1       9.604  41.651  19.404  1.00  0.00     0.024 A 
BRANCH  41  44
HETATM   44  C17 UNL     1      10.545  40.039  21.045  1.00  0.00     0.126 A 
HETATM   45  N2  UNL     1      10.462  38.709  20.935  1.00  0.00    -0.271 N 
HETATM   46  N3  UNL     1      11.640  38.243  21.302  1.00  0.00    -0.227 N 
ATOM     47  H2  UNL     1       9.655  38.166  20.629  1.00  0.00     0.190 HD
HETATM   48  N4  UNL     1      12.435  39.240  21.632  1.00  0.00    -0.227 N 
ATOM     49  H3  UNL     1      11.897  37.256  21.327  1.00  0.00     0.210 HD
HETATM   50  N5  UNL     1      11.746  40.352  21.469  1.00  0.00    -0.271 N 
ATOM     51  H4  UNL     1      13.400  39.165  21.954  1.00  0.00     0.210 HD
ATOM     52  H5  UNL     1      12.089  41.296  21.643  1.00  0.00     0.190 HD
ENDBRANCH  41  44
ENDBRANCH  18  41
BRANCH  12  53
HETATM   53  O2  UNL     1       7.404  45.269  26.965  1.00  0.00    -0.327 OA
ATOM     54  H2  UNL     1       8.097  44.773  27.384  1.00  0.00     0.221 HD
ENDBRANCH  12  53
TORSDOF 5
ENDMDL
