MODEL 4
REMARK VINA RESULT: -6.168285326      3.604      4.219
REMARK  2 active torsions:
REMARK  status: ('A' for Active; 'I' for Inactive)
REMARK    1  A    between atoms: S1_2  and  N1_5 
REMARK    2  A    between atoms: N1_5  and  C2_7 
ROOT
HETATM    1  C2  UNL     1      12.749 -16.656 -20.574  1.00  0.00     0.056 A 
HETATM    2  C3  UNL     1      13.986 -17.229 -20.700  1.00  0.00     0.031 A 
HETATM    3  C4  UNL     1      14.162 -18.575 -20.411  1.00  0.00     0.005 A 
HETATM    4  C5  UNL     1      13.090 -19.337 -19.997  1.00  0.00     0.032 A 
HETATM    5  C6  UNL     1      11.838 -18.779 -19.865  1.00  0.00     0.062 A 
HETATM    6  N2  UNL     1      10.630 -19.287 -19.483  1.00  0.00    -0.300 N 
ATOM      7  H2  UNL     1      10.435 -20.249 -19.208  1.00  0.00     0.187 HD
HETATM    8  N3  UNL     1       9.773 -18.307 -19.537  1.00  0.00    -0.310 N 
ATOM      9  H3  UNL     1       8.784 -18.396 -19.303  1.00  0.00     0.186 HD
HETATM   10  C7  UNL     1      10.355 -17.163 -19.939  1.00  0.00     0.123 A 
HETATM   11  C8  UNL     1      11.692 -17.439 -20.158  1.00  0.00     0.036 A 
ENDROOT
BRANCH   1  12
HETATM   12  N1  UNL     1      12.528 -15.270 -20.863  1.00  0.00    -0.284 N 
ATOM     13  H1  UNL     1      12.287 -14.979 -21.810  1.00  0.00     0.178 HD
BRANCH  12  14
HETATM   14  S1  UNL     1      12.671 -14.083 -19.602  1.00  0.00     0.227 S 
HETATM   15  C1  UNL     1      14.316 -14.108 -18.934  1.00  0.00     0.186 C 
HETATM   16  O1  UNL     1      11.642 -14.267 -18.557  1.00  0.00    -0.206 OA
HETATM   17  O2  UNL     1      12.412 -12.743 -20.267  1.00  0.00    -0.206 OA
ENDBRANCH  12  14
ENDBRANCH   1  12
TORSDOF 2
ENDMDL
