MODEL 10
REMARK VINA RESULT: -6.063503374      3.056      4.033
REMARK  2 active torsions:
REMARK  status: ('A' for Active; 'I' for Inactive)
REMARK    1  A    between atoms: S1_2  and  N1_5 
REMARK    2  A    between atoms: N1_5  and  C2_7 
ROOT
HETATM    1  C2  UNL     1      12.976 -16.704 -20.616  1.00  0.00     0.056 A 
HETATM    2  C3  UNL     1      14.229 -17.241 -20.739  1.00  0.00     0.031 A 
HETATM    3  C4  UNL     1      14.444 -18.581 -20.446  1.00  0.00     0.005 A 
HETATM    4  C5  UNL     1      13.394 -19.372 -20.029  1.00  0.00     0.032 A 
HETATM    5  C6  UNL     1      12.127 -18.850 -19.899  1.00  0.00     0.062 A 
HETATM    6  N2  UNL     1      10.934 -19.391 -19.516  1.00  0.00    -0.300 N 
ATOM      7  H2  UNL     1      10.767 -20.358 -19.238  1.00  0.00     0.187 HD
HETATM    8  N3  UNL     1      10.049 -18.437 -19.573  1.00  0.00    -0.310 N 
ATOM      9  H3  UNL     1       9.063 -18.554 -19.339  1.00  0.00     0.186 HD
HETATM   10  C7  UNL     1      10.597 -17.278 -19.979  1.00  0.00     0.123 A 
HETATM   11  C8  UNL     1      11.942 -17.516 -20.197  1.00  0.00     0.036 A 
ENDROOT
BRANCH   1  12
HETATM   12  N1  UNL     1      12.715 -15.326 -20.910  1.00  0.00    -0.284 N 
ATOM     13  H1  UNL     1      12.461 -15.046 -21.857  1.00  0.00     0.178 HD
BRANCH  12  14
HETATM   14  S1  UNL     1      12.831 -14.130 -19.655  1.00  0.00     0.227 S 
HETATM   15  C1  UNL     1      12.694 -12.504 -20.355  1.00  0.00     0.186 C 
HETATM   16  O1  UNL     1      14.065 -14.291 -18.856  1.00  0.00    -0.206 OA
HETATM   17  O2  UNL     1      11.653 -14.387 -18.732  1.00  0.00    -0.206 OA
ENDBRANCH  12  14
ENDBRANCH   1  12
TORSDOF 2
ENDMDL
