MODEL 16
REMARK VINA RESULT: -5.850095011      3.621      4.547
REMARK  2 active torsions:
REMARK  status: ('A' for Active; 'I' for Inactive)
REMARK    1  A    between atoms: S1_2  and  N1_5 
REMARK    2  A    between atoms: N1_5  and  C2_7 
ROOT
HETATM    1  C2  UNL     1      12.272 -16.532 -20.585  1.00  0.00     0.056 A 
HETATM    2  C3  UNL     1      13.596 -16.333 -20.864  1.00  0.00     0.031 A 
HETATM    3  C4  UNL     1      14.513 -17.353 -20.650  1.00  0.00     0.005 A 
HETATM    4  C5  UNL     1      14.090 -18.568 -20.155  1.00  0.00     0.032 A 
HETATM    5  C6  UNL     1      12.762 -18.787 -19.868  1.00  0.00     0.062 A 
HETATM    6  N2  UNL     1      12.082 -19.866 -19.380  1.00  0.00    -0.300 N 
ATOM      7  H2  UNL     1      12.480 -20.770 -19.125  1.00  0.00     0.187 HD
HETATM    8  N3  UNL     1      10.828 -19.520 -19.302  1.00  0.00    -0.310 N 
ATOM      9  H3  UNL     1      10.084 -20.133 -18.968  1.00  0.00     0.186 HD
HETATM   10  C7  UNL     1      10.637 -18.256 -19.718  1.00  0.00     0.123 A 
HETATM   11  C8  UNL     1      11.872 -17.757 -20.090  1.00  0.00     0.036 A 
ENDROOT
BRANCH   1  12
HETATM   12  N1  UNL     1      11.295 -15.503 -20.792  1.00  0.00    -0.284 N 
ATOM     13  H1  UNL     1      10.618 -15.590 -21.550  1.00  0.00     0.178 HD
BRANCH  12  14
HETATM   14  S1  UNL     1      11.264 -14.110 -19.756  1.00  0.00     0.227 S 
HETATM   15  C1  UNL     1      12.174 -12.780 -20.504  1.00  0.00     0.186 C 
HETATM   16  O1  UNL     1      11.755 -14.425 -18.397  1.00  0.00    -0.206 OA
HETATM   17  O2  UNL     1       9.802 -13.719 -19.634  1.00  0.00    -0.206 OA
ENDBRANCH  12  14
ENDBRANCH   1  12
TORSDOF 2
ENDMDL
