MODEL 13
REMARK VINA RESULT: -5.965816532      3.423      4.480
REMARK  2 active torsions:
REMARK  status: ('A' for Active; 'I' for Inactive)
REMARK    1  A    between atoms: S1_2  and  N1_5 
REMARK    2  A    between atoms: N1_5  and  C2_7 
ROOT
HETATM    1  C2  UNL     1      12.380 -17.607 -20.320  1.00  0.00     0.056 A 
HETATM    2  C3  UNL     1      13.461 -16.850 -20.679  1.00  0.00     0.031 A 
HETATM    3  C4  UNL     1      14.736 -17.399 -20.654  1.00  0.00     0.005 A 
HETATM    4  C5  UNL     1      14.914 -18.709 -20.265  1.00  0.00     0.032 A 
HETATM    5  C6  UNL     1      13.839 -19.488 -19.899  1.00  0.00     0.062 A 
HETATM    6  N2  UNL     1      13.729 -20.783 -19.482  1.00  0.00    -0.300 N 
ATOM      7  H2  UNL     1      14.491 -21.449 -19.361  1.00  0.00     0.187 HD
HETATM    8  N3  UNL     1      12.463 -21.005 -19.267  1.00  0.00    -0.310 N 
ATOM      9  H3  UNL     1      12.084 -21.896 -18.946  1.00  0.00     0.186 HD
HETATM   10  C7  UNL     1      11.719 -19.915 -19.523  1.00  0.00     0.123 A 
HETATM   11  C8  UNL     1      12.584 -18.917 -19.934  1.00  0.00     0.036 A 
ENDROOT
BRANCH   1  12
HETATM   12  N1  UNL     1      11.049 -17.076 -20.334  1.00  0.00    -0.284 N 
ATOM     13  H1  UNL     1      10.249 -17.708 -20.369  1.00  0.00     0.178 HD
BRANCH  12  14
HETATM   14  S1  UNL     1      10.797 -15.358 -20.291  1.00  0.00     0.227 S 
HETATM   15  C1  UNL     1       9.071 -14.996 -20.506  1.00  0.00     0.186 C 
HETATM   16  O1  UNL     1      11.641 -14.654 -21.280  1.00  0.00    -0.206 OA
HETATM   17  O2  UNL     1      11.242 -14.910 -18.910  1.00  0.00    -0.206 OA
ENDBRANCH  12  14
ENDBRANCH   1  12
TORSDOF 2
ENDMDL
