MODEL 8
REMARK VINA RESULT: -6.076619406      2.461      3.212
REMARK  2 active torsions:
REMARK  status: ('A' for Active; 'I' for Inactive)
REMARK    1  A    between atoms: S1_2  and  N1_5 
REMARK    2  A    between atoms: N1_5  and  C2_7 
ROOT
HETATM    1  C2  UNL     1      13.821 -17.993 -20.485  1.00  0.00     0.056 A 
HETATM    2  C3  UNL     1      14.786 -18.960 -20.394  1.00  0.00     0.031 A 
HETATM    3  C4  UNL     1      14.479 -20.201 -19.852  1.00  0.00     0.005 A 
HETATM    4  C5  UNL     1      13.202 -20.461 -19.405  1.00  0.00     0.032 A 
HETATM    5  C6  UNL     1      12.217 -19.502 -19.488  1.00  0.00     0.062 A 
HETATM    6  N2  UNL     1      10.900 -19.489 -19.130  1.00  0.00    -0.300 N 
ATOM      7  H2  UNL     1      10.379 -20.256 -18.705  1.00  0.00     0.187 HD
HETATM    8  N3  UNL     1      10.436 -18.311 -19.436  1.00  0.00    -0.310 N 
ATOM      9  H3  UNL     1       9.472 -18.016 -19.280  1.00  0.00     0.186 HD
HETATM   10  C7  UNL     1      11.385 -17.533 -19.985  1.00  0.00     0.123 A 
HETATM   11  C8  UNL     1      12.549 -18.278 -20.030  1.00  0.00     0.036 A 
ENDROOT
BRANCH   1  12
HETATM   12  N1  UNL     1      14.099 -16.701 -21.038  1.00  0.00    -0.284 N 
ATOM     13  H1  UNL     1      13.988 -16.541 -22.039  1.00  0.00     0.178 HD
BRANCH  12  14
HETATM   14  S1  UNL     1      14.624 -15.406 -20.006  1.00  0.00     0.227 S 
HETATM   15  C1  UNL     1      15.831 -16.007 -18.850  1.00  0.00     0.186 C 
HETATM   16  O1  UNL     1      13.486 -14.747 -19.330  1.00  0.00    -0.206 OA
HETATM   17  O2  UNL     1      15.266 -14.382 -20.924  1.00  0.00    -0.206 OA
ENDBRANCH  12  14
ENDBRANCH   1  12
TORSDOF 2
ENDMDL
