MODEL 1
REMARK VINA RESULT: -7.048559198      0.000      0.000
REMARK  3 active torsions:
REMARK  status: ('A' for Active; 'I' for Inactive)
REMARK    1  A    between atoms: C7_8  and  N1_9 
REMARK    2  A    between atoms: N1_9  and  C8_11 
REMARK    3  A    between atoms: C12_17  and  C13_18 
ROOT
HETATM    1  C8  UNL     1       0.605  -0.143   8.887  1.00  0.00     0.122 A 
HETATM    2  N2  UNL     1       0.731   1.106   9.431  1.00  0.00    -0.351 N 
ATOM      3  H2  UNL     1       1.053   1.852   8.815  1.00  0.00     0.166 HD
HETATM    4  C9  UNL     1       0.472   1.429  10.690  1.00  0.00     0.090 A 
HETATM    5  C10 UNL     1       0.033   0.418  11.534  1.00  0.00     0.018 A 
HETATM    6  C11 UNL     1      -0.104  -0.843  11.024  1.00  0.00     0.024 A 
HETATM    7  C12 UNL     1       0.177  -1.162   9.688  1.00  0.00     0.084 A 
ENDROOT
BRANCH   1   8
HETATM    8  N1  UNL     1       0.918  -0.344   7.528  1.00  0.00    -0.341 N 
ATOM      9  H1  UNL     1       1.701  -0.969   7.334  1.00  0.00     0.167 HD
BRANCH   8  10
HETATM   10  C7  UNL     1       0.275   0.216   6.406  1.00  0.00     0.041 A 
HETATM   11  C2  UNL     1       0.150  -0.600   5.264  1.00  0.00    -0.013 A 
HETATM   12  C1  UNL     1       0.700  -1.972   5.338  1.00  0.00     0.052 C 
HETATM   13  C3  UNL     1      -0.467  -0.114   4.135  1.00  0.00     0.042 A 
HETATM   14 CL1  UNL     1      -0.578  -1.203   2.760  1.00  0.00    -0.084 Cl
HETATM   15  C4  UNL     1      -0.971   1.165   4.090  1.00  0.00     0.024 A 
HETATM   16  C5  UNL     1      -0.849   1.961   5.202  1.00  0.00     0.004 A 
HETATM   17  C6  UNL     1      -0.221   1.492   6.378  1.00  0.00     0.030 A 
ENDBRANCH   8  10
ENDBRANCH   1   8
BRANCH   7  18
HETATM   18  C13 UNL     1      -0.006  -2.525   9.266  1.00  0.00     0.213 C 
HETATM   19  O1  UNL     1       0.865  -2.993   8.451  1.00  0.00    -0.644 OA
HETATM   20  O2  UNL     1      -1.014  -3.380   9.640  1.00  0.00    -0.644 OA
ENDBRANCH   7  18
TORSDOF 3
ENDMDL
