MODEL 5
REMARK VINA RESULT: -6.668489732      1.494      2.436
REMARK  3 active torsions:
REMARK  status: ('A' for Active; 'I' for Inactive)
REMARK    1  A    between atoms: C7_8  and  N1_9 
REMARK    2  A    between atoms: N1_9  and  C8_11 
REMARK    3  A    between atoms: C12_17  and  C13_18 
ROOT
HETATM    1  C8  UNL     1      -0.335   1.137   8.650  1.00  0.00     0.122 A 
HETATM    2  N2  UNL     1       0.062   2.445   8.608  1.00  0.00    -0.351 N 
ATOM      3  H2  UNL     1      -0.102   2.954   7.739  1.00  0.00     0.166 HD
HETATM    4  C9  UNL     1       0.640   3.108   9.599  1.00  0.00     0.090 A 
HETATM    5  C10 UNL     1       0.865   2.422  10.785  1.00  0.00     0.018 A 
HETATM    6  C11 UNL     1       0.481   1.112  10.862  1.00  0.00     0.024 A 
HETATM    7  C12 UNL     1      -0.130   0.431   9.800  1.00  0.00     0.084 A 
ENDROOT
BRANCH   1   8
HETATM    8  N1  UNL     1      -0.940   0.558   7.517  1.00  0.00    -0.341 N 
ATOM      9  H1  UNL     1      -1.959   0.605   7.477  1.00  0.00     0.167 HD
BRANCH   8  10
HETATM   10  C7  UNL     1      -0.304  -0.080   6.433  1.00  0.00     0.041 A 
HETATM   11  C2  UNL     1      -0.182   0.655   5.237  1.00  0.00    -0.013 A 
HETATM   12  C1  UNL     1      -0.731   2.030   5.218  1.00  0.00     0.052 C 
HETATM   13  C3  UNL     1       0.429   0.090   4.142  1.00  0.00     0.042 A 
HETATM   14 CL1  UNL     1       0.535   1.081   2.694  1.00  0.00    -0.084 Cl
HETATM   15  C4  UNL     1       0.930  -1.189   4.183  1.00  0.00     0.024 A 
HETATM   16  C5  UNL     1       0.812  -1.907   5.348  1.00  0.00     0.004 A 
HETATM   17  C6  UNL     1       0.190  -1.356   6.491  1.00  0.00     0.030 A 
ENDBRANCH   8  10
ENDBRANCH   1   8
BRANCH   7  18
HETATM   18  C13 UNL     1      -0.490  -0.947   9.999  1.00  0.00     0.213 C 
HETATM   19  O1  UNL     1      -1.623  -1.316   9.529  1.00  0.00    -0.644 OA
HETATM   20  O2  UNL     1       0.248  -1.913  10.640  1.00  0.00    -0.644 OA
ENDBRANCH   7  18
TORSDOF 3
ENDMDL
