MODEL 2
REMARK VINA RESULT: -7.046275558      2.511      3.406
REMARK  3 active torsions:
REMARK  status: ('A' for Active; 'I' for Inactive)
REMARK    1  A    between atoms: C7_8  and  N1_9 
REMARK    2  A    between atoms: N1_9  and  C8_11 
REMARK    3  A    between atoms: C12_17  and  C13_18 
ROOT
HETATM    1  C8  UNL     1      -0.597   0.143   8.887  1.00  0.00     0.122 A 
HETATM    2  N2  UNL     1      -0.720  -1.107   9.429  1.00  0.00    -0.351 N 
ATOM      3  H2  UNL     1      -1.038  -1.854   8.812  1.00  0.00     0.166 HD
HETATM    4  C9  UNL     1      -0.460  -1.431  10.688  1.00  0.00     0.090 A 
HETATM    5  C10 UNL     1      -0.025  -0.420  11.534  1.00  0.00     0.018 A 
HETATM    6  C11 UNL     1       0.109   0.842  11.025  1.00  0.00     0.024 A 
HETATM    7  C12 UNL     1      -0.172   1.162   9.690  1.00  0.00     0.084 A 
ENDROOT
BRANCH   1   8
HETATM    8  N1  UNL     1      -0.909   0.345   7.528  1.00  0.00    -0.341 N 
ATOM      9  H1  UNL     1      -1.690   0.972   7.334  1.00  0.00     0.167 HD
BRANCH   8  10
HETATM   10  C7  UNL     1      -0.268  -0.218   6.406  1.00  0.00     0.041 A 
HETATM   11  C2  UNL     1      -0.144   0.596   5.262  1.00  0.00    -0.013 A 
HETATM   12  C1  UNL     1      -0.695   1.969   5.334  1.00  0.00     0.052 C 
HETATM   13  C3  UNL     1       0.471   0.108   4.133  1.00  0.00     0.042 A 
HETATM   14 CL1  UNL     1       0.579   1.194   2.755  1.00  0.00    -0.084 Cl
HETATM   15  C4  UNL     1       0.974  -1.171   4.090  1.00  0.00     0.024 A 
HETATM   16  C5  UNL     1       0.854  -1.965   5.203  1.00  0.00     0.004 A 
HETATM   17  C6  UNL     1       0.228  -1.493   6.379  1.00  0.00     0.030 A 
ENDBRANCH   8  10
ENDBRANCH   1   8
BRANCH   7  18
HETATM   18  C13 UNL     1       0.007   2.525   9.269  1.00  0.00     0.213 C 
HETATM   19  O1  UNL     1      -0.864   2.993   8.455  1.00  0.00    -0.644 OA
HETATM   20  O2  UNL     1       1.013   3.383   9.645  1.00  0.00    -0.644 OA
ENDBRANCH   7  18
TORSDOF 3
ENDMDL
