MODEL 1
REMARK VINA RESULT: -6.971831328      0.000      0.000
REMARK  4 active torsions:
REMARK  status: ('A' for Active; 'I' for Inactive)
REMARK    1  A    between atoms: S1_2  and  C1_4 
REMARK    2  A    between atoms: S1_2  and  C7_12 
REMARK    3  A    between atoms: C4_7  and  O3_8 
REMARK    4  A    between atoms: C10_15  and  O4_16 
ROOT
HETATM    1  O1  UNL     1     -41.753  -1.388  69.902  1.00  0.00    -0.217 OA
HETATM    2  S1  UNL     1     -42.302  -0.008  69.570  1.00  0.00     0.206 S 
HETATM    3  O2  UNL     1     -41.211   0.706  68.823  1.00  0.00    -0.217 OA
ENDROOT
BRANCH   2   4
HETATM    4  C1  UNL     1     -42.605   0.832  71.045  1.00  0.00     0.064 A 
HETATM    5  C2  UNL     1     -43.816   1.385  71.387  1.00  0.00     0.026 A 
HETATM    6  C3  UNL     1     -43.942   2.035  72.595  1.00  0.00     0.038 A 
HETATM    7  C4  UNL     1     -42.917   2.166  73.491  1.00  0.00     0.065 A 
HETATM    8  C5  UNL     1     -41.700   1.613  73.152  1.00  0.00     0.038 A 
HETATM    9  C6  UNL     1     -41.544   0.957  71.950  1.00  0.00     0.026 A 
BRANCH   7  10
HETATM   10  O3  UNL     1     -43.028   2.816  74.710  1.00  0.00    -0.361 OA
ATOM     11  H3  UNL     1     -42.992   3.759  74.816  1.00  0.00     0.217 HD
ENDBRANCH   7  10
ENDBRANCH   2   4
BRANCH   2  12
HETATM   12  C7  UNL     1     -43.692  -0.140  68.544  1.00  0.00     0.064 A 
HETATM   13  C8  UNL     1     -44.221   0.962  67.902  1.00  0.00     0.026 A 
HETATM   14  C9  UNL     1     -45.340   0.862  67.075  1.00  0.00     0.038 A 
HETATM   15  C10 UNL     1     -45.935  -0.352  66.889  1.00  0.00     0.065 A 
HETATM   16  C11 UNL     1     -45.439  -1.461  67.506  1.00  0.00     0.038 A 
HETATM   17  C12 UNL     1     -44.318  -1.352  68.334  1.00  0.00     0.026 A 
BRANCH  15  18
HETATM   18  O4  UNL     1     -47.051  -0.486  66.071  1.00  0.00    -0.361 OA
ATOM     19  H4  UNL     1     -47.566  -1.284  66.071  1.00  0.00     0.217 HD
ENDBRANCH  15  18
ENDBRANCH   2  12
TORSDOF 4
ENDMDL
