MODEL 10
REMARK VINA RESULT: -6.924789494      2.197      2.524
REMARK  4 active torsions:
REMARK  status: ('A' for Active; 'I' for Inactive)
REMARK    1  A    between atoms: S1_2  and  C1_4 
REMARK    2  A    between atoms: S1_2  and  C7_12 
REMARK    3  A    between atoms: C4_7  and  O3_8 
REMARK    4  A    between atoms: C10_15  and  O4_16 
ROOT
HETATM    1  O1  UNL     1     -41.376  -1.525  69.204  1.00  0.00    -0.217 OA
HETATM    2  S1  UNL     1     -42.411  -0.534  69.716  1.00  0.00     0.206 S 
HETATM    3  O2  UNL     1     -41.720   0.799  69.770  1.00  0.00    -0.217 OA
ENDROOT
BRANCH   2   4
HETATM    4  C1  UNL     1     -42.862  -0.988  71.316  1.00  0.00     0.064 A 
HETATM    5  C2  UNL     1     -44.007  -0.565  71.948  1.00  0.00     0.026 A 
HETATM    6  C3  UNL     1     -44.266  -0.994  73.231  1.00  0.00     0.038 A 
HETATM    7  C4  UNL     1     -43.438  -1.831  73.928  1.00  0.00     0.065 A 
HETATM    8  C5  UNL     1     -42.288  -2.259  73.298  1.00  0.00     0.038 A 
HETATM    9  C6  UNL     1     -42.002  -1.846  72.014  1.00  0.00     0.026 A 
BRANCH   7  10
HETATM   10  O3  UNL     1     -43.684  -2.272  75.218  1.00  0.00    -0.361 OA
ATOM     11  H3  UNL     1     -43.921  -3.164  75.441  1.00  0.00     0.217 HD
ENDBRANCH   7  10
ENDBRANCH   2   4
BRANCH   2  12
HETATM   12  C7  UNL     1     -43.746  -0.430  68.616  1.00  0.00     0.064 A 
HETATM   13  C8  UNL     1     -44.492  -1.543  68.283  1.00  0.00     0.026 A 
HETATM   14  C9  UNL     1     -45.568  -1.467  67.398  1.00  0.00     0.038 A 
HETATM   15  C10 UNL     1     -45.899  -0.265  66.842  1.00  0.00     0.065 A 
HETATM   16  C11 UNL     1     -45.185   0.855  67.149  1.00  0.00     0.038 A 
HETATM   17  C12 UNL     1     -44.108   0.768  68.036  1.00  0.00     0.026 A 
BRANCH  15  18
HETATM   18  O4  UNL     1     -46.966  -0.154  65.956  1.00  0.00    -0.361 OA
ATOM     19  H4  UNL     1     -47.149   0.664  65.509  1.00  0.00     0.217 HD
ENDBRANCH  15  18
ENDBRANCH   2  12
TORSDOF 4
ENDMDL
