MODEL 6
REMARK VINA RESULT: -6.937215674      2.188      5.942
REMARK  4 active torsions:
REMARK  status: ('A' for Active; 'I' for Inactive)
REMARK    1  A    between atoms: S1_2  and  C1_4 
REMARK    2  A    between atoms: S1_2  and  C7_12 
REMARK    3  A    between atoms: C4_7  and  O3_8 
REMARK    4  A    between atoms: C10_15  and  O4_16 
ROOT
HETATM    1  O1  UNL     1     -41.804   0.882  69.647  1.00  0.00    -0.217 OA
HETATM    2  S1  UNL     1     -42.415  -0.512  69.637  1.00  0.00     0.206 S 
HETATM    3  O2  UNL     1     -41.364  -1.424  69.073  1.00  0.00    -0.217 OA
ENDROOT
BRANCH   2   4
HETATM    4  C1  UNL     1     -43.773  -0.508  68.575  1.00  0.00     0.064 A 
HETATM    5  C2  UNL     1     -44.514  -1.623  68.260  1.00  0.00     0.026 A 
HETATM    6  C3  UNL     1     -45.581  -1.501  67.398  1.00  0.00     0.038 A 
HETATM    7  C4  UNL     1     -45.954  -0.317  66.824  1.00  0.00     0.065 A 
HETATM    8  C5  UNL     1     -45.215   0.804  67.136  1.00  0.00     0.038 A 
HETATM    9  C6  UNL     1     -44.142   0.713  67.997  1.00  0.00     0.026 A 
BRANCH   7  10
HETATM   10  O3  UNL     1     -47.025  -0.178  65.955  1.00  0.00    -0.361 OA
ATOM     11  H3  UNL     1     -47.517   0.626  65.840  1.00  0.00     0.217 HD
ENDBRANCH   7  10
ENDBRANCH   2   4
BRANCH   2  12
HETATM   12  C7  UNL     1     -42.792  -1.019  71.251  1.00  0.00     0.064 A 
HETATM   13  C8  UNL     1     -43.954  -0.618  71.879  1.00  0.00     0.026 A 
HETATM   14  C9  UNL     1     -44.263  -1.022  73.178  1.00  0.00     0.038 A 
HETATM   15  C10 UNL     1     -43.400  -1.835  73.853  1.00  0.00     0.065 A 
HETATM   16  C11 UNL     1     -42.244  -2.252  73.264  1.00  0.00     0.038 A 
HETATM   17  C12 UNL     1     -41.943  -1.841  71.962  1.00  0.00     0.026 A 
BRANCH  15  18
HETATM   18  O4  UNL     1     -43.678  -2.258  75.149  1.00  0.00    -0.361 OA
ATOM     19  H4  UNL     1     -43.427  -1.732  75.900  1.00  0.00     0.217 HD
ENDBRANCH  15  18
ENDBRANCH   2  12
TORSDOF 4
ENDMDL
