MODEL 3
REMARK VINA RESULT: -6.966288708      0.046      1.146
REMARK  4 active torsions:
REMARK  status: ('A' for Active; 'I' for Inactive)
REMARK    1  A    between atoms: S1_2  and  C1_4 
REMARK    2  A    between atoms: S1_2  and  C7_12 
REMARK    3  A    between atoms: C4_7  and  O3_8 
REMARK    4  A    between atoms: C10_15  and  O4_16 
ROOT
HETATM    1  O1  UNL     1     -41.805  -1.414  69.892  1.00  0.00    -0.217 OA
HETATM    2  S1  UNL     1     -42.333  -0.026  69.557  1.00  0.00     0.206 S 
HETATM    3  O2  UNL     1     -41.229   0.671  68.813  1.00  0.00    -0.217 OA
ENDROOT
BRANCH   2   4
HETATM    4  C1  UNL     1     -42.628   0.819  71.029  1.00  0.00     0.064 A 
HETATM    5  C2  UNL     1     -43.833   1.388  71.368  1.00  0.00     0.026 A 
HETATM    6  C3  UNL     1     -43.954   2.040  72.575  1.00  0.00     0.038 A 
HETATM    7  C4  UNL     1     -42.929   2.160  73.473  1.00  0.00     0.065 A 
HETATM    8  C5  UNL     1     -41.719   1.592  73.138  1.00  0.00     0.038 A 
HETATM    9  C6  UNL     1     -41.568   0.932  71.937  1.00  0.00     0.026 A 
BRANCH   7  10
HETATM   10  O3  UNL     1     -43.035   2.813  74.691  1.00  0.00    -0.361 OA
ATOM     11  H3  UNL     1     -42.363   2.803  75.361  1.00  0.00     0.217 HD
ENDBRANCH   7  10
ENDBRANCH   2   4
BRANCH   2  12
HETATM   12  C7  UNL     1     -43.721  -0.139  68.525  1.00  0.00     0.064 A 
HETATM   13  C8  UNL     1     -44.368  -1.340  68.317  1.00  0.00     0.026 A 
HETATM   14  C9  UNL     1     -45.485  -1.438  67.488  1.00  0.00     0.038 A 
HETATM   15  C10 UNL     1     -45.958  -0.322  66.861  1.00  0.00     0.065 A 
HETATM   16  C11 UNL     1     -45.345   0.881  67.043  1.00  0.00     0.038 A 
HETATM   17  C12 UNL     1     -44.225   0.969  67.875  1.00  0.00     0.026 A 
BRANCH  15  18
HETATM   18  O4  UNL     1     -47.071  -0.384  66.028  1.00  0.00    -0.361 OA
ATOM     19  H4  UNL     1     -47.074   0.047  65.181  1.00  0.00     0.217 HD
ENDBRANCH  15  18
ENDBRANCH   2  12
TORSDOF 4
ENDMDL
