MODEL 8
REMARK VINA RESULT: -6.928227213      2.189      6.000
REMARK  4 active torsions:
REMARK  status: ('A' for Active; 'I' for Inactive)
REMARK    1  A    between atoms: S1_2  and  C1_4 
REMARK    2  A    between atoms: S1_2  and  C7_12 
REMARK    3  A    between atoms: C4_7  and  O3_8 
REMARK    4  A    between atoms: C10_15  and  O4_16 
ROOT
HETATM    1  O1  UNL     1     -41.809   0.872  69.641  1.00  0.00    -0.217 OA
HETATM    2  S1  UNL     1     -42.415  -0.524  69.635  1.00  0.00     0.206 S 
HETATM    3  O2  UNL     1     -41.360  -1.434  69.073  1.00  0.00    -0.217 OA
ENDROOT
BRANCH   2   4
HETATM    4  C1  UNL     1     -43.773  -0.529  68.574  1.00  0.00     0.064 A 
HETATM    5  C2  UNL     1     -44.516  -1.645  68.271  1.00  0.00     0.026 A 
HETATM    6  C3  UNL     1     -45.583  -1.529  67.408  1.00  0.00     0.038 A 
HETATM    7  C4  UNL     1     -45.954  -0.350  66.822  1.00  0.00     0.065 A 
HETATM    8  C5  UNL     1     -45.213   0.772  67.123  1.00  0.00     0.038 A 
HETATM    9  C6  UNL     1     -44.139   0.687  67.984  1.00  0.00     0.026 A 
BRANCH   7  10
HETATM   10  O3  UNL     1     -47.025  -0.218  65.952  1.00  0.00    -0.361 OA
ATOM     11  H3  UNL     1     -47.401  -0.935  65.456  1.00  0.00     0.217 HD
ENDBRANCH   7  10
ENDBRANCH   2   4
BRANCH   2  12
HETATM   12  C7  UNL     1     -42.789  -1.029  71.251  1.00  0.00     0.064 A 
HETATM   13  C8  UNL     1     -41.941  -1.852  71.963  1.00  0.00     0.026 A 
HETATM   14  C9  UNL     1     -42.236  -2.262  73.263  1.00  0.00     0.038 A 
HETATM   15  C10 UNL     1     -43.393  -1.845  73.854  1.00  0.00     0.065 A 
HETATM   16  C11 UNL     1     -44.255  -1.031  73.181  1.00  0.00     0.038 A 
HETATM   17  C12 UNL     1     -43.950  -0.626  71.878  1.00  0.00     0.026 A 
BRANCH  15  18
HETATM   18  O4  UNL     1     -43.718  -2.235  75.150  1.00  0.00    -0.361 OA
ATOM     19  H4  UNL     1     -44.182  -3.047  75.315  1.00  0.00     0.217 HD
ENDBRANCH  15  18
ENDBRANCH   2  12
TORSDOF 4
ENDMDL
