MODEL 2
REMARK VINA RESULT: -6.333584400      2.588      4.168
REMARK  3 active torsions:
REMARK  status: ('A' for Active; 'I' for Inactive)
REMARK    1  A    between atoms: C1_2  and  C2_4 
REMARK    2  A    between atoms: C2_4  and  O3_5 
REMARK    3  A    between atoms: O3_5  and  C3_6 
ROOT
HETATM    1  C3  UNL     1     -21.684  -0.196 -24.103  1.00  0.00     0.166 A 
HETATM    2  N1  UNL     1     -21.408  -0.051 -25.426  1.00  0.00    -0.325 N 
ATOM      3  H1  UNL     1     -21.786   0.744 -25.940  1.00  0.00     0.169 HD
HETATM    4  C4  UNL     1     -20.635  -0.959 -26.061  1.00  0.00     0.127 A 
HETATM    5 CL1  UNL     1     -20.270  -0.783 -27.781  1.00  0.00    -0.063 Cl
HETATM    6  C5  UNL     1     -20.099  -2.057 -25.403  1.00  0.00     0.074 A 
HETATM    7 CL2  UNL     1     -19.106  -3.200 -26.274  1.00  0.00    -0.081 Cl
HETATM    8  C6  UNL     1     -20.378  -2.205 -24.060  1.00  0.00     0.055 A 
HETATM    9  C7  UNL     1     -21.165  -1.281 -23.407  1.00  0.00     0.086 A 
HETATM   10 CL3  UNL     1     -21.513  -1.475 -21.712  1.00  0.00    -0.080 Cl
ENDROOT
BRANCH   1  11
HETATM   11  O3  UNL     1     -22.468   0.702 -23.402  1.00  0.00    -0.324 OA
BRANCH  11  12
HETATM   12  C2  UNL     1     -22.130   2.059 -23.342  1.00  0.00     0.290 C 
BRANCH  12  13
HETATM   13  C1  UNL     1     -21.104   2.367 -22.332  1.00  0.00     0.198 C 
HETATM   14  O1  UNL     1     -20.262   3.254 -22.598  1.00  0.00    -0.646 OA
HETATM   15  O2  UNL     1     -21.000   1.741 -21.102  1.00  0.00    -0.646 OA
ENDBRANCH  12  13
ENDBRANCH  11  12
ENDBRANCH   1  11
TORSDOF 3
ENDMDL
