MODEL 1
REMARK VINA RESULT: -6.349818059      0.000      0.000
REMARK  3 active torsions:
REMARK  status: ('A' for Active; 'I' for Inactive)
REMARK    1  A    between atoms: C1_2  and  C2_4 
REMARK    2  A    between atoms: C2_4  and  O3_5 
REMARK    3  A    between atoms: O3_5  and  C3_6 
ROOT
HETATM    1  C3  UNL     1     -20.906   0.241 -24.012  1.00  0.00     0.166 A 
HETATM    2  N1  UNL     1     -21.153   0.078 -25.338  1.00  0.00    -0.325 N 
ATOM      3  H1  UNL     1     -20.763  -0.725 -25.833  1.00  0.00     0.169 HD
HETATM    4  C4  UNL     1     -21.912   0.975 -26.003  1.00  0.00     0.127 A 
HETATM    5 CL1  UNL     1     -22.241   0.774 -27.728  1.00  0.00    -0.063 Cl
HETATM    6  C5  UNL     1     -22.463   2.082 -25.373  1.00  0.00     0.074 A 
HETATM    7 CL2  UNL     1     -23.438   3.211 -26.281  1.00  0.00    -0.081 Cl
HETATM    8  C6  UNL     1     -22.214   2.249 -24.026  1.00  0.00     0.055 A 
HETATM    9  C7  UNL     1     -21.440   1.336 -23.343  1.00  0.00     0.086 A 
HETATM   10 CL3  UNL     1     -21.129   1.554 -21.644  1.00  0.00    -0.080 Cl
ENDROOT
BRANCH   1  11
HETATM   11  O3  UNL     1     -20.137  -0.646 -23.282  1.00  0.00    -0.324 OA
BRANCH  11  12
HETATM   12  C2  UNL     1     -20.442  -2.012 -23.254  1.00  0.00     0.290 C 
BRANCH  12  13
HETATM   13  C1  UNL     1     -21.547  -2.350 -22.342  1.00  0.00     0.198 C 
HETATM   14  O1  UNL     1     -22.318  -3.280 -22.668  1.00  0.00    -0.646 OA
HETATM   15  O2  UNL     1     -21.797  -1.709 -21.140  1.00  0.00    -0.646 OA
ENDBRANCH  12  13
ENDBRANCH  11  12
ENDBRANCH   1  11
TORSDOF 3
ENDMDL
