MODEL 3
REMARK VINA RESULT: -6.127186559      2.009      2.901
REMARK  3 active torsions:
REMARK  status: ('A' for Active; 'I' for Inactive)
REMARK    1  A    between atoms: C1_2  and  C2_4 
REMARK    2  A    between atoms: C2_4  and  O3_5 
REMARK    3  A    between atoms: O3_5  and  C3_6 
ROOT
HETATM    1  C3  UNL     1     -20.530   0.385 -24.278  1.00  0.00     0.166 A 
HETATM    2  N1  UNL     1     -21.287   1.325 -24.900  1.00  0.00    -0.325 N 
ATOM      3  H1  UNL     1     -21.479   2.213 -24.437  1.00  0.00     0.169 HD
HETATM    4  C4  UNL     1     -21.788   1.087 -26.132  1.00  0.00     0.127 A 
HETATM    5 CL1  UNL     1     -22.776   2.301 -26.953  1.00  0.00    -0.063 Cl
HETATM    6  C5  UNL     1     -21.556  -0.106 -26.802  1.00  0.00     0.074 A 
HETATM    7 CL2  UNL     1     -22.227  -0.362 -28.394  1.00  0.00    -0.081 Cl
HETATM    8  C6  UNL     1     -20.786  -1.062 -26.171  1.00  0.00     0.055 A 
HETATM    9  C7  UNL     1     -20.272  -0.823 -24.915  1.00  0.00     0.086 A 
HETATM   10 CL3  UNL     1     -19.303  -2.034 -24.125  1.00  0.00    -0.080 Cl
ENDROOT
BRANCH   1  11
HETATM   11  O3  UNL     1     -19.991   0.575 -23.018  1.00  0.00    -0.324 OA
BRANCH  11  12
HETATM   12  C2  UNL     1     -20.790   0.999 -21.950  1.00  0.00     0.290 C 
BRANCH  12  13
HETATM   13  C1  UNL     1     -21.456  -0.103 -21.238  1.00  0.00     0.198 C 
HETATM   14  O1  UNL     1     -21.432  -0.097 -19.986  1.00  0.00    -0.646 OA
HETATM   15  O2  UNL     1     -22.112  -1.155 -21.855  1.00  0.00    -0.646 OA
ENDBRANCH  12  13
ENDBRANCH  11  12
ENDBRANCH   1  11
TORSDOF 3
ENDMDL
