MODEL 13
REMARK VINA RESULT: -8.202427735      4.790      8.918
REMARK  15 active torsions:
REMARK  status: ('A' for Active; 'I' for Inactive)
REMARK    1  A    between atoms: N1_1  and  N2_4 
REMARK    2  A    between atoms: N2_4  and  N3_5 
REMARK    3  A    between atoms: N3_5  and  C1_7 
REMARK    4  A    between atoms: C1_7  and  C2_8 
REMARK    5  A    between atoms: C2_8  and  C3_9 
REMARK    6  A    between atoms: C3_9  and  C4_10 
REMARK    7  A    between atoms: C4_10  and  C5_11 
REMARK    8  A    between atoms: C5_11  and  C6_12 
REMARK    9  A    between atoms: C6_12  and  C7_13 
REMARK   10  A    between atoms: C7_13  and  C8_14 
REMARK   11  A    between atoms: C8_14  and  N4_15 
REMARK   12  A    between atoms: C10_17  and  O1_18 
REMARK   13  A    between atoms: C11_20  and  O2_21 
REMARK   14  A    between atoms: C12_23  and  O3_24 
REMARK   15  A    between atoms: C13_26  and  C14_27 
ROOT
HETATM    1  N4  UNL     1      37.319  13.845  23.601  1.00  0.00     0.105 N 
HETATM    2  C9  UNL     1      36.149  13.703  24.377  1.00  0.00     0.288 A 
HETATM    3  C10 UNL     1      36.216  14.222  25.800  1.00  0.00     0.185 C 
HETATM    4  C11 UNL     1      35.406  15.499  25.836  1.00  0.00     0.178 C 
HETATM    5  C12 UNL     1      36.241  16.489  25.009  1.00  0.00     0.166 C 
HETATM    6  C13 UNL     1      36.202  16.103  23.551  1.00  0.00     0.153 C 
HETATM    7  C15 UNL     1      36.175  14.642  23.308  1.00  0.00     0.276 A 
ENDROOT
BRANCH   1   8
HETATM    8  C8  UNL     1      37.866  12.828  22.825  1.00  0.00     0.273 C 
BRANCH   8   9
HETATM    9  C7  UNL     1      39.346  12.656  22.814  1.00  0.00     0.030 C 
BRANCH   9  10
HETATM   10  C6  UNL     1      40.029  13.255  21.628  1.00  0.00     0.002 C 
BRANCH  10  11
HETATM   11  C5  UNL     1      41.195  12.452  21.104  1.00  0.00     0.000 C 
BRANCH  11  12
HETATM   12  C4  UNL     1      41.355  11.146  21.883  1.00  0.00     0.000 C 
BRANCH  12  13
HETATM   13  C3  UNL     1      42.841  10.921  22.083  1.00  0.00     0.002 C 
BRANCH  13  14
HETATM   14  C2  UNL     1      43.248   9.596  21.506  1.00  0.00     0.022 C 
BRANCH  14  15
HETATM   15  C1  UNL     1      43.810   9.751  20.112  1.00  0.00     0.155 C 
BRANCH  15  16
HETATM   16  N3  UNL     1      43.177   8.763  19.242  1.00  0.00    -0.253 N 
ATOM     17  H3  UNL     1      43.677   7.922  18.951  1.00  0.00     0.196 HD
BRANCH  16  18
HETATM   18  N2  UNL     1      42.027   8.973  18.869  1.00  0.00    -0.249 NA
BRANCH  18  19
HETATM   19  N1  UNL     1      40.948   9.500  18.568  1.00  0.00    -0.261 N 
ATOM     20  H12 UNL     1      41.021  10.213  19.293  1.00  0.00     0.193 HD
ATOM     21  H11 UNL     1      40.057   9.735  18.131  1.00  0.00     0.193 HD
ENDBRANCH  18  19
ENDBRANCH  16  18
ENDBRANCH  15  16
ENDBRANCH  14  15
ENDBRANCH  13  14
ENDBRANCH  12  13
ENDBRANCH  11  12
ENDBRANCH  10  11
ENDBRANCH   9  10
ENDBRANCH   8   9
ENDBRANCH   1   8
BRANCH   3  22
HETATM   22  O1  UNL     1      35.740  13.285  26.717  1.00  0.00    -0.391 OA
ATOM     23  H1  UNL     1      34.944  13.581  27.143  1.00  0.00     0.210 HD
ENDBRANCH   3  22
BRANCH   6  24
HETATM   24  C14 UNL     1      37.328  16.807  22.883  1.00  0.00     0.181 C 
HETATM   25  O4  UNL     1      38.060  17.654  23.438  1.00  0.00    -0.648 OA
HETATM   26  O5  UNL     1      37.574  16.495  21.554  1.00  0.00    -0.648 OA
ENDBRANCH   6  24
BRANCH   4  27
HETATM   27  O2  UNL     1      35.289  16.011  27.120  1.00  0.00    -0.390 OA
ATOM     28  H2  UNL     1      34.573  15.615  27.601  1.00  0.00     0.210 HD
ENDBRANCH   4  27
BRANCH   5  29
HETATM   29  O3  UNL     1      35.837  17.792  25.185  1.00  0.00    -0.392 OA
ATOM     30  H3  UNL     1      36.287  18.217  25.905  1.00  0.00     0.210 HD
ENDBRANCH   5  29
TORSDOF 15
ENDMDL
