MODEL 8
REMARK VINA RESULT: -8.300374203      2.256      2.907
REMARK  15 active torsions:
REMARK  status: ('A' for Active; 'I' for Inactive)
REMARK    1  A    between atoms: N1_1  and  N2_4 
REMARK    2  A    between atoms: N2_4  and  N3_5 
REMARK    3  A    between atoms: N3_5  and  C1_7 
REMARK    4  A    between atoms: C1_7  and  C2_8 
REMARK    5  A    between atoms: C2_8  and  C3_9 
REMARK    6  A    between atoms: C3_9  and  C4_10 
REMARK    7  A    between atoms: C4_10  and  C5_11 
REMARK    8  A    between atoms: C5_11  and  C6_12 
REMARK    9  A    between atoms: C6_12  and  C7_13 
REMARK   10  A    between atoms: C7_13  and  C8_14 
REMARK   11  A    between atoms: C8_14  and  N4_15 
REMARK   12  A    between atoms: C10_17  and  O1_18 
REMARK   13  A    between atoms: C11_20  and  O2_21 
REMARK   14  A    between atoms: C12_23  and  O3_24 
REMARK   15  A    between atoms: C13_26  and  C14_27 
ROOT
HETATM    1  N4  UNL     1      41.373  11.779  21.138  1.00  0.00     0.105 N 
HETATM    2  C9  UNL     1      41.033  10.537  20.559  1.00  0.00     0.288 A 
HETATM    3  C10 UNL     1      41.745  10.176  19.270  1.00  0.00     0.185 C 
HETATM    4  C11 UNL     1      42.751   9.101  19.613  1.00  0.00     0.178 C 
HETATM    5  C12 UNL     1      43.802   9.836  20.458  1.00  0.00     0.166 C 
HETATM    6  C13 UNL     1      43.221  10.199  21.803  1.00  0.00     0.153 C 
HETATM    7  C15 UNL     1      41.786  10.568  21.766  1.00  0.00     0.276 A 
ENDROOT
BRANCH   1   8
HETATM    8  C8  UNL     1      40.442  12.701  21.604  1.00  0.00     0.273 C 
BRANCH   8   9
HETATM    9  C7  UNL     1      40.752  14.153  21.481  1.00  0.00     0.030 C 
BRANCH   9  10
HETATM   10  C6  UNL     1      39.691  15.058  22.016  1.00  0.00     0.002 C 
BRANCH  10  11
HETATM   11  C5  UNL     1      38.308  14.455  22.042  1.00  0.00     0.000 C 
BRANCH  11  12
HETATM   12  C4  UNL     1      37.869  14.150  23.474  1.00  0.00     0.000 C 
BRANCH  12  13
HETATM   13  C3  UNL     1      36.396  14.493  23.576  1.00  0.00     0.002 C 
BRANCH  13  14
HETATM   14  C2  UNL     1      36.106  15.767  22.836  1.00  0.00     0.022 C 
BRANCH  14  15
HETATM   15  C1  UNL     1      35.773  16.893  23.787  1.00  0.00     0.155 C 
BRANCH  15  16
HETATM   16  N3  UNL     1      37.020  17.507  24.238  1.00  0.00    -0.253 N 
ATOM     17  H3  UNL     1      37.262  17.536  25.228  1.00  0.00     0.196 HD
BRANCH  16  18
HETATM   18  N2  UNL     1      37.767  17.986  23.391  1.00  0.00    -0.249 NA
BRANCH  18  19
HETATM   19  N1  UNL     1      38.728  18.494  22.797  1.00  0.00    -0.261 N 
ATOM     20  H12 UNL     1      38.303  18.378  21.877  1.00  0.00     0.193 HD
ATOM     21  H11 UNL     1      39.618  18.935  22.564  1.00  0.00     0.193 HD
ENDBRANCH  18  19
ENDBRANCH  16  18
ENDBRANCH  15  16
ENDBRANCH  14  15
ENDBRANCH  13  14
ENDBRANCH  12  13
ENDBRANCH  11  12
ENDBRANCH  10  11
ENDBRANCH   9  10
ENDBRANCH   8   9
ENDBRANCH   1   8
BRANCH   3  22
HETATM   22  O1  UNL     1      40.851   9.751  18.287  1.00  0.00    -0.391 OA
ATOM     23  H1  UNL     1      41.275   9.196  17.642  1.00  0.00     0.210 HD
ENDBRANCH   3  22
BRANCH   6  24
HETATM   24  C14 UNL     1      44.100  11.244  22.391  1.00  0.00     0.181 C 
HETATM   25  O4  UNL     1      44.663  11.149  23.502  1.00  0.00    -0.648 OA
HETATM   26  O5  UNL     1      44.302  12.396  21.646  1.00  0.00    -0.648 OA
ENDBRANCH   6  24
BRANCH   4  27
HETATM   27  O2  UNL     1      43.386   8.597  18.488  1.00  0.00    -0.390 OA
ATOM     28  H2  UNL     1      44.199   8.153  18.702  1.00  0.00     0.210 HD
ENDBRANCH   4  27
BRANCH   5  29
HETATM   29  O3  UNL     1      44.961   9.109  20.603  1.00  0.00    -0.392 OA
ATOM     30  H3  UNL     1      44.847   8.354  21.168  1.00  0.00     0.210 HD
ENDBRANCH   5  29
TORSDOF 15
ENDMDL
