MODEL 9
REMARK VINA RESULT: -8.245674681      3.761      6.828
REMARK  15 active torsions:
REMARK  status: ('A' for Active; 'I' for Inactive)
REMARK    1  A    between atoms: N1_1  and  N2_4 
REMARK    2  A    between atoms: N2_4  and  N3_5 
REMARK    3  A    between atoms: N3_5  and  C1_7 
REMARK    4  A    between atoms: C1_7  and  C2_8 
REMARK    5  A    between atoms: C2_8  and  C3_9 
REMARK    6  A    between atoms: C3_9  and  C4_10 
REMARK    7  A    between atoms: C4_10  and  C5_11 
REMARK    8  A    between atoms: C5_11  and  C6_12 
REMARK    9  A    between atoms: C6_12  and  C7_13 
REMARK   10  A    between atoms: C7_13  and  C8_14 
REMARK   11  A    between atoms: C8_14  and  N4_15 
REMARK   12  A    between atoms: C10_17  and  O1_18 
REMARK   13  A    between atoms: C11_20  and  O2_21 
REMARK   14  A    between atoms: C12_23  and  O3_24 
REMARK   15  A    between atoms: C13_26  and  C14_27 
ROOT
HETATM    1  N4  UNL     1      41.385  11.853  20.987  1.00  0.00     0.105 N 
HETATM    2  C9  UNL     1      41.025  10.580  20.496  1.00  0.00     0.288 A 
HETATM    3  C10 UNL     1      41.728  10.120  19.233  1.00  0.00     0.185 C 
HETATM    4  C11 UNL     1      42.720   9.057  19.648  1.00  0.00     0.178 C 
HETATM    5  C12 UNL     1      43.784   9.833  20.439  1.00  0.00     0.166 C 
HETATM    6  C13 UNL     1      43.211  10.296  21.756  1.00  0.00     0.153 C 
HETATM    7  C15 UNL     1      41.782  10.683  21.696  1.00  0.00     0.276 A 
ENDROOT
BRANCH   1   8
HETATM    8  C8  UNL     1      40.468  12.819  21.389  1.00  0.00     0.273 C 
BRANCH   8   9
HETATM    9  C7  UNL     1      40.526  14.167  20.756  1.00  0.00     0.030 C 
BRANCH   9  10
HETATM   10  C6  UNL     1      41.659  15.020  21.225  1.00  0.00     0.002 C 
BRANCH  10  11
HETATM   11  C5  UNL     1      42.750  15.230  20.203  1.00  0.00     0.000 C 
BRANCH  11  12
HETATM   12  C4  UNL     1      42.342  14.665  18.842  1.00  0.00     0.000 C 
BRANCH  12  13
HETATM   13  C3  UNL     1      42.202  15.838  17.892  1.00  0.00     0.002 C 
BRANCH  13  14
HETATM   14  C2  UNL     1      42.026  15.349  16.484  1.00  0.00     0.022 C 
BRANCH  14  15
HETATM   15  C1  UNL     1      43.174  15.781  15.602  1.00  0.00     0.155 C 
BRANCH  15  16
HETATM   16  N3  UNL     1      43.390  14.757  14.583  1.00  0.00    -0.253 N 
ATOM     17  H3  UNL     1      42.653  14.510  13.921  1.00  0.00     0.196 HD
BRANCH  16  18
HETATM   18  N2  UNL     1      44.484  14.201  14.544  1.00  0.00    -0.249 NA
BRANCH  18  19
HETATM   19  N1  UNL     1      45.628  13.839  14.240  1.00  0.00    -0.261 N 
ATOM     20  H12 UNL     1      45.820  14.682  13.699  1.00  0.00     0.193 HD
ATOM     21  H11 UNL     1      46.501  13.320  14.139  1.00  0.00     0.193 HD
ENDBRANCH  18  19
ENDBRANCH  16  18
ENDBRANCH  15  16
ENDBRANCH  14  15
ENDBRANCH  13  14
ENDBRANCH  12  13
ENDBRANCH  11  12
ENDBRANCH  10  11
ENDBRANCH   9  10
ENDBRANCH   8   9
ENDBRANCH   1   8
BRANCH   3  22
HETATM   22  O1  UNL     1      40.826   9.641  18.283  1.00  0.00    -0.391 OA
ATOM     23  H1  UNL     1      39.969   9.479  18.661  1.00  0.00     0.210 HD
ENDBRANCH   3  22
BRANCH   6  24
HETATM   24  C14 UNL     1      44.107  11.366  22.269  1.00  0.00     0.181 C 
HETATM   25  O4  UNL     1      44.344  12.436  21.669  1.00  0.00    -0.648 OA
HETATM   26  O5  UNL     1      44.716  11.150  23.496  1.00  0.00    -0.648 OA
ENDBRANCH   6  24
BRANCH   4  27
HETATM   27  O2  UNL     1      43.345   8.467  18.560  1.00  0.00    -0.390 OA
ATOM     28  H2  UNL     1      43.464   7.532  18.676  1.00  0.00     0.210 HD
ENDBRANCH   4  27
BRANCH   5  29
HETATM   29  O3  UNL     1      44.932   9.101  20.632  1.00  0.00    -0.392 OA
ATOM     30  H3  UNL     1      44.753   8.216  20.927  1.00  0.00     0.210 HD
ENDBRANCH   5  29
TORSDOF 15
ENDMDL
