MODEL 12
REMARK VINA RESULT: -8.205512580      3.280      3.824
REMARK  15 active torsions:
REMARK  status: ('A' for Active; 'I' for Inactive)
REMARK    1  A    between atoms: N1_1  and  N2_4 
REMARK    2  A    between atoms: N2_4  and  N3_5 
REMARK    3  A    between atoms: N3_5  and  C1_7 
REMARK    4  A    between atoms: C1_7  and  C2_8 
REMARK    5  A    between atoms: C2_8  and  C3_9 
REMARK    6  A    between atoms: C3_9  and  C4_10 
REMARK    7  A    between atoms: C4_10  and  C5_11 
REMARK    8  A    between atoms: C5_11  and  C6_12 
REMARK    9  A    between atoms: C6_12  and  C7_13 
REMARK   10  A    between atoms: C7_13  and  C8_14 
REMARK   11  A    between atoms: C8_14  and  N4_15 
REMARK   12  A    between atoms: C10_17  and  O1_18 
REMARK   13  A    between atoms: C11_20  and  O2_21 
REMARK   14  A    between atoms: C12_23  and  O3_24 
REMARK   15  A    between atoms: C13_26  and  C14_27 
ROOT
HETATM    1  N4  UNL     1      41.467  11.974  21.103  1.00  0.00     0.105 N 
HETATM    2  C9  UNL     1      41.057  10.731  20.576  1.00  0.00     0.288 A 
HETATM    3  C10 UNL     1      41.745  10.279  19.301  1.00  0.00     0.185 C 
HETATM    4  C11 UNL     1      42.692   9.165  19.688  1.00  0.00     0.178 C 
HETATM    5  C12 UNL     1      43.784   9.875  20.502  1.00  0.00     0.166 C 
HETATM    6  C13 UNL     1      43.227  10.324  21.831  1.00  0.00     0.153 C 
HETATM    7  C15 UNL     1      41.815  10.769  21.779  1.00  0.00     0.276 A 
ENDROOT
BRANCH   1   8
HETATM    8  C8  UNL     1      40.589  12.964  21.532  1.00  0.00     0.273 C 
BRANCH   8   9
HETATM    9  C7  UNL     1      40.953  14.391  21.301  1.00  0.00     0.030 C 
BRANCH   9  10
HETATM   10  C6  UNL     1      39.861  15.363  21.604  1.00  0.00     0.002 C 
BRANCH  10  11
HETATM   11  C5  UNL     1      38.854  14.878  22.618  1.00  0.00     0.000 C 
BRANCH  11  12
HETATM   12  C4  UNL     1      37.855  15.981  22.970  1.00  0.00     0.000 C 
BRANCH  12  13
HETATM   13  C3  UNL     1      36.730  15.910  21.956  1.00  0.00     0.002 C 
BRANCH  13  14
HETATM   14  C2  UNL     1      35.986  17.213  21.913  1.00  0.00     0.022 C 
BRANCH  14  15
HETATM   15  C1  UNL     1      36.719  18.239  21.081  1.00  0.00     0.155 C 
BRANCH  15  16
HETATM   16  N3  UNL     1      35.941  19.476  21.075  1.00  0.00    -0.253 N 
ATOM     17  H3  UNL     1      35.944  20.102  21.881  1.00  0.00     0.196 HD
BRANCH  16  18
HETATM   18  N2  UNL     1      35.283  19.741  20.073  1.00  0.00    -0.249 NA
BRANCH  18  19
HETATM   19  N1  UNL     1      34.369  19.902  19.255  1.00  0.00    -0.261 N 
ATOM     20  H12 UNL     1      33.644  19.613  19.912  1.00  0.00     0.193 HD
ATOM     21  H11 UNL     1      33.824  20.110  18.418  1.00  0.00     0.193 HD
ENDBRANCH  18  19
ENDBRANCH  16  18
ENDBRANCH  15  16
ENDBRANCH  14  15
ENDBRANCH  13  14
ENDBRANCH  12  13
ENDBRANCH  11  12
ENDBRANCH  10  11
ENDBRANCH   9  10
ENDBRANCH   8   9
ENDBRANCH   1   8
BRANCH   3  22
HETATM   22  O1  UNL     1      40.827   9.864  18.337  1.00  0.00    -0.391 OA
ATOM     23  H1  UNL     1      41.256   9.604  17.530  1.00  0.00     0.210 HD
ENDBRANCH   3  22
BRANCH   6  24
HETATM   24  C14 UNL     1      44.164  11.342  22.375  1.00  0.00     0.181 C 
HETATM   25  O4  UNL     1      44.764  11.238  23.465  1.00  0.00    -0.648 OA
HETATM   26  O5  UNL     1      44.377  12.480  21.612  1.00  0.00    -0.648 OA
ENDBRANCH   6  24
BRANCH   4  27
HETATM   27  O2  UNL     1      43.296   8.582  18.584  1.00  0.00    -0.390 OA
ATOM     28  H2  UNL     1      43.310   7.634  18.641  1.00  0.00     0.210 HD
ENDBRANCH   4  27
BRANCH   5  29
HETATM   29  O3  UNL     1      44.901   9.092  20.675  1.00  0.00    -0.392 OA
ATOM     30  H3  UNL     1      44.987   8.428  20.002  1.00  0.00     0.210 HD
ENDBRANCH   5  29
TORSDOF 15
ENDMDL
