MODEL 14
REMARK VINA RESULT: -8.164034026      3.916      5.681
REMARK  15 active torsions:
REMARK  status: ('A' for Active; 'I' for Inactive)
REMARK    1  A    between atoms: N1_1  and  N2_4 
REMARK    2  A    between atoms: N2_4  and  N3_5 
REMARK    3  A    between atoms: N3_5  and  C1_7 
REMARK    4  A    between atoms: C1_7  and  C2_8 
REMARK    5  A    between atoms: C2_8  and  C3_9 
REMARK    6  A    between atoms: C3_9  and  C4_10 
REMARK    7  A    between atoms: C4_10  and  C5_11 
REMARK    8  A    between atoms: C5_11  and  C6_12 
REMARK    9  A    between atoms: C6_12  and  C7_13 
REMARK   10  A    between atoms: C7_13  and  C8_14 
REMARK   11  A    between atoms: C8_14  and  N4_15 
REMARK   12  A    between atoms: C10_17  and  O1_18 
REMARK   13  A    between atoms: C11_20  and  O2_21 
REMARK   14  A    between atoms: C12_23  and  O3_24 
REMARK   15  A    between atoms: C13_26  and  C14_27 
ROOT
HETATM    1  N4  UNL     1      41.458  11.913  20.750  1.00  0.00     0.105 N 
HETATM    2  C9  UNL     1      41.058  10.616  20.364  1.00  0.00     0.288 A 
HETATM    3  C10 UNL     1      41.808   9.996  19.201  1.00  0.00     0.185 C 
HETATM    4  C11 UNL     1      42.712   8.932  19.783  1.00  0.00     0.178 C 
HETATM    5  C12 UNL     1      43.768   9.731  20.561  1.00  0.00     0.166 C 
HETATM    6  C13 UNL     1      43.145  10.354  21.786  1.00  0.00     0.153 C 
HETATM    7  C15 UNL     1      41.746  10.803  21.595  1.00  0.00     0.276 A 
ENDROOT
BRANCH   1   8
HETATM    8  C8  UNL     1      40.575  12.960  20.994  1.00  0.00     0.273 C 
BRANCH   8   9
HETATM    9  C7  UNL     1      40.585  14.133  20.075  1.00  0.00     0.030 C 
BRANCH   9  10
HETATM   10  C6  UNL     1      41.356  13.921  18.813  1.00  0.00     0.002 C 
BRANCH  10  11
HETATM   11  C5  UNL     1      40.585  14.219  17.551  1.00  0.00     0.000 C 
BRANCH  11  12
HETATM   12  C4  UNL     1      41.210  15.389  16.790  1.00  0.00     0.000 C 
BRANCH  12  13
HETATM   13  C3  UNL     1      40.537  16.656  17.279  1.00  0.00     0.002 C 
BRANCH  13  14
HETATM   14  C2  UNL     1      41.568  17.671  17.678  1.00  0.00     0.022 C 
BRANCH  14  15
HETATM   15  C1  UNL     1      41.885  17.585  19.152  1.00  0.00     0.155 C 
BRANCH  15  16
HETATM   16  N3  UNL     1      43.283  17.189  19.306  1.00  0.00    -0.253 N 
ATOM     17  H3  UNL     1      44.011  17.591  18.715  1.00  0.00     0.196 HD
BRANCH  16  18
HETATM   18  N2  UNL     1      43.556  16.358  20.167  1.00  0.00    -0.249 NA
BRANCH  18  19
HETATM   19  N1  UNL     1      44.143  15.578  20.929  1.00  0.00    -0.261 N 
ATOM     20  H12 UNL     1      43.944  14.762  20.350  1.00  0.00     0.193 HD
ATOM     21  H11 UNL     1      44.671  15.167  21.699  1.00  0.00     0.193 HD
ENDBRANCH  18  19
ENDBRANCH  16  18
ENDBRANCH  15  16
ENDBRANCH  14  15
ENDBRANCH  13  14
ENDBRANCH  12  13
ENDBRANCH  11  12
ENDBRANCH  10  11
ENDBRANCH   9  10
ENDBRANCH   8   9
ENDBRANCH   1   8
BRANCH   3  22
HETATM   22  O1  UNL     1      40.939   9.468  18.246  1.00  0.00    -0.391 OA
ATOM     23  H1  UNL     1      41.367   9.353  17.406  1.00  0.00     0.210 HD
ENDBRANCH   3  22
BRANCH   6  24
HETATM   24  C14 UNL     1      44.068  11.425  22.248  1.00  0.00     0.181 C 
HETATM   25  O4  UNL     1      44.174  12.546  21.709  1.00  0.00    -0.648 OA
HETATM   26  O5  UNL     1      44.860  11.147  23.353  1.00  0.00    -0.648 OA
ENDBRANCH   6  24
BRANCH   4  27
HETATM   27  O2  UNL     1      43.367   8.204  18.801  1.00  0.00    -0.390 OA
ATOM     28  H2  UNL     1      43.803   8.763  18.169  1.00  0.00     0.210 HD
ENDBRANCH   4  27
BRANCH   5  29
HETATM   29  O3  UNL     1      44.860   8.966  20.899  1.00  0.00    -0.392 OA
ATOM     30  H3  UNL     1      45.307   9.294  21.670  1.00  0.00     0.210 HD
ENDBRANCH   5  29
TORSDOF 15
ENDMDL
