MODEL 5
REMARK VINA RESULT: -7.346986877      2.321      6.241
REMARK  5 active torsions:
REMARK  status: ('A' for Active; 'I' for Inactive)
REMARK    1  A    between atoms: C5_8  and  C6_9 
REMARK    2  A    between atoms: C9_12  and  C10_13 
REMARK    3  A    between atoms: C10_13  and  N2_14 
REMARK    4  A    between atoms: N2_14  and  S1_16 
REMARK    5  A    between atoms: S1_16  and  C11_19 
ROOT
HETATM    1  C6  UNL     1       9.041  17.906  18.500  1.00  0.00    -0.021 A 
HETATM    2  C7  UNL     1      10.015  17.399  17.680  1.00  0.00     0.013 A 
HETATM    3  C8  UNL     1      10.105  17.854  16.383  1.00  0.00     0.010 A 
HETATM    4  C9  UNL     1       9.240  18.812  15.882  1.00  0.00    -0.040 A 
HETATM    5  C17 UNL     1       8.276  19.299  16.735  1.00  0.00     0.010 A 
HETATM    6  C18 UNL     1       8.167  18.854  18.044  1.00  0.00     0.013 A 
ENDROOT
BRANCH   4   7
HETATM    7  C10 UNL     1       9.391  19.255  14.478  1.00  0.00     0.170 C 
BRANCH   7   8
HETATM    8  N2  UNL     1       8.072  19.575  13.991  1.00  0.00    -0.311 N 
ATOM      9  H2  UNL     1       7.650  20.496  14.110  1.00  0.00     0.172 HD
BRANCH   8  10
HETATM   10  S1  UNL     1       7.275  18.294  13.201  1.00  0.00     0.259 S 
HETATM   11  O2  UNL     1       5.838  18.747  12.976  1.00  0.00    -0.201 OA
HETATM   12  O3  UNL     1       7.874  18.147  11.823  1.00  0.00    -0.201 OA
BRANCH  10  13
HETATM   13  C11 UNL     1       7.313  16.809  14.082  1.00  0.00     0.079 A 
HETATM   14  C12 UNL     1       6.636  16.672  15.269  1.00  0.00     0.025 A 
HETATM   15  C13 UNL     1       6.662  15.489  15.975  1.00  0.00     0.002 A 
HETATM   16  C14 UNL     1       7.369  14.401  15.516  1.00  0.00     0.000 A 
HETATM   17  C15 UNL     1       8.052  14.523  14.328  1.00  0.00     0.002 A 
HETATM   18  C16 UNL     1       8.018  15.725  13.622  1.00  0.00     0.025 A 
ENDBRANCH  10  13
ENDBRANCH   8  10
ENDBRANCH   7   8
ENDBRANCH   4   7
BRANCH   1  19
HETATM   19  C5  UNL     1       8.958  17.416  19.861  1.00  0.00     0.030 A 
HETATM   20  C2  UNL     1       8.655  16.100  20.229  1.00  0.00     0.042 A 
HETATM   21  C1  UNL     1       8.370  14.988  19.281  1.00  0.00     0.071 C 
HETATM   22  N1  UNL     1       8.688  16.106  21.571  1.00  0.00    -0.265 N 
HETATM   23  O1  UNL     1       8.978  17.286  22.012  1.00  0.00    -0.242 OA
ATOM     24  H1  UNL     1       8.509  15.293  22.160  1.00  0.00     0.194 HD
HETATM   25  C3  UNL     1       9.153  18.125  21.020  1.00  0.00     0.085 A 
HETATM   26  C4  UNL     1       9.499  19.574  21.132  1.00  0.00     0.079 C 
ENDBRANCH   1  19
TORSDOF 5
ENDMDL
