MODEL 7
REMARK VINA RESULT: -7.188105617      2.600      6.807
REMARK  5 active torsions:
REMARK  status: ('A' for Active; 'I' for Inactive)
REMARK    1  A    between atoms: C5_8  and  C6_9 
REMARK    2  A    between atoms: C9_12  and  C10_13 
REMARK    3  A    between atoms: C10_13  and  N2_14 
REMARK    4  A    between atoms: N2_14  and  S1_16 
REMARK    5  A    between atoms: S1_16  and  C11_19 
ROOT
HETATM    1  C6  UNL     1       8.811  18.627  19.588  1.00  0.00    -0.021 A 
HETATM    2  C7  UNL     1       8.517  17.291  19.681  1.00  0.00     0.013 A 
HETATM    3  C8  UNL     1       8.791  16.467  18.611  1.00  0.00     0.010 A 
HETATM    4  C9  UNL     1       9.355  16.948  17.442  1.00  0.00    -0.040 A 
HETATM    5  C17 UNL     1       9.636  18.294  17.385  1.00  0.00     0.010 A 
HETATM    6  C18 UNL     1       9.369  19.141  18.450  1.00  0.00     0.013 A 
ENDROOT
BRANCH   4   7
HETATM    7  C10 UNL     1       9.620  16.008  16.330  1.00  0.00     0.170 C 
BRANCH   7   8
HETATM    8  N2  UNL     1       8.580  15.011  16.362  1.00  0.00    -0.311 N 
ATOM      9  H2  UNL     1       8.492  14.331  17.117  1.00  0.00     0.172 HD
BRANCH   8  10
HETATM   10  S1  UNL     1       7.508  15.058  15.038  1.00  0.00     0.259 S 
HETATM   11  O2  UNL     1       7.881  13.890  14.134  1.00  0.00    -0.201 OA
HETATM   12  O3  UNL     1       6.121  14.749  15.548  1.00  0.00    -0.201 OA
BRANCH  10  13
HETATM   13  C11 UNL     1       7.558  16.545  14.162  1.00  0.00     0.079 A 
HETATM   14  C12 UNL     1       7.168  17.725  14.747  1.00  0.00     0.025 A 
HETATM   15  C13 UNL     1       7.207  18.914  14.052  1.00  0.00     0.002 A 
HETATM   16  C14 UNL     1       7.638  18.962  12.746  1.00  0.00     0.000 A 
HETATM   17  C15 UNL     1       8.032  17.788  12.147  1.00  0.00     0.002 A 
HETATM   18  C16 UNL     1       7.989  16.591  12.860  1.00  0.00     0.025 A 
ENDBRANCH  10  13
ENDBRANCH   8  10
ENDBRANCH   7   8
ENDBRANCH   4   7
BRANCH   1  19
HETATM   19  C5  UNL     1       8.516  19.481  20.720  1.00  0.00     0.030 A 
HETATM   20  C2  UNL     1       9.460  19.974  21.628  1.00  0.00     0.042 A 
HETATM   21  C1  UNL     1      10.922  19.701  21.578  1.00  0.00     0.071 C 
HETATM   22  N1  UNL     1       8.746  20.708  22.495  1.00  0.00    -0.265 N 
HETATM   23  O1  UNL     1       7.492  20.689  22.182  1.00  0.00    -0.242 OA
ATOM     24  H1  UNL     1       9.138  21.210  23.292  1.00  0.00     0.194 HD
HETATM   25  C3  UNL     1       7.290  19.960  21.111  1.00  0.00     0.085 A 
HETATM   26  C4  UNL     1       5.978  19.701  20.447  1.00  0.00     0.079 C 
ENDBRANCH   1  19
TORSDOF 5
ENDMDL
