MODEL 2
REMARK VINA RESULT: -9.641331445      0.382      1.643
REMARK  5 active torsions:
REMARK  status: ('A' for Active; 'I' for Inactive)
REMARK    1  A    between atoms: C5_8  and  C6_9 
REMARK    2  A    between atoms: C9_12  and  C10_13 
REMARK    3  A    between atoms: C10_13  and  N2_14 
REMARK    4  A    between atoms: N2_14  and  S1_16 
REMARK    5  A    between atoms: S1_16  and  C11_19 
ROOT
HETATM    1  C6  UNL     1       7.185  17.867  15.458  1.00  0.00    -0.021 A 
HETATM    2  C7  UNL     1       7.938  18.925  15.893  1.00  0.00     0.013 A 
HETATM    3  C8  UNL     1       7.695  19.455  17.142  1.00  0.00     0.010 A 
HETATM    4  C9  UNL     1       6.710  18.948  17.972  1.00  0.00    -0.040 A 
HETATM    5  C17 UNL     1       5.973  17.885  17.501  1.00  0.00     0.010 A 
HETATM    6  C18 UNL     1       6.202  17.337  16.248  1.00  0.00     0.013 A 
ENDROOT
BRANCH   4   7
HETATM    7  C10 UNL     1       6.499  19.566  19.300  1.00  0.00     0.170 C 
BRANCH   7   8
HETATM    8  N2  UNL     1       6.695  18.531  20.285  1.00  0.00    -0.311 N 
ATOM      9  H2  UNL     1       5.918  18.043  20.732  1.00  0.00     0.172 HD
BRANCH   8  10
HETATM   10  S1  UNL     1       8.324  18.186  20.641  1.00  0.00     0.259 S 
HETATM   11  O2  UNL     1       8.968  19.503  21.055  1.00  0.00    -0.201 OA
HETATM   12  O3  UNL     1       8.360  17.314  21.874  1.00  0.00    -0.201 OA
BRANCH  10  13
HETATM   13  C11 UNL     1       9.184  17.476  19.323  1.00  0.00     0.079 A 
HETATM   14  C12 UNL     1       8.862  16.225  18.859  1.00  0.00     0.025 A 
HETATM   15  C13 UNL     1       9.545  15.654  17.806  1.00  0.00     0.002 A 
HETATM   16  C14 UNL     1      10.576  16.319  17.183  1.00  0.00     0.000 A 
HETATM   17  C15 UNL     1      10.910  17.574  17.637  1.00  0.00     0.002 A 
HETATM   18  C16 UNL     1      10.212  18.141  18.702  1.00  0.00     0.025 A 
ENDBRANCH  10  13
ENDBRANCH   8  10
ENDBRANCH   7   8
ENDBRANCH   4   7
BRANCH   1  19
HETATM   19  C5  UNL     1       7.451  17.322  14.142  1.00  0.00     0.030 A 
HETATM   20  C2  UNL     1       7.547  18.070  12.962  1.00  0.00     0.042 A 
HETATM   21  C1  UNL     1       7.391  19.547  12.867  1.00  0.00     0.071 C 
HETATM   22  N1  UNL     1       7.799  17.163  12.005  1.00  0.00    -0.265 N 
HETATM   23  O1  UNL     1       7.859  15.974  12.510  1.00  0.00    -0.242 OA
ATOM     24  H1  UNL     1       7.926  17.381  11.017  1.00  0.00     0.194 HD
HETATM   25  C3  UNL     1       7.655  16.007  13.805  1.00  0.00     0.085 A 
HETATM   26  C4  UNL     1       7.647  14.837  14.733  1.00  0.00     0.079 C 
ENDBRANCH   1  19
TORSDOF 5
ENDMDL
