MODEL 6
REMARK VINA RESULT: -7.278687946      2.553      6.824
REMARK  5 active torsions:
REMARK  status: ('A' for Active; 'I' for Inactive)
REMARK    1  A    between atoms: C5_8  and  C6_9 
REMARK    2  A    between atoms: C9_12  and  C10_13 
REMARK    3  A    between atoms: C10_13  and  N2_14 
REMARK    4  A    between atoms: N2_14  and  S1_16 
REMARK    5  A    between atoms: S1_16  and  C11_19 
ROOT
HETATM    1  C6  UNL     1       8.870  18.613  19.591  1.00  0.00    -0.021 A 
HETATM    2  C7  UNL     1       8.643  17.267  19.712  1.00  0.00     0.013 A 
HETATM    3  C8  UNL     1       8.899  16.444  18.637  1.00  0.00     0.010 A 
HETATM    4  C9  UNL     1       9.380  16.936  17.437  1.00  0.00    -0.040 A 
HETATM    5  C17 UNL     1       9.597  18.293  17.353  1.00  0.00     0.010 A 
HETATM    6  C18 UNL     1       9.345  19.139  18.422  1.00  0.00     0.013 A 
ENDROOT
BRANCH   4   7
HETATM    7  C10 UNL     1       9.631  15.996  16.321  1.00  0.00     0.170 C 
BRANCH   7   8
HETATM    8  N2  UNL     1       8.582  15.007  16.357  1.00  0.00    -0.311 N 
ATOM      9  H2  UNL     1       8.488  14.332  17.115  1.00  0.00     0.172 HD
BRANCH   8  10
HETATM   10  S1  UNL     1       7.512  15.057  15.032  1.00  0.00     0.259 S 
HETATM   11  O2  UNL     1       7.885  13.890  14.127  1.00  0.00    -0.201 OA
HETATM   12  O3  UNL     1       6.124  14.747  15.540  1.00  0.00    -0.201 OA
BRANCH  10  13
HETATM   13  C11 UNL     1       7.563  16.545  14.159  1.00  0.00     0.079 A 
HETATM   14  C12 UNL     1       7.995  16.587  12.856  1.00  0.00     0.025 A 
HETATM   15  C13 UNL     1       8.036  17.772  12.153  1.00  0.00     0.002 A 
HETATM   16  C14 UNL     1       7.646  18.957  12.733  1.00  0.00     0.000 A 
HETATM   17  C15 UNL     1       7.211  18.931  14.038  1.00  0.00     0.002 A 
HETATM   18  C16 UNL     1       7.173  17.726  14.738  1.00  0.00     0.025 A 
ENDBRANCH  10  13
ENDBRANCH   8  10
ENDBRANCH   7   8
ENDBRANCH   4   7
BRANCH   1  19
HETATM   19  C5  UNL     1       8.595  19.467  20.729  1.00  0.00     0.030 A 
HETATM   20  C2  UNL     1       7.329  19.938  21.099  1.00  0.00     0.042 A 
HETATM   21  C1  UNL     1       6.060  19.639  20.382  1.00  0.00     0.071 C 
HETATM   22  N1  UNL     1       7.550  20.680  22.195  1.00  0.00    -0.265 N 
HETATM   23  O1  UNL     1       8.807  20.685  22.494  1.00  0.00    -0.242 OA
ATOM     24  H1  UNL     1       6.826  21.172  22.718  1.00  0.00     0.194 HD
HETATM   25  C3  UNL     1       9.493  19.964  21.640  1.00  0.00     0.085 A 
HETATM   26  C4  UNL     1      10.968  19.732  21.656  1.00  0.00     0.079 C 
ENDBRANCH   1  19
TORSDOF 5
ENDMDL
