MODEL 1
REMARK VINA RESULT: -9.782117781      0.000      0.000
REMARK  5 active torsions:
REMARK  status: ('A' for Active; 'I' for Inactive)
REMARK    1  A    between atoms: C5_8  and  C6_9 
REMARK    2  A    between atoms: C9_12  and  C10_13 
REMARK    3  A    between atoms: C10_13  and  N2_14 
REMARK    4  A    between atoms: N2_14  and  S1_16 
REMARK    5  A    between atoms: S1_16  and  C11_19 
ROOT
HETATM    1  C6  UNL     1       7.176  17.816  15.425  1.00  0.00    -0.021 A 
HETATM    2  C7  UNL     1       7.926  18.882  15.849  1.00  0.00     0.013 A 
HETATM    3  C8  UNL     1       7.681  19.422  17.093  1.00  0.00     0.010 A 
HETATM    4  C9  UNL     1       6.700  18.918  17.929  1.00  0.00    -0.040 A 
HETATM    5  C17 UNL     1       5.968  17.847  17.470  1.00  0.00     0.010 A 
HETATM    6  C18 UNL     1       6.197  17.289  16.221  1.00  0.00     0.013 A 
ENDROOT
BRANCH   4   7
HETATM    7  C10 UNL     1       6.488  19.548  19.252  1.00  0.00     0.170 C 
BRANCH   7   8
HETATM    8  N2  UNL     1       6.675  18.519  20.245  1.00  0.00    -0.311 N 
ATOM      9  H2  UNL     1       5.895  18.033  20.688  1.00  0.00     0.172 HD
BRANCH   8  10
HETATM   10  S1  UNL     1       8.301  18.181  20.621  1.00  0.00     0.259 S 
HETATM   11  O2  UNL     1       8.933  19.499  21.048  1.00  0.00    -0.201 OA
HETATM   12  O3  UNL     1       8.324  17.304  21.851  1.00  0.00    -0.201 OA
BRANCH  10  13
HETATM   13  C11 UNL     1       9.181  17.479  19.313  1.00  0.00     0.079 A 
HETATM   14  C12 UNL     1       8.884  16.219  18.854  1.00  0.00     0.025 A 
HETATM   15  C13 UNL     1       9.583  15.656  17.808  1.00  0.00     0.002 A 
HETATM   16  C14 UNL     1      10.605  16.336  17.186  1.00  0.00     0.000 A 
HETATM   17  C15 UNL     1      10.914  17.599  17.635  1.00  0.00     0.002 A 
HETATM   18  C16 UNL     1      10.200  18.159  18.693  1.00  0.00     0.025 A 
ENDBRANCH  10  13
ENDBRANCH   8  10
ENDBRANCH   7   8
ENDBRANCH   4   7
BRANCH   1  19
HETATM   19  C5  UNL     1       7.444  17.260  14.114  1.00  0.00     0.030 A 
HETATM   20  C2  UNL     1       7.619  15.899  13.833  1.00  0.00     0.042 A 
HETATM   21  C1  UNL     1       7.558  14.802  14.836  1.00  0.00     0.071 C 
HETATM   22  N1  UNL     1       7.840  15.852  12.510  1.00  0.00    -0.265 N 
HETATM   23  O1  UNL     1       7.811  17.040  12.002  1.00  0.00    -0.242 OA
ATOM     24  H1  UNL     1       8.009  14.997  11.980  1.00  0.00     0.194 HD
HETATM   25  C3  UNL     1       7.574  17.938  12.927  1.00  0.00     0.085 A 
HETATM   26  C4  UNL     1       7.466  19.414  12.727  1.00  0.00     0.079 C 
ENDBRANCH   1  19
TORSDOF 5
ENDMDL
