MODEL 3
REMARK VINA RESULT: -10.336919267      1.506      1.919
REMARK  8 active torsions:
REMARK  status: ('A' for Active; 'I' for Inactive)
REMARK    1  A    between atoms: C3_6  and  C4_7 
REMARK    2  A    between atoms: C4_7  and  O2_8 
REMARK    3  A    between atoms: O2_8  and  C5_9 
REMARK    4  A    between atoms: C11_17  and  C12_18 
REMARK    5  A    between atoms: C15_21  and  C16_22 
REMARK    6  A    between atoms: C16_22  and  N2_23 
REMARK    7  A    between atoms: N2_23  and  S1_25 
REMARK    8  A    between atoms: S1_25  and  C17_28 
ROOT
HETATM    1  C1  UNL     1      -7.522  19.324 -13.014  1.00  0.00     0.071 C 
HETATM    2  C2  UNL     1      -7.551  17.825 -13.102  1.00  0.00     0.042 A 
HETATM    3  N1  UNL     1      -7.769  16.934 -12.090  1.00  0.00    -0.264 N 
ATOM      4  H1  UNL     1      -7.909  17.149 -11.103  1.00  0.00     0.194 HD
HETATM    5  O1  UNL     1      -7.762  15.771 -12.634  1.00  0.00    -0.235 OA
HETATM    6  C3  UNL     1      -7.559  15.764 -13.931  1.00  0.00     0.134 A 
HETATM    7  C11 UNL     1      -7.400  17.111 -14.273  1.00  0.00     0.036 A 
ENDROOT
BRANCH   7   8
HETATM    8  C12 UNL     1      -7.006  17.657 -15.562  1.00  0.00    -0.021 A 
HETATM    9  C13 UNL     1      -7.828  18.557 -16.203  1.00  0.00     0.013 A 
HETATM   10  C14 UNL     1      -7.500  19.214 -17.419  1.00  0.00     0.010 A 
HETATM   11  C15 UNL     1      -6.304  18.936 -17.975  1.00  0.00    -0.040 A 
HETATM   12  C21 UNL     1      -5.461  18.033 -17.336  1.00  0.00     0.010 A 
HETATM   13  C22 UNL     1      -5.801  17.398 -16.151  1.00  0.00     0.013 A 
BRANCH  11  14
HETATM   14  C16 UNL     1      -5.786  19.407 -19.338  1.00  0.00     0.170 C 
BRANCH  14  15
HETATM   15  N2  UNL     1      -6.933  19.937 -19.961  1.00  0.00    -0.315 N 
ATOM     16  H2  UNL     1      -7.216  20.828 -19.553  1.00  0.00     0.172 HD
BRANCH  15  17
HETATM   17  S1  UNL     1      -7.893  19.485 -21.144  1.00  0.00     0.235 S 
HETATM   18  O3  UNL     1      -7.755  17.975 -21.451  1.00  0.00    -0.205 OA
HETATM   19  O4  UNL     1      -7.409  20.141 -22.475  1.00  0.00    -0.205 OA
BRANCH  17  20
HETATM   20  C17 UNL     1      -9.655  19.774 -21.042  1.00  0.00     0.079 A 
HETATM   21  C18 UNL     1     -10.193  20.874 -21.879  1.00  0.00     0.034 C 
HETATM   22  C19 UNL     1     -10.108  20.013 -19.565  1.00  0.00     0.028 A 
HETATM   23  C20 UNL     1     -10.415  18.782 -20.310  1.00  0.00     0.028 A 
ENDBRANCH  17  20
ENDBRANCH  15  17
ENDBRANCH  14  15
ENDBRANCH  11  14
ENDBRANCH   7   8
BRANCH   6  24
HETATM   24  C4  UNL     1      -7.568  14.601 -14.836  1.00  0.00     0.182 C 
BRANCH  24  25
HETATM   25  O2  UNL     1      -8.384  14.307 -15.812  1.00  0.00    -0.317 OA
BRANCH  25  26
HETATM   26  C5  UNL     1      -9.630  14.451 -16.232  1.00  0.00     0.116 A 
HETATM   27  C6  UNL     1     -10.179  15.700 -16.560  1.00  0.00     0.040 A 
HETATM   28  C7  UNL     1     -11.474  15.844 -16.967  1.00  0.00     0.006 A 
HETATM   29  C8  UNL     1     -12.308  14.768 -17.081  1.00  0.00     0.046 A 
HETATM   30  C9  UNL     1     -11.794  13.541 -16.773  1.00  0.00     0.157 A 
HETATM   31  F1  UNL     1     -12.645  12.467 -16.886  1.00  0.00    -0.203 F 
HETATM   32  C10 UNL     1     -10.467  13.370 -16.349  1.00  0.00     0.188 A 
HETATM   33  F2  UNL     1     -10.025  12.117 -16.074  1.00  0.00    -0.200 F 
ENDBRANCH  25  26
ENDBRANCH  24  25
ENDBRANCH   6  24
TORSDOF 8
ENDMDL
