MODEL 6
REMARK VINA RESULT: -9.105502995      1.400      1.984
REMARK  8 active torsions:
REMARK  status: ('A' for Active; 'I' for Inactive)
REMARK    1  A    between atoms: C3_6  and  C4_7 
REMARK    2  A    between atoms: C4_7  and  O2_8 
REMARK    3  A    between atoms: O2_8  and  C5_9 
REMARK    4  A    between atoms: C11_17  and  C12_18 
REMARK    5  A    between atoms: C15_21  and  C16_22 
REMARK    6  A    between atoms: C16_22  and  N2_23 
REMARK    7  A    between atoms: N2_23  and  S1_25 
REMARK    8  A    between atoms: S1_25  and  C17_28 
ROOT
HETATM    1  C1  UNL     1      -7.747  19.550 -12.991  1.00  0.00     0.071 C 
HETATM    2  C2  UNL     1      -7.639  18.052 -12.953  1.00  0.00     0.042 A 
HETATM    3  N1  UNL     1      -7.797  17.232 -11.873  1.00  0.00    -0.264 N 
ATOM      4  H1  UNL     1      -7.978  17.514 -10.910  1.00  0.00     0.194 HD
HETATM    5  O1  UNL     1      -7.674  16.033 -12.317  1.00  0.00    -0.235 OA
HETATM    6  C3  UNL     1      -7.444  15.938 -13.606  1.00  0.00     0.134 A 
HETATM    7  C11 UNL     1      -7.399  17.261 -14.058  1.00  0.00     0.036 A 
ENDROOT
BRANCH   7   8
HETATM    8  C12 UNL     1      -7.028  17.732 -15.383  1.00  0.00    -0.021 A 
HETATM    9  C13 UNL     1      -7.871  18.579 -16.067  1.00  0.00     0.013 A 
HETATM   10  C14 UNL     1      -7.567  19.165 -17.325  1.00  0.00     0.010 A 
HETATM   11  C15 UNL     1      -6.373  18.870 -17.878  1.00  0.00    -0.040 A 
HETATM   12  C21 UNL     1      -5.509  18.021 -17.195  1.00  0.00     0.010 A 
HETATM   13  C22 UNL     1      -5.826  17.454 -15.970  1.00  0.00     0.013 A 
BRANCH  11  14
HETATM   14  C16 UNL     1      -5.877  19.264 -19.274  1.00  0.00     0.170 C 
BRANCH  14  15
HETATM   15  N2  UNL     1      -7.010  19.851 -19.872  1.00  0.00    -0.315 N 
ATOM     16  H2  UNL     1      -7.294  20.709 -19.399  1.00  0.00     0.172 HD
BRANCH  15  17
HETATM   17  S1  UNL     1      -7.952  19.502 -21.103  1.00  0.00     0.235 S 
HETATM   18  O3  UNL     1      -7.898  17.998 -21.460  1.00  0.00    -0.205 OA
HETATM   19  O4  UNL     1      -7.379  20.170 -22.391  1.00  0.00    -0.205 OA
BRANCH  17  20
HETATM   20  C17 UNL     1      -9.695  19.901 -21.052  1.00  0.00     0.079 A 
HETATM   21  C18 UNL     1     -10.151  20.987 -21.954  1.00  0.00     0.034 C 
HETATM   22  C19 UNL     1     -10.159  20.241 -19.598  1.00  0.00     0.028 A 
HETATM   23  C20 UNL     1     -10.527  18.995 -20.288  1.00  0.00     0.028 A 
ENDBRANCH  17  20
ENDBRANCH  15  17
ENDBRANCH  14  15
ENDBRANCH  11  14
ENDBRANCH   7   8
BRANCH   6  24
HETATM   24  C4  UNL     1      -7.328  14.708 -14.410  1.00  0.00     0.182 C 
BRANCH  24  25
HETATM   25  O2  UNL     1      -7.893  14.394 -15.544  1.00  0.00    -0.317 OA
BRANCH  25  26
HETATM   26  C5  UNL     1      -8.667  14.863 -16.509  1.00  0.00     0.116 A 
HETATM   27  C6  UNL     1      -8.153  15.385 -17.707  1.00  0.00     0.040 A 
HETATM   28  C7  UNL     1      -8.956  15.892 -18.686  1.00  0.00     0.006 A 
HETATM   29  C8  UNL     1     -10.315  15.915 -18.552  1.00  0.00     0.046 A 
HETATM   30  C9  UNL     1     -10.839  15.408 -17.397  1.00  0.00     0.157 A 
HETATM   31  F1  UNL     1     -12.208  15.442 -17.270  1.00  0.00    -0.203 F 
HETATM   32  C10 UNL     1     -10.032  14.884 -16.375  1.00  0.00     0.188 A 
HETATM   33  F2  UNL     1     -10.628  14.386 -15.262  1.00  0.00    -0.200 F 
ENDBRANCH  25  26
ENDBRANCH  24  25
ENDBRANCH   6  24
TORSDOF 8
ENDMDL
