MODEL 2
REMARK VINA RESULT: -10.489653599      1.108      1.358
REMARK  8 active torsions:
REMARK  status: ('A' for Active; 'I' for Inactive)
REMARK    1  A    between atoms: C3_6  and  C4_7 
REMARK    2  A    between atoms: C4_7  and  O2_8 
REMARK    3  A    between atoms: O2_8  and  C5_9 
REMARK    4  A    between atoms: C11_17  and  C12_18 
REMARK    5  A    between atoms: C15_21  and  C16_22 
REMARK    6  A    between atoms: C16_22  and  N2_23 
REMARK    7  A    between atoms: N2_23  and  S1_25 
REMARK    8  A    between atoms: S1_25  and  C17_28 
ROOT
HETATM    1  C1  UNL     1      -7.639  19.145 -13.094  1.00  0.00     0.071 C 
HETATM    2  C2  UNL     1      -7.654  17.652 -13.256  1.00  0.00     0.042 A 
HETATM    3  N1  UNL     1      -7.891  16.711 -12.295  1.00  0.00    -0.264 N 
ATOM      4  H1  UNL     1      -8.058  16.876 -11.303  1.00  0.00     0.194 HD
HETATM    5  O1  UNL     1      -7.861  15.576 -12.895  1.00  0.00    -0.235 OA
HETATM    6  C3  UNL     1      -7.625  15.635 -14.185  1.00  0.00     0.134 A 
HETATM    7  C11 UNL     1      -7.467  16.998 -14.457  1.00  0.00     0.036 A 
ENDROOT
BRANCH   7   8
HETATM    8  C12 UNL     1      -7.044  17.610 -15.707  1.00  0.00    -0.021 A 
HETATM    9  C13 UNL     1      -7.842  18.559 -16.307  1.00  0.00     0.013 A 
HETATM   10  C14 UNL     1      -7.484  19.278 -17.478  1.00  0.00     0.010 A 
HETATM   11  C15 UNL     1      -6.284  19.011 -18.032  1.00  0.00    -0.040 A 
HETATM   12  C21 UNL     1      -5.466  18.059 -17.433  1.00  0.00     0.010 A 
HETATM   13  C22 UNL     1      -5.835  17.363 -16.292  1.00  0.00     0.013 A 
BRANCH  11  14
HETATM   14  C16 UNL     1      -5.737  19.550 -19.359  1.00  0.00     0.170 C 
BRANCH  14  15
HETATM   15  N2  UNL     1      -6.885  20.042 -20.012  1.00  0.00    -0.315 N 
ATOM     16  H2  UNL     1      -7.159  20.963 -19.668  1.00  0.00     0.172 HD
BRANCH  15  17
HETATM   17  S1  UNL     1      -7.855  19.513 -21.154  1.00  0.00     0.235 S 
HETATM   18  O3  UNL     1      -7.683  17.994 -21.396  1.00  0.00    -0.205 OA
HETATM   19  O4  UNL     1      -7.414  20.120 -22.522  1.00  0.00    -0.205 OA
BRANCH  17  20
HETATM   20  C17 UNL     1      -9.621  19.762 -21.030  1.00  0.00     0.079 A 
HETATM   21  C18 UNL     1     -10.177  20.931 -21.754  1.00  0.00     0.034 C 
HETATM   22  C19 UNL     1     -10.081  19.844 -19.537  1.00  0.00     0.028 A 
HETATM   23  C20 UNL     1     -10.367  18.689 -20.403  1.00  0.00     0.028 A 
ENDBRANCH  17  20
ENDBRANCH  15  17
ENDBRANCH  14  15
ENDBRANCH  11  14
ENDBRANCH   7   8
BRANCH   6  24
HETATM   24  C4  UNL     1      -7.602  14.518 -15.147  1.00  0.00     0.182 C 
BRANCH  24  25
HETATM   25  O2  UNL     1      -8.456  14.200 -16.081  1.00  0.00    -0.317 OA
BRANCH  25  26
HETATM   26  C5  UNL     1      -9.735  13.946 -16.306  1.00  0.00     0.116 A 
HETATM   27  C6  UNL     1     -10.249  12.640 -16.360  1.00  0.00     0.040 A 
HETATM   28  C7  UNL     1     -11.565  12.385 -16.620  1.00  0.00     0.006 A 
HETATM   29  C8  UNL     1     -12.456  13.396 -16.841  1.00  0.00     0.046 A 
HETATM   30  C9  UNL     1     -11.980  14.675 -16.787  1.00  0.00     0.157 A 
HETATM   31  F1  UNL     1     -12.886  15.683 -17.017  1.00  0.00    -0.203 F 
HETATM   32  C10 UNL     1     -10.631  14.961 -16.525  1.00  0.00     0.188 A 
HETATM   33  F2  UNL     1     -10.236  16.258 -16.476  1.00  0.00    -0.200 F 
ENDBRANCH  25  26
ENDBRANCH  24  25
ENDBRANCH   6  24
TORSDOF 8
ENDMDL
