MODEL 8
REMARK VINA RESULT: -8.544662269      2.263      4.718
REMARK  8 active torsions:
REMARK  status: ('A' for Active; 'I' for Inactive)
REMARK    1  A    between atoms: C3_6  and  C4_7 
REMARK    2  A    between atoms: C4_7  and  O2_8 
REMARK    3  A    between atoms: O2_8  and  C5_9 
REMARK    4  A    between atoms: C11_17  and  C12_18 
REMARK    5  A    between atoms: C15_21  and  C16_22 
REMARK    6  A    between atoms: C16_22  and  N2_23 
REMARK    7  A    between atoms: N2_23  and  S1_25 
REMARK    8  A    between atoms: S1_25  and  C17_28 
ROOT
HETATM    1  C1  UNL     1     -12.054  13.680 -17.365  1.00  0.00     0.071 C 
HETATM    2  C2  UNL     1     -10.720  13.502 -16.698  1.00  0.00     0.042 A 
HETATM    3  N1  UNL     1     -10.290  12.432 -15.967  1.00  0.00    -0.264 N 
ATOM      4  H1  UNL     1     -10.826  11.597 -15.727  1.00  0.00     0.194 HD
HETATM    5  O1  UNL     1      -9.074  12.689 -15.644  1.00  0.00    -0.235 OA
HETATM    6  C3  UNL     1      -8.613  13.838 -16.080  1.00  0.00     0.134 A 
HETATM    7  C11 UNL     1      -9.685  14.412 -16.771  1.00  0.00     0.036 A 
ENDROOT
BRANCH   7   8
HETATM    8  C12 UNL     1      -9.764  15.753 -17.330  1.00  0.00    -0.021 A 
HETATM    9  C13 UNL     1      -9.795  16.842 -16.488  1.00  0.00     0.013 A 
HETATM   10  C14 UNL     1      -9.785  18.193 -16.928  1.00  0.00     0.010 A 
HETATM   11  C15 UNL     1      -9.738  18.415 -18.257  1.00  0.00    -0.040 A 
HETATM   12  C21 UNL     1      -9.700  17.324 -19.118  1.00  0.00     0.010 A 
HETATM   13  C22 UNL     1      -9.716  16.012 -18.670  1.00  0.00     0.013 A 
BRANCH  11  14
HETATM   14  C16 UNL     1      -9.854  19.765 -18.973  1.00  0.00     0.170 C 
BRANCH  14  15
HETATM   15  N2  UNL     1      -9.288  19.516 -20.239  1.00  0.00    -0.315 N 
ATOM     16  H2  UNL     1      -9.996  19.329 -20.949  1.00  0.00     0.172 HD
BRANCH  15  17
HETATM   17  S1  UNL     1      -7.813  19.455 -20.830  1.00  0.00     0.235 S 
HETATM   18  O3  UNL     1      -7.655  20.358 -22.076  1.00  0.00    -0.205 OA
HETATM   19  O4  UNL     1      -7.556  18.031 -21.415  1.00  0.00    -0.205 OA
BRANCH  17  20
HETATM   20  C17 UNL     1      -6.407  19.845 -19.797  1.00  0.00     0.079 A 
HETATM   21  C18 UNL     1      -5.208  20.380 -20.487  1.00  0.00     0.034 C 
HETATM   22  C19 UNL     1      -5.972  18.613 -18.938  1.00  0.00     0.028 A 
HETATM   23  C20 UNL     1      -6.640  19.793 -18.368  1.00  0.00     0.028 A 
ENDBRANCH  17  20
ENDBRANCH  15  17
ENDBRANCH  14  15
ENDBRANCH  11  14
ENDBRANCH   7   8
BRANCH   6  24
HETATM   24  C4  UNL     1      -7.248  14.373 -15.933  1.00  0.00     0.182 C 
BRANCH  24  25
HETATM   25  O2  UNL     1      -6.795  15.301 -15.135  1.00  0.00    -0.317 OA
BRANCH  25  26
HETATM   26  C5  UNL     1      -7.149  16.142 -14.176  1.00  0.00     0.116 A 
HETATM   27  C6  UNL     1      -7.653  15.710 -12.939  1.00  0.00     0.040 A 
HETATM   28  C7  UNL     1      -8.042  16.584 -11.965  1.00  0.00     0.006 A 
HETATM   29  C8  UNL     1      -7.957  17.935 -12.146  1.00  0.00     0.046 A 
HETATM   30  C9  UNL     1      -7.464  18.378 -13.340  1.00  0.00     0.157 A 
HETATM   31  F1  UNL     1      -7.389  19.740 -13.512  1.00  0.00    -0.203 F 
HETATM   32  C10 UNL     1      -7.061  17.499 -14.356  1.00  0.00     0.188 A 
HETATM   33  F2  UNL     1      -6.570  18.015 -15.511  1.00  0.00    -0.200 F 
ENDBRANCH  25  26
ENDBRANCH  24  25
ENDBRANCH   6  24
TORSDOF 8
ENDMDL
