MODEL 4
REMARK VINA RESULT: -10.257735444      1.084      1.372
REMARK  8 active torsions:
REMARK  status: ('A' for Active; 'I' for Inactive)
REMARK    1  A    between atoms: C3_6  and  C4_7 
REMARK    2  A    between atoms: C4_7  and  O2_8 
REMARK    3  A    between atoms: O2_8  and  C5_9 
REMARK    4  A    between atoms: C11_17  and  C12_18 
REMARK    5  A    between atoms: C15_21  and  C16_22 
REMARK    6  A    between atoms: C16_22  and  N2_23 
REMARK    7  A    between atoms: N2_23  and  S1_25 
REMARK    8  A    between atoms: S1_25  and  C17_28 
ROOT
HETATM    1  C1  UNL     1      -7.580  19.245 -13.061  1.00  0.00     0.071 C 
HETATM    2  C2  UNL     1      -7.523  17.756 -13.248  1.00  0.00     0.042 A 
HETATM    3  N1  UNL     1      -7.648  16.790 -12.292  1.00  0.00    -0.264 N 
ATOM      4  H1  UNL     1      -7.762  16.931 -11.289  1.00  0.00     0.194 HD
HETATM    5  O1  UNL     1      -7.594  15.667 -12.914  1.00  0.00    -0.235 OA
HETATM    6  C3  UNL     1      -7.443  15.758 -14.214  1.00  0.00     0.134 A 
HETATM    7  C11 UNL     1      -7.377  17.131 -14.471  1.00  0.00     0.036 A 
ENDROOT
BRANCH   7   8
HETATM    8  C12 UNL     1      -7.067  17.784 -15.733  1.00  0.00    -0.021 A 
HETATM    9  C13 UNL     1      -7.890  18.780 -16.207  1.00  0.00     0.013 A 
HETATM   10  C14 UNL     1      -7.634  19.538 -17.380  1.00  0.00     0.010 A 
HETATM   11  C15 UNL     1      -6.507  19.261 -18.067  1.00  0.00    -0.040 A 
HETATM   12  C21 UNL     1      -5.663  18.262 -17.597  1.00  0.00     0.010 A 
HETATM   13  C22 UNL     1      -5.934  17.528 -16.452  1.00  0.00     0.013 A 
BRANCH  11  14
HETATM   14  C16 UNL     1      -6.084  19.841 -19.422  1.00  0.00     0.170 C 
BRANCH  14  15
HETATM   15  N2  UNL     1      -6.713  18.991 -20.354  1.00  0.00    -0.315 N 
ATOM     16  H2  UNL     1      -6.050  18.370 -20.818  1.00  0.00     0.172 HD
BRANCH  15  17
HETATM   17  S1  UNL     1      -8.203  18.766 -20.859  1.00  0.00     0.235 S 
HETATM   18  O3  UNL     1      -8.255  18.442 -22.371  1.00  0.00    -0.205 OA
HETATM   19  O4  UNL     1      -8.979  20.118 -20.781  1.00  0.00    -0.205 OA
BRANCH  17  20
HETATM   20  C17 UNL     1      -9.245  17.534 -20.088  1.00  0.00     0.079 A 
HETATM   21  C18 UNL     1     -10.252  18.032 -19.120  1.00  0.00     0.034 C 
HETATM   22  C19 UNL     1      -8.392  16.427 -19.384  1.00  0.00     0.028 A 
HETATM   23  C20 UNL     1      -9.142  16.194 -20.628  1.00  0.00     0.028 A 
ENDBRANCH  17  20
ENDBRANCH  15  17
ENDBRANCH  14  15
ENDBRANCH  11  14
ENDBRANCH   7   8
BRANCH   6  24
HETATM   24  C4  UNL     1      -7.418  14.658 -15.196  1.00  0.00     0.182 C 
BRANCH  24  25
HETATM   25  O2  UNL     1      -8.291  14.334 -16.111  1.00  0.00    -0.317 OA
BRANCH  25  26
HETATM   26  C5  UNL     1      -9.585  14.327 -16.388  1.00  0.00     0.116 A 
HETATM   27  C6  UNL     1     -10.318  15.504 -16.610  1.00  0.00     0.040 A 
HETATM   28  C7  UNL     1     -11.658  15.490 -16.869  1.00  0.00     0.006 A 
HETATM   29  C8  UNL     1     -12.360  14.320 -16.927  1.00  0.00     0.046 A 
HETATM   30  C9  UNL     1     -11.666  13.162 -16.720  1.00  0.00     0.157 A 
HETATM   31  F1  UNL     1     -12.385  11.992 -16.776  1.00  0.00    -0.203 F 
HETATM   32  C10 UNL     1     -10.289  13.152 -16.450  1.00  0.00     0.188 A 
HETATM   33  F2  UNL     1      -9.667  11.960 -16.268  1.00  0.00    -0.200 F 
ENDBRANCH  25  26
ENDBRANCH  24  25
ENDBRANCH   6  24
TORSDOF 8
ENDMDL
