MODEL 1
REMARK VINA RESULT: -10.588572844      0.000      0.000
REMARK  8 active torsions:
REMARK  status: ('A' for Active; 'I' for Inactive)
REMARK    1  A    between atoms: C3_6  and  C4_7 
REMARK    2  A    between atoms: C4_7  and  O2_8 
REMARK    3  A    between atoms: O2_8  and  C5_9 
REMARK    4  A    between atoms: C11_17  and  C12_18 
REMARK    5  A    between atoms: C15_21  and  C16_22 
REMARK    6  A    between atoms: C16_22  and  N2_23 
REMARK    7  A    between atoms: N2_23  and  S1_25 
REMARK    8  A    between atoms: S1_25  and  C17_28 
ROOT
HETATM    1  C1  UNL     1      -7.546  19.306 -13.036  1.00  0.00     0.071 C 
HETATM    2  C2  UNL     1      -7.509  17.813 -13.191  1.00  0.00     0.042 A 
HETATM    3  N1  UNL     1      -7.645  16.869 -12.214  1.00  0.00    -0.264 N 
ATOM      4  H1  UNL     1      -7.755  17.033 -11.213  1.00  0.00     0.194 HD
HETATM    5  O1  UNL     1      -7.607  15.732 -12.811  1.00  0.00    -0.235 OA
HETATM    6  C3  UNL     1      -7.458  15.793 -14.114  1.00  0.00     0.134 A 
HETATM    7  C11 UNL     1      -7.374  17.159 -14.400  1.00  0.00     0.036 A 
ENDROOT
BRANCH   7   8
HETATM    8  C12 UNL     1      -7.058  17.780 -15.676  1.00  0.00    -0.021 A 
HETATM    9  C13 UNL     1      -7.870  18.776 -16.171  1.00  0.00     0.013 A 
HETATM   10  C14 UNL     1      -7.606  19.506 -17.361  1.00  0.00     0.010 A 
HETATM   11  C15 UNL     1      -6.484  19.199 -18.044  1.00  0.00    -0.040 A 
HETATM   12  C21 UNL     1      -5.653  18.199 -17.553  1.00  0.00     0.010 A 
HETATM   13  C22 UNL     1      -5.930  17.494 -16.392  1.00  0.00     0.013 A 
BRANCH  11  14
HETATM   14  C16 UNL     1      -6.057  19.743 -19.412  1.00  0.00     0.170 C 
BRANCH  14  15
HETATM   15  N2  UNL     1      -6.718  18.897 -20.324  1.00  0.00    -0.315 N 
ATOM     16  H2  UNL     1      -6.072  18.272 -20.807  1.00  0.00     0.172 HD
BRANCH  15  17
HETATM   17  S1  UNL     1      -8.224  18.679 -20.783  1.00  0.00     0.235 S 
HETATM   18  O3  UNL     1      -8.324  18.362 -22.294  1.00  0.00    -0.205 OA
HETATM   19  O4  UNL     1      -8.991  20.034 -20.676  1.00  0.00    -0.205 OA
BRANCH  17  20
HETATM   20  C17 UNL     1      -9.246  17.448 -19.985  1.00  0.00     0.079 A 
HETATM   21  C18 UNL     1     -10.266  17.951 -19.034  1.00  0.00     0.034 C 
HETATM   22  C19 UNL     1      -8.376  16.375 -19.252  1.00  0.00     0.028 A 
HETATM   23  C20 UNL     1      -9.117  16.097 -20.492  1.00  0.00     0.028 A 
ENDBRANCH  17  20
ENDBRANCH  15  17
ENDBRANCH  14  15
ENDBRANCH  11  14
ENDBRANCH   7   8
BRANCH   6  24
HETATM   24  C4  UNL     1      -7.450  14.672 -15.071  1.00  0.00     0.182 C 
BRANCH  24  25
HETATM   25  O2  UNL     1      -8.297  14.376 -16.019  1.00  0.00    -0.317 OA
BRANCH  25  26
HETATM   26  C5  UNL     1      -9.566  14.087 -16.256  1.00  0.00     0.116 A 
HETATM   27  C6  UNL     1     -10.041  12.768 -16.332  1.00  0.00     0.040 A 
HETATM   28  C7  UNL     1     -11.347  12.478 -16.604  1.00  0.00     0.006 A 
HETATM   29  C8  UNL     1     -12.268  13.465 -16.813  1.00  0.00     0.046 A 
HETATM   30  C9  UNL     1     -11.829  14.757 -16.737  1.00  0.00     0.157 A 
HETATM   31  F1  UNL     1     -12.764  15.741 -16.956  1.00  0.00    -0.203 F 
HETATM   32  C10 UNL     1     -10.491  15.079 -16.463  1.00  0.00     0.188 A 
HETATM   33  F2  UNL     1     -10.135  16.386 -16.391  1.00  0.00    -0.200 F 
ENDBRANCH  25  26
ENDBRANCH  24  25
ENDBRANCH   6  24
TORSDOF 8
ENDMDL
