MODEL 11
REMARK VINA RESULT: -8.418282336      2.504      4.559
REMARK  8 active torsions:
REMARK  status: ('A' for Active; 'I' for Inactive)
REMARK    1  A    between atoms: C3_6  and  C4_7 
REMARK    2  A    between atoms: C4_7  and  O2_8 
REMARK    3  A    between atoms: O2_8  and  C5_9 
REMARK    4  A    between atoms: C11_17  and  C12_18 
REMARK    5  A    between atoms: C15_21  and  C16_22 
REMARK    6  A    between atoms: C16_22  and  N2_23 
REMARK    7  A    between atoms: N2_23  and  S1_25 
REMARK    8  A    between atoms: S1_25  and  C17_28 
ROOT
HETATM    1  C1  UNL     1     -13.134  15.082 -17.166  1.00  0.00     0.071 C 
HETATM    2  C2  UNL     1     -12.071  14.164 -16.634  1.00  0.00     0.042 A 
HETATM    3  N1  UNL     1     -12.232  12.904 -16.133  1.00  0.00    -0.264 N 
ATOM      4  H1  UNL     1     -13.110  12.402 -16.005  1.00  0.00     0.194 HD
HETATM    5  O1  UNL     1     -11.052  12.480 -15.855  1.00  0.00    -0.235 OA
HETATM    6  C3  UNL     1     -10.081  13.324 -16.116  1.00  0.00     0.134 A 
HETATM    7  C11 UNL     1     -10.723  14.460 -16.621  1.00  0.00     0.036 A 
ENDROOT
BRANCH   7   8
HETATM    8  C12 UNL     1     -10.128  15.750 -16.931  1.00  0.00    -0.021 A 
HETATM    9  C13 UNL     1     -10.249  16.790 -16.037  1.00  0.00     0.013 A 
HETATM   10  C14 UNL     1      -9.636  18.061 -16.200  1.00  0.00     0.010 A 
HETATM   11  C15 UNL     1      -8.885  18.253 -17.304  1.00  0.00    -0.040 A 
HETATM   12  C21 UNL     1      -8.748  17.209 -18.212  1.00  0.00     0.010 A 
HETATM   13  C22 UNL     1      -9.360  15.977 -18.037  1.00  0.00     0.013 A 
BRANCH  11  14
HETATM   14  C16 UNL     1      -8.241  19.564 -17.768  1.00  0.00     0.170 C 
BRANCH  14  15
HETATM   15  N2  UNL     1      -9.160  20.067 -18.710  1.00  0.00    -0.315 N 
ATOM     16  H2  UNL     1      -9.731  20.821 -18.327  1.00  0.00     0.172 HD
BRANCH  15  17
HETATM   17  S1  UNL     1      -9.523  19.746 -20.223  1.00  0.00     0.235 S 
HETATM   18  O3  UNL     1     -10.147  20.968 -20.937  1.00  0.00    -0.205 OA
HETATM   19  O4  UNL     1     -10.687  18.708 -20.260  1.00  0.00    -0.205 OA
BRANCH  17  20
HETATM   20  C17 UNL     1      -8.268  19.147 -21.349  1.00  0.00     0.079 A 
HETATM   21  C18 UNL     1      -8.209  17.679 -21.551  1.00  0.00     0.034 C 
HETATM   22  C19 UNL     1      -6.846  19.644 -20.932  1.00  0.00     0.028 A 
HETATM   23  C20 UNL     1      -7.565  20.161 -22.106  1.00  0.00     0.028 A 
ENDBRANCH  17  20
ENDBRANCH  15  17
ENDBRANCH  14  15
ENDBRANCH  11  14
ENDBRANCH   7   8
BRANCH   6  24
HETATM   24  C4  UNL     1      -8.631  13.099 -15.974  1.00  0.00     0.182 C 
BRANCH  24  25
HETATM   25  O2  UNL     1      -7.721  13.845 -15.409  1.00  0.00    -0.317 OA
BRANCH  25  26
HETATM   26  C5  UNL     1      -7.543  14.945 -14.697  1.00  0.00     0.116 A 
HETATM   27  C6  UNL     1      -8.051  15.096 -13.396  1.00  0.00     0.040 A 
HETATM   28  C7  UNL     1      -7.887  16.245 -12.678  1.00  0.00     0.006 A 
HETATM   29  C8  UNL     1      -7.212  17.315 -13.191  1.00  0.00     0.046 A 
HETATM   30  C9  UNL     1      -6.704  17.190 -14.453  1.00  0.00     0.157 A 
HETATM   31  F1  UNL     1      -6.032  18.276 -14.961  1.00  0.00    -0.203 F 
HETATM   32  C10 UNL     1      -6.863  16.020 -15.211  1.00  0.00     0.188 A 
HETATM   33  F2  UNL     1      -6.318  15.967 -16.453  1.00  0.00    -0.200 F 
ENDBRANCH  25  26
ENDBRANCH  24  25
ENDBRANCH   6  24
TORSDOF 8
ENDMDL
