MODEL 7
REMARK VINA RESULT: -8.714945612      2.245      4.825
REMARK  8 active torsions:
REMARK  status: ('A' for Active; 'I' for Inactive)
REMARK    1  A    between atoms: C3_6  and  C4_7 
REMARK    2  A    between atoms: C4_7  and  O2_8 
REMARK    3  A    between atoms: O2_8  and  C5_9 
REMARK    4  A    between atoms: C11_17  and  C12_18 
REMARK    5  A    between atoms: C15_21  and  C16_22 
REMARK    6  A    between atoms: C16_22  and  N2_23 
REMARK    7  A    between atoms: N2_23  and  S1_25 
REMARK    8  A    between atoms: S1_25  and  C17_28 
ROOT
HETATM    1  C1  UNL     1     -12.037  13.685 -17.367  1.00  0.00     0.071 C 
HETATM    2  C2  UNL     1     -10.716  13.502 -16.677  1.00  0.00     0.042 A 
HETATM    3  N1  UNL     1     -10.316  12.447 -15.907  1.00  0.00    -0.264 N 
ATOM      4  H1  UNL     1     -10.872  11.632 -15.648  1.00  0.00     0.194 HD
HETATM    5  O1  UNL     1      -9.099  12.691 -15.576  1.00  0.00    -0.235 OA
HETATM    6  C3  UNL     1      -8.611  13.816 -16.043  1.00  0.00     0.134 A 
HETATM    7  C11 UNL     1      -9.662  14.388 -16.766  1.00  0.00     0.036 A 
ENDROOT
BRANCH   7   8
HETATM    8  C12 UNL     1      -9.707  15.712 -17.368  1.00  0.00    -0.021 A 
HETATM    9  C13 UNL     1      -9.333  15.877 -18.683  1.00  0.00     0.013 A 
HETATM   10  C14 UNL     1      -9.421  17.106 -19.390  1.00  0.00     0.010 A 
HETATM   11  C15 UNL     1      -9.905  18.174 -18.725  1.00  0.00    -0.040 A 
HETATM   12  C21 UNL     1     -10.291  18.021 -17.399  1.00  0.00     0.010 A 
HETATM   13  C22 UNL     1     -10.193  16.813 -16.723  1.00  0.00     0.013 A 
BRANCH  11  14
HETATM   14  C16 UNL     1      -9.968  19.623 -19.224  1.00  0.00     0.170 C 
BRANCH  14  15
HETATM   15  N2  UNL     1      -9.311  19.571 -20.469  1.00  0.00    -0.315 N 
ATOM     16  H2  UNL     1      -9.964  19.616 -21.252  1.00  0.00     0.172 HD
BRANCH  15  17
HETATM   17  S1  UNL     1      -7.800  19.459 -20.951  1.00  0.00     0.235 S 
HETATM   18  O3  UNL     1      -7.536  20.310 -22.217  1.00  0.00    -0.205 OA
HETATM   19  O4  UNL     1      -7.533  18.010 -21.463  1.00  0.00    -0.205 OA
BRANCH  17  20
HETATM   20  C17 UNL     1      -6.461  19.864 -19.837  1.00  0.00     0.079 A 
HETATM   21  C18 UNL     1      -5.248  20.457 -20.449  1.00  0.00     0.034 C 
HETATM   22  C19 UNL     1      -6.029  18.620 -18.993  1.00  0.00     0.028 A 
HETATM   23  C20 UNL     1      -6.764  19.760 -18.424  1.00  0.00     0.028 A 
ENDBRANCH  17  20
ENDBRANCH  15  17
ENDBRANCH  14  15
ENDBRANCH  11  14
ENDBRANCH   7   8
BRANCH   6  24
HETATM   24  C4  UNL     1      -7.237  14.329 -15.895  1.00  0.00     0.182 C 
BRANCH  24  25
HETATM   25  O2  UNL     1      -6.794  15.352 -15.215  1.00  0.00    -0.317 OA
BRANCH  25  26
HETATM   26  C5  UNL     1      -7.158  16.504 -14.675  1.00  0.00     0.116 A 
HETATM   27  C6  UNL     1      -7.163  17.710 -15.394  1.00  0.00     0.040 A 
HETATM   28  C7  UNL     1      -7.514  18.898 -14.821  1.00  0.00     0.006 A 
HETATM   29  C8  UNL     1      -7.884  18.975 -13.509  1.00  0.00     0.046 A 
HETATM   30  C9  UNL     1      -7.892  17.813 -12.791  1.00  0.00     0.157 A 
HETATM   31  F1  UNL     1      -8.261  17.904 -11.470  1.00  0.00    -0.203 F 
HETATM   32  C10 UNL     1      -7.533  16.580 -13.358  1.00  0.00     0.188 A 
HETATM   33  F2  UNL     1      -7.578  15.467 -12.583  1.00  0.00    -0.200 F 
ENDBRANCH  25  26
ENDBRANCH  24  25
ENDBRANCH   6  24
TORSDOF 8
ENDMDL
