MODEL 1
REMARK VINA RESULT: -9.180955117      0.000      0.000
REMARK  0 active torsions:
REMARK  status: ('A' for Active; 'I' for Inactive)
ROOT
HETATM    1  C1  UNL     1       7.606  18.415  11.938  1.00  0.00     0.071 C 
HETATM    2  C2  UNL     1       7.715  17.131  12.675  1.00  0.00     0.042 A 
HETATM    3  N1  UNL     1       7.541  15.980  12.081  1.00  0.00    -0.265 N 
ATOM      4  H1  UNL     1       7.325  15.839  11.095  1.00  0.00     0.194 HD
HETATM    5  O1  UNL     1       7.689  15.070  12.949  1.00  0.00    -0.239 OA
HETATM    6  C3  UNL     1       7.960  15.537  14.131  1.00  0.00     0.113 A 
HETATM    7  C4  UNL     1       8.004  16.951  14.061  1.00  0.00     0.032 A 
HETATM    8  C5  UNL     1       8.305  17.698  15.322  1.00  0.00    -0.021 A 
HETATM    9  C6  UNL     1       9.579  18.061  15.739  1.00  0.00     0.013 A 
HETATM   10  C7  UNL     1       9.891  18.741  16.941  1.00  0.00     0.010 A 
HETATM   11  C8  UNL     1       8.894  19.103  17.821  1.00  0.00    -0.040 A 
HETATM   12  C9  UNL     1       7.614  18.774  17.474  1.00  0.00     0.010 A 
HETATM   13  C10 UNL     1       7.357  18.092  16.252  1.00  0.00     0.013 A 
HETATM   14  C11 UNL     1       9.165  19.811  19.137  1.00  0.00     0.170 C 
HETATM   15  N2  UNL     1       9.703  18.871  20.141  1.00  0.00    -0.315 N 
ATOM     16  H2  UNL     1      10.661  18.522  20.103  1.00  0.00     0.172 HD
HETATM   17  S1  UNL     1       8.629  18.413  21.352  1.00  0.00     0.226 S 
HETATM   18  O2  UNL     1       7.360  19.244  21.180  1.00  0.00    -0.206 OA
HETATM   19  O3  UNL     1       9.115  18.736  22.738  1.00  0.00    -0.206 OA
HETATM   20  C12 UNL     1       8.147  16.736  21.174  1.00  0.00     0.163 C 
HETATM   21  C13 UNL     1       9.204  15.723  21.448  1.00  0.00     0.021 C 
HETATM   22  C14 UNL     1      10.486  15.901  20.714  1.00  0.00     0.039 C 
HETATM   23  C15 UNL     1      10.586  15.330  19.338  1.00  0.00    -0.056 A 
HETATM   24  C16 UNL     1      11.658  14.418  19.242  1.00  0.00     0.007 A 
HETATM   25  C17 UNL     1      12.003  13.742  18.099  1.00  0.00     0.003 A 
HETATM   26  C18 UNL     1      11.209  14.022  17.020  1.00  0.00     0.037 A 
HETATM   27  C19 UNL     1      10.135  14.908  17.042  1.00  0.00     0.069 A 
HETATM   28  C20 UNL     1       9.836  15.562  18.225  1.00  0.00     0.044 A 
HETATM   29  O4  UNL     1       9.498  15.008  15.817  1.00  0.00    -0.345 OA
HETATM   30  C21 UNL     1       8.188  14.754  15.367  1.00  0.00     0.243 C 
ENDROOT
TORSDOF 0
ENDMDL
