MODEL 2
REMARK VINA RESULT: -8.582536327      2.684      6.618
REMARK  0 active torsions:
REMARK  status: ('A' for Active; 'I' for Inactive)
ROOT
HETATM    1  C1  UNL     1       8.746  20.695  22.272  1.00  0.00     0.071 C 
HETATM    2  C2  UNL     1       7.720  20.248  21.297  1.00  0.00     0.042 A 
HETATM    3  N1  UNL     1       6.507  20.736  21.301  1.00  0.00    -0.265 N 
ATOM      4  H1  UNL     1       6.148  21.446  21.939  1.00  0.00     0.194 HD
HETATM    5  O1  UNL     1       5.859  20.172  20.371  1.00  0.00    -0.239 OA
HETATM    6  C3  UNL     1       6.568  19.305  19.713  1.00  0.00     0.113 A 
HETATM    7  C4  UNL     1       7.873  19.273  20.265  1.00  0.00     0.032 A 
HETATM    8  C5  UNL     1       8.863  18.336  19.650  1.00  0.00    -0.021 A 
HETATM    9  C6  UNL     1       9.724  18.666  18.613  1.00  0.00     0.013 A 
HETATM   10  C7  UNL     1      10.648  17.788  17.995  1.00  0.00     0.010 A 
HETATM   11  C8  UNL     1      10.753  16.477  18.408  1.00  0.00    -0.040 A 
HETATM   12  C9  UNL     1       9.931  16.082  19.426  1.00  0.00     0.010 A 
HETATM   13  C10 UNL     1       9.022  17.008  20.012  1.00  0.00     0.013 A 
HETATM   14  C11 UNL     1      11.704  15.479  17.771  1.00  0.00     0.170 C 
HETATM   15  N2  UNL     1      11.191  15.021  16.464  1.00  0.00    -0.315 N 
ATOM     16  H2  UNL     1      11.213  15.611  15.632  1.00  0.00     0.172 HD
HETATM   17  S1  UNL     1      10.566  13.459  16.440  1.00  0.00     0.226 S 
HETATM   18  O2  UNL     1      10.841  12.832  17.805  1.00  0.00    -0.206 OA
HETATM   19  O3  UNL     1      11.252  12.555  15.455  1.00  0.00    -0.206 OA
HETATM   20  C12 UNL     1       8.822  13.476  16.248  1.00  0.00     0.163 C 
HETATM   21  C13 UNL     1       8.319  13.916  14.917  1.00  0.00     0.021 C 
HETATM   22  C14 UNL     1       8.836  15.219  14.421  1.00  0.00     0.039 C 
HETATM   23  C15 UNL     1       8.135  16.461  14.865  1.00  0.00    -0.056 A 
HETATM   24  C16 UNL     1       7.673  17.208  13.762  1.00  0.00     0.007 A 
HETATM   25  C17 UNL     1       7.002  18.400  13.856  1.00  0.00     0.003 A 
HETATM   26  C18 UNL     1       6.804  18.832  15.140  1.00  0.00     0.037 A 
HETATM   27  C19 UNL     1       7.231  18.148  16.275  1.00  0.00     0.069 A 
HETATM   28  C20 UNL     1       7.904  16.949  16.116  1.00  0.00     0.044 A 
HETATM   29  O4  UNL     1       6.902  18.802  17.450  1.00  0.00    -0.345 OA
HETATM   30  C21 UNL     1       6.122  18.470  18.575  1.00  0.00     0.243 C 
ENDROOT
TORSDOF 0
ENDMDL
