MODEL 3
REMARK VINA RESULT: -6.138323138      2.747      6.805
REMARK  0 active torsions:
REMARK  status: ('A' for Active; 'I' for Inactive)
ROOT
HETATM    1  C1  UNL     1      10.038  21.422  22.464  1.00  0.00     0.071 C 
HETATM    2  C2  UNL     1       8.808  20.796  21.915  1.00  0.00     0.042 A 
HETATM    3  N1  UNL     1       7.616  21.168  22.301  1.00  0.00    -0.265 N 
ATOM      4  H1  UNL     1       7.405  21.894  22.984  1.00  0.00     0.194 HD
HETATM    5  O1  UNL     1       6.770  20.464  21.674  1.00  0.00    -0.239 OA
HETATM    6  C3  UNL     1       7.321  19.612  20.862  1.00  0.00     0.113 A 
HETATM    7  C4  UNL     1       8.728  19.752  20.945  1.00  0.00     0.032 A 
HETATM    8  C5  UNL     1       9.565  18.860  20.084  1.00  0.00    -0.021 A 
HETATM    9  C6  UNL     1       9.993  19.175  18.801  1.00  0.00     0.013 A 
HETATM   10  C7  UNL     1      10.759  18.336  17.957  1.00  0.00     0.010 A 
HETATM   11  C8  UNL     1      11.147  17.083  18.379  1.00  0.00    -0.040 A 
HETATM   12  C9  UNL     1      10.758  16.705  19.634  1.00  0.00     0.010 A 
HETATM   13  C10 UNL     1       9.990  17.590  20.441  1.00  0.00     0.013 A 
HETATM   14  C11 UNL     1      11.948  16.126  17.513  1.00  0.00     0.170 C 
HETATM   15  N2  UNL     1      11.091  15.506  16.481  1.00  0.00    -0.315 N 
ATOM     16  H2  UNL     1      10.769  16.019  15.660  1.00  0.00     0.172 HD
HETATM   17  S1  UNL     1      10.682  13.897  16.751  1.00  0.00     0.226 S 
HETATM   18  O2  UNL     1      11.462  13.423  17.975  1.00  0.00    -0.206 OA
HETATM   19  O3  UNL     1      11.109  12.976  15.642  1.00  0.00    -0.206 OA
HETATM   20  C12 UNL     1       8.983  13.733  17.155  1.00  0.00     0.163 C 
HETATM   21  C13 UNL     1       8.022  14.004  16.050  1.00  0.00     0.021 C 
HETATM   22  C14 UNL     1       8.190  15.300  15.341  1.00  0.00     0.039 C 
HETATM   23  C15 UNL     1       7.533  16.505  15.928  1.00  0.00    -0.056 A 
HETATM   24  C16 UNL     1       6.649  17.104  15.006  1.00  0.00     0.007 A 
HETATM   25  C17 UNL     1       5.911  18.233  15.257  1.00  0.00     0.003 A 
HETATM   26  C18 UNL     1       6.096  18.757  16.508  1.00  0.00     0.037 A 
HETATM   27  C19 UNL     1       6.949  18.219  17.468  1.00  0.00     0.069 A 
HETATM   28  C20 UNL     1       7.669  17.080  17.156  1.00  0.00     0.044 A 
HETATM   29  O4  UNL     1       6.949  18.942  18.649  1.00  0.00    -0.345 OA
HETATM   30  C21 UNL     1       6.628  18.641  19.986  1.00  0.00     0.243 C 
ENDROOT
TORSDOF 0
ENDMDL
