MODEL 3
REMARK VINA RESULT: -4.869093906      2.753      4.691
REMARK  4 active torsions:
REMARK  status: ('A' for Active; 'I' for Inactive)
REMARK    1  A    between atoms: C5_8  and  C6_9 
REMARK    2  A    between atoms: C6_9  and  O2_10 
REMARK    3  A    between atoms: C7_12  and  O3_13 
REMARK    4  A    between atoms: C8_15  and  O4_16 
ROOT
HETATM    1  C1  UNL     1      14.472  47.382  38.877  1.00  0.00     0.076 C 
HETATM    2  C2  UNL     1      13.539  46.430  38.204  1.00  0.00     0.041 C 
HETATM    3  N1  UNL     1      13.728  45.537  37.372  1.00  0.00    -0.378 N 
ATOM      4  H1  UNL     1      14.678  45.369  37.043  1.00  0.00     0.160 HD
HETATM    5  C3  UNL     1      12.717  44.762  36.873  1.00  0.00     0.152 C 
HETATM    6  C4  UNL     1      11.445  44.910  37.637  1.00  0.00     0.214 C 
HETATM    7  O1  UNL     1      10.309  44.977  36.878  1.00  0.00    -0.363 OA
HETATM    8  C5  UNL     1      10.240  43.878  36.054  1.00  0.00     0.178 C 
HETATM    9  C7  UNL     1      11.350  43.924  35.059  1.00  0.00     0.180 C 
HETATM   10  C8  UNL     1      12.370  45.018  35.399  1.00  0.00     0.175 C 
HETATM   11  S1  UNL     1      11.781  46.446  38.544  1.00  0.00    -0.083 SA
ENDROOT
BRANCH   8  12
HETATM   12  C6  UNL     1      10.182  42.561  36.802  1.00  0.00     0.198 C 
BRANCH  12  13
HETATM   13  O2  UNL     1       9.455  41.637  36.033  1.00  0.00    -0.398 OA
ATOM     14  H2  UNL     1       8.806  41.220  36.589  1.00  0.00     0.209 HD
ENDBRANCH  12  13
ENDBRANCH   8  12
BRANCH   9  15
HETATM   15  O3  UNL     1      12.084  42.729  35.028  1.00  0.00    -0.390 OA
ATOM     16  H3  UNL     1      11.826  42.167  34.308  1.00  0.00     0.210 HD
ENDBRANCH   9  15
BRANCH  10  17
HETATM   17  O4  UNL     1      13.460  44.881  34.576  1.00  0.00    -0.391 OA
ATOM     18  H4  UNL     1      13.373  44.146  33.982  1.00  0.00     0.210 HD
ENDBRANCH  10  17
TORSDOF 4
ENDMDL
