MODEL 1
REMARK VINA RESULT: -6.571762652      0.000      0.000
REMARK  4 active torsions:
REMARK  status: ('A' for Active; 'I' for Inactive)
REMARK    1  A    between atoms: C5_8  and  C6_9 
REMARK    2  A    between atoms: C6_9  and  O2_10 
REMARK    3  A    between atoms: C7_12  and  O3_13 
REMARK    4  A    between atoms: C8_15  and  O4_16 
ROOT
HETATM    1  C1  UNL     1      12.498  41.441  32.297  1.00  0.00     0.076 C 
HETATM    2  C2  UNL     1      12.103  42.450  33.326  1.00  0.00     0.041 C 
HETATM    3  N1  UNL     1      12.001  42.380  34.555  1.00  0.00    -0.378 N 
ATOM      4  H1  UNL     1      12.213  41.494  35.013  1.00  0.00     0.160 HD
HETATM    5  C3  UNL     1      11.617  43.441  35.329  1.00  0.00     0.152 C 
HETATM    6  C4  UNL     1      11.619  44.731  34.581  1.00  0.00     0.214 C 
HETATM    7  O1  UNL     1      10.557  45.556  34.830  1.00  0.00    -0.363 OA
HETATM    8  C5  UNL     1      10.464  45.792  36.182  1.00  0.00     0.178 C 
HETATM    9  C7  UNL     1      10.122  44.527  36.894  1.00  0.00     0.180 C 
HETATM   10  C8  UNL     1      10.225  43.310  35.964  1.00  0.00     0.175 C 
HETATM   11  S1  UNL     1      11.657  44.123  32.872  1.00  0.00    -0.083 SA
ENDROOT
BRANCH   8  12
HETATM   12  C6  UNL     1      11.685  46.476  36.764  1.00  0.00     0.198 C 
BRANCH  12  13
HETATM   13  O2  UNL     1      11.347  47.018  38.015  1.00  0.00    -0.398 OA
ATOM     14  H2  UNL     1      12.093  47.502  38.350  1.00  0.00     0.209 HD
ENDBRANCH  12  13
ENDBRANCH   8  12
BRANCH   9  15
HETATM   15  O3  UNL     1      11.002  44.260  37.953  1.00  0.00    -0.390 OA
ATOM     16  H3  UNL     1      11.677  43.638  37.711  1.00  0.00     0.210 HD
ENDBRANCH   9  15
BRANCH  10  17
HETATM   17  O4  UNL     1      10.100  42.167  36.713  1.00  0.00    -0.391 OA
ATOM     18  H4  UNL     1       9.232  41.786  36.648  1.00  0.00     0.210 HD
ENDBRANCH  10  17
TORSDOF 4
ENDMDL
