MODEL 2
REMARK VINA RESULT: -5.046471024      3.816      5.587
REMARK  4 active torsions:
REMARK  status: ('A' for Active; 'I' for Inactive)
REMARK    1  A    between atoms: C5_8  and  C6_9 
REMARK    2  A    between atoms: C6_9  and  O2_10 
REMARK    3  A    between atoms: C7_12  and  O3_13 
REMARK    4  A    between atoms: C8_15  and  O4_16 
ROOT
HETATM    1  C1  UNL     1      14.246  45.151  42.132  1.00  0.00     0.076 C 
HETATM    2  C2  UNL     1      13.633  45.366  40.787  1.00  0.00     0.041 C 
HETATM    3  N1  UNL     1      13.987  45.027  39.653  1.00  0.00    -0.378 N 
ATOM      4  H1  UNL     1      14.854  44.499  39.550  1.00  0.00     0.160 HD
HETATM    5  C3  UNL     1      13.268  45.329  38.529  1.00  0.00     0.152 C 
HETATM    6  C4  UNL     1      11.902  45.841  38.839  1.00  0.00     0.214 C 
HETATM    7  O1  UNL     1      11.485  46.898  38.078  1.00  0.00    -0.363 OA
HETATM    8  C5  UNL     1      11.577  46.570  36.745  1.00  0.00     0.178 C 
HETATM    9  C7  UNL     1      13.007  46.388  36.367  1.00  0.00     0.180 C 
HETATM   10  C8  UNL     1      13.920  46.365  37.601  1.00  0.00     0.175 C 
HETATM   11  S1  UNL     1      12.098  46.267  40.592  1.00  0.00    -0.083 SA
ENDROOT
BRANCH   8  12
HETATM   12  C6  UNL     1      10.715  45.388  36.350  1.00  0.00     0.198 C 
BRANCH  12  13
HETATM   13  O2  UNL     1      10.546  45.397  34.955  1.00  0.00    -0.398 OA
ATOM     14  H2  UNL     1      11.383  45.211  34.545  1.00  0.00     0.209 HD
ENDBRANCH  12  13
ENDBRANCH   8  12
BRANCH   9  15
HETATM   15  O3  UNL     1      13.233  45.166  35.718  1.00  0.00    -0.390 OA
ATOM     16  H3  UNL     1      12.847  45.143  34.850  1.00  0.00     0.210 HD
ENDBRANCH   9  15
BRANCH  10  17
HETATM   17  O4  UNL     1      15.183  45.995  37.214  1.00  0.00    -0.391 OA
ATOM     18  H4  UNL     1      15.858  46.440  37.713  1.00  0.00     0.210 HD
ENDBRANCH  10  17
TORSDOF 4
ENDMDL
