MODEL 4
REMARK VINA RESULT: -4.841015051      2.859      4.828
REMARK  4 active torsions:
REMARK  status: ('A' for Active; 'I' for Inactive)
REMARK    1  A    between atoms: C5_8  and  C6_9 
REMARK    2  A    between atoms: C6_9  and  O2_10 
REMARK    3  A    between atoms: C7_12  and  O3_13 
REMARK    4  A    between atoms: C8_15  and  O4_16 
ROOT
HETATM    1  C1  UNL     1      15.447  47.567  38.287  1.00  0.00     0.076 C 
HETATM    2  C2  UNL     1      14.268  46.764  37.845  1.00  0.00     0.041 C 
HETATM    3  N1  UNL     1      13.659  46.711  36.771  1.00  0.00    -0.378 N 
ATOM      4  H1  UNL     1      13.974  47.304  36.002  1.00  0.00     0.160 HD
HETATM    5  C3  UNL     1      12.583  45.892  36.567  1.00  0.00     0.152 C 
HETATM    6  C4  UNL     1      12.411  44.885  37.653  1.00  0.00     0.214 C 
HETATM    7  O1  UNL     1      11.122  44.676  38.061  1.00  0.00    -0.363 OA
HETATM    8  C5  UNL     1      10.345  44.341  36.976  1.00  0.00     0.178 C 
HETATM    9  C7  UNL     1      10.252  45.501  36.044  1.00  0.00     0.180 C 
HETATM   10  C8  UNL     1      11.235  46.615  36.427  1.00  0.00     0.175 C 
HETATM   11  S1  UNL     1      13.453  45.613  38.948  1.00  0.00    -0.083 SA
ENDROOT
BRANCH   8  12
HETATM   12  C6  UNL     1      10.789  43.069  36.281  1.00  0.00     0.198 C 
BRANCH  12  13
HETATM   13  O2  UNL     1       9.854  42.056  36.553  1.00  0.00    -0.398 OA
ATOM     14  H2  UNL     1      10.311  41.225  36.610  1.00  0.00     0.209 HD
ENDBRANCH  12  13
ENDBRANCH   8  12
BRANCH   9  15
HETATM   15  O3  UNL     1      10.583  45.150  34.727  1.00  0.00    -0.390 OA
ATOM     16  H3  UNL     1       9.905  44.631  34.312  1.00  0.00     0.210 HD
ENDBRANCH   9  15
BRANCH  10  17
HETATM   17  O4  UNL     1      11.251  47.557  35.430  1.00  0.00    -0.391 OA
ATOM     18  H4  UNL     1      10.404  47.971  35.312  1.00  0.00     0.210 HD
ENDBRANCH  10  17
TORSDOF 4
ENDMDL
