MODEL 7
REMARK VINA RESULT: -7.502945331      4.203      8.397
REMARK  9 active torsions:
REMARK  status: ('A' for Active; 'I' for Inactive)
REMARK    1  A    between atoms: O1_2  and  C2_3 
REMARK    2  A    between atoms: C5_6  and  C6_7 
REMARK    3  A    between atoms: C6_7  and  N1_8 
REMARK    4  A    between atoms: C11_13  and  C12_14 
REMARK       I    between atoms: C12_14  and  N2_16 
REMARK    5  A    between atoms: N2_16  and  C13_18 
REMARK    6  A    between atoms: C13_18  and  C14_19 
REMARK    7  A    between atoms: N4_27  and  C20_28 
REMARK    8  A    between atoms: C20_28  and  C21_29 
REMARK    9  A    between atoms: C21_29  and  O3_30 
ROOT
HETATM    1  N1  UNL     1      15.041  13.870   0.434  1.00  0.00     0.097 N 
HETATM    2  C7  UNL     1      14.487  14.959   1.192  1.00  0.00     0.279 C 
HETATM    3  C8  UNL     1      15.527  15.667   2.030  1.00  0.00     0.089 C 
HETATM    4  C9  UNL     1      15.946  14.607   3.017  1.00  0.00     0.041 A 
HETATM    5  C10 UNL     1      16.286  13.379   2.415  1.00  0.00     0.028 A 
HETATM    6  C11 UNL     1      16.612  12.581   3.467  1.00  0.00     0.126 A 
HETATM    7  N3  UNL     1      16.471  13.300   4.592  1.00  0.00    -0.293 N 
ATOM      8  H3  UNL     1      16.651  12.943   5.530  1.00  0.00     0.187 HD
HETATM    9  N4  UNL     1      16.070  14.523   4.327  1.00  0.00    -0.293 N 
HETATM   10  C22 UNL     1      16.222  13.246   0.946  1.00  0.00     0.316 C 
ENDROOT
BRANCH   1  11
HETATM   11  C6  UNL     1      13.954  12.916   0.265  1.00  0.00     0.312 C 
BRANCH  11  12
HETATM   12  C5  UNL     1      13.441  12.815  -1.115  1.00  0.00    -0.019 A 
HETATM   13  C4  UNL     1      14.067  13.304  -2.238  1.00  0.00     0.012 A 
HETATM   14  C3  UNL     1      13.498  13.164  -3.508  1.00  0.00     0.038 A 
HETATM   15  C2  UNL     1      12.292  12.534  -3.682  1.00  0.00     0.079 A 
HETATM   16  C28 UNL     1      11.658  12.040  -2.561  1.00  0.00     0.008 A 
HETATM   17  C23 UNL     1      12.225  12.180  -1.305  1.00  0.00    -0.015 A 
HETATM   18  C27 UNL     1      10.449  11.403  -2.731  1.00  0.00     0.015 A 
HETATM   19  C24 UNL     1      11.561  11.672  -0.226  1.00  0.00     0.013 A 
HETATM   20  C25 UNL     1      10.361  11.036  -0.366  1.00  0.00     0.001 A 
HETATM   21  C26 UNL     1       9.819  10.909  -1.618  1.00  0.00     0.001 A 
BRANCH  15  22
HETATM   22  O1  UNL     1      11.711  12.389  -4.957  1.00  0.00    -0.355 OA
HETATM   23  C1  UNL     1      12.413  12.662  -6.144  1.00  0.00     0.210 C 
ENDBRANCH  15  22
ENDBRANCH  11  12
ENDBRANCH   1  11
BRANCH   6  24
HETATM   24  C12 UNL     1      17.052  11.179   3.413  1.00  0.00     0.270 C 
HETATM   25  O2  UNL     1      16.509  10.375   2.611  1.00  0.00    -0.266 OA
HETATM   26  N2  UNL     1      18.086  10.676   4.246  1.00  0.00    -0.351 N 
ATOM     27  H2  UNL     1      18.521  11.329   4.897  1.00  0.00     0.163 HD
BRANCH  26  28
HETATM   28  C13 UNL     1      18.566   9.337   4.251  1.00  0.00     0.161 C 
BRANCH  28  29
HETATM   29  C14 UNL     1      19.754   9.074   3.421  1.00  0.00    -0.041 A 
HETATM   30  C15 UNL     1      20.196   9.844   2.380  1.00  0.00     0.009 A 
HETATM   31  C16 UNL     1      21.322   9.509   1.661  1.00  0.00     0.001 A 
HETATM   32  C17 UNL     1      22.038   8.359   1.991  1.00  0.00     0.000 A 
HETATM   33  C18 UNL     1      21.613   7.566   3.037  1.00  0.00     0.001 A 
HETATM   34  C19 UNL     1      20.486   7.939   3.724  1.00  0.00     0.009 A 
ENDBRANCH  28  29
ENDBRANCH  26  28
ENDBRANCH   6  24
BRANCH   9  35
HETATM   35  C20 UNL     1      15.804  15.605   5.295  1.00  0.00     0.175 C 
BRANCH  35  36
HETATM   36  C21 UNL     1      16.996  16.541   5.301  1.00  0.00     0.185 C 
BRANCH  36  37
HETATM   37  O3  UNL     1      18.171  15.859   5.081  1.00  0.00    -0.399 OA
ATOM     38  H3  UNL     1      18.853  16.438   4.761  1.00  0.00     0.209 HD
ENDBRANCH  36  37
ENDBRANCH  35  36
ENDBRANCH   9  35
TORSDOF 9
ENDMDL
