MODEL 3
REMARK VINA RESULT: -7.831446875      2.228      8.301
REMARK  9 active torsions:
REMARK  status: ('A' for Active; 'I' for Inactive)
REMARK    1  A    between atoms: O1_2  and  C2_3 
REMARK    2  A    between atoms: C5_6  and  C6_7 
REMARK    3  A    between atoms: C6_7  and  N1_8 
REMARK    4  A    between atoms: C11_13  and  C12_14 
REMARK       I    between atoms: C12_14  and  N2_16 
REMARK    5  A    between atoms: N2_16  and  C13_18 
REMARK    6  A    between atoms: C13_18  and  C14_19 
REMARK    7  A    between atoms: N4_27  and  C20_28 
REMARK    8  A    between atoms: C20_28  and  C21_29 
REMARK    9  A    between atoms: C21_29  and  O3_30 
ROOT
HETATM    1  N1  UNL     1      14.086  12.509  -0.381  1.00  0.00     0.097 N 
HETATM    2  C7  UNL     1      15.337  11.838  -0.612  1.00  0.00     0.279 C 
HETATM    3  C8  UNL     1      15.990  11.379   0.671  1.00  0.00     0.089 C 
HETATM    4  C9  UNL     1      16.306  12.674   1.374  1.00  0.00     0.041 A 
HETATM    5  C10 UNL     1      15.207  13.554   1.454  1.00  0.00     0.028 A 
HETATM    6  C11 UNL     1      15.708  14.642   2.099  1.00  0.00     0.126 A 
HETATM    7  N3  UNL     1      17.001  14.403   2.372  1.00  0.00    -0.293 N 
ATOM      8  H3  UNL     1      17.618  15.057   2.853  1.00  0.00     0.187 HD
HETATM    9  N4  UNL     1      17.367  13.218   1.937  1.00  0.00    -0.293 N 
HETATM   10  C22 UNL     1      13.906  13.147   0.886  1.00  0.00     0.316 C 
ENDROOT
BRANCH   1  11
HETATM   11  C6  UNL     1      13.934  13.445  -1.486  1.00  0.00     0.312 C 
BRANCH  11  12
HETATM   12  C5  UNL     1      13.136  12.928  -2.616  1.00  0.00    -0.019 A 
HETATM   13  C4  UNL     1      13.444  13.078  -3.948  1.00  0.00     0.012 A 
HETATM   14  C3  UNL     1      12.621  12.556  -4.949  1.00  0.00     0.038 A 
HETATM   15  C2  UNL     1      11.472  11.873  -4.641  1.00  0.00     0.079 A 
HETATM   16  C28 UNL     1      11.156  11.717  -3.307  1.00  0.00     0.008 A 
HETATM   17  C23 UNL     1      11.974  12.236  -2.318  1.00  0.00    -0.015 A 
HETATM   18  C27 UNL     1      10.005  11.028  -2.993  1.00  0.00     0.015 A 
HETATM   19  C24 UNL     1      11.620  12.053  -1.013  1.00  0.00     0.013 A 
HETATM   20  C25 UNL     1      10.486  11.374  -0.673  1.00  0.00     0.001 A 
HETATM   21  C26 UNL     1       9.691  10.870  -1.668  1.00  0.00     0.001 A 
BRANCH  15  22
HETATM   22  O1  UNL     1      10.636  11.343  -5.643  1.00  0.00    -0.355 OA
HETATM   23  C1  UNL     1      11.048  11.210  -6.981  1.00  0.00     0.210 C 
ENDBRANCH  15  22
ENDBRANCH  11  12
ENDBRANCH   1  11
BRANCH   6  24
HETATM   24  C12 UNL     1      14.986  15.872   2.455  1.00  0.00     0.270 C 
HETATM   25  O2  UNL     1      14.683  16.709   1.565  1.00  0.00    -0.266 OA
HETATM   26  N2  UNL     1      14.604  16.167   3.790  1.00  0.00    -0.351 N 
ATOM     27  H2  UNL     1      14.853  15.488   4.509  1.00  0.00     0.163 HD
BRANCH  26  28
HETATM   28  C13 UNL     1      13.903  17.331   4.211  1.00  0.00     0.161 C 
BRANCH  28  29
HETATM   29  C14 UNL     1      12.898  17.133   5.270  1.00  0.00    -0.041 A 
HETATM   30  C15 UNL     1      13.141  16.669   6.533  1.00  0.00     0.009 A 
HETATM   31  C16 UNL     1      12.127  16.516   7.453  1.00  0.00     0.001 A 
HETATM   32  C17 UNL     1      10.817  16.839   7.101  1.00  0.00     0.000 A 
HETATM   33  C18 UNL     1      10.547  17.310   5.832  1.00  0.00     0.001 A 
HETATM   34  C19 UNL     1      11.589  17.445   4.950  1.00  0.00     0.009 A 
ENDBRANCH  28  29
ENDBRANCH  26  28
ENDBRANCH   6  24
BRANCH   9  35
HETATM   35  C20 UNL     1      18.702  12.600   2.049  1.00  0.00     0.175 C 
BRANCH  35  36
HETATM   36  C21 UNL     1      18.791  11.898   3.390  1.00  0.00     0.185 C 
BRANCH  36  37
HETATM   37  O3  UNL     1      18.365  12.715   4.413  1.00  0.00    -0.399 OA
ATOM     38  H3  UNL     1      18.406  12.271   5.251  1.00  0.00     0.209 HD
ENDBRANCH  36  37
ENDBRANCH  35  36
ENDBRANCH   9  35
TORSDOF 9
ENDMDL
