MODEL 2
REMARK VINA RESULT: -8.038704315      4.331      8.645
REMARK  9 active torsions:
REMARK  status: ('A' for Active; 'I' for Inactive)
REMARK    1  A    between atoms: O1_2  and  C2_3 
REMARK    2  A    between atoms: C5_6  and  C6_7 
REMARK    3  A    between atoms: C6_7  and  N1_8 
REMARK    4  A    between atoms: C11_13  and  C12_14 
REMARK       I    between atoms: C12_14  and  N2_16 
REMARK    5  A    between atoms: N2_16  and  C13_18 
REMARK    6  A    between atoms: C13_18  and  C14_19 
REMARK    7  A    between atoms: N4_27  and  C20_28 
REMARK    8  A    between atoms: C20_28  and  C21_29 
REMARK    9  A    between atoms: C21_29  and  O3_30 
ROOT
HETATM    1  N1  UNL     1      15.109  13.751   0.519  1.00  0.00     0.097 N 
HETATM    2  C7  UNL     1      14.554  14.794   1.340  1.00  0.00     0.279 C 
HETATM    3  C8  UNL     1      15.600  15.472   2.195  1.00  0.00     0.089 C 
HETATM    4  C9  UNL     1      16.049  14.371   3.121  1.00  0.00     0.041 A 
HETATM    5  C10 UNL     1      16.394  13.179   2.452  1.00  0.00     0.028 A 
HETATM    6  C11 UNL     1      16.747  12.333   3.458  1.00  0.00     0.126 A 
HETATM    7  N3  UNL     1      16.617  12.993   4.619  1.00  0.00    -0.293 N 
ATOM      8  H3  UNL     1      16.818  12.592   5.535  1.00  0.00     0.187 HD
HETATM    9  N4  UNL     1      16.197  14.223   4.423  1.00  0.00    -0.293 N 
HETATM   10  C22 UNL     1      16.305  13.118   0.980  1.00  0.00     0.316 C 
ENDROOT
BRANCH   1  11
HETATM   11  C6  UNL     1      14.030  12.793   0.321  1.00  0.00     0.312 C 
BRANCH  11  12
HETATM   12  C5  UNL     1      13.509  12.740  -1.059  1.00  0.00    -0.019 A 
HETATM   13  C4  UNL     1      14.140  13.242  -2.172  1.00  0.00     0.012 A 
HETATM   14  C3  UNL     1      13.562  13.149  -3.442  1.00  0.00     0.038 A 
HETATM   15  C2  UNL     1      12.342  12.552  -3.626  1.00  0.00     0.079 A 
HETATM   16  C28 UNL     1      11.701  12.044  -2.514  1.00  0.00     0.008 A 
HETATM   17  C23 UNL     1      12.277  12.138  -1.258  1.00  0.00    -0.015 A 
HETATM   18  C27 UNL     1      10.477  11.439  -2.695  1.00  0.00     0.015 A 
HETATM   19  C24 UNL     1      11.606  11.618  -0.189  1.00  0.00     0.013 A 
HETATM   20  C25 UNL     1      10.392  11.013  -0.339  1.00  0.00     0.001 A 
HETATM   21  C26 UNL     1       9.841  10.932  -1.591  1.00  0.00     0.001 A 
BRANCH  15  22
HETATM   22  O1  UNL     1      11.751  12.453  -4.901  1.00  0.00    -0.355 OA
HETATM   23  C1  UNL     1      11.465  13.580  -5.691  1.00  0.00     0.210 C 
ENDBRANCH  15  22
ENDBRANCH  11  12
ENDBRANCH   1  11
BRANCH   6  24
HETATM   24  C12 UNL     1      17.203  10.941   3.326  1.00  0.00     0.270 C 
HETATM   25  O2  UNL     1      16.645  10.167   2.506  1.00  0.00    -0.266 OA
HETATM   26  N2  UNL     1      18.270  10.416   4.102  1.00  0.00    -0.351 N 
ATOM     27  H2  UNL     1      18.718  11.046   4.767  1.00  0.00     0.163 HD
BRANCH  26  28
HETATM   28  C13 UNL     1      18.768   9.086   4.030  1.00  0.00     0.161 C 
BRANCH  28  29
HETATM   29  C14 UNL     1      19.176   8.478   5.308  1.00  0.00    -0.041 A 
HETATM   30  C15 UNL     1      18.659   7.337   5.858  1.00  0.00     0.009 A 
HETATM   31  C16 UNL     1      19.108   6.849   7.065  1.00  0.00     0.001 A 
HETATM   32  C17 UNL     1      20.114   7.526   7.754  1.00  0.00     0.000 A 
HETATM   33  C18 UNL     1      20.651   8.679   7.220  1.00  0.00     0.001 A 
HETATM   34  C19 UNL     1      20.172   9.127   6.016  1.00  0.00     0.009 A 
ENDBRANCH  28  29
ENDBRANCH  26  28
ENDBRANCH   6  24
BRANCH   9  35
HETATM   35  C20 UNL     1      15.935  15.251   5.448  1.00  0.00     0.175 C 
BRANCH  35  36
HETATM   36  C21 UNL     1      16.982  16.338   5.311  1.00  0.00     0.185 C 
BRANCH  36  37
HETATM   37  O3  UNL     1      18.222  15.807   5.032  1.00  0.00    -0.399 OA
ATOM     38  H3  UNL     1      18.897  16.202   5.572  1.00  0.00     0.209 HD
ENDBRANCH  36  37
ENDBRANCH  35  36
ENDBRANCH   9  35
TORSDOF 9
ENDMDL
