MODEL 1
REMARK VINA RESULT: -11.948613852      0.000      0.000
REMARK  6 active torsions:
REMARK  status: ('A' for Active; 'I' for Inactive)
REMARK    1  A    between atoms: O1_2  and  C2_3 
REMARK    2  A    between atoms: C5_6  and  C6_7 
REMARK    3  A    between atoms: N2_10  and  C7_11 
REMARK    4  A    between atoms: C22_27  and  C23_28 
REMARK       I    between atoms: C23_28  and  N3_30 
REMARK    5  A    between atoms: N3_30  and  C24_32 
REMARK    6  A    between atoms: C24_32  and  C25_33 
ROOT
HETATM    1  C2  UNL     1      27.509  11.732  -0.667  1.00  0.00     0.079 A 
HETATM    2  C3  UNL     1      27.556  12.952  -0.023  1.00  0.00     0.038 A 
HETATM    3  C4  UNL     1      27.638  14.088  -0.776  1.00  0.00     0.016 A 
HETATM    4  C5  UNL     1      27.674  14.034  -2.138  1.00  0.00    -0.011 A 
HETATM    5  C17 UNL     1      27.627  12.815  -2.765  1.00  0.00     0.028 A 
HETATM    6  C18 UNL     1      27.543  11.633  -2.050  1.00  0.00     0.008 A 
HETATM    7  C19 UNL     1      27.489  10.328  -2.661  1.00  0.00    -0.023 A 
HETATM    8  C20 UNL     1      26.586   9.375  -2.245  1.00  0.00     0.013 A 
HETATM    9  C21 UNL     1      26.513   8.122  -2.809  1.00  0.00     0.018 A 
HETATM   10  C22 UNL     1      27.357   7.755  -3.833  1.00  0.00     0.032 A 
HETATM   11  C26 UNL     1      28.267   8.694  -4.263  1.00  0.00     0.018 A 
HETATM   12  C27 UNL     1      28.335   9.967  -3.685  1.00  0.00     0.013 A 
ENDROOT
BRANCH   4  13
HETATM   13  C6  UNL     1      27.762  15.294  -2.927  1.00  0.00     0.041 C 
HETATM   14  N1  UNL     1      26.772  15.696  -3.625  1.00  0.00    -0.298 N 
HETATM   15  N2  UNL     1      26.719  16.842  -4.401  1.00  0.00    -0.257 N 
ATOM     16  H1  UNL     1      25.934  15.114  -3.610  1.00  0.00     0.187 HD
HETATM   17  C10 UNL     1      27.879  17.666  -4.434  1.00  0.00     0.243 C 
HETATM   18  O2  UNL     1      28.085  18.473  -5.354  1.00  0.00    -0.271 OA
HETATM   19  C11 UNL     1      28.841  17.519  -3.314  1.00  0.00     0.093 C 
HETATM   20  C12 UNL     1      30.180  18.075  -3.830  1.00  0.00     0.041 C 
HETATM   21  C16 UNL     1      29.013  16.088  -2.901  1.00  0.00     0.055 C 
HETATM   22  C13 UNL     1      30.437  17.318  -5.084  1.00  0.00    -0.030 C 
HETATM   23  C14 UNL     1      30.409  15.997  -4.984  1.00  0.00    -0.030 C 
HETATM   24  C15 UNL     1      30.128  15.403  -3.652  1.00  0.00     0.038 C 
BRANCH  15  25
HETATM   25  C7  UNL     1      25.543  17.213  -5.159  1.00  0.00     0.103 C 
HETATM   26  C8  UNL     1      24.508  16.135  -5.211  1.00  0.00     0.034 C 
HETATM   27  C9  UNL     1      24.935  18.489  -4.636  1.00  0.00     0.034 C 
ENDBRANCH  15  25
ENDBRANCH   4  13
BRANCH   1  28
HETATM   28  O1  UNL     1      27.426  10.561   0.088  1.00  0.00    -0.355 OA
HETATM   29  C1  UNL     1      26.553  10.520   1.198  1.00  0.00     0.210 C 
ENDBRANCH   1  28
BRANCH  10  30
HETATM   30  C23 UNL     1      27.266   6.434  -4.412  1.00  0.00     0.252 C 
HETATM   31  O3  UNL     1      27.594   5.441  -3.675  1.00  0.00    -0.268 OA
HETATM   32  N3  UNL     1      26.836   6.187  -5.747  1.00  0.00    -0.348 N 
ATOM     33  H3  UNL     1      26.567   6.954  -6.363  1.00  0.00     0.163 HD
BRANCH  32  34
HETATM   34  C24 UNL     1      26.790   4.823  -6.200  1.00  0.00     0.222 C 
BRANCH  34  35
HETATM   35  C25 UNL     1      28.088   4.371  -6.788  1.00  0.00     0.248 C 
HETATM   36  N4  UNL     1      28.643   4.946  -7.963  1.00  0.00    -0.061 NA
HETATM   37  O4  UNL     1      28.701   3.453  -6.218  1.00  0.00    -0.275 OA
ENDBRANCH  34  35
ENDBRANCH  32  34
ENDBRANCH  10  30
TORSDOF 6
ENDMDL
