MODEL 2
REMARK VINA RESULT: -11.069272760      1.282      1.316
REMARK  6 active torsions:
REMARK  status: ('A' for Active; 'I' for Inactive)
REMARK    1  A    between atoms: O1_2  and  C2_3 
REMARK    2  A    between atoms: C5_6  and  C6_7 
REMARK    3  A    between atoms: N2_10  and  C7_11 
REMARK    4  A    between atoms: C22_27  and  C23_28 
REMARK       I    between atoms: C23_28  and  N3_30 
REMARK    5  A    between atoms: N3_30  and  C24_32 
REMARK    6  A    between atoms: C24_32  and  C25_33 
ROOT
HETATM    1  C2  UNL     1      27.297  11.634  -1.007  1.00  0.00     0.079 A 
HETATM    2  C3  UNL     1      27.585  12.790  -0.311  1.00  0.00     0.038 A 
HETATM    3  C4  UNL     1      27.684  13.965  -1.001  1.00  0.00     0.016 A 
HETATM    4  C5  UNL     1      27.503  14.009  -2.352  1.00  0.00    -0.011 A 
HETATM    5  C17 UNL     1      27.217  12.853  -3.031  1.00  0.00     0.028 A 
HETATM    6  C18 UNL     1      27.105  11.635  -2.381  1.00  0.00     0.008 A 
HETATM    7  C19 UNL     1      26.805  10.394  -3.049  1.00  0.00    -0.023 A 
HETATM    8  C20 UNL     1      25.871   9.515  -2.547  1.00  0.00     0.013 A 
HETATM    9  C21 UNL     1      25.566   8.323  -3.162  1.00  0.00     0.018 A 
HETATM   10  C22 UNL     1      26.193   7.944  -4.329  1.00  0.00     0.032 A 
HETATM   11  C26 UNL     1      27.130   8.810  -4.846  1.00  0.00     0.018 A 
HETATM   12  C27 UNL     1      27.435  10.021  -4.215  1.00  0.00     0.013 A 
ENDROOT
BRANCH   4  13
HETATM   13  C6  UNL     1      27.616  15.308  -3.071  1.00  0.00     0.041 C 
HETATM   14  N1  UNL     1      26.638  15.763  -3.753  1.00  0.00    -0.298 N 
HETATM   15  N2  UNL     1      26.608  16.949  -4.466  1.00  0.00    -0.257 N 
ATOM     16  H1  UNL     1      25.790  15.194  -3.774  1.00  0.00     0.187 HD
HETATM   17  C10 UNL     1      27.781  17.755  -4.449  1.00  0.00     0.243 C 
HETATM   18  O2  UNL     1      28.006  18.606  -5.322  1.00  0.00    -0.271 OA
HETATM   19  C11 UNL     1      28.733  17.532  -3.332  1.00  0.00     0.093 C 
HETATM   20  C12 UNL     1      30.084  18.094  -3.809  1.00  0.00     0.041 C 
HETATM   21  C16 UNL     1      28.880  16.079  -2.995  1.00  0.00     0.055 C 
HETATM   22  C13 UNL     1      30.338  17.401  -5.100  1.00  0.00    -0.030 C 
HETATM   23  C14 UNL     1      30.288  16.077  -5.072  1.00  0.00    -0.030 C 
HETATM   24  C15 UNL     1      29.989  15.417  -3.775  1.00  0.00     0.038 C 
BRANCH  15  25
HETATM   25  C7  UNL     1      25.443  17.379  -5.211  1.00  0.00     0.103 C 
HETATM   26  C8  UNL     1      24.379  16.333  -5.300  1.00  0.00     0.034 C 
HETATM   27  C9  UNL     1      24.871  18.652  -4.644  1.00  0.00     0.034 C 
ENDBRANCH  15  25
ENDBRANCH   4  13
BRANCH   1  28
HETATM   28  O1  UNL     1      27.193  10.426  -0.316  1.00  0.00    -0.355 OA
HETATM   29  C1  UNL     1      26.596  10.415   0.965  1.00  0.00     0.210 C 
ENDBRANCH   1  28
BRANCH  10  30
HETATM   30  C23 UNL     1      25.859   6.688  -4.959  1.00  0.00     0.252 C 
HETATM   31  O3  UNL     1      25.301   5.793  -4.237  1.00  0.00    -0.268 OA
HETATM   32  N3  UNL     1      26.120   6.401  -6.330  1.00  0.00    -0.348 N 
ATOM     33  H3  UNL     1      26.565   7.090  -6.936  1.00  0.00     0.163 HD
BRANCH  32  34
HETATM   34  C24 UNL     1      25.738   5.109  -6.833  1.00  0.00     0.222 C 
BRANCH  34  35
HETATM   35  C25 UNL     1      25.582   5.097  -8.319  1.00  0.00     0.248 C 
HETATM   36  N4  UNL     1      26.681   5.222  -9.211  1.00  0.00    -0.061 NA
HETATM   37  O4  UNL     1      24.437   4.971  -8.787  1.00  0.00    -0.275 OA
ENDBRANCH  34  35
ENDBRANCH  32  34
ENDBRANCH  10  30
TORSDOF 6
ENDMDL
