MODEL 8
REMARK VINA RESULT: -10.271444755      2.622      9.687
REMARK  6 active torsions:
REMARK  status: ('A' for Active; 'I' for Inactive)
REMARK    1  A    between atoms: O1_2  and  C2_3 
REMARK    2  A    between atoms: C5_6  and  C6_7 
REMARK    3  A    between atoms: N2_10  and  C7_11 
REMARK    4  A    between atoms: C22_27  and  C23_28 
REMARK       I    between atoms: C23_28  and  N3_30 
REMARK    5  A    between atoms: N3_30  and  C24_32 
REMARK    6  A    between atoms: C24_32  and  C25_33 
ROOT
HETATM    1  C2  UNL     1      27.693  12.748  -1.425  1.00  0.00     0.079 A 
HETATM    2  C3  UNL     1      27.307  11.512  -0.948  1.00  0.00     0.038 A 
HETATM    3  C4  UNL     1      27.173  10.480  -1.832  1.00  0.00     0.016 A 
HETATM    4  C5  UNL     1      27.413  10.653  -3.163  1.00  0.00    -0.011 A 
HETATM    5  C17 UNL     1      27.796  11.886  -3.623  1.00  0.00     0.028 A 
HETATM    6  C18 UNL     1      27.948  12.967  -2.771  1.00  0.00     0.008 A 
HETATM    7  C19 UNL     1      28.349  14.281  -3.205  1.00  0.00    -0.023 A 
HETATM    8  C20 UNL     1      29.309  15.000  -2.527  1.00  0.00     0.013 A 
HETATM    9  C21 UNL     1      29.711  16.257  -2.917  1.00  0.00     0.018 A 
HETATM   10  C22 UNL     1      29.161  16.866  -4.023  1.00  0.00     0.032 A 
HETATM   11  C26 UNL     1      28.200  16.163  -4.714  1.00  0.00     0.018 A 
HETATM   12  C27 UNL     1      27.797  14.885  -4.311  1.00  0.00     0.013 A 
ENDROOT
BRANCH   4  13
HETATM   13  C6  UNL     1      27.258   9.504  -4.098  1.00  0.00     0.041 C 
HETATM   14  N1  UNL     1      27.070   9.700  -5.345  1.00  0.00    -0.298 N 
HETATM   15  N2  UNL     1      26.911   8.729  -6.319  1.00  0.00    -0.257 N 
ATOM     16  H1  UNL     1      27.032  10.671  -5.656  1.00  0.00     0.187 HD
HETATM   17  C10 UNL     1      26.960   7.368  -5.904  1.00  0.00     0.243 C 
HETATM   18  O2  UNL     1      26.466   6.456  -6.584  1.00  0.00    -0.271 OA
HETATM   19  C11 UNL     1      27.632   7.084  -4.612  1.00  0.00     0.093 C 
HETATM   20  C12 UNL     1      27.103   5.714  -4.152  1.00  0.00     0.041 C 
HETATM   21  C16 UNL     1      27.323   8.120  -3.573  1.00  0.00     0.055 C 
HETATM   22  C13 UNL     1      25.624   5.867  -4.158  1.00  0.00    -0.030 C 
HETATM   23  C14 UNL     1      25.140   6.888  -3.466  1.00  0.00    -0.030 C 
HETATM   24  C15 UNL     1      26.103   7.771  -2.758  1.00  0.00     0.038 C 
BRANCH  15  25
HETATM   25  C7  UNL     1      26.702   9.055  -7.714  1.00  0.00     0.103 C 
HETATM   26  C8  UNL     1      26.225  10.455  -7.930  1.00  0.00     0.034 C 
HETATM   27  C9  UNL     1      27.945   8.801  -8.528  1.00  0.00     0.034 C 
ENDBRANCH  15  25
ENDBRANCH   4  13
BRANCH   1  28
HETATM   28  O1  UNL     1      27.835  13.813  -0.534  1.00  0.00    -0.355 OA
HETATM   29  C1  UNL     1      27.875  13.549   0.854  1.00  0.00     0.210 C 
ENDBRANCH   1  28
BRANCH  10  30
HETATM   30  C23 UNL     1      29.595  18.187  -4.417  1.00  0.00     0.252 C 
HETATM   31  O3  UNL     1      29.071  18.695  -5.466  1.00  0.00    -0.268 OA
HETATM   32  N3  UNL     1      30.570  18.941  -3.701  1.00  0.00    -0.348 N 
ATOM     33  H3  UNL     1      31.010  18.567  -2.860  1.00  0.00     0.163 HD
BRANCH  32  34
HETATM   34  C24 UNL     1      30.913  20.245  -4.200  1.00  0.00     0.222 C 
BRANCH  34  35
HETATM   35  C25 UNL     1      32.246  20.267  -4.875  1.00  0.00     0.248 C 
HETATM   36  N4  UNL     1      33.415  20.786  -4.256  1.00  0.00    -0.061 NA
HETATM   37  O4  UNL     1      32.326  19.810  -6.028  1.00  0.00    -0.275 OA
ENDBRANCH  34  35
ENDBRANCH  32  34
ENDBRANCH  10  30
TORSDOF 6
ENDMDL
