MODEL 4
REMARK VINA RESULT: -10.466191296      3.863      5.969
REMARK  6 active torsions:
REMARK  status: ('A' for Active; 'I' for Inactive)
REMARK    1  A    between atoms: O1_2  and  C2_3 
REMARK    2  A    between atoms: C5_6  and  C6_7 
REMARK    3  A    between atoms: N2_10  and  C7_11 
REMARK    4  A    between atoms: C22_27  and  C23_28 
REMARK       I    between atoms: C23_28  and  N3_30 
REMARK    5  A    between atoms: N3_30  and  C24_32 
REMARK    6  A    between atoms: C24_32  and  C25_33 
ROOT
HETATM    1  C2  UNL     1      27.812   7.372  -4.552  1.00  0.00     0.079 A 
HETATM    2  C3  UNL     1      28.191   7.466  -3.228  1.00  0.00     0.038 A 
HETATM    3  C4  UNL     1      28.157   8.689  -2.620  1.00  0.00     0.016 A 
HETATM    4  C5  UNL     1      27.758   9.804  -3.296  1.00  0.00    -0.011 A 
HETATM    5  C17 UNL     1      27.384   9.696  -4.611  1.00  0.00     0.028 A 
HETATM    6  C18 UNL     1      27.400   8.482  -5.275  1.00  0.00     0.008 A 
HETATM    7  C19 UNL     1      27.015   8.317  -6.654  1.00  0.00    -0.023 A 
HETATM    8  C20 UNL     1      26.189   7.289  -7.052  1.00  0.00     0.013 A 
HETATM    9  C21 UNL     1      25.807   7.106  -8.362  1.00  0.00     0.018 A 
HETATM   10  C22 UNL     1      26.242   7.957  -9.354  1.00  0.00     0.032 A 
HETATM   11  C26 UNL     1      27.068   8.991  -8.975  1.00  0.00     0.018 A 
HETATM   12  C27 UNL     1      27.452   9.170  -7.641  1.00  0.00     0.013 A 
ENDROOT
BRANCH   4  13
HETATM   13  C6  UNL     1      27.732  11.120  -2.601  1.00  0.00     0.041 C 
HETATM   14  N1  UNL     1      27.757  12.209  -3.266  1.00  0.00    -0.298 N 
HETATM   15  N2  UNL     1      27.737  13.494  -2.750  1.00  0.00    -0.257 N 
ATOM     16  H1  UNL     1      27.796  12.125  -4.282  1.00  0.00     0.187 HD
HETATM   17  C10 UNL     1      27.684  13.632  -1.334  1.00  0.00     0.243 C 
HETATM   18  O2  UNL     1      28.039  14.673  -0.762  1.00  0.00    -0.271 OA
HETATM   19  C11 UNL     1      27.182  12.466  -0.564  1.00  0.00     0.093 C 
HETATM   20  C12 UNL     1      27.706  12.650   0.871  1.00  0.00     0.041 C 
HETATM   21  C16 UNL     1      27.676  11.165  -1.120  1.00  0.00     0.055 C 
HETATM   22  C13 UNL     1      29.176  12.808   0.711  1.00  0.00    -0.030 C 
HETATM   23  C14 UNL     1      29.795  11.853   0.033  1.00  0.00    -0.030 C 
HETATM   24  C15 UNL     1      28.979  10.731  -0.496  1.00  0.00     0.038 C 
BRANCH  15  25
HETATM   25  C7  UNL     1      27.769  14.671  -3.593  1.00  0.00     0.103 C 
HETATM   26  C8  UNL     1      29.132  14.982  -4.122  1.00  0.00     0.034 C 
HETATM   27  C9  UNL     1      26.786  14.557  -4.729  1.00  0.00     0.034 C 
ENDBRANCH  15  25
ENDBRANCH   4  13
BRANCH   1  28
HETATM   28  O1  UNL     1      27.842   6.130  -5.187  1.00  0.00    -0.355 OA
HETATM   29  C1  UNL     1      27.225   5.023  -4.562  1.00  0.00     0.210 C 
ENDBRANCH   1  28
BRANCH  10  30
HETATM   30  C23 UNL     1      25.830   7.748 -10.723  1.00  0.00     0.252 C 
HETATM   31  O3  UNL     1      25.929   8.736 -11.529  1.00  0.00    -0.268 OA
HETATM   32  N3  UNL     1      25.324   6.509 -11.212  1.00  0.00    -0.348 N 
ATOM     33  H3  UNL     1      25.230   5.700 -10.598  1.00  0.00     0.163 HD
BRANCH  32  34
HETATM   34  C24 UNL     1      24.949   6.434 -12.598  1.00  0.00     0.222 C 
BRANCH  34  35
HETATM   35  C25 UNL     1      23.507   6.090 -12.784  1.00  0.00     0.248 C 
HETATM   36  N4  UNL     1      23.075   4.963 -13.536  1.00  0.00    -0.061 NA
HETATM   37  O4  UNL     1      22.656   6.824 -12.256  1.00  0.00    -0.275 OA
ENDBRANCH  34  35
ENDBRANCH  32  34
ENDBRANCH  10  30
TORSDOF 6
ENDMDL
