MODEL 3
REMARK VINA RESULT: -5.543982900      2.650      4.057
REMARK  0 active torsions:
REMARK  status: ('A' for Active; 'I' for Inactive)
ROOT
HETATM    1  C1  UNL     1      57.054  -8.511  55.316  1.00  0.00     0.049 C 
HETATM    2  C2  UNL     1      57.974  -7.494  55.890  1.00  0.00    -0.054 A 
HETATM    3  C3  UNL     1      58.058  -7.245  57.252  1.00  0.00     0.039 A 
HETATM    4  C4  UNL     1      58.944  -6.279  57.696  1.00  0.00     0.062 A 
HETATM    5  N1  UNL     1      59.234  -5.833  58.932  1.00  0.00    -0.329 N 
ATOM      6  H1  UNL     1      58.805  -6.173  59.794  1.00  0.00     0.168 HD
HETATM    7  C5  UNL     1      60.174  -4.873  58.860  1.00  0.00     0.193 A 
HETATM    8  N2  UNL     1      60.787  -4.120  59.881  1.00  0.00    -0.063 NA
HETATM    9  N3  UNL     1      60.477  -4.715  57.549  1.00  0.00    -0.329 N 
ATOM     10  H3  UNL     1      61.160  -4.053  57.179  1.00  0.00     0.168 HD
HETATM   11  C6  UNL     1      59.738  -5.566  56.809  1.00  0.00     0.062 A 
HETATM   12  C7  UNL     1      59.663  -5.804  55.452  1.00  0.00     0.039 A 
HETATM   13  C8  UNL     1      58.774  -6.771  55.028  1.00  0.00    -0.054 A 
HETATM   14  C9  UNL     1      58.692  -7.030  53.563  1.00  0.00     0.049 C 
ENDROOT
TORSDOF 0
ENDMDL
