MODEL 8
REMARK VINA RESULT: -5.337656255      2.810      4.440
REMARK  0 active torsions:
REMARK  status: ('A' for Active; 'I' for Inactive)
ROOT
HETATM    1  C1  UNL     1      59.973  -4.610  57.920  1.00  0.00     0.049 C 
HETATM    2  C2  UNL     1      59.654  -5.740  57.009  1.00  0.00    -0.054 A 
HETATM    3  C3  UNL     1      60.125  -5.806  55.705  1.00  0.00     0.039 A 
HETATM    4  C4  UNL     1      59.777  -6.898  54.930  1.00  0.00     0.062 A 
HETATM    5  N1  UNL     1      60.080  -7.224  53.660  1.00  0.00    -0.329 N 
ATOM      6  H1  UNL     1      60.659  -6.666  53.033  1.00  0.00     0.168 HD
HETATM    7  C5  UNL     1      59.503  -8.398  53.342  1.00  0.00     0.193 A 
HETATM    8  N2  UNL     1      59.535  -9.133  52.141  1.00  0.00    -0.063 NA
HETATM    9  N3  UNL     1      58.824  -8.814  54.439  1.00  0.00    -0.329 N 
ATOM     10  H3  UNL     1      58.282  -9.676  54.503  1.00  0.00     0.168 HD
HETATM   11  C6  UNL     1      58.974  -7.913  55.431  1.00  0.00     0.062 A 
HETATM   12  C7  UNL     1      58.499  -7.858  56.726  1.00  0.00     0.039 A 
HETATM   13  C8  UNL     1      58.856  -6.763  57.484  1.00  0.00    -0.054 A 
HETATM   14  C9  UNL     1      58.345  -6.701  58.882  1.00  0.00     0.049 C 
ENDROOT
TORSDOF 0
ENDMDL
