MODEL 6
REMARK VINA RESULT: -5.459027577      2.665      4.074
REMARK  0 active torsions:
REMARK  status: ('A' for Active; 'I' for Inactive)
ROOT
HETATM    1  C1  UNL     1      58.617  -7.033  53.460  1.00  0.00     0.049 C 
HETATM    2  C2  UNL     1      58.790  -6.731  54.906  1.00  0.00    -0.054 A 
HETATM    3  C3  UNL     1      59.621  -5.720  55.365  1.00  0.00     0.039 A 
HETATM    4  C4  UNL     1      59.718  -5.511  56.730  1.00  0.00     0.062 A 
HETATM    5  N1  UNL     1      60.429  -4.623  57.449  1.00  0.00    -0.329 N 
ATOM      6  H1  UNL     1      61.052  -3.916  57.058  1.00  0.00     0.168 HD
HETATM    7  C5  UNL     1      60.195  -4.809  58.762  1.00  0.00     0.193 A 
HETATM    8  N2  UNL     1      60.706  -4.129  59.883  1.00  0.00    -0.063 NA
HETATM    9  N3  UNL     1      59.317  -5.837  58.864  1.00  0.00    -0.329 N 
ATOM     10  H3  UNL     1      58.950  -6.212  59.739  1.00  0.00     0.168 HD
HETATM   11  C6  UNL     1      59.005  -6.289  57.631  1.00  0.00     0.062 A 
HETATM   12  C7  UNL     1      58.176  -7.298  57.187  1.00  0.00     0.039 A 
HETATM   13  C8  UNL     1      58.091  -7.491  55.823  1.00  0.00    -0.054 A 
HETATM   14  C9  UNL     1      57.196  -8.579  55.341  1.00  0.00     0.049 C 
ENDROOT
TORSDOF 0
ENDMDL
