MODEL 10
REMARK VINA RESULT: -5.226158579      1.113      2.330
REMARK  0 active torsions:
REMARK  status: ('A' for Active; 'I' for Inactive)
ROOT
HETATM    1  C1  UNL     1      59.677  -5.275  58.100  1.00  0.00     0.049 C 
HETATM    2  C2  UNL     1      58.997  -6.499  57.597  1.00  0.00    -0.054 A 
HETATM    3  C3  UNL     1      58.364  -7.402  58.439  1.00  0.00     0.039 A 
HETATM    4  C4  UNL     1      57.758  -8.514  57.881  1.00  0.00     0.062 A 
HETATM    5  N1  UNL     1      57.084  -9.537  58.437  1.00  0.00    -0.329 N 
ATOM      6  H1  UNL     1      56.908  -9.650  59.436  1.00  0.00     0.168 HD
HETATM    7  C5  UNL     1      56.676 -10.389  57.478  1.00  0.00     0.193 A 
HETATM    8  N2  UNL     1      55.946 -11.589  57.575  1.00  0.00    -0.063 NA
HETATM    9  N3  UNL     1      57.107  -9.886  56.295  1.00  0.00    -0.329 N 
ATOM     10  H3  UNL     1      56.950 -10.314  55.382  1.00  0.00     0.168 HD
HETATM   11  C6  UNL     1      57.774  -8.733  56.510  1.00  0.00     0.062 A 
HETATM   12  C7  UNL     1      58.401  -7.842  55.664  1.00  0.00     0.039 A 
HETATM   13  C8  UNL     1      59.000  -6.740  56.238  1.00  0.00    -0.054 A 
HETATM   14  C9  UNL     1      59.676  -5.776  55.325  1.00  0.00     0.049 C 
ENDROOT
TORSDOF 0
ENDMDL
