MODEL 9
REMARK VINA RESULT: -5.313564816      2.888      4.357
REMARK  0 active torsions:
REMARK  status: ('A' for Active; 'I' for Inactive)
ROOT
HETATM    1  C1  UNL     1      58.282  -6.832  58.796  1.00  0.00     0.049 C 
HETATM    2  C2  UNL     1      58.771  -6.912  57.394  1.00  0.00    -0.054 A 
HETATM    3  C3  UNL     1      58.443  -7.960  56.546  1.00  0.00     0.039 A 
HETATM    4  C4  UNL     1      58.944  -7.949  55.257  1.00  0.00     0.062 A 
HETATM    5  N1  UNL     1      58.798  -8.813  54.235  1.00  0.00    -0.329 N 
ATOM      6  H1  UNL     1      58.250  -9.673  54.267  1.00  0.00     0.168 HD
HETATM    7  C5  UNL     1      59.484  -8.371  53.164  1.00  0.00     0.193 A 
HETATM    8  N2  UNL     1      59.628  -8.931  51.880  1.00  0.00    -0.063 NA
HETATM    9  N3  UNL     1      60.072  -7.205  53.526  1.00  0.00    -0.329 N 
ATOM     10  H3  UNL     1      60.662  -6.631  52.923  1.00  0.00     0.168 HD
HETATM   11  C6  UNL     1      59.758  -6.919  54.807  1.00  0.00     0.062 A 
HETATM   12  C7  UNL     1      60.091  -5.872  55.641  1.00  0.00     0.039 A 
HETATM   13  C8  UNL     1      59.582  -5.899  56.923  1.00  0.00    -0.054 A 
HETATM   14  C9  UNL     1      59.940  -4.769  57.825  1.00  0.00     0.049 C 
ENDROOT
TORSDOF 0
ENDMDL
