MODEL 7
REMARK VINA RESULT: -5.434146113      2.587      4.179
REMARK  0 active torsions:
REMARK  status: ('A' for Active; 'I' for Inactive)
ROOT
HETATM    1  C1  UNL     1      56.835  -9.526  56.731  1.00  0.00     0.049 C 
HETATM    2  C2  UNL     1      57.777  -8.389  56.914  1.00  0.00    -0.054 A 
HETATM    3  C3  UNL     1      57.877  -7.686  58.106  1.00  0.00     0.039 A 
HETATM    4  C4  UNL     1      58.783  -6.643  58.184  1.00  0.00     0.062 A 
HETATM    5  N1  UNL     1      59.091  -5.802  59.189  1.00  0.00    -0.329 N 
ATOM      6  H1  UNL     1      58.665  -5.814  60.116  1.00  0.00     0.168 HD
HETATM    7  C5  UNL     1      60.046  -4.943  58.786  1.00  0.00     0.193 A 
HETATM    8  N2  UNL     1      60.681  -3.895  59.481  1.00  0.00    -0.063 NA
HETATM    9  N3  UNL     1      60.340  -5.255  57.500  1.00  0.00    -0.329 N 
ATOM     10  H3  UNL     1      61.030  -4.775  56.922  1.00  0.00     0.168 HD
HETATM   11  C6  UNL     1      59.580  -6.296  57.103  1.00  0.00     0.062 A 
HETATM   12  C7  UNL     1      59.489  -6.988  55.913  1.00  0.00     0.039 A 
HETATM   13  C8  UNL     1      58.581  -8.025  55.852  1.00  0.00    -0.054 A 
HETATM   14  C9  UNL     1      58.481  -8.773  54.569  1.00  0.00     0.049 C 
ENDROOT
TORSDOF 0
ENDMDL
