MODEL 9
REMARK VINA RESULT: -10.464569723      2.342      4.441
REMARK  10 active torsions:
REMARK  status: ('A' for Active; 'I' for Inactive)
REMARK    1  A    between atoms: O1_2  and  C2_3 
REMARK    2  A    between atoms: C5_6  and  C6_7 
REMARK    3  A    between atoms: N2_10  and  C7_11 
REMARK    4  A    between atoms: C22_27  and  C23_28 
REMARK    5  A    between atoms: C26_31  and  C27_32 
REMARK       I    between atoms: C27_32  and  N3_34 
REMARK    6  A    between atoms: N3_34  and  C28_36 
REMARK    7  A    between atoms: C28_36  and  C29_37 
REMARK       I    between atoms: C29_37  and  N4_39 
REMARK    8  A    between atoms: N4_39  and  C30_41 
REMARK    9  A    between atoms: C30_41  and  C31_42 
REMARK   10  A    between atoms: C31_42  and  O5_43 
ROOT
HETATM    1  C2  UNL     1      35.302  26.706  30.765  1.00  0.00     0.079 A 
HETATM    2  C3  UNL     1      34.712  27.928  31.028  1.00  0.00     0.038 A 
HETATM    3  C4  UNL     1      34.777  28.951  30.108  1.00  0.00     0.016 A 
HETATM    4  C5  UNL     1      35.436  28.799  28.881  1.00  0.00    -0.011 A 
HETATM    5  C21 UNL     1      36.010  27.617  28.624  1.00  0.00     0.028 A 
HETATM    6  C22 UNL     1      35.945  26.573  29.558  1.00  0.00     0.008 A 
ENDROOT
BRANCH   4   7
HETATM    7  C6  UNL     1      35.488  30.014  28.021  1.00  0.00     0.041 C 
HETATM    8  N1  UNL     1      36.645  30.529  27.773  1.00  0.00    -0.298 N 
HETATM    9  N2  UNL     1      36.912  31.623  27.009  1.00  0.00    -0.256 N 
ATOM     10  H1  UNL     1      37.449  30.064  28.197  1.00  0.00     0.187 HD
HETATM   11  C14 UNL     1      35.797  32.289  26.401  1.00  0.00     0.243 C 
HETATM   12  O2  UNL     1      35.934  32.944  25.335  1.00  0.00    -0.271 OA
HETATM   13  C15 UNL     1      34.524  32.127  27.133  1.00  0.00     0.093 C 
HETATM   14  C16 UNL     1      34.530  32.980  28.401  1.00  0.00     0.041 C 
HETATM   15  C20 UNL     1      34.259  30.680  27.528  1.00  0.00     0.055 C 
HETATM   16  C17 UNL     1      33.069  33.031  28.785  1.00  0.00    -0.030 C 
HETATM   17  C18 UNL     1      32.460  31.868  28.827  1.00  0.00    -0.030 C 
HETATM   18  C19 UNL     1      33.146  30.601  28.526  1.00  0.00     0.038 C 
BRANCH   9  19
HETATM   19  C7  UNL     1      38.251  32.100  26.801  1.00  0.00     0.111 C 
HETATM   20  C8  UNL     1      38.832  31.694  25.486  1.00  0.00     0.027 C 
HETATM   21  C9  UNL     1      40.232  32.159  25.272  1.00  0.00     0.002 C 
HETATM   22  C10 UNL     1      41.132  31.347  26.165  1.00  0.00     0.000 C 
HETATM   23  C11 UNL     1      41.460  32.140  27.383  1.00  0.00     0.000 C 
HETATM   24  C12 UNL     1      40.287  32.469  28.244  1.00  0.00     0.002 C 
HETATM   25  C13 UNL     1      39.071  31.632  27.980  1.00  0.00     0.027 C 
ENDBRANCH   9  19
ENDBRANCH   4   7
BRANCH   6  26
HETATM   26  C23 UNL     1      36.610  25.297  29.224  1.00  0.00    -0.023 A 
HETATM   27  C24 UNL     1      36.189  24.566  28.137  1.00  0.00     0.013 A 
HETATM   28  C25 UNL     1      36.802  23.362  27.816  1.00  0.00     0.018 A 
HETATM   29  C26 UNL     1      37.841  22.879  28.579  1.00  0.00     0.032 A 
HETATM   30  C32 UNL     1      38.245  23.629  29.662  1.00  0.00     0.018 A 
HETATM   31  C33 UNL     1      37.649  24.819  29.991  1.00  0.00     0.013 A 
BRANCH  29  32
HETATM   32  C27 UNL     1      38.502  21.598  28.269  1.00  0.00     0.252 C 
HETATM   33  O3  UNL     1      39.669  21.631  27.786  1.00  0.00    -0.268 OA
HETATM   34  N3  UNL     1      37.907  20.344  28.481  1.00  0.00    -0.348 N 
ATOM     35  H3  UNL     1      36.966  20.314  28.873  1.00  0.00     0.163 HD
BRANCH  34  36
HETATM   36  C28 UNL     1      38.570  19.086  28.169  1.00  0.00     0.225 C 
BRANCH  36  37
HETATM   37  C29 UNL     1      37.881  18.376  27.068  1.00  0.00     0.235 C 
HETATM   38  O4  UNL     1      37.724  18.958  25.963  1.00  0.00    -0.272 OA
HETATM   39  N4  UNL     1      37.381  17.060  27.188  1.00  0.00    -0.358 N 
ATOM     40  H4  UNL     1      37.501  16.574  28.077  1.00  0.00     0.162 HD
BRANCH  39  41
HETATM   41  C30 UNL     1      36.705  16.365  26.112  1.00  0.00     0.148 C 
BRANCH  41  42
HETATM   42  C31 UNL     1      35.916  15.219  26.754  1.00  0.00     0.183 C 
BRANCH  42  43
HETATM   43  O5  UNL     1      36.718  14.086  26.930  1.00  0.00    -0.399 OA
ATOM     44  H5  UNL     1      36.211  13.352  27.254  1.00  0.00     0.209 HD
ENDBRANCH  42  43
ENDBRANCH  41  42
ENDBRANCH  39  41
ENDBRANCH  36  37
ENDBRANCH  34  36
ENDBRANCH  29  32
ENDBRANCH   6  26
BRANCH   1  45
HETATM   45  O1  UNL     1      35.258  25.661  31.654  1.00  0.00    -0.355 OA
HETATM   46  C1  UNL     1      34.415  25.668  32.768  1.00  0.00     0.210 C 
ENDBRANCH   1  45
TORSDOF 10
ENDMDL
