MODEL 19
REMARK VINA RESULT: -9.726536071      2.460      4.904
REMARK  10 active torsions:
REMARK  status: ('A' for Active; 'I' for Inactive)
REMARK    1  A    between atoms: O1_2  and  C2_3 
REMARK    2  A    between atoms: C5_6  and  C6_7 
REMARK    3  A    between atoms: N2_10  and  C7_11 
REMARK    4  A    between atoms: C22_27  and  C23_28 
REMARK    5  A    between atoms: C26_31  and  C27_32 
REMARK       I    between atoms: C27_32  and  N3_34 
REMARK    6  A    between atoms: N3_34  and  C28_36 
REMARK    7  A    between atoms: C28_36  and  C29_37 
REMARK       I    between atoms: C29_37  and  N4_39 
REMARK    8  A    between atoms: N4_39  and  C30_41 
REMARK    9  A    between atoms: C30_41  and  C31_42 
REMARK   10  A    between atoms: C31_42  and  O5_43 
ROOT
HETATM    1  C2  UNL     1      34.929  31.351  28.551  1.00  0.00     0.079 A 
HETATM    2  C3  UNL     1      34.712  32.608  28.019  1.00  0.00     0.038 A 
HETATM    3  C4  UNL     1      35.404  33.028  26.905  1.00  0.00     0.016 A 
HETATM    4  C5  UNL     1      36.349  32.209  26.270  1.00  0.00    -0.011 A 
HETATM    5  C21 UNL     1      36.562  30.991  26.785  1.00  0.00     0.028 A 
HETATM    6  C22 UNL     1      35.859  30.560  27.918  1.00  0.00     0.008 A 
ENDROOT
BRANCH   4   7
HETATM    7  C6  UNL     1      37.071  32.825  25.123  1.00  0.00     0.041 C 
HETATM    8  N1  UNL     1      38.340  33.027  25.247  1.00  0.00    -0.298 N 
HETATM    9  N2  UNL     1      39.181  33.565  24.322  1.00  0.00    -0.256 N 
ATOM     10  H1  UNL     1      38.758  32.753  26.137  1.00  0.00     0.187 HD
HETATM   11  C14 UNL     1      38.615  33.953  23.063  1.00  0.00     0.243 C 
HETATM   12  O2  UNL     1      39.312  33.976  22.016  1.00  0.00    -0.271 OA
HETATM   13  C15 UNL     1      37.182  34.308  23.130  1.00  0.00     0.093 C 
HETATM   14  C16 UNL     1      37.004  35.671  23.797  1.00  0.00     0.041 C 
HETATM   15  C20 UNL     1      36.363  33.283  23.903  1.00  0.00     0.055 C 
HETATM   16  C17 UNL     1      35.594  36.056  23.416  1.00  0.00    -0.030 C 
HETATM   17  C18 UNL     1      34.682  35.138  23.638  1.00  0.00    -0.030 C 
HETATM   18  C19 UNL     1      35.004  33.825  24.221  1.00  0.00     0.038 C 
BRANCH   9  19
HETATM   19  C7  UNL     1      40.585  33.733  24.576  1.00  0.00     0.111 C 
HETATM   20  C8  UNL     1      41.053  33.056  25.822  1.00  0.00     0.027 C 
HETATM   21  C9  UNL     1      42.503  33.250  26.109  1.00  0.00     0.002 C 
HETATM   22  C10 UNL     1      42.702  34.676  26.551  1.00  0.00     0.000 C 
HETATM   23  C11 UNL     1      43.214  35.478  25.403  1.00  0.00     0.000 C 
HETATM   24  C12 UNL     1      42.275  35.577  24.248  1.00  0.00     0.002 C 
HETATM   25  C13 UNL     1      40.856  35.219  24.572  1.00  0.00     0.027 C 
ENDBRANCH   9  19
ENDBRANCH   4   7
BRANCH   6  26
HETATM   26  C23 UNL     1      36.148  29.212  28.447  1.00  0.00    -0.023 A 
HETATM   27  C24 UNL     1      37.449  28.776  28.543  1.00  0.00     0.013 A 
HETATM   28  C25 UNL     1      37.734  27.508  29.035  1.00  0.00     0.018 A 
HETATM   29  C26 UNL     1      36.721  26.667  29.435  1.00  0.00     0.032 A 
HETATM   30  C32 UNL     1      35.426  27.127  29.330  1.00  0.00     0.018 A 
HETATM   31  C33 UNL     1      35.130  28.376  28.847  1.00  0.00     0.013 A 
BRANCH  29  32
HETATM   32  C27 UNL     1      36.994  25.313  29.948  1.00  0.00     0.252 C 
HETATM   33  O3  UNL     1      36.493  24.985  31.061  1.00  0.00    -0.268 OA
HETATM   34  N3  UNL     1      37.777  24.366  29.269  1.00  0.00    -0.348 N 
ATOM     35  H3  UNL     1      38.181  24.627  28.369  1.00  0.00     0.163 HD
BRANCH  34  36
HETATM   36  C28 UNL     1      38.041  23.031  29.788  1.00  0.00     0.225 C 
BRANCH  36  37
HETATM   37  C29 UNL     1      37.856  22.003  28.740  1.00  0.00     0.235 C 
HETATM   38  O4  UNL     1      36.958  21.132  28.882  1.00  0.00    -0.272 OA
HETATM   39  N4  UNL     1      38.645  21.939  27.569  1.00  0.00    -0.358 N 
ATOM     40  H4  UNL     1      39.376  22.638  27.438  1.00  0.00     0.162 HD
BRANCH  39  41
HETATM   41  C30 UNL     1      38.466  20.932  26.544  1.00  0.00     0.148 C 
BRANCH  41  42
HETATM   42  C31 UNL     1      39.855  20.635  25.969  1.00  0.00     0.183 C 
BRANCH  42  43
HETATM   43  O5  UNL     1      39.773  19.815  24.839  1.00  0.00    -0.399 OA
ATOM     44  H5  UNL     1      39.870  18.899  25.071  1.00  0.00     0.209 HD
ENDBRANCH  42  43
ENDBRANCH  41  42
ENDBRANCH  39  41
ENDBRANCH  36  37
ENDBRANCH  34  36
ENDBRANCH  29  32
ENDBRANCH   6  26
BRANCH   1  45
HETATM   45  O1  UNL     1      34.259  30.894  29.658  1.00  0.00    -0.355 OA
HETATM   46  C1  UNL     1      32.882  31.067  29.817  1.00  0.00     0.210 C 
ENDBRANCH   1  45
TORSDOF 10
ENDMDL
