MODEL 3
REMARK VINA RESULT: -10.839667702      0.910      1.221
REMARK  10 active torsions:
REMARK  status: ('A' for Active; 'I' for Inactive)
REMARK    1  A    between atoms: O1_2  and  C2_3 
REMARK    2  A    between atoms: C5_6  and  C6_7 
REMARK    3  A    between atoms: N2_10  and  C7_11 
REMARK    4  A    between atoms: C22_27  and  C23_28 
REMARK    5  A    between atoms: C26_31  and  C27_32 
REMARK       I    between atoms: C27_32  and  N3_34 
REMARK    6  A    between atoms: N3_34  and  C28_36 
REMARK    7  A    between atoms: C28_36  and  C29_37 
REMARK       I    between atoms: C29_37  and  N4_39 
REMARK    8  A    between atoms: N4_39  and  C30_41 
REMARK    9  A    between atoms: C30_41  and  C31_42 
REMARK   10  A    between atoms: C31_42  and  O5_43 
ROOT
HETATM    1  C2  UNL     1      35.550  28.053  30.200  1.00  0.00     0.079 A 
HETATM    2  C3  UNL     1      35.329  29.417  30.236  1.00  0.00     0.038 A 
HETATM    3  C4  UNL     1      35.908  30.247  29.303  1.00  0.00     0.016 A 
HETATM    4  C5  UNL     1      36.737  29.752  28.287  1.00  0.00    -0.011 A 
HETATM    5  C21 UNL     1      36.955  28.431  28.250  1.00  0.00     0.028 A 
HETATM    6  C22 UNL     1      36.366  27.582  29.198  1.00  0.00     0.008 A 
ENDROOT
BRANCH   4   7
HETATM    7  C6  UNL     1      37.351  30.776  27.397  1.00  0.00     0.041 C 
HETATM    8  N1  UNL     1      36.588  31.710  26.937  1.00  0.00    -0.298 N 
HETATM    9  N2  UNL     1      36.948  32.739  26.122  1.00  0.00    -0.256 N 
ATOM     10  H1  UNL     1      35.607  31.673  27.215  1.00  0.00     0.187 HD
HETATM   11  C14 UNL     1      38.324  32.812  25.722  1.00  0.00     0.243 C 
HETATM   12  O2  UNL     1      38.856  33.912  25.424  1.00  0.00    -0.271 OA
HETATM   13  C15 UNL     1      39.016  31.507  25.701  1.00  0.00     0.093 C 
HETATM   14  C16 UNL     1      38.558  30.683  24.499  1.00  0.00     0.041 C 
HETATM   15  C20 UNL     1      38.766  30.695  26.965  1.00  0.00     0.055 C 
HETATM   16  C17 UNL     1      39.622  29.615  24.391  1.00  0.00    -0.030 C 
HETATM   17  C18 UNL     1      39.893  28.979  25.507  1.00  0.00    -0.030 C 
HETATM   18  C19 UNL     1      39.209  29.277  26.777  1.00  0.00     0.038 C 
BRANCH   9  19
HETATM   19  C7  UNL     1      36.004  33.728  25.680  1.00  0.00     0.111 C 
HETATM   20  C8  UNL     1      34.857  33.920  26.616  1.00  0.00     0.027 C 
HETATM   21  C9  UNL     1      33.857  34.923  26.152  1.00  0.00     0.002 C 
HETATM   22  C10 UNL     1      33.096  34.321  25.000  1.00  0.00     0.000 C 
HETATM   23  C11 UNL     1      33.650  34.846  23.719  1.00  0.00     0.000 C 
HETATM   24  C12 UNL     1      35.071  34.473  23.458  1.00  0.00     0.002 C 
HETATM   25  C13 UNL     1      35.573  33.330  24.288  1.00  0.00     0.027 C 
ENDBRANCH   9  19
ENDBRANCH   4   7
BRANCH   6  26
HETATM   26  C23 UNL     1      36.655  26.136  29.114  1.00  0.00    -0.023 A 
HETATM   27  C24 UNL     1      37.626  25.582  29.916  1.00  0.00     0.013 A 
HETATM   28  C25 UNL     1      37.911  24.224  29.843  1.00  0.00     0.018 A 
HETATM   29  C26 UNL     1      37.227  23.411  28.968  1.00  0.00     0.032 A 
HETATM   30  C32 UNL     1      36.259  23.989  28.177  1.00  0.00     0.018 A 
HETATM   31  C33 UNL     1      35.967  25.327  28.238  1.00  0.00     0.013 A 
BRANCH  29  32
HETATM   32  C27 UNL     1      37.517  21.969  28.861  1.00  0.00     0.252 C 
HETATM   33  O3  UNL     1      37.546  21.286  29.925  1.00  0.00    -0.268 OA
HETATM   34  N3  UNL     1      37.761  21.313  27.645  1.00  0.00    -0.348 N 
ATOM     35  H3  UNL     1      37.735  21.860  26.785  1.00  0.00     0.163 HD
BRANCH  34  36
HETATM   36  C28 UNL     1      38.048  19.888  27.553  1.00  0.00     0.225 C 
BRANCH  36  37
HETATM   37  C29 UNL     1      39.352  19.645  26.897  1.00  0.00     0.235 C 
HETATM   38  O4  UNL     1      39.379  19.102  25.761  1.00  0.00    -0.272 OA
HETATM   39  N4  UNL     1      40.590  19.992  27.482  1.00  0.00    -0.358 N 
ATOM     40  H4  UNL     1      40.585  20.434  28.402  1.00  0.00     0.162 HD
BRANCH  39  41
HETATM   41  C30 UNL     1      41.867  19.753  26.842  1.00  0.00     0.148 C 
BRANCH  41  42
HETATM   42  C31 UNL     1      42.728  18.983  27.850  1.00  0.00     0.183 C 
BRANCH  42  43
HETATM   43  O5  UNL     1      41.942  18.173  28.675  1.00  0.00    -0.399 OA
ATOM     44  H5  UNL     1      42.477  17.564  29.170  1.00  0.00     0.209 HD
ENDBRANCH  42  43
ENDBRANCH  41  42
ENDBRANCH  39  41
ENDBRANCH  36  37
ENDBRANCH  34  36
ENDBRANCH  29  32
ENDBRANCH   6  26
BRANCH   1  45
HETATM   45  O1  UNL     1      34.991  27.191  31.109  1.00  0.00    -0.355 OA
HETATM   46  C1  UNL     1      33.613  26.970  31.173  1.00  0.00     0.210 C 
ENDBRANCH   1  45
TORSDOF 10
ENDMDL
