MODEL 2
REMARK VINA RESULT: -9.408990993      1.218      1.292
REMARK  4 active torsions:
REMARK  status: ('A' for Active; 'I' for Inactive)
REMARK    1  A    between atoms: C4_4  and  O1_5 
REMARK    2  A    between atoms: C19_22  and  C20_23 
REMARK    3  A    between atoms: C20_23  and  C21_25 
REMARK    4  A    between atoms: C21_25  and  O4_26 
ROOT
HETATM    1  C1  UNL     1     -27.380  -9.009  19.561  1.00  0.00     0.016 C 
HETATM    2  C2  UNL     1     -28.725  -8.425  19.778  1.00  0.00    -0.027 C 
HETATM    3  C3  UNL     1     -28.715  -6.963  20.122  1.00  0.00     0.042 C 
HETATM    4  C4  UNL     1     -28.117  -6.730  21.495  1.00  0.00     0.124 C 
HETATM    5  C5  UNL     1     -28.931  -7.467  22.527  1.00  0.00     0.031 C 
HETATM    6  C6  UNL     1     -28.854  -8.942  22.177  1.00  0.00    -0.002 C 
HETATM    7  C7  UNL     1     -29.654  -9.723  23.229  1.00  0.00     0.010 C 
HETATM    8  C8  UNL     1     -28.774  -9.691  24.461  1.00  0.00     0.035 C 
HETATM    9  C9  UNL     1     -28.706  -8.251  24.878  1.00  0.00    -0.068 C 
HETATM   10  C10 UNL     1     -28.782  -8.017  26.171  1.00  0.00     0.053 C 
HETATM   11  C11 UNL     1     -28.721  -6.639  26.635  1.00  0.00     0.149 C 
HETATM   12  O2  UNL     1     -28.190  -6.388  27.754  1.00  0.00    -0.293 OA
HETATM   13  C12 UNL     1     -29.282  -5.588  25.779  1.00  0.00     0.084 C 
HETATM   14  C13 UNL     1     -29.430  -5.972  24.349  1.00  0.00     0.022 C 
HETATM   15  C14 UNL     1     -28.561  -7.145  23.938  1.00  0.00    -0.014 C 
HETATM   16  C15 UNL     1     -27.115  -6.636  24.040  1.00  0.00     0.020 C 
HETATM   17  C16 UNL     1     -29.521  -9.128  20.881  1.00  0.00    -0.001 C 
HETATM   18  C17 UNL     1     -29.629 -10.493  20.336  1.00  0.00     0.006 C 
HETATM   19  C18 UNL     1     -29.853 -10.248  18.840  1.00  0.00     0.013 C 
HETATM   20  C19 UNL     1     -29.602  -8.757  18.614  1.00  0.00     0.066 C 
ENDROOT
BRANCH  20  21
HETATM   21  C20 UNL     1     -29.004  -8.499  17.301  1.00  0.00     0.154 C 
HETATM   22  O3  UNL     1     -28.541  -9.414  16.650  1.00  0.00    -0.295 OA
BRANCH  21  23
HETATM   23  C21 UNL     1     -28.961  -7.121  16.759  1.00  0.00     0.242 C 
BRANCH  23  24
HETATM   24  O4  UNL     1     -30.030  -6.388  17.267  1.00  0.00    -0.394 OA
ATOM     25  H4  UNL     1     -30.717  -6.332  16.612  1.00  0.00     0.209 HD
ENDBRANCH  23  24
ENDBRANCH  21  23
ENDBRANCH  20  21
BRANCH   4  26
HETATM   26  O1  UNL     1     -26.801  -7.243  21.422  1.00  0.00    -0.395 OA
ATOM     27  H1  UNL     1     -26.243  -6.554  21.764  1.00  0.00     0.210 HD
ENDBRANCH   4  26
TORSDOF 4
ENDMDL
