MODEL 18
REMARK VINA RESULT: -8.598346974      1.890      7.076
REMARK  4 active torsions:
REMARK  status: ('A' for Active; 'I' for Inactive)
REMARK    1  A    between atoms: C4_4  and  O1_5 
REMARK    2  A    between atoms: C19_22  and  C20_23 
REMARK    3  A    between atoms: C20_23  and  C21_25 
REMARK    4  A    between atoms: C21_25  and  O4_26 
ROOT
HETATM    1  C1  UNL     1     -27.435  -7.998  24.836  1.00  0.00     0.016 C 
HETATM    2  C2  UNL     1     -28.857  -7.894  24.433  1.00  0.00    -0.027 C 
HETATM    3  C3  UNL     1     -29.461  -9.185  23.959  1.00  0.00     0.042 C 
HETATM    4  C4  UNL     1     -28.857  -9.616  22.638  1.00  0.00     0.124 C 
HETATM    5  C5  UNL     1     -29.110  -8.552  21.601  1.00  0.00     0.031 C 
HETATM    6  C6  UNL     1     -28.425  -7.290  22.090  1.00  0.00    -0.002 C 
HETATM    7  C7  UNL     1     -28.643  -6.193  21.039  1.00  0.00     0.010 C 
HETATM    8  C8  UNL     1     -27.719  -6.579  19.904  1.00  0.00     0.035 C 
HETATM    9  C9  UNL     1     -28.251  -7.875  19.366  1.00  0.00    -0.068 C 
HETATM   10  C10 UNL     1     -28.255  -8.002  18.056  1.00  0.00     0.053 C 
HETATM   11  C11 UNL     1     -28.759  -9.238  17.477  1.00  0.00     0.149 C 
HETATM   12  O2  UNL     1     -28.257  -9.664  16.398  1.00  0.00    -0.293 OA
HETATM   13  C12 UNL     1     -29.840  -9.946  18.172  1.00  0.00     0.084 C 
HETATM   14  C13 UNL     1     -29.985  -9.588  19.609  1.00  0.00     0.022 C 
HETATM   15  C14 UNL     1     -28.743  -8.957  20.211  1.00  0.00    -0.014 C 
HETATM   16  C15 UNL     1     -27.681 -10.067  20.208  1.00  0.00     0.020 C 
HETATM   17  C16 UNL     1     -29.100  -6.865  23.324  1.00  0.00    -0.001 C 
HETATM   18  C17 UNL     1     -28.653  -5.623  23.978  1.00  0.00     0.006 C 
HETATM   19  C18 UNL     1     -29.157  -5.791  25.416  1.00  0.00     0.013 C 
HETATM   20  C19 UNL     1     -29.635  -7.239  25.529  1.00  0.00     0.066 C 
ENDROOT
BRANCH  20  21
HETATM   21  C20 UNL     1     -29.394  -7.788  26.866  1.00  0.00     0.154 C 
HETATM   22  O3  UNL     1     -28.528  -7.316  27.574  1.00  0.00    -0.295 OA
BRANCH  21  23
HETATM   23  C21 UNL     1     -30.206  -8.923  27.363  1.00  0.00     0.242 C 
BRANCH  23  24
HETATM   24  O4  UNL     1     -31.478  -8.868  26.796  1.00  0.00    -0.394 OA
ATOM     25  H4  UNL     1     -31.703  -9.720  26.439  1.00  0.00     0.209 HD
ENDBRANCH  23  24
ENDBRANCH  21  23
ENDBRANCH  20  21
BRANCH   4  26
HETATM   26  O1  UNL     1     -27.473  -9.765  22.888  1.00  0.00    -0.395 OA
ATOM     27  H1  UNL     1     -27.061  -9.010  22.486  1.00  0.00     0.210 HD
ENDBRANCH   4  26
TORSDOF 4
ENDMDL
