MODEL 9
REMARK VINA RESULT: -8.973110543      1.702      7.079
REMARK  4 active torsions:
REMARK  status: ('A' for Active; 'I' for Inactive)
REMARK    1  A    between atoms: C4_4  and  O1_5 
REMARK    2  A    between atoms: C19_22  and  C20_23 
REMARK    3  A    between atoms: C20_23  and  C21_25 
REMARK    4  A    between atoms: C21_25  and  O4_26 
ROOT
HETATM    1  C1  UNL     1     -25.860  -8.370  24.243  1.00  0.00     0.016 C 
HETATM    2  C2  UNL     1     -27.329  -8.172  24.239  1.00  0.00    -0.027 C 
HETATM    3  C3  UNL     1     -28.104  -9.324  23.667  1.00  0.00     0.042 C 
HETATM    4  C4  UNL     1     -27.865  -9.456  22.176  1.00  0.00     0.124 C 
HETATM    5  C5  UNL     1     -28.298  -8.188  21.486  1.00  0.00     0.031 C 
HETATM    6  C6  UNL     1     -27.441  -7.068  22.046  1.00  0.00    -0.002 C 
HETATM    7  C7  UNL     1     -27.840  -5.765  21.341  1.00  0.00     0.010 C 
HETATM    8  C8  UNL     1     -27.243  -5.896  19.955  1.00  0.00     0.035 C 
HETATM    9  C9  UNL     1     -27.966  -7.039  19.304  1.00  0.00    -0.068 C 
HETATM   10  C10 UNL     1     -28.294  -6.873  18.040  1.00  0.00     0.053 C 
HETATM   11  C11 UNL     1     -28.995  -7.948  17.355  1.00  0.00     0.149 C 
HETATM   12  O2  UNL     1     -28.795  -8.128  16.120  1.00  0.00    -0.293 OA
HETATM   13  C12 UNL     1     -29.916  -8.787  18.131  1.00  0.00     0.084 C 
HETATM   14  C13 UNL     1     -29.688  -8.754  19.601  1.00  0.00     0.022 C 
HETATM   15  C14 UNL     1     -28.302  -8.278  19.995  1.00  0.00    -0.014 C 
HETATM   16  C15 UNL     1     -27.340  -9.365  19.491  1.00  0.00     0.020 C 
HETATM   17  C16 UNL     1     -27.771  -6.923  23.470  1.00  0.00    -0.001 C 
HETATM   18  C17 UNL     1     -27.105  -5.858  24.241  1.00  0.00     0.006 C 
HETATM   19  C18 UNL     1     -27.256  -6.337  25.689  1.00  0.00     0.013 C 
HETATM   20  C19 UNL     1     -27.778  -7.771  25.607  1.00  0.00     0.066 C 
ENDROOT
BRANCH  20  21
HETATM   21  C20 UNL     1     -27.254  -8.604  26.693  1.00  0.00     0.154 C 
HETATM   22  O3  UNL     1     -27.743  -9.692  26.920  1.00  0.00    -0.295 OA
BRANCH  21  23
HETATM   23  C21 UNL     1     -26.123  -8.124  27.522  1.00  0.00     0.242 C 
BRANCH  23  24
HETATM   24  O4  UNL     1     -25.170  -9.133  27.636  1.00  0.00    -0.394 OA
ATOM     25  H4  UNL     1     -25.475  -9.911  27.182  1.00  0.00     0.209 HD
ENDBRANCH  23  24
ENDBRANCH  21  23
ENDBRANCH  20  21
BRANCH   4  26
HETATM   26  O1  UNL     1     -26.473  -9.663  22.037  1.00  0.00    -0.395 OA
ATOM     27  H1  UNL     1     -26.276  -9.450  21.133  1.00  0.00     0.210 HD
ENDBRANCH   4  26
TORSDOF 4
ENDMDL
