MODEL 3
REMARK VINA RESULT: -9.263032018      2.540      2.999
REMARK  4 active torsions:
REMARK  status: ('A' for Active; 'I' for Inactive)
REMARK    1  A    between atoms: C4_4  and  O1_5 
REMARK    2  A    between atoms: C19_22  and  C20_23 
REMARK    3  A    between atoms: C20_23  and  C21_25 
REMARK    4  A    between atoms: C21_25  and  O4_26 
ROOT
HETATM    1  C1  UNL     1     -27.923 -10.085  19.770  1.00  0.00     0.016 C 
HETATM    2  C2  UNL     1     -29.160  -9.287  19.946  1.00  0.00    -0.027 C 
HETATM    3  C3  UNL     1     -28.979  -8.042  20.767  1.00  0.00     0.042 C 
HETATM    4  C4  UNL     1     -28.692  -8.382  22.217  1.00  0.00     0.124 C 
HETATM    5  C5  UNL     1     -29.841  -9.175  22.782  1.00  0.00     0.031 C 
HETATM    6  C6  UNL     1     -29.940 -10.451  21.966  1.00  0.00    -0.002 C 
HETATM    7  C7  UNL     1     -31.088 -11.293  22.537  1.00  0.00     0.010 C 
HETATM    8  C8  UNL     1     -30.533 -11.845  23.834  1.00  0.00     0.035 C 
HETATM    9  C9  UNL     1     -30.317 -10.656  24.724  1.00  0.00    -0.068 C 
HETATM   10  C10 UNL     1     -30.655 -10.808  25.988  1.00  0.00     0.053 C 
HETATM   11  C11 UNL     1     -30.468  -9.690  26.899  1.00  0.00     0.149 C 
HETATM   12  O2  UNL     1     -30.182  -9.920  28.108  1.00  0.00    -0.293 OA
HETATM   13  C12 UNL     1     -30.621  -8.328  26.374  1.00  0.00     0.084 C 
HETATM   14  C13 UNL     1     -30.491  -8.219  24.896  1.00  0.00     0.022 C 
HETATM   15  C14 UNL     1     -29.765  -9.389  24.258  1.00  0.00    -0.014 C 
HETATM   16  C15 UNL     1     -28.319  -9.298  24.769  1.00  0.00     0.020 C 
HETATM   17  C16 UNL     1     -30.304 -10.075  20.593  1.00  0.00    -0.001 C 
HETATM   18  C17 UNL     1     -30.513 -11.146  19.603  1.00  0.00     0.006 C 
HETATM   19  C18 UNL     1     -30.332 -10.418  18.266  1.00  0.00     0.013 C 
HETATM   20  C19 UNL     1     -29.781  -9.035  18.610  1.00  0.00     0.066 C 
ENDROOT
BRANCH  20  21
HETATM   21  C20 UNL     1     -28.854  -8.548  17.585  1.00  0.00     0.154 C 
HETATM   22  O3  UNL     1     -28.229  -9.335  16.903  1.00  0.00    -0.295 OA
BRANCH  21  23
HETATM   23  C21 UNL     1     -28.673  -7.093  17.372  1.00  0.00     0.242 C 
BRANCH  23  24
HETATM   24  O4  UNL     1     -29.253  -6.725  16.160  1.00  0.00    -0.394 OA
ATOM     25  H4  UNL     1     -28.658  -6.929  15.449  1.00  0.00     0.209 HD
ENDBRANCH  23  24
ENDBRANCH  21  23
ENDBRANCH  20  21
BRANCH   4  26
HETATM   26  O1  UNL     1     -27.505  -9.150  22.193  1.00  0.00    -0.395 OA
ATOM     27  H1  UNL     1     -27.452  -9.559  23.049  1.00  0.00     0.210 HD
ENDBRANCH   4  26
TORSDOF 4
ENDMDL
