MODEL 1
REMARK VINA RESULT: -9.641553105      0.000      0.000
REMARK  4 active torsions:
REMARK  status: ('A' for Active; 'I' for Inactive)
REMARK    1  A    between atoms: C4_4  and  O1_5 
REMARK    2  A    between atoms: C19_22  and  C20_23 
REMARK    3  A    between atoms: C20_23  and  C21_25 
REMARK    4  A    between atoms: C21_25  and  O4_26 
ROOT
HETATM    1  C1  UNL     1     -26.946  -7.870  19.524  1.00  0.00     0.016 C 
HETATM    2  C2  UNL     1     -28.268  -8.233  20.087  1.00  0.00    -0.027 C 
HETATM    3  C3  UNL     1     -29.073  -7.063  20.576  1.00  0.00     0.042 C 
HETATM    4  C4  UNL     1     -28.440  -6.442  21.805  1.00  0.00     0.124 C 
HETATM    5  C5  UNL     1     -28.363  -7.471  22.903  1.00  0.00     0.031 C 
HETATM    6  C6  UNL     1     -27.486  -8.598  22.388  1.00  0.00    -0.002 C 
HETATM    7  C7  UNL     1     -27.367  -9.652  23.497  1.00  0.00     0.010 C 
HETATM    8  C8  UNL     1     -26.432  -9.022  24.508  1.00  0.00     0.035 C 
HETATM    9  C9  UNL     1     -27.162  -7.829  25.052  1.00  0.00    -0.068 C 
HETATM   10  C10 UNL     1     -27.058  -7.628  26.349  1.00  0.00     0.053 C 
HETATM   11  C11 UNL     1     -27.744  -6.486  26.934  1.00  0.00     0.149 C 
HETATM   12  O2  UNL     1     -27.233  -5.905  27.934  1.00  0.00    -0.293 OA
HETATM   13  C12 UNL     1     -29.012  -6.051  26.336  1.00  0.00     0.084 C 
HETATM   14  C13 UNL     1     -29.226  -6.515  24.939  1.00  0.00     0.022 C 
HETATM   15  C14 UNL     1     -27.948  -6.919  24.227  1.00  0.00    -0.014 C 
HETATM   16  C15 UNL     1     -27.141  -5.621  24.071  1.00  0.00     0.020 C 
HETATM   17  C16 UNL     1     -28.182  -9.222  21.254  1.00  0.00    -0.001 C 
HETATM   18  C17 UNL     1     -27.557 -10.386  20.601  1.00  0.00     0.006 C 
HETATM   19  C18 UNL     1     -28.228 -10.407  19.223  1.00  0.00     0.013 C 
HETATM   20  C19 UNL     1     -29.002  -9.094  19.110  1.00  0.00     0.066 C 
ENDROOT
BRANCH  20  21
HETATM   21  C20 UNL     1     -29.015  -8.587  17.735  1.00  0.00     0.154 C 
HETATM   22  O3  UNL     1     -28.543  -9.251  16.834  1.00  0.00    -0.295 OA
BRANCH  21  23
HETATM   23  C21 UNL     1     -29.606  -7.263  17.433  1.00  0.00     0.242 C 
BRANCH  23  24
HETATM   24  O4  UNL     1     -29.257  -6.881  16.140  1.00  0.00    -0.394 OA
ATOM     25  H4  UNL     1     -29.718  -7.426  15.513  1.00  0.00     0.209 HD
ENDBRANCH  23  24
ENDBRANCH  21  23
ENDBRANCH  20  21
BRANCH   4  26
HETATM   26  O1  UNL     1     -27.149  -6.034  21.397  1.00  0.00    -0.395 OA
ATOM     27  H1  UNL     1     -26.990  -5.212  21.845  1.00  0.00     0.210 HD
ENDBRANCH   4  26
TORSDOF 4
ENDMDL
