MODEL 18
REMARK VINA RESULT: -7.419087099      2.549      7.696
REMARK  16 active torsions:
REMARK  status: ('A' for Active; 'I' for Inactive)
REMARK    1  A    between atoms: C1_2  and  C2_4 
REMARK    2  A    between atoms: C2_4  and  C3_5 
REMARK    3  A    between atoms: C3_5  and  C4_6 
REMARK    4  A    between atoms: C4_6  and  N2_7 
REMARK    5  A    between atoms: C4_6  and  C11_26 
REMARK    6  A    between atoms: N2_7  and  C5_10 
REMARK    7  A    between atoms: C5_10  and  C6_11 
REMARK    8  A    between atoms: C6_11  and  O2_12 
REMARK    9  A    between atoms: C6_11  and  C7_14 
REMARK   10  A    between atoms: C7_14  and  O3_15 
REMARK   11  A    between atoms: C7_14  and  C8_17 
REMARK   12  A    between atoms: C8_17  and  O4_18 
REMARK   13  A    between atoms: C8_17  and  C9_20 
REMARK   14  A    between atoms: C9_20  and  O5_21 
REMARK   15  A    between atoms: C9_20  and  C10_23 
REMARK   16  A    between atoms: C10_23  and  O6_24 
ROOT
HETATM    1  C6  UNL     1      83.553  22.128  -0.059  1.00  0.00     0.175 C 
ENDROOT
BRANCH   1   2
HETATM    2  C5  UNL     1      82.706  23.144   0.701  1.00  0.00     0.267 C 
BRANCH   2   3
HETATM    3  N2  UNL     1      83.281  23.472   1.974  1.00  0.00    -0.059 N 
ATOM      4  H22 UNL     1      84.214  23.072   2.079  1.00  0.00     0.278 HD
ATOM      5  H21 UNL     1      82.815  22.978   2.735  1.00  0.00     0.278 HD
BRANCH   3   6
HETATM    6  C4  UNL     1      83.286  24.929   2.192  1.00  0.00     0.286 C 
BRANCH   6   7
HETATM    7  C3  UNL     1      82.859  25.169   3.602  1.00  0.00     0.053 C 
BRANCH   7   8
HETATM    8  C2  UNL     1      81.902  26.290   3.809  1.00  0.00     0.102 C 
BRANCH   8   9
HETATM    9  C1  UNL     1      82.464  27.454   4.501  1.00  0.00     0.231 C 
HETATM   10  N1  UNL     1      81.688  28.628   4.735  1.00  0.00    -0.062 NA
HETATM   11  O1  UNL     1      83.632  27.464   4.908  1.00  0.00    -0.277 OA
ENDBRANCH   8   9
ENDBRANCH   7   8
ENDBRANCH   6   7
BRANCH   6  12
HETATM   12  C11 UNL     1      84.612  25.497   1.893  1.00  0.00     0.204 C 
HETATM   13  O7  UNL     1      84.818  26.733   1.958  1.00  0.00    -0.646 OA
HETATM   14  O8  UNL     1      85.693  24.701   1.523  1.00  0.00    -0.646 OA
ENDBRANCH   6  12
ENDBRANCH   3   6
ENDBRANCH   2   3
ENDBRANCH   1   2
BRANCH   1  15
HETATM   15  O2  UNL     1      84.708  21.926   0.664  1.00  0.00    -0.391 OA
ATOM     16  H2  UNL     1      85.353  21.550   0.075  1.00  0.00     0.210 HD
ENDBRANCH   1  15
BRANCH   1  17
HETATM   17  C7  UNL     1      82.810  20.822  -0.216  1.00  0.00     0.179 C 
BRANCH  17  18
HETATM   18  O3  UNL     1      81.679  21.143  -1.033  1.00  0.00    -0.390 OA
ATOM     19  H3  UNL     1      81.059  20.440  -0.875  1.00  0.00     0.210 HD
ENDBRANCH  17  18
BRANCH  17  20
HETATM   20  C8  UNL     1      83.539  19.772  -0.974  1.00  0.00     0.180 C 
BRANCH  20  21
HETATM   21  O4  UNL     1      82.761  19.501  -2.127  1.00  0.00    -0.390 OA
ATOM     22  H4  UNL     1      82.748  20.303  -2.634  1.00  0.00     0.210 HD
ENDBRANCH  20  21
BRANCH  20  23
HETATM   23  C9  UNL     1      83.848  18.509  -0.250  1.00  0.00     0.173 C 
BRANCH  23  24
HETATM   24  O5  UNL     1      84.437  18.851   0.972  1.00  0.00    -0.391 OA
ATOM     25  H5  UNL     1      85.304  19.194   0.791  1.00  0.00     0.210 HD
ENDBRANCH  23  24
BRANCH  23  26
HETATM   26  C10 UNL     1      84.719  17.548  -1.025  1.00  0.00     0.198 C 
BRANCH  26  27
HETATM   27  O6  UNL     1      85.010  18.016  -2.301  1.00  0.00    -0.398 OA
ATOM     28  H6  UNL     1      84.266  18.449  -2.703  1.00  0.00     0.209 HD
ENDBRANCH  26  27
ENDBRANCH  23  26
ENDBRANCH  20  23
ENDBRANCH  17  20
ENDBRANCH   1  17
TORSDOF 16
ENDMDL
