MODEL 5
REMARK VINA RESULT: -8.114692231      1.260      1.902
REMARK  16 active torsions:
REMARK  status: ('A' for Active; 'I' for Inactive)
REMARK    1  A    between atoms: C1_2  and  C2_4 
REMARK    2  A    between atoms: C2_4  and  C3_5 
REMARK    3  A    between atoms: C3_5  and  C4_6 
REMARK    4  A    between atoms: C4_6  and  N2_7 
REMARK    5  A    between atoms: C4_6  and  C11_26 
REMARK    6  A    between atoms: N2_7  and  C5_10 
REMARK    7  A    between atoms: C5_10  and  C6_11 
REMARK    8  A    between atoms: C6_11  and  O2_12 
REMARK    9  A    between atoms: C6_11  and  C7_14 
REMARK   10  A    between atoms: C7_14  and  O3_15 
REMARK   11  A    between atoms: C7_14  and  C8_17 
REMARK   12  A    between atoms: C8_17  and  O4_18 
REMARK   13  A    between atoms: C8_17  and  C9_20 
REMARK   14  A    between atoms: C9_20  and  O5_21 
REMARK   15  A    between atoms: C9_20  and  C10_23 
REMARK   16  A    between atoms: C10_23  and  O6_24 
ROOT
HETATM    1  C6  UNL     1      82.704  23.917   0.636  1.00  0.00     0.175 C 
ENDROOT
BRANCH   1   2
HETATM    2  C5  UNL     1      83.883  22.955   0.532  1.00  0.00     0.267 C 
BRANCH   2   3
HETATM    3  N2  UNL     1      83.463  21.586   0.613  1.00  0.00    -0.059 N 
ATOM      4  H22 UNL     1      82.454  21.509   0.739  1.00  0.00     0.278 HD
ATOM      5  H21 UNL     1      83.762  21.152   1.486  1.00  0.00     0.278 HD
BRANCH   3   6
HETATM    6  C4  UNL     1      83.925  20.821  -0.560  1.00  0.00     0.286 C 
BRANCH   6   7
HETATM    7  C3  UNL     1      84.748  19.683  -0.053  1.00  0.00     0.053 C 
BRANCH   7   8
HETATM    8  C2  UNL     1      84.027  18.681   0.778  1.00  0.00     0.102 C 
BRANCH   8   9
HETATM    9  C1  UNL     1      84.693  17.379   0.882  1.00  0.00     0.231 C 
HETATM   10  N1  UNL     1      84.827  16.518  -0.248  1.00  0.00    -0.062 NA
HETATM   11  O1  UNL     1      85.165  16.977   1.951  1.00  0.00    -0.277 OA
ENDBRANCH   8   9
ENDBRANCH   7   8
ENDBRANCH   6   7
BRANCH   6  12
HETATM   12  C11 UNL     1      82.781  20.379  -1.376  1.00  0.00     0.204 C 
HETATM   13  O7  UNL     1      81.670  20.959  -1.303  1.00  0.00    -0.646 OA
HETATM   14  O8  UNL     1      82.871  19.308  -2.260  1.00  0.00    -0.646 OA
ENDBRANCH   6  12
ENDBRANCH   3   6
ENDBRANCH   2   3
ENDBRANCH   1   2
BRANCH   1  15
HETATM   15  O2  UNL     1      81.600  23.279   0.113  1.00  0.00    -0.391 OA
ATOM     16  H2  UNL     1      81.816  23.015  -0.774  1.00  0.00     0.210 HD
ENDBRANCH   1  15
BRANCH   1  17
HETATM   17  C7  UNL     1      82.445  24.293   2.076  1.00  0.00     0.179 C 
BRANCH  17  18
HETATM   18  O3  UNL     1      82.759  23.112   2.823  1.00  0.00    -0.390 OA
ATOM     19  H3  UNL     1      83.137  23.433   3.634  1.00  0.00     0.210 HD
ENDBRANCH  17  18
BRANCH  17  20
HETATM   20  C8  UNL     1      83.346  25.339   2.624  1.00  0.00     0.180 C 
BRANCH  20  21
HETATM   21  O4  UNL     1      83.944  24.783   3.782  1.00  0.00    -0.390 OA
ATOM     22  H4  UNL     1      84.636  24.209   3.475  1.00  0.00     0.210 HD
ENDBRANCH  20  21
BRANCH  20  23
HETATM   23  C9  UNL     1      82.735  26.658   2.941  1.00  0.00     0.173 C 
BRANCH  23  24
HETATM   24  O5  UNL     1      82.558  27.347   1.736  1.00  0.00    -0.391 OA
ATOM     25  H5  UNL     1      83.415  27.491   1.355  1.00  0.00     0.210 HD
ENDBRANCH  23  24
BRANCH  23  26
HETATM   26  C10 UNL     1      83.522  27.485   3.931  1.00  0.00     0.198 C 
BRANCH  26  27
HETATM   27  O6  UNL     1      84.891  27.419   3.698  1.00  0.00    -0.398 OA
ATOM     28  H6  UNL     1      85.385  27.293   4.500  1.00  0.00     0.209 HD
ENDBRANCH  26  27
ENDBRANCH  23  26
ENDBRANCH  20  23
ENDBRANCH  17  20
ENDBRANCH   1  17
TORSDOF 16
ENDMDL
