MODEL 2
REMARK VINA RESULT: -8.702817710      1.228      1.429
REMARK  11 active torsions:
REMARK  status: ('A' for Active; 'I' for Inactive)
REMARK    1  A    between atoms: C1_2  and  C2_4 
REMARK    2  A    between atoms: C2_4  and  C3_5 
REMARK    3  A    between atoms: C3_5  and  C4_6 
REMARK    4  A    between atoms: C4_6  and  N2_7 
REMARK    5  A    between atoms: C4_6  and  C11_25 
REMARK    6  A    between atoms: N2_7  and  C5_10 
REMARK    7  A    between atoms: C5_10  and  C6_11 
REMARK    8  A    between atoms: C6_11  and  O2_12 
REMARK    9  A    between atoms: C8_16  and  O4_17 
REMARK   10  A    between atoms: C9_19  and  O5_20 
REMARK   11  A    between atoms: C10_22  and  O6_23 
ROOT
HETATM    1  C6  UNL     1      13.375  46.246  -1.866  1.00  0.00     0.215 C 
HETATM    2  O3  UNL     1      13.526  44.921  -1.453  1.00  0.00    -0.349 OA
HETATM    3  C7  UNL     1      13.487  44.073  -2.540  1.00  0.00     0.206 C 
HETATM    4  C8  UNL     1      12.092  44.108  -3.123  1.00  0.00     0.173 C 
HETATM    5  C9  UNL     1      11.243  45.137  -2.437  1.00  0.00     0.183 C 
HETATM    6  C10 UNL     1      11.973  46.481  -2.374  1.00  0.00     0.213 C 
ENDROOT
BRANCH   1   7
HETATM    7  C5  UNL     1      13.633  47.132  -0.688  1.00  0.00     0.304 C 
BRANCH   7   8
HETATM    8  N2  UNL     1      13.306  48.483  -1.037  1.00  0.00    -0.056 N 
ATOM      9  H22 UNL     1      12.751  48.530  -1.892  1.00  0.00     0.278 HD
ATOM     10  H21 UNL     1      14.124  49.001  -1.358  1.00  0.00     0.278 HD
BRANCH   8  11
HETATM   11  C4  UNL     1      12.637  49.159   0.087  1.00  0.00     0.286 C 
BRANCH  11  12
HETATM   12  C3  UNL     1      13.269  50.516   0.176  1.00  0.00     0.053 C 
BRANCH  12  13
HETATM   13  C2  UNL     1      12.311  51.657   0.227  1.00  0.00     0.102 C 
BRANCH  13  14
HETATM   14  C1  UNL     1      13.059  52.928   0.160  1.00  0.00     0.231 C 
HETATM   15  N1  UNL     1      13.321  53.568  -1.062  1.00  0.00    -0.062 NA
HETATM   16  O1  UNL     1      13.471  53.449   1.218  1.00  0.00    -0.277 OA
ENDBRANCH  13  14
ENDBRANCH  12  13
ENDBRANCH  11  12
BRANCH  11  17
HETATM   17  C11 UNL     1      11.195  49.213  -0.223  1.00  0.00     0.204 C 
HETATM   18  O7  UNL     1      10.317  49.352   0.677  1.00  0.00    -0.646 OA
HETATM   19  O8  UNL     1      10.729  49.111  -1.542  1.00  0.00    -0.646 OA
ENDBRANCH  11  17
ENDBRANCH   8  11
ENDBRANCH   7   8
ENDBRANCH   1   7
BRANCH   1  20
HETATM   20  O2  UNL     1      14.282  46.567  -2.867  1.00  0.00    -0.362 OA
ATOM     21  H2  UNL     1      14.909  45.858  -2.946  1.00  0.00     0.213 HD
ENDBRANCH   1  20
BRANCH   6  22
HETATM   22  O6  UNL     1      11.949  47.029  -3.649  1.00  0.00    -0.387 OA
ATOM     23  H6  UNL     1      11.352  46.576  -4.234  1.00  0.00     0.210 HD
ENDBRANCH   6  22
BRANCH   5  24
HETATM   24  O5  UNL     1      10.960  44.750  -1.127  1.00  0.00    -0.390 OA
ATOM     25  H5  UNL     1      10.898  43.804  -1.062  1.00  0.00     0.210 HD
ENDBRANCH   5  24
BRANCH   4  26
HETATM   26  O4  UNL     1      11.518  42.849  -2.991  1.00  0.00    -0.391 OA
ATOM     27  H4  UNL     1      11.037  42.815  -2.172  1.00  0.00     0.210 HD
ENDBRANCH   4  26
TORSDOF 11
ENDMDL
