MODEL 3
REMARK VINA RESULT: -8.671549484      1.904      2.444
REMARK  11 active torsions:
REMARK  status: ('A' for Active; 'I' for Inactive)
REMARK    1  A    between atoms: C1_2  and  C2_4 
REMARK    2  A    between atoms: C2_4  and  C3_5 
REMARK    3  A    between atoms: C3_5  and  C4_6 
REMARK    4  A    between atoms: C4_6  and  N2_7 
REMARK    5  A    between atoms: C4_6  and  C11_25 
REMARK    6  A    between atoms: N2_7  and  C5_10 
REMARK    7  A    between atoms: C5_10  and  C6_11 
REMARK    8  A    between atoms: C6_11  and  O2_12 
REMARK    9  A    between atoms: C8_16  and  O4_17 
REMARK   10  A    between atoms: C9_19  and  O5_20 
REMARK   11  A    between atoms: C10_22  and  O6_23 
ROOT
HETATM    1  C6  UNL     1      12.151  47.362  -1.725  1.00  0.00     0.215 C 
HETATM    2  O3  UNL     1      13.193  46.465  -1.963  1.00  0.00    -0.349 OA
HETATM    3  C7  UNL     1      13.059  45.894  -3.211  1.00  0.00     0.206 C 
HETATM    4  C8  UNL     1      11.827  45.017  -3.205  1.00  0.00     0.173 C 
HETATM    5  C9  UNL     1      11.074  45.147  -1.915  1.00  0.00     0.183 C 
HETATM    6  C10 UNL     1      10.844  46.621  -1.573  1.00  0.00     0.213 C 
ENDROOT
BRANCH   1   7
HETATM    7  C5  UNL     1      12.454  48.102  -0.460  1.00  0.00     0.304 C 
BRANCH   7   8
HETATM    8  N2  UNL     1      12.319  49.510  -0.697  1.00  0.00    -0.056 N 
ATOM      9  H22 UNL     1      11.383  49.751  -1.022  1.00  0.00     0.278 HD
ATOM     10  H21 UNL     1      12.847  49.809  -1.516  1.00  0.00     0.278 HD
BRANCH   8  11
HETATM   11  C4  UNL     1      12.694  50.273   0.505  1.00  0.00     0.286 C 
BRANCH  11  12
HETATM   12  C3  UNL     1      13.403  51.496   0.003  1.00  0.00     0.053 C 
BRANCH  12  13
HETATM   13  C2  UNL     1      12.562  52.723  -0.083  1.00  0.00     0.102 C 
BRANCH  13  14
HETATM   14  C1  UNL     1      13.398  53.860  -0.516  1.00  0.00     0.231 C 
HETATM   15  N1  UNL     1      13.891  53.959  -1.826  1.00  0.00    -0.062 NA
HETATM   16  O1  UNL     1      13.674  54.760   0.306  1.00  0.00    -0.277 OA
ENDBRANCH  13  14
ENDBRANCH  12  13
ENDBRANCH  11  12
BRANCH  11  17
HETATM   17  C11 UNL     1      11.450  50.586   1.237  1.00  0.00     0.204 C 
HETATM   18  O7  UNL     1      10.333  50.092   0.908  1.00  0.00    -0.646 OA
HETATM   19  O8  UNL     1      11.452  51.453   2.339  1.00  0.00    -0.646 OA
ENDBRANCH  11  17
ENDBRANCH   8  11
ENDBRANCH   7   8
ENDBRANCH   1   7
BRANCH   1  20
HETATM   20  O2  UNL     1      12.035  48.283  -2.758  1.00  0.00    -0.362 OA
ATOM     21  H2  UNL     1      12.375  47.890  -3.553  1.00  0.00     0.213 HD
ENDBRANCH   1  20
BRANCH   6  22
HETATM   22  O6  UNL     1       9.855  47.097  -2.423  1.00  0.00    -0.387 OA
ATOM     23  H6  UNL     1       9.112  47.461  -1.956  1.00  0.00     0.210 HD
ENDBRANCH   6  22
BRANCH   5  24
HETATM   24  O5  UNL     1      11.794  44.579  -0.864  1.00  0.00    -0.390 OA
ATOM     25  H5  UNL     1      11.359  43.797  -0.542  1.00  0.00     0.210 HD
ENDBRANCH   5  24
BRANCH   4  26
HETATM   26  O4  UNL     1      12.215  43.697  -3.402  1.00  0.00    -0.391 OA
ATOM     27  H4  UNL     1      11.446  43.140  -3.355  1.00  0.00     0.210 HD
ENDBRANCH   4  26
TORSDOF 11
ENDMDL
