MODEL 8
REMARK VINA RESULT: -7.961960254      3.486      5.830
REMARK  11 active torsions:
REMARK  status: ('A' for Active; 'I' for Inactive)
REMARK    1  A    between atoms: C1_2  and  C2_4 
REMARK    2  A    between atoms: C2_4  and  C3_5 
REMARK    3  A    between atoms: C3_5  and  C4_6 
REMARK    4  A    between atoms: C4_6  and  N2_7 
REMARK    5  A    between atoms: C4_6  and  C11_25 
REMARK    6  A    between atoms: N2_7  and  C5_10 
REMARK    7  A    between atoms: C5_10  and  C6_11 
REMARK    8  A    between atoms: C6_11  and  O2_12 
REMARK    9  A    between atoms: C8_16  and  O4_17 
REMARK   10  A    between atoms: C9_19  and  O5_20 
REMARK   11  A    between atoms: C10_22  and  O6_23 
ROOT
HETATM    1  C6  UNL     1      12.826  46.116  -3.146  1.00  0.00     0.215 C 
HETATM    2  O3  UNL     1      12.197  44.882  -3.308  1.00  0.00    -0.349 OA
HETATM    3  C7  UNL     1      10.904  45.057  -3.756  1.00  0.00     0.206 C 
HETATM    4  C8  UNL     1      10.106  45.723  -2.657  1.00  0.00     0.173 C 
HETATM    5  C9  UNL     1      10.983  46.102  -1.502  1.00  0.00     0.183 C 
HETATM    6  C10 UNL     1      12.213  46.870  -1.990  1.00  0.00     0.213 C 
ENDROOT
BRANCH   1   7
HETATM    7  C5  UNL     1      14.275  45.867  -2.865  1.00  0.00     0.304 C 
BRANCH   7   8
HETATM    8  N2  UNL     1      14.392  44.792  -1.924  1.00  0.00    -0.056 N 
ATOM      9  H22 UNL     1      13.783  44.009  -2.164  1.00  0.00     0.278 HD
ATOM     10  H21 UNL     1      13.982  45.032  -1.021  1.00  0.00     0.278 HD
BRANCH   8  11
HETATM   11  C4  UNL     1      15.797  44.371  -1.793  1.00  0.00     0.286 C 
BRANCH  11  12
HETATM   12  C3  UNL     1      16.474  44.826  -3.051  1.00  0.00     0.053 C 
BRANCH  12  13
HETATM   13  C2  UNL     1      17.857  44.308  -3.247  1.00  0.00     0.102 C 
BRANCH  13  14
HETATM   14  C1  UNL     1      18.789  45.443  -3.401  1.00  0.00     0.231 C 
HETATM   15  N1  UNL     1      19.404  46.050  -2.295  1.00  0.00    -0.062 NA
HETATM   16  O1  UNL     1      19.037  45.875  -4.547  1.00  0.00    -0.277 OA
ENDBRANCH  13  14
ENDBRANCH  12  13
ENDBRANCH  11  12
BRANCH  11  17
HETATM   17  C11 UNL     1      16.340  45.015  -0.579  1.00  0.00     0.204 C 
HETATM   18  O7  UNL     1      15.750  45.976  -0.005  1.00  0.00    -0.646 OA
HETATM   19  O8  UNL     1      17.544  44.585  -0.004  1.00  0.00    -0.646 OA
ENDBRANCH  11  17
ENDBRANCH   8  11
ENDBRANCH   7   8
ENDBRANCH   1   7
BRANCH   1  20
HETATM   20  O2  UNL     1      12.726  46.887  -4.296  1.00  0.00    -0.362 OA
ATOM     21  H2  UNL     1      12.508  47.777  -4.046  1.00  0.00     0.213 HD
ENDBRANCH   1  20
BRANCH   6  22
HETATM   22  O6  UNL     1      11.796  48.146  -2.342  1.00  0.00    -0.387 OA
ATOM     23  H6  UNL     1      12.064  48.808  -1.714  1.00  0.00     0.210 HD
ENDBRANCH   6  22
BRANCH   5  24
HETATM   24  O5  UNL     1      11.435  44.965  -0.831  1.00  0.00    -0.390 OA
ATOM     25  H5  UNL     1      12.312  45.102  -0.492  1.00  0.00     0.210 HD
ENDBRANCH   5  24
BRANCH   4  26
HETATM   26  O4  UNL     1       9.109  44.851  -2.236  1.00  0.00    -0.391 OA
ATOM     27  H4  UNL     1       8.262  45.237  -2.428  1.00  0.00     0.210 HD
ENDBRANCH   4  26
TORSDOF 11
ENDMDL
