MODEL 6
REMARK VINA RESULT: -8.171760763      3.354      6.043
REMARK  11 active torsions:
REMARK  status: ('A' for Active; 'I' for Inactive)
REMARK    1  A    between atoms: C1_2  and  C2_4 
REMARK    2  A    between atoms: C2_4  and  C3_5 
REMARK    3  A    between atoms: C3_5  and  C4_6 
REMARK    4  A    between atoms: C4_6  and  N2_7 
REMARK    5  A    between atoms: C4_6  and  C11_25 
REMARK    6  A    between atoms: N2_7  and  C5_10 
REMARK    7  A    between atoms: C5_10  and  C6_11 
REMARK    8  A    between atoms: C6_11  and  O2_12 
REMARK    9  A    between atoms: C8_16  and  O4_17 
REMARK   10  A    between atoms: C9_19  and  O5_20 
REMARK   11  A    between atoms: C10_22  and  O6_23 
ROOT
HETATM    1  C6  UNL     1      12.008  44.933  -2.358  1.00  0.00     0.215 C 
HETATM    2  O3  UNL     1      11.997  45.293  -1.010  1.00  0.00    -0.349 OA
HETATM    3  C7  UNL     1      10.824  45.948  -0.698  1.00  0.00     0.206 C 
HETATM    4  C8  UNL     1      10.812  47.276  -1.422  1.00  0.00     0.173 C 
HETATM    5  C9  UNL     1      11.989  47.403  -2.342  1.00  0.00     0.183 C 
HETATM    6  C10 UNL     1      12.115  46.162  -3.229  1.00  0.00     0.213 C 
ENDROOT
BRANCH   1   7
HETATM    7  C5  UNL     1      13.194  44.051  -2.593  1.00  0.00     0.304 C 
BRANCH   7   8
HETATM    8  N2  UNL     1      14.321  44.864  -2.944  1.00  0.00    -0.056 N 
ATOM      9  H22 UNL     1      14.215  45.822  -2.611  1.00  0.00     0.278 HD
ATOM     10  H21 UNL     1      14.356  45.053  -3.945  1.00  0.00     0.278 HD
BRANCH   8  11
HETATM   11  C4  UNL     1      15.569  44.252  -2.459  1.00  0.00     0.286 C 
BRANCH  11  12
HETATM   12  C3  UNL     1      16.584  44.493  -3.537  1.00  0.00     0.053 C 
BRANCH  12  13
HETATM   13  C2  UNL     1      17.997  44.229  -3.145  1.00  0.00     0.102 C 
BRANCH  13  14
HETATM   14  C1  UNL     1      18.798  45.453  -3.344  1.00  0.00     0.231 C 
HETATM   15  N1  UNL     1      19.366  46.148  -2.265  1.00  0.00    -0.062 NA
HETATM   16  O1  UNL     1      18.975  45.883  -4.504  1.00  0.00    -0.277 OA
ENDBRANCH  13  14
ENDBRANCH  12  13
ENDBRANCH  11  12
BRANCH  11  17
HETATM   17  C11 UNL     1      15.917  44.907  -1.182  1.00  0.00     0.204 C 
HETATM   18  O7  UNL     1      15.246  45.873  -0.716  1.00  0.00    -0.646 OA
HETATM   19  O8  UNL     1      17.017  44.484  -0.422  1.00  0.00    -0.646 OA
ENDBRANCH  11  17
ENDBRANCH   8  11
ENDBRANCH   7   8
ENDBRANCH   1   7
BRANCH   1  20
HETATM   20  O2  UNL     1      10.860  44.231  -2.701  1.00  0.00    -0.362 OA
ATOM     21  H2  UNL     1      10.160  44.853  -2.856  1.00  0.00     0.213 HD
ENDBRANCH   1  20
BRANCH   6  22
HETATM   22  O6  UNL     1      11.113  46.230  -4.187  1.00  0.00    -0.387 OA
ATOM     23  H6  UNL     1      11.336  45.765  -4.985  1.00  0.00     0.210 HD
ENDBRANCH   6  22
BRANCH   5  24
HETATM   24  O5  UNL     1      13.174  47.522  -1.614  1.00  0.00    -0.390 OA
ATOM     25  H5  UNL     1      13.287  48.412  -1.301  1.00  0.00     0.210 HD
ENDBRANCH   5  24
BRANCH   4  26
HETATM   26  O4  UNL     1      10.826  48.300  -0.482  1.00  0.00    -0.391 OA
ATOM     27  H4  UNL     1      11.727  48.543  -0.306  1.00  0.00     0.210 HD
ENDBRANCH   4  26
TORSDOF 11
ENDMDL
