MODEL 5
REMARK VINA RESULT: -8.538781129      1.278      1.658
REMARK  11 active torsions:
REMARK  status: ('A' for Active; 'I' for Inactive)
REMARK    1  A    between atoms: C1_2  and  C2_4 
REMARK    2  A    between atoms: C2_4  and  C3_5 
REMARK    3  A    between atoms: C3_5  and  C4_6 
REMARK    4  A    between atoms: C4_6  and  N2_7 
REMARK    5  A    between atoms: C4_6  and  C11_25 
REMARK    6  A    between atoms: N2_7  and  C5_10 
REMARK    7  A    between atoms: C5_10  and  C6_11 
REMARK    8  A    between atoms: C6_11  and  O2_12 
REMARK    9  A    between atoms: C8_16  and  O4_17 
REMARK   10  A    between atoms: C9_19  and  O5_20 
REMARK   11  A    between atoms: C10_22  and  O6_23 
ROOT
HETATM    1  C6  UNL     1      12.282  46.542  -2.116  1.00  0.00     0.215 C 
HETATM    2  O3  UNL     1      12.927  45.380  -2.540  1.00  0.00    -0.349 OA
HETATM    3  C7  UNL     1      12.384  44.935  -3.727  1.00  0.00     0.206 C 
HETATM    4  C8  UNL     1      10.966  44.480  -3.462  1.00  0.00     0.173 C 
HETATM    5  C9  UNL     1      10.556  44.776  -2.050  1.00  0.00     0.183 C 
HETATM    6  C10 UNL     1      10.865  46.232  -1.694  1.00  0.00     0.213 C 
ENDROOT
BRANCH   1   7
HETATM    7  C5  UNL     1      13.039  47.095  -0.949  1.00  0.00     0.304 C 
BRANCH   7   8
HETATM    8  N2  UNL     1      13.164  48.515  -1.102  1.00  0.00    -0.056 N 
ATOM      9  H22 UNL     1      12.767  48.838  -1.984  1.00  0.00     0.278 HD
ATOM     10  H21 UNL     1      14.131  48.796  -1.257  1.00  0.00     0.278 HD
BRANCH   8  11
HETATM   11  C4  UNL     1      12.571  49.212   0.052  1.00  0.00     0.286 C 
BRANCH  11  12
HETATM   12  C3  UNL     1      13.263  50.540   0.121  1.00  0.00     0.053 C 
BRANCH  12  13
HETATM   13  C2  UNL     1      12.417  51.669   0.601  1.00  0.00     0.102 C 
BRANCH  13  14
HETATM   14  C1  UNL     1      13.107  52.947   0.336  1.00  0.00     0.231 C 
HETATM   15  N1  UNL     1      13.311  53.420  -0.970  1.00  0.00    -0.062 NA
HETATM   16  O1  UNL     1      13.523  53.626   1.299  1.00  0.00    -0.277 OA
ENDBRANCH  13  14
ENDBRANCH  12  13
ENDBRANCH  11  12
BRANCH  11  17
HETATM   17  C11 UNL     1      11.120  49.328  -0.199  1.00  0.00     0.204 C 
HETATM   18  O7  UNL     1      10.646  49.443  -1.366  1.00  0.00    -0.646 OA
HETATM   19  O8  UNL     1      10.196  49.318   0.855  1.00  0.00    -0.646 OA
ENDBRANCH  11  17
ENDBRANCH   8  11
ENDBRANCH   7   8
ENDBRANCH   1   7
BRANCH   1  20
HETATM   20  O2  UNL     1      12.258  47.500  -3.121  1.00  0.00    -0.362 OA
ATOM     21  H2  UNL     1      11.353  47.697  -3.330  1.00  0.00     0.213 HD
ENDBRANCH   1  20
BRANCH   6  22
HETATM   22  O6  UNL     1       9.927  47.027  -2.339  1.00  0.00    -0.387 OA
ATOM     23  H6  UNL     1      10.288  47.491  -3.086  1.00  0.00     0.210 HD
ENDBRANCH   6  22
BRANCH   5  24
HETATM   24  O5  UNL     1      11.254  43.967  -1.153  1.00  0.00    -0.390 OA
ATOM     25  H5  UNL     1      10.765  43.862  -0.344  1.00  0.00     0.210 HD
ENDBRANCH   5  24
BRANCH   4  26
HETATM   26  O4  UNL     1      10.879  43.115  -3.709  1.00  0.00    -0.391 OA
ATOM     27  H4  UNL     1      11.144  42.644  -2.927  1.00  0.00     0.210 HD
ENDBRANCH   4  26
TORSDOF 11
ENDMDL
