MODEL 9
REMARK VINA RESULT: -7.862972998      4.242      5.665
REMARK  11 active torsions:
REMARK  status: ('A' for Active; 'I' for Inactive)
REMARK    1  A    between atoms: C1_2  and  C2_4 
REMARK    2  A    between atoms: C2_4  and  C3_5 
REMARK    3  A    between atoms: C3_5  and  C4_6 
REMARK    4  A    between atoms: C4_6  and  N2_7 
REMARK    5  A    between atoms: C4_6  and  C11_25 
REMARK    6  A    between atoms: N2_7  and  C5_10 
REMARK    7  A    between atoms: C5_10  and  C6_11 
REMARK    8  A    between atoms: C6_11  and  O2_12 
REMARK    9  A    between atoms: C8_16  and  O4_17 
REMARK   10  A    between atoms: C9_19  and  O5_20 
REMARK   11  A    between atoms: C10_22  and  O6_23 
ROOT
HETATM    1  C6  UNL     1      12.002  44.583  -3.062  1.00  0.00     0.215 C 
HETATM    2  O3  UNL     1      11.025  43.613  -3.288  1.00  0.00    -0.349 OA
HETATM    3  C7  UNL     1      10.158  44.027  -4.277  1.00  0.00     0.206 C 
HETATM    4  C8  UNL     1       9.372  45.210  -3.758  1.00  0.00     0.173 C 
HETATM    5  C9  UNL     1       9.867  45.641  -2.410  1.00  0.00     0.183 C 
HETATM    6  C10 UNL     1      11.389  45.807  -2.424  1.00  0.00     0.213 C 
ENDROOT
BRANCH   1   7
HETATM    7  C5  UNL     1      13.029  44.003  -2.141  1.00  0.00     0.304 C 
BRANCH   7   8
HETATM    8  N2  UNL     1      14.208  43.686  -2.893  1.00  0.00    -0.056 N 
ATOM      9  H22 UNL     1      14.149  44.027  -3.852  1.00  0.00     0.278 HD
ATOM     10  H21 UNL     1      14.274  42.688  -3.091  1.00  0.00     0.278 HD
BRANCH   8  11
HETATM   11  C4  UNL     1      15.409  44.189  -2.206  1.00  0.00     0.286 C 
BRANCH  11  12
HETATM   12  C3  UNL     1      16.491  44.205  -3.244  1.00  0.00     0.053 C 
BRANCH  12  13
HETATM   13  C2  UNL     1      17.881  44.164  -2.708  1.00  0.00     0.102 C 
BRANCH  13  14
HETATM   14  C1  UNL     1      18.626  45.346  -3.187  1.00  0.00     0.231 C 
HETATM   15  N1  UNL     1      19.302  46.202  -2.302  1.00  0.00    -0.062 NA
HETATM   16  O1  UNL     1      18.656  45.592  -4.411  1.00  0.00    -0.277 OA
ENDBRANCH  13  14
ENDBRANCH  12  13
ENDBRANCH  11  12
BRANCH  11  17
HETATM   17  C11 UNL     1      15.090  45.533  -1.684  1.00  0.00     0.204 C 
HETATM   18  O7  UNL     1      15.237  45.834  -0.464  1.00  0.00    -0.646 OA
HETATM   19  O8  UNL     1      14.604  46.544  -2.524  1.00  0.00    -0.646 OA
ENDBRANCH  11  17
ENDBRANCH   8  11
ENDBRANCH   7   8
ENDBRANCH   1   7
BRANCH   1  20
HETATM   20  O2  UNL     1      12.628  44.952  -4.245  1.00  0.00    -0.362 OA
ATOM     21  H2  UNL     1      13.273  45.622  -4.049  1.00  0.00     0.213 HD
ENDBRANCH   1  20
BRANCH   6  22
HETATM   22  O6  UNL     1      11.675  46.975  -3.117  1.00  0.00    -0.387 OA
ATOM     23  H6  UNL     1      12.422  47.441  -2.760  1.00  0.00     0.210 HD
ENDBRANCH   6  22
BRANCH   5  24
HETATM   24  O5  UNL     1       9.557  44.686  -1.441  1.00  0.00    -0.390 OA
ATOM     25  H5  UNL     1       9.715  45.029  -0.568  1.00  0.00     0.210 HD
ENDBRANCH   5  24
BRANCH   4  26
HETATM   26  O4  UNL     1       8.029  44.859  -3.684  1.00  0.00    -0.391 OA
ATOM     27  H4  UNL     1       7.934  43.949  -3.942  1.00  0.00     0.210 HD
ENDBRANCH   4  26
TORSDOF 11
ENDMDL
