MODEL 6
REMARK VINA RESULT: -7.897797132      1.845      2.414
REMARK  16 active torsions:
REMARK  status: ('A' for Active; 'I' for Inactive)
REMARK    1  A    between atoms: C1_2  and  C2_4 
REMARK    2  A    between atoms: C2_4  and  C3_5 
REMARK    3  A    between atoms: C3_5  and  C4_6 
REMARK    4  A    between atoms: C4_6  and  N2_7 
REMARK    5  A    between atoms: C4_6  and  C11_26 
REMARK    6  A    between atoms: N2_7  and  C5_10 
REMARK    7  A    between atoms: C5_10  and  C6_11 
REMARK    8  A    between atoms: C6_11  and  O2_12 
REMARK    9  A    between atoms: C6_11  and  C7_14 
REMARK   10  A    between atoms: C7_14  and  O3_15 
REMARK   11  A    between atoms: C7_14  and  C8_17 
REMARK   12  A    between atoms: C8_17  and  O4_18 
REMARK   13  A    between atoms: C8_17  and  C9_20 
REMARK   14  A    between atoms: C9_20  and  O5_21 
REMARK   15  A    between atoms: C9_20  and  C10_23 
REMARK   16  A    between atoms: C10_23  and  O6_24 
ROOT
HETATM    1  C6  UNL     1      80.888  25.662  -2.348  1.00  0.00     0.175 C 
ENDROOT
BRANCH   1   2
HETATM    2  C5  UNL     1      81.558  25.038  -1.132  1.00  0.00     0.267 C 
BRANCH   2   3
HETATM    3  N2  UNL     1      82.996  25.072  -1.315  1.00  0.00    -0.059 N 
ATOM      4  H22 UNL     1      83.282  25.787  -1.984  1.00  0.00     0.278 HD
ATOM      5  H21 UNL     1      83.339  24.254  -1.818  1.00  0.00     0.278 HD
BRANCH   3   6
HETATM    6  C4  UNL     1      83.647  25.236  -0.021  1.00  0.00     0.286 C 
BRANCH   6   7
HETATM    7  C3  UNL     1      84.955  24.501  -0.060  1.00  0.00     0.053 C 
BRANCH   7   8
HETATM    8  C2  UNL     1      85.996  25.119  -0.924  1.00  0.00     0.102 C 
BRANCH   8   9
HETATM    9  C1  UNL     1      87.081  24.194  -1.291  1.00  0.00     0.231 C 
HETATM   10  N1  UNL     1      87.939  23.696  -0.257  1.00  0.00    -0.062 NA
HETATM   11  O1  UNL     1      87.327  23.796  -2.449  1.00  0.00    -0.277 OA
ENDBRANCH   8   9
ENDBRANCH   7   8
ENDBRANCH   6   7
BRANCH   6  12
HETATM   12  C11 UNL     1      83.800  26.688   0.219  1.00  0.00     0.204 C 
HETATM   13  O7  UNL     1      84.747  27.134   0.913  1.00  0.00    -0.646 OA
HETATM   14  O8  UNL     1      82.909  27.623  -0.309  1.00  0.00    -0.646 OA
ENDBRANCH   6  12
ENDBRANCH   3   6
ENDBRANCH   2   3
ENDBRANCH   1   2
BRANCH   1  15
HETATM   15  O2  UNL     1      81.760  26.517  -3.015  1.00  0.00    -0.391 OA
ATOM     16  H2  UNL     1      81.320  27.318  -3.275  1.00  0.00     0.210 HD
ENDBRANCH   1  15
BRANCH   1  17
HETATM   17  C7  UNL     1      79.643  26.361  -1.881  1.00  0.00     0.179 C 
BRANCH  17  18
HETATM   18  O3  UNL     1      79.934  27.612  -1.389  1.00  0.00    -0.390 OA
ATOM     19  H3  UNL     1      79.657  27.696  -0.484  1.00  0.00     0.210 HD
ENDBRANCH  17  18
BRANCH  17  20
HETATM   20  C8  UNL     1      78.564  26.404  -2.907  1.00  0.00     0.180 C 
BRANCH  20  21
HETATM   21  O4  UNL     1      78.981  25.747  -4.082  1.00  0.00    -0.390 OA
ATOM     22  H4  UNL     1      79.042  26.365  -4.801  1.00  0.00     0.210 HD
ENDBRANCH  20  21
BRANCH  20  23
HETATM   23  C9  UNL     1      78.038  27.792  -3.180  1.00  0.00     0.173 C 
BRANCH  23  24
HETATM   24  O5  UNL     1      76.641  27.721  -3.238  1.00  0.00    -0.391 OA
ATOM     25  H5  UNL     1      76.371  26.919  -2.806  1.00  0.00     0.210 HD
ENDBRANCH  23  24
BRANCH  23  26
HETATM   26  C10 UNL     1      78.604  28.419  -4.430  1.00  0.00     0.198 C 
BRANCH  26  27
HETATM   27  O6  UNL     1      79.977  28.455  -4.442  1.00  0.00    -0.398 OA
ATOM     28  H6  UNL     1      80.330  28.982  -5.148  1.00  0.00     0.209 HD
ENDBRANCH  26  27
ENDBRANCH  23  26
ENDBRANCH  20  23
ENDBRANCH  17  20
ENDBRANCH   1  17
TORSDOF 16
ENDMDL
