MODEL 13
REMARK VINA RESULT: -7.416600644      3.481      6.759
REMARK  16 active torsions:
REMARK  status: ('A' for Active; 'I' for Inactive)
REMARK    1  A    between atoms: C1_2  and  C2_4 
REMARK    2  A    between atoms: C2_4  and  C3_5 
REMARK    3  A    between atoms: C3_5  and  C4_6 
REMARK    4  A    between atoms: C4_6  and  N2_7 
REMARK    5  A    between atoms: C4_6  and  C11_26 
REMARK    6  A    between atoms: N2_7  and  C5_10 
REMARK    7  A    between atoms: C5_10  and  C6_11 
REMARK    8  A    between atoms: C6_11  and  O2_12 
REMARK    9  A    between atoms: C6_11  and  C7_14 
REMARK   10  A    between atoms: C7_14  and  O3_15 
REMARK   11  A    between atoms: C7_14  and  C8_17 
REMARK   12  A    between atoms: C8_17  and  O4_18 
REMARK   13  A    between atoms: C8_17  and  C9_20 
REMARK   14  A    between atoms: C9_20  and  O5_21 
REMARK   15  A    between atoms: C9_20  and  C10_23 
REMARK   16  A    between atoms: C10_23  and  O6_24 
ROOT
HETATM    1  C6  UNL     1      77.830  24.006  -3.344  1.00  0.00     0.175 C 
ENDROOT
BRANCH   1   2
HETATM    2  C5  UNL     1      78.768  24.621  -2.316  1.00  0.00     0.267 C 
BRANCH   2   3
HETATM    3  N2  UNL     1      78.744  26.064  -2.457  1.00  0.00    -0.059 N 
ATOM      4  H22 UNL     1      78.692  26.538  -1.556  1.00  0.00     0.278 HD
ATOM      5  H21 UNL     1      77.864  26.397  -2.850  1.00  0.00     0.278 HD
BRANCH   3   6
HETATM    6  C4  UNL     1      79.895  26.495  -3.242  1.00  0.00     0.286 C 
BRANCH   6   7
HETATM    7  C3  UNL     1      79.388  27.143  -4.497  1.00  0.00     0.053 C 
BRANCH   7   8
HETATM    8  C2  UNL     1      78.514  28.327  -4.283  1.00  0.00     0.102 C 
BRANCH   8   9
HETATM    9  C1  UNL     1      77.145  28.149  -4.796  1.00  0.00     0.231 C 
HETATM   10  N1  UNL     1      76.179  27.495  -3.964  1.00  0.00    -0.062 NA
HETATM   11  O1  UNL     1      76.742  28.523  -5.918  1.00  0.00    -0.277 OA
ENDBRANCH   8   9
ENDBRANCH   7   8
ENDBRANCH   6   7
BRANCH   6  12
HETATM   12  C11 UNL     1      80.693  27.409  -2.395  1.00  0.00     0.204 C 
HETATM   13  O7  UNL     1      81.875  27.705  -2.696  1.00  0.00    -0.646 OA
HETATM   14  O8  UNL     1      80.175  27.982  -1.232  1.00  0.00    -0.646 OA
ENDBRANCH   6  12
ENDBRANCH   3   6
ENDBRANCH   2   3
ENDBRANCH   1   2
BRANCH   1  15
HETATM   15  O2  UNL     1      76.648  24.733  -3.440  1.00  0.00    -0.391 OA
ATOM     16  H2  UNL     1      75.891  24.159  -3.415  1.00  0.00     0.210 HD
ENDBRANCH   1  15
BRANCH   1  17
HETATM   17  C7  UNL     1      77.594  22.574  -2.954  1.00  0.00     0.179 C 
BRANCH  17  18
HETATM   18  O3  UNL     1      76.404  22.436  -2.277  1.00  0.00    -0.390 OA
ATOM     19  H3  UNL     1      75.684  22.808  -2.773  1.00  0.00     0.210 HD
ENDBRANCH  17  18
BRANCH  17  20
HETATM   20  C8  UNL     1      77.697  21.621  -4.096  1.00  0.00     0.180 C 
BRANCH  20  21
HETATM   21  O4  UNL     1      76.580  21.755  -4.945  1.00  0.00    -0.390 OA
ATOM     22  H4  UNL     1      76.008  21.002  -4.857  1.00  0.00     0.210 HD
ENDBRANCH  20  21
BRANCH  20  23
HETATM   23  C9  UNL     1      77.933  20.191  -3.676  1.00  0.00     0.173 C 
BRANCH  23  24
HETATM   24  O5  UNL     1      78.354  20.197  -2.342  1.00  0.00    -0.391 OA
ATOM     25  H5  UNL     1      78.730  19.346  -2.150  1.00  0.00     0.210 HD
ENDBRANCH  23  24
BRANCH  23  26
HETATM   26  C10 UNL     1      78.916  19.457  -4.554  1.00  0.00     0.198 C 
BRANCH  26  27
HETATM   27  O6  UNL     1      80.074  20.163  -4.776  1.00  0.00    -0.398 OA
ATOM     28  H6  UNL     1      80.180  20.432  -5.681  1.00  0.00     0.209 HD
ENDBRANCH  26  27
ENDBRANCH  23  26
ENDBRANCH  20  23
ENDBRANCH  17  20
ENDBRANCH   1  17
TORSDOF 16
ENDMDL
