MODEL 7
REMARK VINA RESULT: -7.894535725      2.079      2.629
REMARK  16 active torsions:
REMARK  status: ('A' for Active; 'I' for Inactive)
REMARK    1  A    between atoms: C1_2  and  C2_4 
REMARK    2  A    between atoms: C2_4  and  C3_5 
REMARK    3  A    between atoms: C3_5  and  C4_6 
REMARK    4  A    between atoms: C4_6  and  N2_7 
REMARK    5  A    between atoms: C4_6  and  C11_26 
REMARK    6  A    between atoms: N2_7  and  C5_10 
REMARK    7  A    between atoms: C5_10  and  C6_11 
REMARK    8  A    between atoms: C6_11  and  O2_12 
REMARK    9  A    between atoms: C6_11  and  C7_14 
REMARK   10  A    between atoms: C7_14  and  O3_15 
REMARK   11  A    between atoms: C7_14  and  C8_17 
REMARK   12  A    between atoms: C8_17  and  O4_18 
REMARK   13  A    between atoms: C8_17  and  C9_20 
REMARK   14  A    between atoms: C9_20  and  O5_21 
REMARK   15  A    between atoms: C9_20  and  C10_23 
REMARK   16  A    between atoms: C10_23  and  O6_24 
ROOT
HETATM    1  C6  UNL     1      80.865  25.784  -2.167  1.00  0.00     0.175 C 
ENDROOT
BRANCH   1   2
HETATM    2  C5  UNL     1      81.693  25.036  -1.132  1.00  0.00     0.267 C 
BRANCH   2   3
HETATM    3  N2  UNL     1      83.071  25.477  -1.221  1.00  0.00    -0.059 N 
ATOM      4  H22 UNL     1      83.145  26.458  -1.491  1.00  0.00     0.278 HD
ATOM      5  H21 UNL     1      83.555  25.069  -2.021  1.00  0.00     0.278 HD
BRANCH   3   6
HETATM    6  C4  UNL     1      83.754  25.198   0.036  1.00  0.00     0.286 C 
BRANCH   6   7
HETATM    7  C3  UNL     1      84.947  24.337  -0.261  1.00  0.00     0.053 C 
BRANCH   7   8
HETATM    8  C2  UNL     1      86.081  25.042  -0.916  1.00  0.00     0.102 C 
BRANCH   8   9
HETATM    9  C1  UNL     1      87.231  24.168  -1.200  1.00  0.00     0.231 C 
HETATM   10  N1  UNL     1      87.404  23.672  -2.534  1.00  0.00    -0.062 NA
HETATM   11  O1  UNL     1      88.089  23.811  -0.365  1.00  0.00    -0.277 OA
ENDBRANCH   8   9
ENDBRANCH   7   8
ENDBRANCH   6   7
BRANCH   6  12
HETATM   12  C11 UNL     1      84.109  26.498   0.647  1.00  0.00     0.204 C 
HETATM   13  O7  UNL     1      85.022  26.583   1.504  1.00  0.00    -0.646 OA
HETATM   14  O8  UNL     1      83.454  27.681   0.302  1.00  0.00    -0.646 OA
ENDBRANCH   6  12
ENDBRANCH   3   6
ENDBRANCH   2   3
ENDBRANCH   1   2
BRANCH   1  15
HETATM   15  O2  UNL     1      81.675  26.325  -3.160  1.00  0.00    -0.391 OA
ATOM     16  H2  UNL     1      81.786  27.260  -3.038  1.00  0.00     0.210 HD
ENDBRANCH   1  15
BRANCH   1  17
HETATM   17  C7  UNL     1      80.062  26.831  -1.447  1.00  0.00     0.179 C 
BRANCH  17  18
HETATM   18  O3  UNL     1      80.875  27.832  -0.967  1.00  0.00    -0.390 OA
ATOM     19  H3  UNL     1      81.611  27.982  -1.548  1.00  0.00     0.210 HD
ENDBRANCH  17  18
BRANCH  17  20
HETATM   20  C8  UNL     1      78.930  27.372  -2.251  1.00  0.00     0.180 C 
BRANCH  20  21
HETATM   21  O4  UNL     1      78.796  26.648  -3.453  1.00  0.00    -0.390 OA
ATOM     22  H4  UNL     1      79.473  26.903  -4.069  1.00  0.00     0.210 HD
ENDBRANCH  20  21
BRANCH  20  23
HETATM   23  C9  UNL     1      79.004  28.861  -2.482  1.00  0.00     0.173 C 
BRANCH  23  24
HETATM   24  O5  UNL     1      78.402  29.497  -1.391  1.00  0.00    -0.391 OA
ATOM     25  H5  UNL     1      79.085  29.916  -0.882  1.00  0.00     0.210 HD
ENDBRANCH  23  24
BRANCH  23  26
HETATM   26  C10 UNL     1      78.381  29.304  -3.783  1.00  0.00     0.198 C 
BRANCH  26  27
HETATM   27  O6  UNL     1      78.611  30.628  -4.069  1.00  0.00    -0.398 OA
ATOM     28  H6  UNL     1      77.814  31.139  -4.139  1.00  0.00     0.209 HD
ENDBRANCH  26  27
ENDBRANCH  23  26
ENDBRANCH  20  23
ENDBRANCH  17  20
ENDBRANCH   1  17
TORSDOF 16
ENDMDL
