MODEL 2
REMARK VINA RESULT: -8.065324293      1.860      2.371
REMARK  16 active torsions:
REMARK  status: ('A' for Active; 'I' for Inactive)
REMARK    1  A    between atoms: C1_2  and  C2_4 
REMARK    2  A    between atoms: C2_4  and  C3_5 
REMARK    3  A    between atoms: C3_5  and  C4_6 
REMARK    4  A    between atoms: C4_6  and  N2_7 
REMARK    5  A    between atoms: C4_6  and  C11_26 
REMARK    6  A    between atoms: N2_7  and  C5_10 
REMARK    7  A    between atoms: C5_10  and  C6_11 
REMARK    8  A    between atoms: C6_11  and  O2_12 
REMARK    9  A    between atoms: C6_11  and  C7_14 
REMARK   10  A    between atoms: C7_14  and  O3_15 
REMARK   11  A    between atoms: C7_14  and  C8_17 
REMARK   12  A    between atoms: C8_17  and  O4_18 
REMARK   13  A    between atoms: C8_17  and  C9_20 
REMARK   14  A    between atoms: C9_20  and  O5_21 
REMARK   15  A    between atoms: C9_20  and  C10_23 
REMARK   16  A    between atoms: C10_23  and  O6_24 
ROOT
HETATM    1  C6  UNL     1      80.589  25.421  -1.695  1.00  0.00     0.175 C 
ENDROOT
BRANCH   1   2
HETATM    2  C5  UNL     1      81.751  24.718  -1.008  1.00  0.00     0.267 C 
BRANCH   2   3
HETATM    3  N2  UNL     1      82.916  25.579  -1.050  1.00  0.00    -0.059 N 
ATOM      4  H22 UNL     1      82.664  26.566  -1.105  1.00  0.00     0.278 HD
ATOM      5  H21 UNL     1      83.417  25.507  -1.936  1.00  0.00     0.278 HD
BRANCH   3   6
HETATM    6  C4  UNL     1      83.775  25.293   0.092  1.00  0.00     0.286 C 
BRANCH   6   7
HETATM    7  C3  UNL     1      84.866  24.368  -0.363  1.00  0.00     0.053 C 
BRANCH   7   8
HETATM    8  C2  UNL     1      86.026  25.037  -1.010  1.00  0.00     0.102 C 
BRANCH   8   9
HETATM    9  C1  UNL     1      87.180  24.146  -1.216  1.00  0.00     0.231 C 
HETATM   10  N1  UNL     1      87.396  23.591  -2.519  1.00  0.00    -0.062 NA
HETATM   11  O1  UNL     1      88.005  23.822  -0.336  1.00  0.00    -0.277 OA
ENDBRANCH   8   9
ENDBRANCH   7   8
ENDBRANCH   6   7
BRANCH   6  12
HETATM   12  C11 UNL     1      84.282  26.585   0.603  1.00  0.00     0.204 C 
HETATM   13  O7  UNL     1      83.682  27.660   0.356  1.00  0.00    -0.646 OA
HETATM   14  O8  UNL     1      85.439  26.672   1.379  1.00  0.00    -0.646 OA
ENDBRANCH   6  12
ENDBRANCH   3   6
ENDBRANCH   2   3
ENDBRANCH   1   2
BRANCH   1  15
HETATM   15  O2  UNL     1      80.056  24.632  -2.709  1.00  0.00    -0.391 OA
ATOM     16  H2  UNL     1      79.124  24.786  -2.807  1.00  0.00     0.210 HD
ENDBRANCH   1  15
BRANCH   1  17
HETATM   17  C7  UNL     1      81.085  26.747  -2.199  1.00  0.00     0.179 C 
BRANCH  17  18
HETATM   18  O3  UNL     1      81.944  26.582  -3.260  1.00  0.00    -0.390 OA
ATOM     19  H3  UNL     1      82.821  26.873  -3.038  1.00  0.00     0.210 HD
ENDBRANCH  17  18
BRANCH  17  20
HETATM   20  C8  UNL     1      79.993  27.712  -2.512  1.00  0.00     0.180 C 
BRANCH  20  21
HETATM   21  O4  UNL     1      78.796  27.315  -1.881  1.00  0.00    -0.390 OA
ATOM     22  H4  UNL     1      78.047  27.580  -2.402  1.00  0.00     0.210 HD
ENDBRANCH  20  21
BRANCH  20  23
HETATM   23  C9  UNL     1      79.809  27.965  -3.988  1.00  0.00     0.173 C 
BRANCH  23  24
HETATM   24  O5  UNL     1      79.979  29.336  -4.214  1.00  0.00    -0.391 OA
ATOM     25  H5  UNL     1      80.720  29.446  -4.798  1.00  0.00     0.210 HD
ENDBRANCH  23  24
BRANCH  23  26
HETATM   26  C10 UNL     1      78.484  27.485  -4.524  1.00  0.00     0.198 C 
BRANCH  26  27
HETATM   27  O6  UNL     1      78.411  26.117  -4.637  1.00  0.00    -0.398 OA
ATOM     28  H6  UNL     1      78.948  25.772  -5.340  1.00  0.00     0.209 HD
ENDBRANCH  26  27
ENDBRANCH  23  26
ENDBRANCH  20  23
ENDBRANCH  17  20
ENDBRANCH   1  17
TORSDOF 16
ENDMDL
