MODEL 5
REMARK VINA RESULT: -7.730932827      3.753      8.080
REMARK  16 active torsions:
REMARK  status: ('A' for Active; 'I' for Inactive)
REMARK    1  A    between atoms: C1_2  and  C2_4 
REMARK    2  A    between atoms: C2_4  and  C3_5 
REMARK    3  A    between atoms: C3_5  and  C4_6 
REMARK    4  A    between atoms: C4_6  and  N2_7 
REMARK    5  A    between atoms: C4_6  and  C11_26 
REMARK    6  A    between atoms: N2_7  and  C5_10 
REMARK    7  A    between atoms: C5_10  and  C6_11 
REMARK    8  A    between atoms: C6_11  and  O2_12 
REMARK    9  A    between atoms: C6_11  and  C7_14 
REMARK   10  A    between atoms: C7_14  and  O3_15 
REMARK   11  A    between atoms: C7_14  and  C8_17 
REMARK   12  A    between atoms: C8_17  and  O4_18 
REMARK   13  A    between atoms: C8_17  and  C9_20 
REMARK   14  A    between atoms: C9_20  and  O5_21 
REMARK   15  A    between atoms: C9_20  and  C10_23 
REMARK   16  A    between atoms: C10_23  and  O6_24 
ROOT
HETATM    1  C6  UNL     1      41.717 -63.856  34.407  1.00  0.00     0.175 C 
ENDROOT
BRANCH   1   2
HETATM    2  C5  UNL     1      42.668 -63.435  35.518  1.00  0.00     0.267 C 
BRANCH   2   3
HETATM    3  N2  UNL     1      44.031 -63.705  35.101  1.00  0.00    -0.059 N 
ATOM      4  H22 UNL     1      44.078 -64.437  34.391  1.00  0.00     0.278 HD
ATOM      5  H21 UNL     1      44.571 -64.172  35.829  1.00  0.00     0.278 HD
BRANCH   3   6
HETATM    6  C4  UNL     1      44.659 -62.467  34.657  1.00  0.00     0.286 C 
BRANCH   6   7
HETATM    7  C3  UNL     1      45.570 -61.988  35.750  1.00  0.00     0.053 C 
BRANCH   7   8
HETATM    8  C2  UNL     1      45.640 -60.510  35.904  1.00  0.00     0.102 C 
BRANCH   8   9
HETATM    9  C1  UNL     1      46.066 -60.079  37.246  1.00  0.00     0.231 C 
HETATM   10  N1  UNL     1      45.335 -59.031  37.896  1.00  0.00    -0.062 NA
HETATM   11  O1  UNL     1      47.030 -60.554  37.884  1.00  0.00    -0.277 OA
ENDBRANCH   8   9
ENDBRANCH   7   8
ENDBRANCH   6   7
BRANCH   6  12
HETATM   12  C11 UNL     1      45.367 -62.756  33.391  1.00  0.00     0.204 C 
HETATM   13  O7  UNL     1      46.222 -61.960  32.930  1.00  0.00    -0.646 OA
HETATM   14  O8  UNL     1      45.124 -63.917  32.656  1.00  0.00    -0.646 OA
ENDBRANCH   6  12
ENDBRANCH   3   6
ENDBRANCH   2   3
ENDBRANCH   1   2
BRANCH   1  15
HETATM   15  O2  UNL     1      40.477 -63.243  34.552  1.00  0.00    -0.391 OA
ATOM     16  H2  UNL     1      40.075 -63.081  33.707  1.00  0.00     0.210 HD
ENDBRANCH   1  15
BRANCH   1  17
HETATM   17  C7  UNL     1      41.622 -65.356  34.425  1.00  0.00     0.179 C 
BRANCH  17  18
HETATM   18  O3  UNL     1      40.349 -65.766  34.745  1.00  0.00    -0.390 OA
ATOM     19  H3  UNL     1      40.191 -65.690  35.679  1.00  0.00     0.210 HD
ENDBRANCH  17  18
BRANCH  17  20
HETATM   20  C8  UNL     1      42.116 -65.998  33.174  1.00  0.00     0.180 C 
BRANCH  20  21
HETATM   21  O4  UNL     1      42.688 -65.032  32.322  1.00  0.00    -0.390 OA
ATOM     22  H4  UNL     1      43.523 -65.340  31.990  1.00  0.00     0.210 HD
ENDBRANCH  20  21
BRANCH  20  23
HETATM   23  C9  UNL     1      41.080 -66.842  32.473  1.00  0.00     0.173 C 
BRANCH  23  24
HETATM   24  O5  UNL     1      41.725 -67.964  31.941  1.00  0.00    -0.391 OA
ATOM     25  H5  UNL     1      42.045 -67.735  31.076  1.00  0.00     0.210 HD
ENDBRANCH  23  24
BRANCH  23  26
HETATM   26  C10 UNL     1      40.313 -66.098  31.408  1.00  0.00     0.198 C 
BRANCH  26  27
HETATM   27  O6  UNL     1      39.611 -65.024  31.898  1.00  0.00    -0.398 OA
ATOM     28  H6  UNL     1      38.928 -65.272  32.510  1.00  0.00     0.209 HD
ENDBRANCH  26  27
ENDBRANCH  23  26
ENDBRANCH  20  23
ENDBRANCH  17  20
ENDBRANCH   1  17
TORSDOF 16
ENDMDL
