MODEL 6
REMARK VINA RESULT: -7.689946173      2.434      6.807
REMARK  16 active torsions:
REMARK  status: ('A' for Active; 'I' for Inactive)
REMARK    1  A    between atoms: C1_2  and  C2_4 
REMARK    2  A    between atoms: C2_4  and  C3_5 
REMARK    3  A    between atoms: C3_5  and  C4_6 
REMARK    4  A    between atoms: C4_6  and  N2_7 
REMARK    5  A    between atoms: C4_6  and  C11_26 
REMARK    6  A    between atoms: N2_7  and  C5_10 
REMARK    7  A    between atoms: C5_10  and  C6_11 
REMARK    8  A    between atoms: C6_11  and  O2_12 
REMARK    9  A    between atoms: C6_11  and  C7_14 
REMARK   10  A    between atoms: C7_14  and  O3_15 
REMARK   11  A    between atoms: C7_14  and  C8_17 
REMARK   12  A    between atoms: C8_17  and  O4_18 
REMARK   13  A    between atoms: C8_17  and  C9_20 
REMARK   14  A    between atoms: C9_20  and  O5_21 
REMARK   15  A    between atoms: C9_20  and  C10_23 
REMARK   16  A    between atoms: C10_23  and  O6_24 
ROOT
HETATM    1  C6  UNL     1      44.211 -71.380  32.008  1.00  0.00     0.175 C 
ENDROOT
BRANCH   1   2
HETATM    2  C5  UNL     1      43.070 -71.222  31.013  1.00  0.00     0.267 C 
BRANCH   2   3
HETATM    3  N2  UNL     1      42.932 -69.820  30.670  1.00  0.00    -0.059 N 
ATOM      4  H22 UNL     1      42.875 -69.675  29.662  1.00  0.00     0.278 HD
ATOM      5  H21 UNL     1      43.789 -69.295  30.846  1.00  0.00     0.278 HD
BRANCH   3   6
HETATM    6  C4  UNL     1      41.787 -69.257  31.374  1.00  0.00     0.286 C 
BRANCH   6   7
HETATM    7  C3  UNL     1      41.492 -67.909  30.784  1.00  0.00     0.053 C 
BRANCH   7   8
HETATM    8  C2  UNL     1      40.644 -67.027  31.628  1.00  0.00     0.102 C 
BRANCH   8   9
HETATM    9  C1  UNL     1      41.408 -66.007  32.366  1.00  0.00     0.231 C 
HETATM   10  N1  UNL     1      41.260 -64.632  31.989  1.00  0.00    -0.062 NA
HETATM   11  O1  UNL     1      42.192 -66.237  33.310  1.00  0.00    -0.277 OA
ENDBRANCH   8   9
ENDBRANCH   7   8
ENDBRANCH   6   7
BRANCH   6  12
HETATM   12  C11 UNL     1      40.665 -70.213  31.234  1.00  0.00     0.204 C 
HETATM   13  O7  UNL     1      40.000 -70.582  32.233  1.00  0.00    -0.646 OA
HETATM   14  O8  UNL     1      40.295 -70.743  29.998  1.00  0.00    -0.646 OA
ENDBRANCH   6  12
ENDBRANCH   3   6
ENDBRANCH   2   3
ENDBRANCH   1   2
BRANCH   1  15
HETATM   15  O2  UNL     1      43.909 -70.760  33.217  1.00  0.00    -0.391 OA
ATOM     16  H2  UNL     1      43.090 -70.281  33.159  1.00  0.00     0.210 HD
ENDBRANCH   1  15
BRANCH   1  17
HETATM   17  C7  UNL     1      45.456 -70.828  31.374  1.00  0.00     0.179 C 
BRANCH  17  18
HETATM   18  O3  UNL     1      46.468 -70.708  32.298  1.00  0.00    -0.390 OA
ATOM     19  H3  UNL     1      47.315 -70.872  31.899  1.00  0.00     0.210 HD
ENDBRANCH  17  18
BRANCH  17  20
HETATM   20  C8  UNL     1      45.893 -71.581  30.165  1.00  0.00     0.180 C 
BRANCH  20  21
HETATM   21  O4  UNL     1      46.936 -72.470  30.494  1.00  0.00    -0.390 OA
ATOM     22  H4  UNL     1      46.999 -73.159  29.843  1.00  0.00     0.210 HD
ENDBRANCH  20  21
BRANCH  20  23
HETATM   23  C9  UNL     1      46.237 -70.699  28.990  1.00  0.00     0.173 C 
BRANCH  23  24
HETATM   24  O5  UNL     1      45.388 -69.587  29.021  1.00  0.00    -0.391 OA
ATOM     25  H5  UNL     1      45.803 -68.888  28.530  1.00  0.00     0.210 HD
ENDBRANCH  23  24
BRANCH  23  26
HETATM   26  C10 UNL     1      46.160 -71.406  27.660  1.00  0.00     0.198 C 
BRANCH  26  27
HETATM   27  O6  UNL     1      45.267 -70.827  26.791  1.00  0.00    -0.398 OA
ATOM     28  H6  UNL     1      44.820 -70.076  27.162  1.00  0.00     0.209 HD
ENDBRANCH  26  27
ENDBRANCH  23  26
ENDBRANCH  20  23
ENDBRANCH  17  20
ENDBRANCH   1  17
TORSDOF 16
ENDMDL
