MODEL 3
REMARK VINA RESULT: -9.926656061      2.016      5.820
REMARK  11 active torsions:
REMARK  status: ('A' for Active; 'I' for Inactive)
REMARK    1  A    between atoms: O1_2  and  C2_3 
REMARK    2  A    between atoms: C5_6  and  C6_7 
REMARK    3  A    between atoms: N2_10  and  C7_11 
REMARK    4  A    between atoms: C22_27  and  O3_28 
REMARK    5  A    between atoms: O3_28  and  C23_29 
REMARK    6  A    between atoms: C23_29  and  C24_30 
REMARK    7  A    between atoms: C24_30  and  C25_31 
REMARK    8  A    between atoms: C25_31  and  C26_32 
REMARK    9  A    between atoms: C26_32  and  O4_33 
REMARK   10  A    between atoms: O4_33  and  C27_34 
REMARK   11  A    between atoms: C30_37  and  C31_38 
ROOT
HETATM    1  C2  UNL     1       2.688 -42.578   6.759  1.00  0.00     0.101 A 
HETATM    2  C3  UNL     1       3.527 -42.088   5.783  1.00  0.00     0.040 A 
HETATM    3  C4  UNL     1       3.101 -41.016   5.026  1.00  0.00     0.016 A 
HETATM    4  C5  UNL     1       1.872 -40.412   5.201  1.00  0.00    -0.009 A 
HETATM    5  C21 UNL     1       1.058 -40.919   6.179  1.00  0.00     0.053 A 
HETATM    6  C22 UNL     1       1.425 -42.013   6.992  1.00  0.00     0.102 A 
ENDROOT
BRANCH   6   7
HETATM    7  O3  UNL     1       0.655 -42.492   7.915  1.00  0.00    -0.348 OA
BRANCH   7   8
HETATM    8  C23 UNL     1       0.072 -42.566   9.090  1.00  0.00     0.176 C 
BRANCH   8   9
HETATM    9  C24 UNL     1      -1.194 -41.715   9.135  1.00  0.00     0.029 C 
BRANCH   9  10
HETATM   10  C25 UNL     1      -0.811 -40.279   9.540  1.00  0.00     0.029 C 
BRANCH  10  11
HETATM   11  C26 UNL     1      -2.068 -39.548   9.858  1.00  0.00     0.175 C 
BRANCH  11  12
HETATM   12  O4  UNL     1      -1.839 -38.292  10.343  1.00  0.00    -0.351 OA
BRANCH  12  13
HETATM   13  C27 UNL     1      -1.017 -37.302   9.906  1.00  0.00     0.068 A 
HETATM   14  C28 UNL     1       0.046 -36.802  10.618  1.00  0.00     0.037 A 
HETATM   15  C29 UNL     1       0.826 -35.777  10.079  1.00  0.00     0.018 A 
HETATM   16  C30 UNL     1       0.583 -35.228   8.842  1.00  0.00     0.011 A 
HETATM   17  C32 UNL     1      -0.482 -35.730   8.126  1.00  0.00     0.018 A 
HETATM   18  C33 UNL     1      -1.256 -36.733   8.641  1.00  0.00     0.037 A 
BRANCH  16  19
HETATM   19  C31 UNL     1       1.398 -34.161   8.289  1.00  0.00     0.147 A 
HETATM   20  N3  UNL     1       1.305 -33.553   7.093  1.00  0.00    -0.268 N 
HETATM   21  N4  UNL     1       2.275 -32.643   7.060  1.00  0.00    -0.227 N 
ATOM     22  H3  UNL     1       0.626 -33.750   6.358  1.00  0.00     0.190 HD
HETATM   23  N5  UNL     1       2.963 -32.650   8.162  1.00  0.00    -0.227 N 
ATOM     24  H4  UNL     1       2.455 -32.020   6.273  1.00  0.00     0.210 HD
HETATM   25  N6  UNL     1       2.431 -33.592   8.943  1.00  0.00    -0.268 N 
ATOM     26  H5  UNL     1       3.757 -32.051   8.387  1.00  0.00     0.210 HD
ATOM     27  H6  UNL     1       2.752 -33.839   9.880  1.00  0.00     0.190 HD
ENDBRANCH  16  19
ENDBRANCH  12  13
ENDBRANCH  11  12
ENDBRANCH  10  11
ENDBRANCH   9  10
ENDBRANCH   8   9
ENDBRANCH   7   8
ENDBRANCH   6   7
BRANCH   1  28
HETATM   28  O1  UNL     1       3.030 -43.651   7.569  1.00  0.00    -0.353 OA
HETATM   29  C1  UNL     1       4.036 -43.450   8.542  1.00  0.00     0.210 C 
ENDBRANCH   1  28
BRANCH   4  30
HETATM   30  C6  UNL     1       1.465 -39.273   4.342  1.00  0.00     0.041 C 
HETATM   31  N1  UNL     1       0.749 -38.328   4.841  1.00  0.00    -0.298 N 
HETATM   32  N2  UNL     1       0.309 -37.212   4.134  1.00  0.00    -0.256 N 
ATOM     33  H1  UNL     1       0.484 -38.401   5.823  1.00  0.00     0.187 HD
HETATM   34  C14 UNL     1       0.699 -37.150   2.771  1.00  0.00     0.243 C 
HETATM   35  O2  UNL     1       0.032 -36.509   1.940  1.00  0.00    -0.271 OA
HETATM   36  C15 UNL     1       1.921 -37.868   2.368  1.00  0.00     0.093 C 
HETATM   37  C16 UNL     1       1.953 -37.900   0.847  1.00  0.00     0.041 C 
HETATM   38  C20 UNL     1       1.918 -39.262   2.926  1.00  0.00     0.055 C 
HETATM   39  C17 UNL     1       0.640 -38.456   0.440  1.00  0.00    -0.030 C 
HETATM   40  C18 UNL     1       0.230 -39.541   1.079  1.00  0.00    -0.030 C 
HETATM   41  C19 UNL     1       1.038 -40.152   2.133  1.00  0.00     0.038 C 
BRANCH  32  42
HETATM   42  C7  UNL     1      -0.499 -36.146   4.725  1.00  0.00     0.111 C 
HETATM   43  C8  UNL     1      -0.528 -34.893   3.888  1.00  0.00     0.027 C 
HETATM   44  C9  UNL     1      -1.367 -33.870   4.622  1.00  0.00     0.002 C 
HETATM   45  C10 UNL     1      -2.843 -34.085   4.434  1.00  0.00     0.000 C 
HETATM   46  C11 UNL     1      -3.139 -35.067   3.327  1.00  0.00     0.000 C 
HETATM   47  C12 UNL     1      -2.663 -36.462   3.612  1.00  0.00     0.002 C 
HETATM   48  C13 UNL     1      -1.912 -36.633   4.888  1.00  0.00     0.027 C 
ENDBRANCH  32  42
ENDBRANCH   4  30
TORSDOF 11
ENDMDL
