MODEL 2
REMARK VINA RESULT: -9.933943513      1.958      2.859
REMARK  11 active torsions:
REMARK  status: ('A' for Active; 'I' for Inactive)
REMARK    1  A    between atoms: O1_2  and  C2_3 
REMARK    2  A    between atoms: C5_6  and  C6_7 
REMARK    3  A    between atoms: N2_10  and  C7_11 
REMARK    4  A    between atoms: C22_27  and  O3_28 
REMARK    5  A    between atoms: O3_28  and  C23_29 
REMARK    6  A    between atoms: C23_29  and  C24_30 
REMARK    7  A    between atoms: C24_30  and  C25_31 
REMARK    8  A    between atoms: C25_31  and  C26_32 
REMARK    9  A    between atoms: C26_32  and  O4_33 
REMARK   10  A    between atoms: O4_33  and  C27_34 
REMARK   11  A    between atoms: C30_37  and  C31_38 
ROOT
HETATM    1  C2  UNL     1       1.133 -37.826   2.343  1.00  0.00     0.101 A 
HETATM    2  C3  UNL     1       2.123 -38.036   3.277  1.00  0.00     0.040 A 
HETATM    3  C4  UNL     1       1.796 -38.691   4.447  1.00  0.00     0.016 A 
HETATM    4  C5  UNL     1       0.522 -39.145   4.725  1.00  0.00    -0.009 A 
HETATM    5  C21 UNL     1      -0.443 -38.923   3.778  1.00  0.00     0.053 A 
HETATM    6  C22 UNL     1      -0.184 -38.261   2.559  1.00  0.00     0.102 A 
ENDROOT
BRANCH   6   7
HETATM    7  O3  UNL     1      -1.095 -38.051   1.666  1.00  0.00    -0.348 OA
BRANCH   7   8
HETATM    8  C23 UNL     1      -2.058 -37.410   1.043  1.00  0.00     0.176 C 
BRANCH   8   9
HETATM    9  C24 UNL     1      -1.889 -35.899   1.167  1.00  0.00     0.029 C 
BRANCH   9  10
HETATM   10  C25 UNL     1      -3.158 -35.311   1.815  1.00  0.00     0.029 C 
BRANCH  10  11
HETATM   11  C26 UNL     1      -3.437 -36.091   3.050  1.00  0.00     0.175 C 
BRANCH  11  12
HETATM   12  O4  UNL     1      -3.294 -35.347   4.187  1.00  0.00    -0.351 OA
BRANCH  12  13
HETATM   13  C27 UNL     1      -2.188 -35.014   4.903  1.00  0.00     0.068 A 
HETATM   14  C28 UNL     1      -1.457 -35.895   5.661  1.00  0.00     0.037 A 
HETATM   15  C29 UNL     1      -0.337 -35.446   6.365  1.00  0.00     0.018 A 
HETATM   16  C30 UNL     1       0.084 -34.138   6.339  1.00  0.00     0.011 A 
HETATM   17  C32 UNL     1      -0.648 -33.253   5.577  1.00  0.00     0.018 A 
HETATM   18  C33 UNL     1      -1.748 -33.677   4.883  1.00  0.00     0.037 A 
BRANCH  16  19
HETATM   19  C31 UNL     1       1.249 -33.679   7.075  1.00  0.00     0.147 A 
HETATM   20  N3  UNL     1       1.426 -33.569   8.403  1.00  0.00    -0.268 N 
HETATM   21  N4  UNL     1       2.661 -33.104   8.578  1.00  0.00    -0.227 N 
ATOM     22  H3  UNL     1       0.749 -33.796   9.132  1.00  0.00     0.190 HD
HETATM   23  N5  UNL     1       3.258 -32.920   7.439  1.00  0.00    -0.227 N 
ATOM     24  H4  UNL     1       3.083 -32.917   9.487  1.00  0.00     0.210 HD
HETATM   25  N6  UNL     1       2.394 -33.273   6.487  1.00  0.00    -0.268 N 
ATOM     26  H5  UNL     1       4.207 -32.572   7.300  1.00  0.00     0.210 HD
ATOM     27  H6  UNL     1       2.569 -33.242   5.483  1.00  0.00     0.190 HD
ENDBRANCH  16  19
ENDBRANCH  12  13
ENDBRANCH  11  12
ENDBRANCH  10  11
ENDBRANCH   9  10
ENDBRANCH   8   9
ENDBRANCH   7   8
ENDBRANCH   6   7
BRANCH   1  28
HETATM   28  O1  UNL     1       1.366 -37.178   1.139  1.00  0.00    -0.353 OA
HETATM   29  C1  UNL     1       1.825 -37.954   0.050  1.00  0.00     0.210 C 
ENDBRANCH   1  28
BRANCH   4  30
HETATM   30  C6  UNL     1       0.231 -39.827   6.009  1.00  0.00     0.041 C 
HETATM   31  N1  UNL     1      -0.066 -39.126   7.046  1.00  0.00    -0.298 N 
HETATM   32  N2  UNL     1      -0.358 -39.655   8.301  1.00  0.00    -0.256 N 
ATOM     33  H1  UNL     1      -0.089 -38.112   6.942  1.00  0.00     0.187 HD
HETATM   34  C14 UNL     1      -0.314 -41.070   8.402  1.00  0.00     0.243 C 
HETATM   35  O2  UNL     1      -0.092 -41.630   9.489  1.00  0.00    -0.271 OA
HETATM   36  C15 UNL     1      -0.540 -41.857   7.177  1.00  0.00     0.093 C 
HETATM   37  C16 UNL     1      -0.149 -43.296   7.479  1.00  0.00     0.041 C 
HETATM   38  C20 UNL     1       0.282 -41.313   6.044  1.00  0.00     0.055 C 
HETATM   39  C17 UNL     1       1.227 -43.221   8.026  1.00  0.00    -0.030 C 
HETATM   40  C18 UNL     1       2.090 -42.465   7.364  1.00  0.00    -0.030 C 
HETATM   41  C19 UNL     1       1.695 -41.744   6.156  1.00  0.00     0.038 C 
BRANCH  32  42
HETATM   42  C7  UNL     1      -0.700 -38.837   9.463  1.00  0.00     0.111 C 
HETATM   43  C8  UNL     1      -0.262 -37.401   9.325  1.00  0.00     0.027 C 
HETATM   44  C9  UNL     1      -0.647 -36.679  10.598  1.00  0.00     0.002 C 
HETATM   45  C10 UNL     1      -2.097 -36.283  10.625  1.00  0.00     0.000 C 
HETATM   46  C11 UNL     1      -2.751 -36.419   9.272  1.00  0.00     0.000 C 
HETATM   47  C12 UNL     1      -2.833 -37.835   8.780  1.00  0.00     0.002 C 
HETATM   48  C13 UNL     1      -2.191 -38.855   9.656  1.00  0.00     0.027 C 
ENDBRANCH  32  42
ENDBRANCH   4  30
TORSDOF 11
ENDMDL
