MODEL 1
REMARK VINA RESULT: -10.256849933      0.000      0.000
REMARK  11 active torsions:
REMARK  status: ('A' for Active; 'I' for Inactive)
REMARK    1  A    between atoms: O1_2  and  C2_3 
REMARK    2  A    between atoms: C5_6  and  C6_7 
REMARK    3  A    between atoms: N2_10  and  C7_11 
REMARK    4  A    between atoms: C22_27  and  O3_28 
REMARK    5  A    between atoms: O3_28  and  C23_29 
REMARK    6  A    between atoms: C23_29  and  C24_30 
REMARK    7  A    between atoms: C24_30  and  C25_31 
REMARK    8  A    between atoms: C25_31  and  C26_32 
REMARK    9  A    between atoms: C26_32  and  O4_33 
REMARK   10  A    between atoms: O4_33  and  C27_34 
REMARK   11  A    between atoms: C30_37  and  C31_38 
ROOT
HETATM    1  C2  UNL     1       4.185 -40.802   3.258  1.00  0.00     0.101 A 
HETATM    2  C3  UNL     1       4.407 -41.641   4.328  1.00  0.00     0.040 A 
HETATM    3  C4  UNL     1       3.410 -41.781   5.272  1.00  0.00     0.016 A 
HETATM    4  C5  UNL     1       2.201 -41.120   5.195  1.00  0.00    -0.009 A 
HETATM    5  C21 UNL     1       2.007 -40.292   4.120  1.00  0.00     0.053 A 
HETATM    6  C22 UNL     1       2.979 -40.098   3.115  1.00  0.00     0.102 A 
ENDROOT
BRANCH   6   7
HETATM    7  O3  UNL     1       2.796 -39.317   2.102  1.00  0.00    -0.348 OA
BRANCH   7   8
HETATM    8  C23 UNL     1       2.129 -38.562   1.257  1.00  0.00     0.176 C 
BRANCH   8   9
HETATM    9  C24 UNL     1       0.978 -39.331   0.615  1.00  0.00     0.029 C 
BRANCH   9  10
HETATM   10  C25 UNL     1      -0.315 -39.029   1.397  1.00  0.00     0.029 C 
BRANCH  10  11
HETATM   11  C26 UNL     1      -0.582 -37.570   1.283  1.00  0.00     0.175 C 
BRANCH  11  12
HETATM   12  O4  UNL     1      -1.126 -37.043   2.420  1.00  0.00    -0.351 OA
BRANCH  12  13
HETATM   13  C27 UNL     1      -0.574 -36.290   3.408  1.00  0.00     0.068 A 
HETATM   14  C28 UNL     1      -0.998 -35.032   3.756  1.00  0.00     0.037 A 
HETATM   15  C29 UNL     1      -0.356 -34.340   4.785  1.00  0.00     0.018 A 
HETATM   16  C30 UNL     1       0.703 -34.864   5.488  1.00  0.00     0.011 A 
HETATM   17  C32 UNL     1       1.128 -36.127   5.140  1.00  0.00     0.018 A 
HETATM   18  C33 UNL     1       0.511 -36.817   4.134  1.00  0.00     0.037 A 
BRANCH  16  19
HETATM   19  C31 UNL     1       1.366 -34.137   6.556  1.00  0.00     0.147 A 
HETATM   20  N3  UNL     1       1.023 -34.028   7.852  1.00  0.00    -0.268 N 
HETATM   21  N4  UNL     1       1.948 -33.260   8.420  1.00  0.00    -0.227 N 
ATOM     22  H3  UNL     1       0.214 -34.451   8.307  1.00  0.00     0.190 HD
HETATM   23  N5  UNL     1       2.843 -32.886   7.556  1.00  0.00    -0.227 N 
ATOM     24  H4  UNL     1       1.954 -32.998   9.406  1.00  0.00     0.210 HD
HETATM   25  N6  UNL     1       2.499 -33.423   6.385  1.00  0.00    -0.268 N 
ATOM     26  H5  UNL     1       3.654 -32.295   7.738  1.00  0.00     0.210 HD
ATOM     27  H6  UNL     1       3.006 -33.314   5.507  1.00  0.00     0.190 HD
ENDBRANCH  16  19
ENDBRANCH  12  13
ENDBRANCH  11  12
ENDBRANCH  10  11
ENDBRANCH   9  10
ENDBRANCH   8   9
ENDBRANCH   7   8
ENDBRANCH   6   7
BRANCH   1  28
HETATM   28  O1  UNL     1       5.127 -40.597   2.261  1.00  0.00    -0.353 OA
HETATM   29  C1  UNL     1       6.370 -41.261   2.380  1.00  0.00     0.210 C 
ENDBRANCH   1  28
BRANCH   4  30
HETATM   30  C6  UNL     1       1.177 -41.300   6.251  1.00  0.00     0.041 C 
HETATM   31  N1  UNL     1       0.578 -40.269   6.736  1.00  0.00    -0.298 N 
HETATM   32  N2  UNL     1      -0.399 -40.316   7.728  1.00  0.00    -0.256 N 
ATOM     33  H1  UNL     1       0.837 -39.354   6.369  1.00  0.00     0.187 HD
HETATM   34  C14 UNL     1      -0.729 -41.609   8.212  1.00  0.00     0.243 C 
HETATM   35  O2  UNL     1      -1.197 -41.769   9.352  1.00  0.00    -0.271 OA
HETATM   36  C15 UNL     1      -0.499 -42.759   7.320  1.00  0.00     0.093 C 
HETATM   37  C16 UNL     1      -0.639 -44.023   8.157  1.00  0.00     0.041 C 
HETATM   38  C20 UNL     1       0.869 -42.683   6.705  1.00  0.00     0.055 C 
HETATM   39  C17 UNL     1       0.273 -43.830   9.310  1.00  0.00    -0.030 C 
HETATM   40  C18 UNL     1       1.493 -43.394   9.038  1.00  0.00    -0.030 C 
HETATM   41  C19 UNL     1       1.910 -43.117   7.665  1.00  0.00     0.038 C 
BRANCH  32  42
HETATM   42  C7  UNL     1      -1.070 -39.131   8.258  1.00  0.00     0.111 C 
HETATM   43  C8  UNL     1      -0.427 -37.840   7.818  1.00  0.00     0.027 C 
HETATM   44  C9  UNL     1      -1.194 -36.704   8.456  1.00  0.00     0.002 C 
HETATM   45  C10 UNL     1      -2.464 -36.375   7.720  1.00  0.00     0.000 C 
HETATM   46  C11 UNL     1      -2.524 -37.036   6.365  1.00  0.00     0.000 C 
HETATM   47  C12 UNL     1      -2.588 -38.534   6.425  1.00  0.00     0.002 C 
HETATM   48  C13 UNL     1      -2.499 -39.124   7.790  1.00  0.00     0.027 C 
ENDBRANCH  32  42
ENDBRANCH   4  30
TORSDOF 11
ENDMDL
