MODEL 19
REMARK VINA RESULT: -7.214395958      4.251      5.406
REMARK  5 active torsions:
REMARK  status: ('A' for Active; 'I' for Inactive)
REMARK    1  A    between atoms: C2_2  and  C3_3 
REMARK    2  A    between atoms: C3_3  and  C4_4 
REMARK    3  A    between atoms: C4_4  and  S1_5 
REMARK    4  A    between atoms: S1_5  and  N1_8 
REMARK    5  A    between atoms: N1_8  and  C5_10 
ROOT
HETATM    1  C5  UNL     1       8.400  27.179  -6.689  1.00  0.00     0.044 A 
HETATM    2  C6  UNL     1       8.108  28.123  -5.725  1.00  0.00     0.031 A 
HETATM    3  C7  UNL     1       9.061  28.674  -4.898  1.00  0.00     0.017 A 
HETATM    4  C8  UNL     1      10.382  28.288  -5.011  1.00  0.00     0.009 A 
HETATM    5  C9  UNL     1      11.550  28.641  -4.352  1.00  0.00     0.121 A 
HETATM    6  N2  UNL     1      12.517  27.905  -4.930  1.00  0.00    -0.309 N 
ATOM      7  H2  UNL     1      13.503  27.933  -4.668  1.00  0.00     0.186 HD
HETATM    8  N3  UNL     1      12.018  27.143  -5.881  1.00  0.00    -0.296 N 
HETATM    9  C10 UNL     1      12.735  26.216  -6.727  1.00  0.00     0.178 C 
HETATM   10  C11 UNL     1      10.691  27.347  -5.969  1.00  0.00     0.064 A 
HETATM   11  C12 UNL     1       9.722  26.795  -6.799  1.00  0.00     0.062 A 
ENDROOT
BRANCH   1  12
HETATM   12  N1  UNL     1       7.380  26.635  -7.523  1.00  0.00    -0.285 N 
ATOM     13  H1  UNL     1       6.611  26.117  -7.098  1.00  0.00     0.178 HD
BRANCH  12  14
HETATM   14  S1  UNL     1       7.418  26.835  -9.249  1.00  0.00     0.230 S 
HETATM   15  O1  UNL     1       6.070  26.473  -9.803  1.00  0.00    -0.206 OA
HETATM   16  O2  UNL     1       8.409  25.899  -9.880  1.00  0.00    -0.206 OA
BRANCH  14  17
HETATM   17  C4  UNL     1       7.852  28.527  -9.535  1.00  0.00     0.163 C 
BRANCH  17  18
HETATM   18  C3  UNL     1       7.182  29.167 -10.691  1.00  0.00     0.016 C 
BRANCH  18  19
HETATM   19  C2  UNL     1       8.120  30.020 -11.473  1.00  0.00    -0.004 C 
HETATM   20  C1  UNL     1       7.429  31.313 -11.849  1.00  0.00     0.005 C 
ENDBRANCH  18  19
ENDBRANCH  17  18
ENDBRANCH  14  17
ENDBRANCH  12  14
ENDBRANCH   1  12
TORSDOF 5
ENDMDL
