MODEL 1
REMARK VINA RESULT: -7.719797980      0.000      0.000
REMARK  5 active torsions:
REMARK  status: ('A' for Active; 'I' for Inactive)
REMARK    1  A    between atoms: C2_2  and  C3_3 
REMARK    2  A    between atoms: C3_3  and  C4_4 
REMARK    3  A    between atoms: C4_4  and  S1_5 
REMARK    4  A    between atoms: S1_5  and  N1_8 
REMARK    5  A    between atoms: N1_8  and  C5_10 
ROOT
HETATM    1  C5  UNL     1       6.242  25.243  -8.755  1.00  0.00     0.044 A 
HETATM    2  C6  UNL     1       5.182  24.624  -8.124  1.00  0.00     0.031 A 
HETATM    3  C7  UNL     1       5.077  23.257  -7.995  1.00  0.00     0.017 A 
HETATM    4  C8  UNL     1       6.060  22.436  -8.509  1.00  0.00     0.009 A 
HETATM    5  C9  UNL     1       6.249  21.063  -8.546  1.00  0.00     0.121 A 
HETATM    6  N2  UNL     1       7.414  20.884  -9.197  1.00  0.00    -0.309 N 
ATOM      7  H2  UNL     1       7.836  19.975  -9.391  1.00  0.00     0.186 HD
HETATM    8  N3  UNL     1       7.933  22.041  -9.550  1.00  0.00    -0.296 N 
HETATM    9  C10 UNL     1       9.171  22.264 -10.262  1.00  0.00     0.178 C 
HETATM   10  C11 UNL     1       7.126  23.038  -9.143  1.00  0.00     0.064 A 
HETATM   11  C12 UNL     1       7.224  24.419  -9.269  1.00  0.00     0.062 A 
ENDROOT
BRANCH   1  12
HETATM   12  N1  UNL     1       6.310  26.662  -8.865  1.00  0.00    -0.285 N 
ATOM     13  H1  UNL     1       5.518  27.225  -8.553  1.00  0.00     0.178 HD
BRANCH  12  14
HETATM   14  S1  UNL     1       7.710  27.456  -9.520  1.00  0.00     0.230 S 
HETATM   15  O1  UNL     1       7.983  26.896 -10.886  1.00  0.00    -0.206 OA
HETATM   16  O2  UNL     1       8.929  27.177  -8.688  1.00  0.00    -0.206 OA
BRANCH  14  17
HETATM   17  C4  UNL     1       7.324  29.183  -9.545  1.00  0.00     0.163 C 
BRANCH  17  18
HETATM   18  C3  UNL     1       6.761  29.689 -10.819  1.00  0.00     0.016 C 
BRANCH  18  19
HETATM   19  C2  UNL     1       7.732  30.548 -11.552  1.00  0.00    -0.004 C 
HETATM   20  C1  UNL     1       7.039  31.814 -12.008  1.00  0.00     0.005 C 
ENDBRANCH  18  19
ENDBRANCH  17  18
ENDBRANCH  14  17
ENDBRANCH  12  14
ENDBRANCH   1  12
TORSDOF 5
ENDMDL
