MODEL 2
REMARK VINA RESULT: -7.635748170      1.403      1.559
REMARK  5 active torsions:
REMARK  status: ('A' for Active; 'I' for Inactive)
REMARK    1  A    between atoms: C2_2  and  C3_3 
REMARK    2  A    between atoms: C3_3  and  C4_4 
REMARK    3  A    between atoms: C4_4  and  S1_5 
REMARK    4  A    between atoms: S1_5  and  N1_8 
REMARK    5  A    between atoms: N1_8  and  C5_10 
ROOT
HETATM    1  C5  UNL     1       7.653  25.206  -9.339  1.00  0.00     0.044 A 
HETATM    2  C6  UNL     1       6.287  25.337  -9.191  1.00  0.00     0.031 A 
HETATM    3  C7  UNL     1       5.434  24.260  -9.091  1.00  0.00     0.017 A 
HETATM    4  C8  UNL     1       5.933  22.974  -9.139  1.00  0.00     0.009 A 
HETATM    5  C9  UNL     1       5.361  21.714  -9.070  1.00  0.00     0.121 A 
HETATM    6  N2  UNL     1       6.390  20.852  -9.179  1.00  0.00    -0.309 N 
ATOM      7  H2  UNL     1       6.299  19.836  -9.164  1.00  0.00     0.186 HD
HETATM    8  N3  UNL     1       7.529  21.500  -9.306  1.00  0.00    -0.296 N 
HETATM    9  C10 UNL     1       8.849  20.930  -9.448  1.00  0.00     0.178 C 
HETATM   10  C11 UNL     1       7.295  22.826  -9.287  1.00  0.00     0.064 A 
HETATM   11  C12 UNL     1       8.150  23.918  -9.387  1.00  0.00     0.062 A 
ENDROOT
BRANCH   1  12
HETATM   12  N1  UNL     1       8.499  26.348  -9.437  1.00  0.00    -0.285 N 
ATOM     13  H1  UNL     1       9.193  26.393 -10.184  1.00  0.00     0.178 HD
BRANCH  12  14
HETATM   14  S1  UNL     1       8.376  27.667  -8.313  1.00  0.00     0.230 S 
HETATM   15  O1  UNL     1       9.759  28.151  -7.988  1.00  0.00    -0.206 OA
HETATM   16  O2  UNL     1       7.761  27.219  -7.018  1.00  0.00    -0.206 OA
BRANCH  14  17
HETATM   17  C4  UNL     1       7.383  28.896  -9.111  1.00  0.00     0.163 C 
BRANCH  17  18
HETATM   18  C3  UNL     1       7.283  28.774 -10.584  1.00  0.00     0.016 C 
BRANCH  18  19
HETATM   19  C2  UNL     1       8.329  29.575 -11.279  1.00  0.00    -0.004 C 
HETATM   20  C1  UNL     1       7.729  30.883 -11.749  1.00  0.00     0.005 C 
ENDBRANCH  18  19
ENDBRANCH  17  18
ENDBRANCH  14  17
ENDBRANCH  12  14
ENDBRANCH   1  12
TORSDOF 5
ENDMDL
