MODEL 3
REMARK VINA RESULT: -7.599483647      1.563      2.522
REMARK  5 active torsions:
REMARK  status: ('A' for Active; 'I' for Inactive)
REMARK    1  A    between atoms: C2_2  and  C3_3 
REMARK    2  A    between atoms: C3_3  and  C4_4 
REMARK    3  A    between atoms: C4_4  and  S1_5 
REMARK    4  A    between atoms: S1_5  and  N1_8 
REMARK    5  A    between atoms: N1_8  and  C5_10 
ROOT
HETATM    1  C5  UNL     1       8.175  24.812  -9.579  1.00  0.00     0.044 A 
HETATM    2  C6  UNL     1       9.268  24.032  -9.895  1.00  0.00     0.031 A 
HETATM    3  C7  UNL     1       9.248  22.655  -9.851  1.00  0.00     0.017 A 
HETATM    4  C8  UNL     1       8.098  21.991  -9.479  1.00  0.00     0.009 A 
HETATM    5  C9  UNL     1       7.758  20.654  -9.338  1.00  0.00     0.121 A 
HETATM    6  N2  UNL     1       6.471  20.657  -8.941  1.00  0.00    -0.309 N 
ATOM      7  H2  UNL     1       5.922  19.819  -8.748  1.00  0.00     0.186 HD
HETATM    8  N3  UNL     1       6.019  21.889  -8.835  1.00  0.00    -0.296 N 
HETATM    9  C10 UNL     1       4.692  22.303  -8.437  1.00  0.00     0.178 C 
HETATM   10  C11 UNL     1       6.996  22.755  -9.160  1.00  0.00     0.064 A 
HETATM   11  C12 UNL     1       7.025  24.145  -9.206  1.00  0.00     0.062 A 
ENDROOT
BRANCH   1  12
HETATM   12  N1  UNL     1       8.240  26.235  -9.638  1.00  0.00    -0.285 N 
ATOM     13  H1  UNL     1       8.168  26.700 -10.543  1.00  0.00     0.178 HD
BRANCH  12  14
HETATM   14  S1  UNL     1       8.440  27.194  -8.203  1.00  0.00     0.230 S 
HETATM   15  O1  UNL     1       9.838  27.003  -7.690  1.00  0.00    -0.206 OA
HETATM   16  O2  UNL     1       7.514  26.737  -7.113  1.00  0.00    -0.206 OA
BRANCH  14  17
HETATM   17  C4  UNL     1       8.102  28.864  -8.683  1.00  0.00     0.163 C 
BRANCH  17  18
HETATM   18  C3  UNL     1       7.318  29.020  -9.931  1.00  0.00     0.016 C 
BRANCH  18  19
HETATM   19  C2  UNL     1       8.167  29.482 -11.064  1.00  0.00    -0.004 C 
HETATM   20  C1  UNL     1       7.607  30.776 -11.615  1.00  0.00     0.005 C 
ENDBRANCH  18  19
ENDBRANCH  17  18
ENDBRANCH  14  17
ENDBRANCH  12  14
ENDBRANCH   1  12
TORSDOF 5
ENDMDL
