MODEL 13
REMARK VINA RESULT: -7.315101027      4.156      6.034
REMARK  5 active torsions:
REMARK  status: ('A' for Active; 'I' for Inactive)
REMARK    1  A    between atoms: C2_2  and  C3_3 
REMARK    2  A    between atoms: C3_3  and  C4_4 
REMARK    3  A    between atoms: C4_4  and  S1_5 
REMARK    4  A    between atoms: S1_5  and  N1_8 
REMARK    5  A    between atoms: N1_8  and  C5_10 
ROOT
HETATM    1  C5  UNL     1       8.964  27.478  -7.137  1.00  0.00     0.044 A 
HETATM    2  C6  UNL     1       7.981  27.352  -6.176  1.00  0.00     0.031 A 
HETATM    3  C7  UNL     1       8.040  27.982  -4.952  1.00  0.00     0.017 A 
HETATM    4  C8  UNL     1       9.118  28.784  -4.637  1.00  0.00     0.009 A 
HETATM    5  C9  UNL     1       9.470  29.535  -3.527  1.00  0.00     0.121 A 
HETATM    6  N2  UNL     1      10.654  30.096  -3.840  1.00  0.00    -0.309 N 
ATOM      7  H2  UNL     1      11.184  30.713  -3.225  1.00  0.00     0.186 HD
HETATM    8  N3  UNL     1      11.033  29.737  -5.049  1.00  0.00    -0.296 N 
HETATM    9  C10 UNL     1      12.241  30.130  -5.740  1.00  0.00     0.178 C 
HETATM   10  C11 UNL     1      10.108  28.920  -5.586  1.00  0.00     0.064 A 
HETATM   11  C12 UNL     1      10.041  28.281  -6.819  1.00  0.00     0.062 A 
ENDROOT
BRANCH   1  12
HETATM   12  N1  UNL     1       8.861  26.808  -8.390  1.00  0.00    -0.285 N 
ATOM     13  H1  UNL     1       9.534  26.077  -8.622  1.00  0.00     0.178 HD
BRANCH  12  14
HETATM   14  S1  UNL     1       7.616  27.209  -9.533  1.00  0.00     0.230 S 
HETATM   15  O1  UNL     1       6.352  26.505  -9.131  1.00  0.00    -0.206 OA
HETATM   16  O2  UNL     1       7.964  26.716 -10.909  1.00  0.00    -0.206 OA
BRANCH  14  17
HETATM   17  C4  UNL     1       7.468  28.972  -9.495  1.00  0.00     0.163 C 
BRANCH  17  18
HETATM   18  C3  UNL     1       6.845  29.583 -10.693  1.00  0.00     0.016 C 
BRANCH  18  19
HETATM   19  C2  UNL     1       7.835  30.346 -11.503  1.00  0.00    -0.004 C 
HETATM   20  C1  UNL     1       7.218  31.655 -11.947  1.00  0.00     0.005 C 
ENDBRANCH  18  19
ENDBRANCH  17  18
ENDBRANCH  14  17
ENDBRANCH  12  14
ENDBRANCH   1  12
TORSDOF 5
ENDMDL
