MODEL 1
REMARK VINA RESULT: -6.968633106      0.000      0.000
REMARK  6 active torsions:
REMARK  status: ('A' for Active; 'I' for Inactive)
REMARK    1  A    between atoms: N5_13  and  C6_14 
REMARK    2  A    between atoms: C7_16  and  C8_17 
REMARK    3  A    between atoms: C8_17  and  O2_18 
REMARK    4  A    between atoms: C9_20  and  O3_21 
REMARK    5  A    between atoms: C10_23  and  O4_24 
REMARK    6  A    between atoms: O4_24  and  P1_25 
ROOT
HETATM    1  C6  UNL     1      18.035 -28.986  26.195  1.00  0.00     0.263 C 
HETATM    2  O1  UNL     1      17.365 -27.794  26.471  1.00  0.00    -0.353 OA
HETATM    3  C7  UNL     1      16.227 -28.136  27.168  1.00  0.00     0.179 C 
HETATM    4  C9  UNL     1      16.523 -29.396  27.923  1.00  0.00     0.183 C 
HETATM    5  C10 UNL     1      17.962 -29.725  27.497  1.00  0.00     0.216 C 
ENDROOT
BRANCH   1   6
HETATM    6  N5  UNL     1      19.382 -28.661  25.790  1.00  0.00    -0.297 N 
HETATM    7  C3  UNL     1      20.113 -27.710  26.406  1.00  0.00     0.142 A 
HETATM    8  N3  UNL     1      19.854 -26.877  27.450  1.00  0.00    -0.336 N 
HETATM    9  C4  UNL     1      21.340 -27.622  25.812  1.00  0.00     0.119 A 
HETATM   10  C2  UNL     1      20.793 -25.990  27.877  1.00  0.00     0.183 A 
ATOM     11  H3  UNL     1      18.947 -26.917  27.916  1.00  0.00     0.168 HD
HETATM   12  N2  UNL     1      22.001 -25.914  27.283  1.00  0.00    -0.339 N 
HETATM   13  C1  UNL     1      22.299 -26.710  26.258  1.00  0.00     0.148 A 
ATOM     14  H2  UNL     1      22.691 -25.243  27.620  1.00  0.00     0.167 HD
HETATM   15  N1  UNL     1      23.561 -26.640  25.625  1.00  0.00    -0.080 NA
HETATM   16  N4  UNL     1      21.347 -28.539  24.821  1.00  0.00    -0.346 N 
HETATM   17  C5  UNL     1      20.153 -29.151  24.829  1.00  0.00     0.188 A 
ATOM     18  H4  UNL     1      22.119 -28.731  24.183  1.00  0.00     0.167 HD
ENDBRANCH   1   6
BRANCH   5  19
HETATM   19  O4  UNL     1      18.018 -31.067  27.269  1.00  0.00    -0.270 OA
BRANCH  19  20
HETATM   20  P1  UNL     1      19.465 -31.644  27.903  1.00  0.00     0.422 P 
HETATM   21  O5  UNL     1      18.924 -33.074  27.769  1.00  0.00    -0.617 OA
HETATM   22  O6  UNL     1      19.758 -31.687  29.473  1.00  0.00    -0.617 OA
HETATM   23  O7  UNL     1      20.685 -32.032  26.820  1.00  0.00    -0.617 OA
ENDBRANCH  19  20
ENDBRANCH   5  19
BRANCH   3  24
HETATM   24  C8  UNL     1      15.802 -26.997  28.104  1.00  0.00     0.198 C 
BRANCH  24  25
HETATM   25  O2  UNL     1      17.000 -26.487  28.634  1.00  0.00    -0.398 OA
ATOM     26  H2  UNL     1      16.762 -25.663  29.044  1.00  0.00     0.209 HD
ENDBRANCH  24  25
ENDBRANCH   3  24
BRANCH   4  27
HETATM   27  O3  UNL     1      15.675 -30.393  27.453  1.00  0.00    -0.390 OA
ATOM     28  H3  UNL     1      15.473 -30.976  28.175  1.00  0.00     0.210 HD
ENDBRANCH   4  27
TORSDOF 6
ENDMDL
