MODEL 3
REMARK VINA RESULT: -6.872429406      1.422      2.684
REMARK  6 active torsions:
REMARK  status: ('A' for Active; 'I' for Inactive)
REMARK    1  A    between atoms: N5_13  and  C6_14 
REMARK    2  A    between atoms: C7_16  and  C8_17 
REMARK    3  A    between atoms: C8_17  and  O2_18 
REMARK    4  A    between atoms: C9_20  and  O3_21 
REMARK    5  A    between atoms: C10_23  and  O4_24 
REMARK    6  A    between atoms: O4_24  and  P1_25 
ROOT
HETATM    1  C6  UNL     1      17.940 -28.890  25.930  1.00  0.00     0.263 C 
HETATM    2  O1  UNL     1      17.324 -27.680  26.250  1.00  0.00    -0.353 OA
HETATM    3  C7  UNL     1      16.279 -27.984  27.094  1.00  0.00     0.179 C 
HETATM    4  C9  UNL     1      16.653 -29.226  27.846  1.00  0.00     0.183 C 
HETATM    5  C10 UNL     1      18.023 -29.589  27.253  1.00  0.00     0.216 C 
ENDROOT
BRANCH   1   6
HETATM    6  N5  UNL     1      19.230 -28.598  25.350  1.00  0.00    -0.297 N 
HETATM    7  C3  UNL     1      19.886 -29.477  24.566  1.00  0.00     0.142 A 
HETATM    8  N3  UNL     1      19.587 -30.732  24.134  1.00  0.00    -0.336 N 
HETATM    9  C4  UNL     1      21.073 -28.934  24.165  1.00  0.00     0.119 A 
HETATM   10  C2  UNL     1      20.450 -31.412  23.332  1.00  0.00     0.183 A 
ATOM     11  H3  UNL     1      18.708 -31.168  24.415  1.00  0.00     0.168 HD
HETATM   12  N2  UNL     1      21.618 -30.863  22.942  1.00  0.00    -0.339 N 
HETATM   13  C1  UNL     1      21.952 -29.638  23.340  1.00  0.00     0.148 A 
ATOM     14  H2  UNL     1      22.250 -31.390  22.339  1.00  0.00     0.167 HD
HETATM   15  N1  UNL     1      23.174 -29.051  22.940  1.00  0.00    -0.080 NA
HETATM   16  N4  UNL     1      21.131 -27.703  24.718  1.00  0.00    -0.346 N 
HETATM   17  C5  UNL     1      20.007 -27.526  25.429  1.00  0.00     0.188 A 
ATOM     18  H4  UNL     1      21.891 -27.031  24.613  1.00  0.00     0.167 HD
ENDBRANCH   1   6
BRANCH   5  19
HETATM   19  O4  UNL     1      18.034 -30.938  27.062  1.00  0.00    -0.270 OA
BRANCH  19  20
HETATM   20  P1  UNL     1      19.405 -31.559  27.811  1.00  0.00     0.422 P 
HETATM   21  O5  UNL     1      18.800 -32.965  27.696  1.00  0.00    -0.617 OA
HETATM   22  O6  UNL     1      19.595 -31.553  29.398  1.00  0.00    -0.617 OA
HETATM   23  O7  UNL     1      20.670 -32.052  26.827  1.00  0.00    -0.617 OA
ENDBRANCH  19  20
ENDBRANCH   5  19
BRANCH   3  24
HETATM   24  C8  UNL     1      15.988 -26.811  28.040  1.00  0.00     0.198 C 
BRANCH  24  25
HETATM   25  O2  UNL     1      17.194 -26.578  28.722  1.00  0.00    -0.398 OA
ATOM     26  H2  UNL     1      17.747 -26.115  28.103  1.00  0.00     0.209 HD
ENDBRANCH  24  25
ENDBRANCH   3  24
BRANCH   4  27
HETATM   27  O3  UNL     1      15.741 -30.223  27.516  1.00  0.00    -0.390 OA
ATOM     28  H3  UNL     1      15.195 -30.388  28.276  1.00  0.00     0.210 HD
ENDBRANCH   4  27
TORSDOF 6
ENDMDL
