MODEL 2
REMARK VINA RESULT: -6.907841919      4.217      6.650
REMARK  6 active torsions:
REMARK  status: ('A' for Active; 'I' for Inactive)
REMARK    1  A    between atoms: N5_13  and  C6_14 
REMARK    2  A    between atoms: C7_16  and  C8_17 
REMARK    3  A    between atoms: C8_17  and  O2_18 
REMARK    4  A    between atoms: C9_20  and  O3_21 
REMARK    5  A    between atoms: C10_23  and  O4_24 
REMARK    6  A    between atoms: O4_24  and  P1_25 
ROOT
HETATM    1  C6  UNL     1      19.817 -30.638  23.872  1.00  0.00     0.263 C 
HETATM    2  O1  UNL     1      21.100 -30.111  23.724  1.00  0.00    -0.353 OA
HETATM    3  C7  UNL     1      21.665 -30.752  22.644  1.00  0.00     0.179 C 
HETATM    4  C9  UNL     1      20.553 -31.137  21.716  1.00  0.00     0.183 C 
HETATM    5  C10 UNL     1      19.298 -30.667  22.467  1.00  0.00     0.216 C 
ENDROOT
BRANCH   1   6
HETATM    6  N5  UNL     1      19.070 -29.765  24.746  1.00  0.00    -0.297 N 
HETATM    7  C3  UNL     1      18.148 -30.226  25.614  1.00  0.00     0.142 A 
HETATM    8  N3  UNL     1      17.695 -31.477  25.904  1.00  0.00    -0.336 N 
HETATM    9  C4  UNL     1      17.605 -29.179  26.303  1.00  0.00     0.119 A 
HETATM   10  C2  UNL     1      16.734 -31.664  26.847  1.00  0.00     0.183 A 
ATOM     11  H3  UNL     1      18.080 -32.281  25.408  1.00  0.00     0.168 HD
HETATM   12  N2  UNL     1      16.207 -30.621  27.521  1.00  0.00    -0.339 N 
HETATM   13  C1  UNL     1      16.619 -29.381  27.272  1.00  0.00     0.148 A 
ATOM     14  H2  UNL     1      15.488 -30.784  28.225  1.00  0.00     0.167 HD
HETATM   15  N1  UNL     1      16.075 -28.279  27.970  1.00  0.00    -0.080 NA
HETATM   16  N4  UNL     1      18.213 -28.067  25.840  1.00  0.00    -0.346 N 
HETATM   17  C5  UNL     1      19.092 -28.447  24.900  1.00  0.00     0.188 A 
ATOM     18  H4  UNL     1      18.037 -27.111  26.149  1.00  0.00     0.167 HD
ENDBRANCH   1   6
BRANCH   5  19
HETATM   19  O4  UNL     1      18.362 -31.649  22.341  1.00  0.00    -0.270 OA
BRANCH  19  20
HETATM   20  P1  UNL     1      17.299 -31.203  21.116  1.00  0.00     0.422 P 
HETATM   21  O5  UNL     1      17.877 -32.324  20.241  1.00  0.00    -0.617 OA
HETATM   22  O6  UNL     1      17.601 -29.993  20.116  1.00  0.00    -0.617 OA
HETATM   23  O7  UNL     1      15.808 -31.968  21.066  1.00  0.00    -0.617 OA
ENDBRANCH  19  20
ENDBRANCH   5  19
BRANCH   3  24
HETATM   24  C8  UNL     1      22.695 -29.848  21.955  1.00  0.00     0.198 C 
BRANCH  24  25
HETATM   25  O2  UNL     1      22.936 -30.445  20.706  1.00  0.00    -0.398 OA
ATOM     26  H2  UNL     1      23.773 -30.099  20.419  1.00  0.00     0.209 HD
ENDBRANCH  24  25
ENDBRANCH   3  24
BRANCH   4  27
HETATM   27  O3  UNL     1      20.528 -32.525  21.622  1.00  0.00    -0.390 OA
ATOM     28  H3  UNL     1      19.669 -32.785  21.310  1.00  0.00     0.210 HD
ENDBRANCH   4  27
TORSDOF 6
ENDMDL
