MODEL 2
REMARK VINA RESULT: -12.269397271      3.215      5.664
REMARK  14 active torsions:
REMARK  status: ('A' for Active; 'I' for Inactive)
REMARK    1  A    between atoms: C4_4  and  C5_5 
REMARK    2  A    between atoms: C15_15  and  C16_16 
REMARK    3  A    between atoms: C16_16  and  C17_17 
REMARK    4  A    between atoms: C16_16  and  C23_25 
REMARK    5  A    between atoms: C17_17  and  C18_18 
REMARK    6  A    between atoms: C19_19  and  C20_20 
REMARK    7  A    between atoms: C20_20  and  O1_23 
REMARK    8  A    between atoms: C23_25  and  C24_26 
REMARK    9  A    between atoms: C25_27  and  C26_28 
REMARK   10  A    between atoms: C26_28  and  O2_29 
REMARK   11  A    between atoms: C26_28  and  C27_31 
REMARK   12  A    between atoms: C26_28  and  C28_35 
REMARK   13  A    between atoms: C30_40  and  O3_41 
REMARK   14  A    between atoms: C32_44  and  O4_45 
ROOT
HETATM    1  C5  UNL     1       1.432  35.164  39.054  1.00  0.00     0.004 C 
HETATM    2  C6  UNL     1       1.997  34.085  38.546  1.00  0.00    -0.075 C 
HETATM    3  C7  UNL     1       2.969  33.440  39.490  1.00  0.00     0.034 C 
HETATM    4  C8  UNL     1       3.543  32.165  39.115  1.00  0.00     0.005 C 
HETATM    5  C9  UNL     1       3.212  31.612  37.790  1.00  0.00     0.010 C 
HETATM    6  C10 UNL     1       1.825  31.973  37.413  1.00  0.00    -0.033 C 
HETATM    7  C11 UNL     1       0.766  31.606  38.391  1.00  0.00     0.016 C 
HETATM    8  C12 UNL     1       1.797  33.505  37.255  1.00  0.00     0.023 C 
HETATM    9  C13 UNL     1       0.463  33.632  36.580  1.00  0.00     0.010 C 
HETATM   10  C14 UNL     1       0.283  32.365  35.708  1.00  0.00     0.006 C 
HETATM   11  C15 UNL     1       1.512  31.604  35.972  1.00  0.00     0.000 C 
ENDROOT
BRANCH  11  12
HETATM   12  C16 UNL     1       1.631  30.198  35.637  1.00  0.00     0.012 C 
BRANCH  12  13
HETATM   13  C17 UNL     1       1.790  30.043  34.114  1.00  0.00     0.100 C 
BRANCH  13  14
HETATM   14  C18 UNL     1       3.042  29.337  33.809  1.00  0.00    -0.103 C 
HETATM   15  C19 UNL     1       4.060  28.753  33.534  1.00  0.00    -0.069 C 
BRANCH  15  16
HETATM   16  C20 UNL     1       5.301  28.030  33.168  1.00  0.00     0.113 C 
HETATM   17  C21 UNL     1       6.474  28.947  33.280  1.00  0.00     0.060 C 
HETATM   18  C22 UNL     1       5.202  27.554  31.714  1.00  0.00     0.060 C 
BRANCH  16  19
HETATM   19  O1  UNL     1       5.439  26.928  34.009  1.00  0.00    -0.378 OA
ATOM     20  H1  UNL     1       6.326  26.599  33.935  1.00  0.00     0.211 HD
ENDBRANCH  16  19
ENDBRANCH  15  16
ENDBRANCH  13  14
ENDBRANCH  12  13
BRANCH  12  21
HETATM   21  C23 UNL     1       0.659  29.192  36.081  1.00  0.00     0.100 C 
BRANCH  21  22
HETATM   22  C24 UNL     1       1.128  28.320  37.147  1.00  0.00    -0.102 C 
HETATM   23  C25 UNL     1       1.514  27.569  38.031  1.00  0.00    -0.050 C 
BRANCH  23  24
HETATM   24  C26 UNL     1       1.954  26.652  39.096  1.00  0.00     0.318 C 
BRANCH  24  25
HETATM   25  O2  UNL     1       2.676  25.632  38.532  1.00  0.00    -0.363 OA
ATOM     26  H2  UNL     1       3.483  25.522  39.019  1.00  0.00     0.212 HD
ENDBRANCH  24  25
BRANCH  24  27
HETATM   27  C27 UNL     1       0.742  26.070  39.799  1.00  0.00     0.439 C 
HETATM   28  F1  UNL     1      -0.160  25.743  38.789  1.00  0.00    -0.166 F 
HETATM   29  F2  UNL     1       0.204  26.946  40.697  1.00  0.00    -0.166 F 
HETATM   30  F3  UNL     1       1.140  24.883  40.377  1.00  0.00    -0.166 F 
ENDBRANCH  24  27
BRANCH  24  31
HETATM   31  C28 UNL     1       2.800  27.407  40.109  1.00  0.00     0.439 C 
HETATM   32  F4  UNL     1       2.697  28.760  39.892  1.00  0.00    -0.166 F 
HETATM   33  F5  UNL     1       4.118  27.054  39.926  1.00  0.00    -0.166 F 
HETATM   34  F6  UNL     1       2.408  27.121  41.394  1.00  0.00    -0.166 F 
ENDBRANCH  24  31
ENDBRANCH  23  24
ENDBRANCH  21  22
ENDBRANCH  12  21
ENDBRANCH  11  12
BRANCH   1  35
HETATM   35  C4  UNL     1       0.467  36.050  38.476  1.00  0.00     0.008 C 
HETATM   36  C3  UNL     1       0.895  37.252  38.037  1.00  0.00    -0.048 C 
HETATM   37  C2  UNL     1       2.291  37.628  38.125  1.00  0.00    -0.033 C 
HETATM   38  C29 UNL     1      -0.105  38.251  37.525  1.00  0.00     0.071 C 
HETATM   39  C1  UNL     1       3.165  36.772  37.649  1.00  0.00     0.022 C 
HETATM   40  C32 UNL     1       2.625  38.973  38.692  1.00  0.00     0.153 C 
HETATM   41  C31 UNL     1       1.688  39.959  38.013  1.00  0.00     0.068 C 
HETATM   42  C30 UNL     1       0.242  39.618  38.118  1.00  0.00     0.125 C 
BRANCH  40  43
HETATM   43  O4  UNL     1       3.926  39.341  38.345  1.00  0.00    -0.391 OA
ATOM     44  H4  UNL     1       4.392  38.604  37.968  1.00  0.00     0.210 HD
ENDBRANCH  40  43
BRANCH  42  45
HETATM   45  O3  UNL     1      -0.156  39.562  39.469  1.00  0.00    -0.395 OA
ATOM     46  H3  UNL     1       0.632  39.713  39.977  1.00  0.00     0.210 HD
ENDBRANCH  42  45
ENDBRANCH   1  35
TORSDOF 14
ENDMDL
