MODEL 9
REMARK VINA RESULT: -11.868130632      1.086      1.941
REMARK  14 active torsions:
REMARK  status: ('A' for Active; 'I' for Inactive)
REMARK    1  A    between atoms: C4_4  and  C5_5 
REMARK    2  A    between atoms: C15_15  and  C16_16 
REMARK    3  A    between atoms: C16_16  and  C17_17 
REMARK    4  A    between atoms: C16_16  and  C23_25 
REMARK    5  A    between atoms: C17_17  and  C18_18 
REMARK    6  A    between atoms: C19_19  and  C20_20 
REMARK    7  A    between atoms: C20_20  and  O1_23 
REMARK    8  A    between atoms: C23_25  and  C24_26 
REMARK    9  A    between atoms: C25_27  and  C26_28 
REMARK   10  A    between atoms: C26_28  and  O2_29 
REMARK   11  A    between atoms: C26_28  and  C27_31 
REMARK   12  A    between atoms: C26_28  and  C28_35 
REMARK   13  A    between atoms: C30_40  and  O3_41 
REMARK   14  A    between atoms: C32_44  and  O4_45 
ROOT
HETATM    1  C5  UNL     1       0.877  35.510  37.265  1.00  0.00     0.004 C 
HETATM    2  C6  UNL     1       0.530  34.243  37.374  1.00  0.00    -0.075 C 
HETATM    3  C7  UNL     1      -0.830  33.962  36.805  1.00  0.00     0.034 C 
HETATM    4  C8  UNL     1      -1.267  32.584  36.725  1.00  0.00     0.005 C 
HETATM    5  C9  UNL     1      -0.392  31.540  37.283  1.00  0.00     0.010 C 
HETATM    6  C10 UNL     1       1.032  31.908  37.101  1.00  0.00    -0.033 C 
HETATM    7  C11 UNL     1       1.452  32.226  35.710  1.00  0.00     0.016 C 
HETATM    8  C12 UNL     1       1.273  33.167  37.955  1.00  0.00     0.023 C 
HETATM    9  C13 UNL     1       2.772  33.185  37.903  1.00  0.00     0.010 C 
HETATM   10  C14 UNL     1       3.232  31.708  37.848  1.00  0.00     0.006 C 
HETATM   11  C15 UNL     1       1.964  30.965  37.844  1.00  0.00     0.000 C 
ENDROOT
BRANCH  11  12
HETATM   12  C16 UNL     1       1.893  29.569  37.460  1.00  0.00     0.012 C 
BRANCH  12  13
HETATM   13  C17 UNL     1       1.029  28.799  38.474  1.00  0.00     0.100 C 
BRANCH  13  14
HETATM   14  C18 UNL     1       1.664  27.516  38.804  1.00  0.00    -0.103 C 
HETATM   15  C19 UNL     1       2.168  26.459  39.093  1.00  0.00    -0.069 C 
BRANCH  15  16
HETATM   16  C20 UNL     1       2.767  25.158  39.473  1.00  0.00     0.113 C 
HETATM   17  C21 UNL     1       1.695  24.127  39.610  1.00  0.00     0.060 C 
HETATM   18  C22 UNL     1       3.473  25.299  40.827  1.00  0.00     0.060 C 
BRANCH  16  19
HETATM   19  O1  UNL     1       3.695  24.795  38.500  1.00  0.00    -0.378 OA
ATOM     20  H1  UNL     1       4.399  24.312  38.917  1.00  0.00     0.211 HD
ENDBRANCH  16  19
ENDBRANCH  15  16
ENDBRANCH  13  14
ENDBRANCH  12  13
BRANCH  12  21
HETATM   21  C23 UNL     1       3.087  28.758  37.196  1.00  0.00     0.100 C 
BRANCH  21  22
HETATM   22  C24 UNL     1       3.629  28.891  35.852  1.00  0.00    -0.102 C 
HETATM   23  C25 UNL     1       4.101  28.986  34.728  1.00  0.00    -0.050 C 
BRANCH  23  24
HETATM   24  C26 UNL     1       4.693  29.102  33.385  1.00  0.00     0.318 C 
BRANCH  24  25
HETATM   25  O2  UNL     1       3.948  29.985  32.647  1.00  0.00    -0.363 OA
ATOM     26  H2  UNL     1       3.771  30.754  33.176  1.00  0.00     0.212 HD
ENDBRANCH  24  25
BRANCH  24  27
HETATM   27  C27 UNL     1       4.675  27.748  32.702  1.00  0.00     0.439 C 
HETATM   28  F1  UNL     1       3.347  27.521  32.349  1.00  0.00    -0.166 F 
HETATM   29  F2  UNL     1       5.160  26.762  33.512  1.00  0.00    -0.166 F 
HETATM   30  F3  UNL     1       5.384  27.877  31.527  1.00  0.00    -0.166 F 
ENDBRANCH  24  27
BRANCH  24  31
HETATM   31  C28 UNL     1       6.132  29.582  33.497  1.00  0.00     0.439 C 
HETATM   32  F4  UNL     1       6.296  30.309  34.652  1.00  0.00    -0.166 F 
HETATM   33  F5  UNL     1       6.396  30.419  32.436  1.00  0.00    -0.166 F 
HETATM   34  F6  UNL     1       7.009  28.526  33.495  1.00  0.00    -0.166 F 
ENDBRANCH  24  31
ENDBRANCH  23  24
ENDBRANCH  21  22
ENDBRANCH  12  21
ENDBRANCH  11  12
BRANCH   1  35
HETATM   35  C4  UNL     1       2.078  36.170  37.683  1.00  0.00     0.008 C 
HETATM   36  C3  UNL     1       1.958  37.327  38.366  1.00  0.00    -0.048 C 
HETATM   37  C2  UNL     1       0.657  37.877  38.688  1.00  0.00    -0.033 C 
HETATM   38  C29 UNL     1       3.194  38.104  38.726  1.00  0.00     0.071 C 
HETATM   39  C1  UNL     1      -0.201  37.065  39.261  1.00  0.00     0.022 C 
HETATM   40  C32 UNL     1       0.413  39.325  38.402  1.00  0.00     0.153 C 
HETATM   41  C31 UNL     1       1.625  40.070  38.936  1.00  0.00     0.068 C 
HETATM   42  C30 UNL     1       2.934  39.581  38.420  1.00  0.00     0.125 C 
BRANCH  40  43
HETATM   43  O4  UNL     1      -0.696  39.785  39.116  1.00  0.00    -0.391 OA
ATOM     44  H4  UNL     1      -0.428  40.131  39.959  1.00  0.00     0.210 HD
ENDBRANCH  40  43
BRANCH  42  45
HETATM   45  O3  UNL     1       2.988  39.697  37.017  1.00  0.00    -0.395 OA
ATOM     46  H3  UNL     1       2.094  39.857  36.737  1.00  0.00     0.210 HD
ENDBRANCH  42  45
ENDBRANCH   1  35
TORSDOF 14
ENDMDL
