MODEL 1
REMARK VINA RESULT: -12.284044572      0.000      0.000
REMARK  14 active torsions:
REMARK  status: ('A' for Active; 'I' for Inactive)
REMARK    1  A    between atoms: C4_4  and  C5_5 
REMARK    2  A    between atoms: C15_15  and  C16_16 
REMARK    3  A    between atoms: C16_16  and  C17_17 
REMARK    4  A    between atoms: C16_16  and  C23_25 
REMARK    5  A    between atoms: C17_17  and  C18_18 
REMARK    6  A    between atoms: C19_19  and  C20_20 
REMARK    7  A    between atoms: C20_20  and  O1_23 
REMARK    8  A    between atoms: C23_25  and  C24_26 
REMARK    9  A    between atoms: C25_27  and  C26_28 
REMARK   10  A    between atoms: C26_28  and  O2_29 
REMARK   11  A    between atoms: C26_28  and  C27_31 
REMARK   12  A    between atoms: C26_28  and  C28_35 
REMARK   13  A    between atoms: C30_40  and  O3_41 
REMARK   14  A    between atoms: C32_44  and  O4_45 
ROOT
HETATM    1  C5  UNL     1       0.615  36.060  37.690  1.00  0.00     0.004 C 
HETATM    2  C6  UNL     1       0.293  34.783  37.615  1.00  0.00    -0.075 C 
HETATM    3  C7  UNL     1      -1.129  34.567  37.188  1.00  0.00     0.034 C 
HETATM    4  C8  UNL     1      -1.565  33.213  36.921  1.00  0.00     0.005 C 
HETATM    5  C9  UNL     1      -0.618  32.112  37.166  1.00  0.00     0.010 C 
HETATM    6  C10 UNL     1       0.767  32.548  36.868  1.00  0.00    -0.033 C 
HETATM    7  C11 UNL     1       0.996  33.117  35.513  1.00  0.00     0.016 C 
HETATM    8  C12 UNL     1       1.113  33.645  37.893  1.00  0.00     0.023 C 
HETATM    9  C13 UNL     1       2.591  33.715  37.651  1.00  0.00     0.010 C 
HETATM   10  C14 UNL     1       3.049  32.284  37.274  1.00  0.00     0.006 C 
HETATM   11  C15 UNL     1       1.795  31.517  37.304  1.00  0.00     0.000 C 
ENDROOT
BRANCH  11  12
HETATM   12  C16 UNL     1       1.681  30.209  36.690  1.00  0.00     0.012 C 
BRANCH  12  13
HETATM   13  C17 UNL     1       2.859  29.325  37.137  1.00  0.00     0.100 C 
BRANCH  13  14
HETATM   14  C18 UNL     1       2.363  28.179  37.910  1.00  0.00    -0.103 C 
HETATM   15  C19 UNL     1       1.980  27.231  38.550  1.00  0.00    -0.069 C 
BRANCH  15  16
HETATM   16  C20 UNL     1       1.539  26.058  39.340  1.00  0.00     0.113 C 
HETATM   17  C21 UNL     1       0.059  25.893  39.220  1.00  0.00     0.060 C 
HETATM   18  C22 UNL     1       1.878  26.284  40.819  1.00  0.00     0.060 C 
BRANCH  16  19
HETATM   19  O1  UNL     1       2.211  24.930  38.877  1.00  0.00    -0.378 OA
ATOM     20  H1  UNL     1       1.973  24.189  39.421  1.00  0.00     0.211 HD
ENDBRANCH  16  19
ENDBRANCH  15  16
ENDBRANCH  13  14
ENDBRANCH  12  13
BRANCH  12  21
HETATM   21  C23 UNL     1       1.519  30.024  35.243  1.00  0.00     0.100 C 
BRANCH  21  22
HETATM   22  C24 UNL     1       2.694  29.504  34.559  1.00  0.00    -0.102 C 
HETATM   23  C25 UNL     1       3.676  29.046  33.992  1.00  0.00    -0.050 C 
BRANCH  23  24
HETATM   24  C26 UNL     1       4.864  28.480  33.332  1.00  0.00     0.318 C 
BRANCH  24  25
HETATM   25  O2  UNL     1       5.243  27.345  34.001  1.00  0.00    -0.363 OA
ATOM     26  H2  UNL     1       6.177  27.219  33.885  1.00  0.00     0.212 HD
ENDBRANCH  24  25
BRANCH  24  27
HETATM   27  C27 UNL     1       6.000  29.485  33.379  1.00  0.00     0.439 C 
HETATM   28  F1  UNL     1       5.892  30.119  34.615  1.00  0.00    -0.166 F 
HETATM   29  F2  UNL     1       5.936  30.374  32.345  1.00  0.00    -0.166 F 
HETATM   30  F3  UNL     1       7.176  28.767  33.400  1.00  0.00    -0.166 F 
ENDBRANCH  24  27
BRANCH  24  31
HETATM   31  C28 UNL     1       4.543  28.161  31.880  1.00  0.00     0.439 C 
HETATM   32  F4  UNL     1       3.672  27.099  31.814  1.00  0.00    -0.166 F 
HETATM   33  F5  UNL     1       5.708  27.785  31.249  1.00  0.00    -0.166 F 
HETATM   34  F6  UNL     1       3.989  29.245  31.245  1.00  0.00    -0.166 F 
ENDBRANCH  24  31
ENDBRANCH  23  24
ENDBRANCH  21  22
ENDBRANCH  12  21
ENDBRANCH  11  12
BRANCH   1  35
HETATM   35  C4  UNL     1       1.857  36.670  38.058  1.00  0.00     0.008 C 
HETATM   36  C3  UNL     1       1.819  37.910  38.588  1.00  0.00    -0.048 C 
HETATM   37  C2  UNL     1       0.561  38.597  38.799  1.00  0.00    -0.033 C 
HETATM   38  C29 UNL     1       3.107  38.627  38.885  1.00  0.00     0.071 C 
HETATM   39  C1  UNL     1      -0.372  37.934  39.442  1.00  0.00     0.022 C 
HETATM   40  C32 UNL     1       0.442  40.012  38.326  1.00  0.00     0.153 C 
HETATM   41  C31 UNL     1       1.700  40.721  38.801  1.00  0.00     0.068 C 
HETATM   42  C30 UNL     1       2.975  40.069  38.390  1.00  0.00     0.125 C 
BRANCH  40  43
HETATM   43  O4  UNL     1      -0.639  40.645  38.944  1.00  0.00    -0.391 OA
ATOM     44  H4  UNL     1      -0.480  41.578  39.020  1.00  0.00     0.210 HD
ENDBRANCH  40  43
BRANCH  42  45
HETATM   45  O3  UNL     1       3.066  40.001  36.985  1.00  0.00    -0.395 OA
ATOM     46  H3  UNL     1       2.175  39.892  36.674  1.00  0.00     0.210 HD
ENDBRANCH  42  45
ENDBRANCH   1  35
TORSDOF 14
ENDMDL
