MODEL 13
REMARK VINA RESULT: -11.586159092      3.156      5.693
REMARK  14 active torsions:
REMARK  status: ('A' for Active; 'I' for Inactive)
REMARK    1  A    between atoms: C4_4  and  C5_5 
REMARK    2  A    between atoms: C15_15  and  C16_16 
REMARK    3  A    between atoms: C16_16  and  C17_17 
REMARK    4  A    between atoms: C16_16  and  C23_25 
REMARK    5  A    between atoms: C17_17  and  C18_18 
REMARK    6  A    between atoms: C19_19  and  C20_20 
REMARK    7  A    between atoms: C20_20  and  O1_23 
REMARK    8  A    between atoms: C23_25  and  C24_26 
REMARK    9  A    between atoms: C25_27  and  C26_28 
REMARK   10  A    between atoms: C26_28  and  O2_29 
REMARK   11  A    between atoms: C26_28  and  C27_31 
REMARK   12  A    between atoms: C26_28  and  C28_35 
REMARK   13  A    between atoms: C30_40  and  O3_41 
REMARK   14  A    between atoms: C32_44  and  O4_45 
ROOT
HETATM    1  C5  UNL     1       1.176  34.605  39.316  1.00  0.00     0.004 C 
HETATM    2  C6  UNL     1       1.749  33.526  38.821  1.00  0.00    -0.075 C 
HETATM    3  C7  UNL     1       2.819  32.973  39.716  1.00  0.00     0.034 C 
HETATM    4  C8  UNL     1       3.420  31.705  39.361  1.00  0.00     0.005 C 
HETATM    5  C9  UNL     1       3.013  31.068  38.097  1.00  0.00     0.010 C 
HETATM    6  C10 UNL     1       1.586  31.349  37.813  1.00  0.00    -0.033 C 
HETATM    7  C11 UNL     1       0.623  30.993  38.889  1.00  0.00     0.016 C 
HETATM    8  C12 UNL     1       1.476  32.868  37.580  1.00  0.00     0.023 C 
HETATM    9  C13 UNL     1       0.090  32.903  37.009  1.00  0.00     0.010 C 
HETATM   10  C14 UNL     1      -0.099  31.585  36.218  1.00  0.00     0.006 C 
HETATM   11  C15 UNL     1       1.180  30.891  36.422  1.00  0.00     0.000 C 
ENDROOT
BRANCH  11  12
HETATM   12  C16 UNL     1       1.337  29.475  36.150  1.00  0.00     0.012 C 
BRANCH  12  13
HETATM   13  C17 UNL     1       1.440  29.251  34.631  1.00  0.00     0.100 C 
BRANCH  13  14
HETATM   14  C18 UNL     1       2.846  29.305  34.209  1.00  0.00    -0.103 C 
HETATM   15  C19 UNL     1       4.007  29.345  33.888  1.00  0.00    -0.069 C 
BRANCH  15  16
HETATM   16  C20 UNL     1       5.443  29.392  33.522  1.00  0.00     0.113 C 
HETATM   17  C21 UNL     1       5.632  30.261  32.322  1.00  0.00     0.060 C 
HETATM   18  C22 UNL     1       5.926  27.980  33.172  1.00  0.00     0.060 C 
BRANCH  16  19
HETATM   19  O1  UNL     1       6.164  29.873  34.612  1.00  0.00    -0.378 OA
ATOM     20  H1  UNL     1       7.079  29.646  34.496  1.00  0.00     0.211 HD
ENDBRANCH  16  19
ENDBRANCH  15  16
ENDBRANCH  13  14
ENDBRANCH  12  13
BRANCH  12  21
HETATM   21  C23 UNL     1       0.421  28.459  36.683  1.00  0.00     0.100 C 
BRANCH  21  22
HETATM   22  C24 UNL     1       0.953  27.681  37.791  1.00  0.00    -0.102 C 
HETATM   23  C25 UNL     1       1.384  27.038  38.738  1.00  0.00    -0.050 C 
BRANCH  23  24
HETATM   24  C26 UNL     1       1.904  26.286  39.892  1.00  0.00     0.318 C 
BRANCH  24  25
HETATM   25  O2  UNL     1       0.870  26.024  40.752  1.00  0.00    -0.363 OA
ATOM     26  H2  UNL     1       0.500  25.176  40.539  1.00  0.00     0.212 HD
ENDBRANCH  24  25
BRANCH  24  27
HETATM   27  C27 UNL     1       2.948  27.118  40.613  1.00  0.00     0.439 C 
HETATM   28  F1  UNL     1       2.729  28.433  40.207  1.00  0.00    -0.166 F 
HETATM   29  F2  UNL     1       4.217  26.703  40.326  1.00  0.00    -0.166 F 
HETATM   30  F3  UNL     1       2.654  27.062  41.958  1.00  0.00    -0.166 F 
ENDBRANCH  24  27
BRANCH  24  31
HETATM   31  C28 UNL     1       2.544  24.990  39.417  1.00  0.00     0.439 C 
HETATM   32  F4  UNL     1       3.430  25.250  38.399  1.00  0.00    -0.166 F 
HETATM   33  F5  UNL     1       1.555  24.176  38.913  1.00  0.00    -0.166 F 
HETATM   34  F6  UNL     1       3.201  24.357  40.443  1.00  0.00    -0.166 F 
ENDBRANCH  24  31
ENDBRANCH  23  24
ENDBRANCH  21  22
ENDBRANCH  12  21
ENDBRANCH  11  12
BRANCH   1  35
HETATM   35  C4  UNL     1       0.129  35.418  38.773  1.00  0.00     0.008 C 
HETATM   36  C3  UNL     1       0.474  36.582  38.184  1.00  0.00    -0.048 C 
HETATM   37  C2  UNL     1       1.860  36.990  38.083  1.00  0.00    -0.033 C 
HETATM   38  C29 UNL     1      -0.603  37.513  37.701  1.00  0.00     0.071 C 
HETATM   39  C1  UNL     1       2.700  36.109  37.591  1.00  0.00     0.022 C 
HETATM   40  C32 UNL     1       2.217  38.386  38.489  1.00  0.00     0.153 C 
HETATM   41  C31 UNL     1       1.185  39.289  37.833  1.00  0.00     0.068 C 
HETATM   42  C30 UNL     1      -0.231  38.935  38.128  1.00  0.00     0.125 C 
BRANCH  40  43
HETATM   43  O4  UNL     1       3.462  38.744  37.967  1.00  0.00    -0.391 OA
ATOM     44  H4  UNL     1       3.400  39.563  37.490  1.00  0.00     0.210 HD
ENDBRANCH  40  43
BRANCH  42  45
HETATM   45  O3  UNL     1      -0.478  38.994  39.514  1.00  0.00    -0.395 OA
ATOM     46  H3  UNL     1      -1.418  39.100  39.604  1.00  0.00     0.210 HD
ENDBRANCH  42  45
ENDBRANCH   1  35
TORSDOF 14
ENDMDL
