MODEL 10
REMARK VINA RESULT: -11.694942915      1.052      1.517
REMARK  14 active torsions:
REMARK  status: ('A' for Active; 'I' for Inactive)
REMARK    1  A    between atoms: C4_4  and  C5_5 
REMARK    2  A    between atoms: C15_15  and  C16_16 
REMARK    3  A    between atoms: C16_16  and  C17_17 
REMARK    4  A    between atoms: C16_16  and  C23_25 
REMARK    5  A    between atoms: C17_17  and  C18_18 
REMARK    6  A    between atoms: C19_19  and  C20_20 
REMARK    7  A    between atoms: C20_20  and  O1_23 
REMARK    8  A    between atoms: C23_25  and  C24_26 
REMARK    9  A    between atoms: C25_27  and  C26_28 
REMARK   10  A    between atoms: C26_28  and  O2_29 
REMARK   11  A    between atoms: C26_28  and  C27_31 
REMARK   12  A    between atoms: C26_28  and  C28_35 
REMARK   13  A    between atoms: C30_40  and  O3_41 
REMARK   14  A    between atoms: C32_44  and  O4_45 
ROOT
HETATM    1  C5  UNL     1       0.740  35.909  37.504  1.00  0.00     0.004 C 
HETATM    2  C6  UNL     1       0.418  34.632  37.581  1.00  0.00    -0.075 C 
HETATM    3  C7  UNL     1      -0.972  34.353  37.089  1.00  0.00     0.034 C 
HETATM    4  C8  UNL     1      -1.394  32.973  36.979  1.00  0.00     0.005 C 
HETATM    5  C9  UNL     1      -0.471  31.921  37.437  1.00  0.00     0.010 C 
HETATM    6  C10 UNL     1       0.933  32.319  37.180  1.00  0.00    -0.033 C 
HETATM    7  C11 UNL     1       1.259  32.700  35.779  1.00  0.00     0.016 C 
HETATM    8  C12 UNL     1       1.212  33.546  38.068  1.00  0.00     0.023 C 
HETATM    9  C13 UNL     1       2.704  33.590  37.923  1.00  0.00     0.010 C 
HETATM   10  C14 UNL     1       3.180  32.124  37.777  1.00  0.00     0.006 C 
HETATM   11  C15 UNL     1       1.924  31.362  37.823  1.00  0.00     0.000 C 
ENDROOT
BRANCH  11  12
HETATM   12  C16 UNL     1       1.847  29.982  37.385  1.00  0.00     0.012 C 
BRANCH  12  13
HETATM   13  C17 UNL     1       0.943  29.187  38.344  1.00  0.00     0.100 C 
BRANCH  13  14
HETATM   14  C18 UNL     1       1.576  27.906  38.686  1.00  0.00    -0.103 C 
HETATM   15  C19 UNL     1       2.086  26.857  38.991  1.00  0.00    -0.069 C 
BRANCH  15  16
HETATM   16  C20 UNL     1       2.705  25.573  39.395  1.00  0.00     0.113 C 
HETATM   17  C21 UNL     1       1.641  24.561  39.670  1.00  0.00     0.060 C 
HETATM   18  C22 UNL     1       3.513  25.780  40.682  1.00  0.00     0.060 C 
BRANCH  16  19
HETATM   19  O1  UNL     1       3.555  25.148  38.377  1.00  0.00    -0.378 OA
ATOM     20  H1  UNL     1       4.214  24.575  38.750  1.00  0.00     0.211 HD
ENDBRANCH  16  19
ENDBRANCH  15  16
ENDBRANCH  13  14
ENDBRANCH  12  13
BRANCH  12  21
HETATM   21  C23 UNL     1       3.039  29.164  37.128  1.00  0.00     0.100 C 
BRANCH  21  22
HETATM   22  C24 UNL     1       3.391  29.027  35.723  1.00  0.00    -0.102 C 
HETATM   23  C25 UNL     1       3.676  28.931  34.538  1.00  0.00    -0.050 C 
BRANCH  23  24
HETATM   24  C26 UNL     1       3.993  28.821  33.104  1.00  0.00     0.318 C 
BRANCH  24  25
HETATM   25  O2  UNL     1       3.403  27.688  32.606  1.00  0.00    -0.363 OA
ATOM     26  H2  UNL     1       2.464  27.821  32.571  1.00  0.00     0.212 HD
ENDBRANCH  24  25
BRANCH  24  27
HETATM   27  C27 UNL     1       5.496  28.717  32.922  1.00  0.00     0.439 C 
HETATM   28  F1  UNL     1       5.846  27.452  33.388  1.00  0.00    -0.166 F 
HETATM   29  F2  UNL     1       6.159  29.706  33.589  1.00  0.00    -0.166 F 
HETATM   30  F3  UNL     1       5.741  28.724  31.565  1.00  0.00    -0.166 F 
ENDBRANCH  24  27
BRANCH  24  31
HETATM   31  C28 UNL     1       3.488  30.052  32.368  1.00  0.00     0.439 C 
HETATM   32  F4  UNL     1       4.538  30.891  32.081  1.00  0.00    -0.166 F 
HETATM   33  F5  UNL     1       2.625  30.732  33.198  1.00  0.00    -0.166 F 
HETATM   34  F6  UNL     1       2.849  29.706  31.203  1.00  0.00    -0.166 F 
ENDBRANCH  24  31
ENDBRANCH  23  24
ENDBRANCH  21  22
ENDBRANCH  12  21
ENDBRANCH  11  12
BRANCH   1  35
HETATM   35  C4  UNL     1       1.956  36.570  37.872  1.00  0.00     0.008 C 
HETATM   36  C3  UNL     1       1.865  37.788  38.444  1.00  0.00    -0.048 C 
HETATM   37  C2  UNL     1       0.578  38.402  38.700  1.00  0.00    -0.033 C 
HETATM   38  C29 UNL     1       3.121  38.560  38.743  1.00  0.00     0.071 C 
HETATM   39  C1  UNL     1      -0.308  37.671  39.335  1.00  0.00     0.022 C 
HETATM   40  C32 UNL     1       0.378  39.824  38.277  1.00  0.00     0.153 C 
HETATM   41  C31 UNL     1       1.608  40.581  38.754  1.00  0.00     0.068 C 
HETATM   42  C30 UNL     1       2.906  40.009  38.300  1.00  0.00     0.125 C 
BRANCH  40  43
HETATM   43  O4  UNL     1      -0.722  40.380  38.934  1.00  0.00    -0.391 OA
ATOM     44  H4  UNL     1      -1.300  39.696  39.252  1.00  0.00     0.210 HD
ENDBRANCH  40  43
BRANCH  42  45
HETATM   45  O3  UNL     1       2.974  39.992  36.892  1.00  0.00    -0.395 OA
ATOM     46  H3  UNL     1       3.151  39.090  36.654  1.00  0.00     0.210 HD
ENDBRANCH  42  45
ENDBRANCH   1  35
TORSDOF 14
ENDMDL
