MODEL 12
REMARK VINA RESULT: -11.677793460      3.377      5.852
REMARK  14 active torsions:
REMARK  status: ('A' for Active; 'I' for Inactive)
REMARK    1  A    between atoms: C4_4  and  C5_5 
REMARK    2  A    between atoms: C15_15  and  C16_16 
REMARK    3  A    between atoms: C16_16  and  C17_17 
REMARK    4  A    between atoms: C16_16  and  C23_25 
REMARK    5  A    between atoms: C17_17  and  C18_18 
REMARK    6  A    between atoms: C19_19  and  C20_20 
REMARK    7  A    between atoms: C20_20  and  O1_23 
REMARK    8  A    between atoms: C23_25  and  C24_26 
REMARK    9  A    between atoms: C25_27  and  C26_28 
REMARK   10  A    between atoms: C26_28  and  O2_29 
REMARK   11  A    between atoms: C26_28  and  C27_31 
REMARK   12  A    between atoms: C26_28  and  C28_35 
REMARK   13  A    between atoms: C30_40  and  O3_41 
REMARK   14  A    between atoms: C32_44  and  O4_45 
ROOT
HETATM    1  C5  UNL     1       1.327  34.816  39.259  1.00  0.00     0.004 C 
HETATM    2  C6  UNL     1       1.935  33.744  38.789  1.00  0.00    -0.075 C 
HETATM    3  C7  UNL     1       3.004  33.232  39.709  1.00  0.00     0.034 C 
HETATM    4  C8  UNL     1       3.643  31.975  39.382  1.00  0.00     0.005 C 
HETATM    5  C9  UNL     1       3.274  31.310  38.121  1.00  0.00     0.010 C 
HETATM    6  C10 UNL     1       1.845  31.551  37.810  1.00  0.00    -0.033 C 
HETATM    7  C11 UNL     1       0.873  31.184  38.875  1.00  0.00     0.016 C 
HETATM    8  C12 UNL     1       1.700  33.063  37.553  1.00  0.00     0.023 C 
HETATM    9  C13 UNL     1       0.323  33.054  36.959  1.00  0.00     0.010 C 
HETATM   10  C14 UNL     1       0.182  31.720  36.184  1.00  0.00     0.006 C 
HETATM   11  C15 UNL     1       1.474  31.062  36.420  1.00  0.00     0.000 C 
ENDROOT
BRANCH  11  12
HETATM   12  C16 UNL     1       1.672  29.647  36.171  1.00  0.00     0.012 C 
BRANCH  12  13
HETATM   13  C17 UNL     1       1.611  29.377  34.657  1.00  0.00     0.100 C 
BRANCH  13  14
HETATM   14  C18 UNL     1       2.970  29.332  34.100  1.00  0.00    -0.103 C 
HETATM   15  C19 UNL     1       4.081  29.270  33.636  1.00  0.00    -0.069 C 
BRANCH  15  16
HETATM   16  C20 UNL     1       5.442  29.164  33.059  1.00  0.00     0.113 C 
HETATM   17  C21 UNL     1       5.613  30.176  31.974  1.00  0.00     0.060 C 
HETATM   18  C22 UNL     1       5.628  27.770  32.447  1.00  0.00     0.060 C 
BRANCH  16  19
HETATM   19  O1  UNL     1       6.373  29.353  34.077  1.00  0.00    -0.378 OA
ATOM     20  H1  UNL     1       6.494  30.285  34.209  1.00  0.00     0.211 HD
ENDBRANCH  16  19
ENDBRANCH  15  16
ENDBRANCH  13  14
ENDBRANCH  12  13
BRANCH  12  21
HETATM   21  C23 UNL     1       0.876  28.607  36.834  1.00  0.00     0.100 C 
BRANCH  21  22
HETATM   22  C24 UNL     1       1.588  27.853  37.854  1.00  0.00    -0.102 C 
HETATM   23  C25 UNL     1       2.167  27.208  38.717  1.00  0.00    -0.050 C 
BRANCH  23  24
HETATM   24  C26 UNL     1       2.844  26.435  39.772  1.00  0.00     0.318 C 
BRANCH  24  25
HETATM   25  O2  UNL     1       4.021  27.060  40.093  1.00  0.00    -0.363 OA
ATOM     26  H2  UNL     1       3.853  27.700  40.774  1.00  0.00     0.212 HD
ENDBRANCH  24  25
BRANCH  24  27
HETATM   27  C27 UNL     1       3.148  25.038  39.265  1.00  0.00     0.439 C 
HETATM   28  F1  UNL     1       1.923  24.506  38.868  1.00  0.00    -0.166 F 
HETATM   29  F2  UNL     1       3.750  24.270  40.219  1.00  0.00    -0.166 F 
HETATM   30  F3  UNL     1       3.911  25.178  38.125  1.00  0.00    -0.166 F 
ENDBRANCH  24  27
BRANCH  24  31
HETATM   31  C28 UNL     1       1.944  26.335  40.994  1.00  0.00     0.439 C 
HETATM   32  F4  UNL     1       1.910  25.037  41.446  1.00  0.00    -0.166 F 
HETATM   33  F5  UNL     1       0.665  26.682  40.623  1.00  0.00    -0.166 F 
HETATM   34  F6  UNL     1       2.384  27.157  42.002  1.00  0.00    -0.166 F 
ENDBRANCH  24  31
ENDBRANCH  23  24
ENDBRANCH  21  22
ENDBRANCH  12  21
ENDBRANCH  11  12
BRANCH   1  35
HETATM   35  C4  UNL     1       0.269  35.594  38.686  1.00  0.00     0.008 C 
HETATM   36  C3  UNL     1       0.590  36.773  38.116  1.00  0.00    -0.048 C 
HETATM   37  C2  UNL     1       1.963  37.232  38.062  1.00  0.00    -0.033 C 
HETATM   38  C29 UNL     1      -0.504  37.668  37.603  1.00  0.00     0.071 C 
HETATM   39  C1  UNL     1       2.850  36.385  37.592  1.00  0.00     0.022 C 
HETATM   40  C32 UNL     1       2.255  38.637  38.487  1.00  0.00     0.153 C 
HETATM   41  C31 UNL     1       1.212  39.507  37.803  1.00  0.00     0.068 C 
HETATM   42  C30 UNL     1      -0.199  39.099  38.050  1.00  0.00     0.125 C 
BRANCH  40  43
HETATM   43  O4  UNL     1       3.502  39.044  38.008  1.00  0.00    -0.391 OA
ATOM     44  H4  UNL     1       4.086  38.299  37.925  1.00  0.00     0.210 HD
ENDBRANCH  40  43
BRANCH  42  45
HETATM   45  O3  UNL     1      -0.492  39.140  39.428  1.00  0.00    -0.395 OA
ATOM     46  H3  UNL     1      -0.718  40.044  39.616  1.00  0.00     0.210 HD
ENDBRANCH  42  45
ENDBRANCH   1  35
TORSDOF 14
ENDMDL
