MODEL 1
REMARK VINA RESULT: -12.468537404      0.000      0.000
REMARK  9 active torsions:
REMARK  status: ('A' for Active; 'I' for Inactive)
REMARK    1  A    between atoms: C2_2  and  N1_3 
REMARK    2  A    between atoms: C2_2  and  C20_32 
REMARK       I    between atoms: N1_3  and  C3_5 
REMARK    3  A    between atoms: C3_5  and  C4_7 
REMARK    4  A    between atoms: C4_7  and  C5_8 
REMARK    5  A    between atoms: C5_8  and  C6_9 
REMARK    6  A    between atoms: N4_19  and  C12_20 
REMARK    7  A    between atoms: C12_20  and  C13_21 
REMARK    8  A    between atoms: C16_24  and  O2_25 
REMARK    9  A    between atoms: O2_25  and  C17_26 
ROOT
HETATM    1  C6  UNL     1     -37.972  19.568  -9.380  1.00  0.00     0.086 A 
HETATM    2  N2  UNL     1     -38.355  20.843  -9.636  1.00  0.00    -0.343 N 
ATOM      3  H2  UNL     1     -38.646  21.528  -8.938  1.00  0.00     0.167 HD
HETATM    4  C7  UNL     1     -38.288  21.055 -10.949  1.00  0.00     0.078 A 
HETATM    5  C8  UNL     1     -38.571  22.178 -11.710  1.00  0.00     0.035 A 
HETATM    6  C9  UNL     1     -38.393  22.056 -13.069  1.00  0.00     0.019 A 
HETATM    7  C10 UNL     1     -37.957  20.880 -13.640  1.00  0.00     0.090 A 
HETATM    8  N3  UNL     1     -37.687  19.800 -12.899  1.00  0.00    -0.350 N 
ATOM      9  H3  UNL     1     -37.365  18.931 -13.325  1.00  0.00     0.166 HD
HETATM   10  C11 UNL     1     -37.860  19.907 -11.547  1.00  0.00     0.136 A 
HETATM   11  N4  UNL     1     -37.669  18.996 -10.550  1.00  0.00    -0.317 N 
ENDROOT
BRANCH   1  12
HETATM   12  C5  UNL     1     -37.874  18.940  -8.029  1.00  0.00     0.086 C 
BRANCH  12  13
HETATM   13  C4  UNL     1     -38.217  19.883  -6.944  1.00  0.00     0.110 C 
BRANCH  13  14
HETATM   14  C3  UNL     1     -39.689  19.910  -6.737  1.00  0.00     0.218 C 
HETATM   15  N1  UNL     1     -40.392  21.140  -6.817  1.00  0.00    -0.353 N 
ATOM     16  H1  UNL     1     -39.896  22.009  -7.017  1.00  0.00     0.163 HD
HETATM   17  O1  UNL     1     -40.361  18.885  -6.491  1.00  0.00    -0.274 OA
BRANCH  15  18
HETATM   18  C2  UNL     1     -41.816  21.138  -6.612  1.00  0.00     0.113 C 
HETATM   19  C1  UNL     1     -42.169  22.494  -5.992  1.00  0.00     0.037 C 
BRANCH  18  20
HETATM   20  C20 UNL     1     -42.540  20.957  -7.913  1.00  0.00    -0.036 A 
HETATM   21  C21 UNL     1     -42.122  21.582  -9.074  1.00  0.00     0.011 A 
HETATM   22  C22 UNL     1     -42.803  21.409 -10.282  1.00  0.00     0.024 A 
HETATM   23  C23 UNL     1     -43.919  20.602 -10.343  1.00  0.00     0.034 A 
HETATM   24 CL1  UNL     1     -44.779  20.379 -11.855  1.00  0.00    -0.084 Cl
HETATM   25  C24 UNL     1     -44.351  19.971  -9.197  1.00  0.00     0.024 A 
HETATM   26  C25 UNL     1     -43.661  20.154  -8.000  1.00  0.00     0.011 A 
ENDBRANCH  18  20
ENDBRANCH  15  18
ENDBRANCH  13  14
ENDBRANCH  12  13
ENDBRANCH   1  12
BRANCH  11  27
HETATM   27  C12 UNL     1     -37.178  17.675 -10.784  1.00  0.00     0.170 C 
BRANCH  27  28
HETATM   28  C13 UNL     1     -35.749  17.532 -11.063  1.00  0.00    -0.040 A 
HETATM   29  C14 UNL     1     -34.757  17.809 -10.142  1.00  0.00     0.011 A 
HETATM   30  C15 UNL     1     -33.431  17.632 -10.460  1.00  0.00     0.037 A 
HETATM   31  C16 UNL     1     -33.010  17.176 -11.691  1.00  0.00     0.078 A 
HETATM   32  C18 UNL     1     -33.987  16.896 -12.620  1.00  0.00     0.037 A 
HETATM   33  C19 UNL     1     -35.311  17.077 -12.288  1.00  0.00     0.011 A 
BRANCH  31  34
HETATM   34  O2  UNL     1     -31.653  17.011 -11.971  1.00  0.00    -0.255 OA
BRANCH  34  35
HETATM   35  C17 UNL     1     -31.112  15.820 -12.467  1.00  0.00     0.530 C 
HETATM   36  F1  UNL     1     -29.738  15.909 -12.387  1.00  0.00    -0.144 F 
HETATM   37  F2  UNL     1     -31.600  14.757 -11.758  1.00  0.00    -0.144 F 
HETATM   38  F3  UNL     1     -31.448  15.705 -13.809  1.00  0.00    -0.144 F 
ENDBRANCH  34  35
ENDBRANCH  31  34
ENDBRANCH  27  28
ENDBRANCH  11  27
TORSDOF 9
ENDMDL
