MODEL 2
REMARK VINA RESULT: -12.311299841      1.235      1.470
REMARK  9 active torsions:
REMARK  status: ('A' for Active; 'I' for Inactive)
REMARK    1  A    between atoms: C2_2  and  N1_3 
REMARK    2  A    between atoms: C2_2  and  C20_32 
REMARK       I    between atoms: N1_3  and  C3_5 
REMARK    3  A    between atoms: C3_5  and  C4_7 
REMARK    4  A    between atoms: C4_7  and  C5_8 
REMARK    5  A    between atoms: C5_8  and  C6_9 
REMARK    6  A    between atoms: N4_19  and  C12_20 
REMARK    7  A    between atoms: C12_20  and  C13_21 
REMARK    8  A    between atoms: C16_24  and  O2_25 
REMARK    9  A    between atoms: O2_25  and  C17_26 
ROOT
HETATM    1  C6  UNL     1     -38.324  20.312  -9.092  1.00  0.00     0.086 A 
HETATM    2  N2  UNL     1     -38.591  21.491  -9.707  1.00  0.00    -0.343 N 
ATOM      3  H2  UNL     1     -38.870  22.354  -9.240  1.00  0.00     0.167 HD
HETATM    4  C7  UNL     1     -38.429  21.336 -11.019  1.00  0.00     0.078 A 
HETATM    5  C8  UNL     1     -38.578  22.226 -12.070  1.00  0.00     0.035 A 
HETATM    6  C9  UNL     1     -38.328  21.731 -13.331  1.00  0.00     0.019 A 
HETATM    7  C10 UNL     1     -37.951  20.421 -13.532  1.00  0.00     0.090 A 
HETATM    8  N3  UNL     1     -37.811  19.568 -12.513  1.00  0.00    -0.350 N 
ATOM      9  H3  UNL     1     -37.533  18.599 -12.666  1.00  0.00     0.166 HD
HETATM   10  C11 UNL     1     -38.056  20.046 -11.256  1.00  0.00     0.136 A 
HETATM   11  N4  UNL     1     -37.997  19.428 -10.041  1.00  0.00    -0.317 N 
ENDROOT
BRANCH   1  12
HETATM   12  C5  UNL     1     -38.356  20.068  -7.620  1.00  0.00     0.086 C 
BRANCH  12  13
HETATM   13  C4  UNL     1     -39.346  20.922  -6.929  1.00  0.00     0.110 C 
BRANCH  13  14
HETATM   14  C3  UNL     1     -40.658  20.229  -6.859  1.00  0.00     0.218 C 
HETATM   15  N1  UNL     1     -41.853  20.947  -7.123  1.00  0.00    -0.353 N 
ATOM     16  H1  UNL     1     -41.820  21.938  -7.363  1.00  0.00     0.163 HD
HETATM   17  O1  UNL     1     -40.774  19.017  -6.573  1.00  0.00    -0.274 OA
BRANCH  15  18
HETATM   18  C2  UNL     1     -43.110  20.252  -7.047  1.00  0.00     0.113 C 
HETATM   19  C1  UNL     1     -44.055  21.147  -6.235  1.00  0.00     0.037 C 
BRANCH  18  20
HETATM   20  C20 UNL     1     -43.670  20.015  -8.417  1.00  0.00    -0.036 A 
HETATM   21  C21 UNL     1     -43.537  20.945  -9.432  1.00  0.00     0.011 A 
HETATM   22  C22 UNL     1     -44.062  20.716 -10.707  1.00  0.00     0.024 A 
HETATM   23  C23 UNL     1     -44.732  19.543 -10.983  1.00  0.00     0.034 A 
HETATM   24 CL1  UNL     1     -45.394  19.247 -12.580  1.00  0.00    -0.084 Cl
HETATM   25  C24 UNL     1     -44.875  18.604  -9.985  1.00  0.00     0.024 A 
HETATM   26  C25 UNL     1     -44.346  18.847  -8.719  1.00  0.00     0.011 A 
ENDBRANCH  18  20
ENDBRANCH  15  18
ENDBRANCH  13  14
ENDBRANCH  12  13
ENDBRANCH   1  12
BRANCH  11  27
HETATM   27  C12 UNL     1     -37.597  18.067  -9.876  1.00  0.00     0.170 C 
BRANCH  27  28
HETATM   28  C13 UNL     1     -36.178  17.760 -10.062  1.00  0.00    -0.040 A 
HETATM   29  C14 UNL     1     -35.181  18.207  -9.217  1.00  0.00     0.011 A 
HETATM   30  C15 UNL     1     -33.868  17.863  -9.434  1.00  0.00     0.037 A 
HETATM   31  C16 UNL     1     -33.464  17.067 -10.484  1.00  0.00     0.078 A 
HETATM   32  C18 UNL     1     -34.448  16.612 -11.335  1.00  0.00     0.037 A 
HETATM   33  C19 UNL     1     -35.759  16.964 -11.106  1.00  0.00     0.011 A 
BRANCH  31  34
HETATM   34  O2  UNL     1     -32.120  16.743 -10.666  1.00  0.00    -0.255 OA
BRANCH  34  35
HETATM   35  C17 UNL     1     -31.310  17.346 -11.634  1.00  0.00     0.530 C 
HETATM   36  F1  UNL     1     -32.007  18.407 -12.173  1.00  0.00    -0.144 F 
HETATM   37  F2  UNL     1     -30.128  17.741 -11.071  1.00  0.00    -0.144 F 
HETATM   38  F3  UNL     1     -31.080  16.433 -12.655  1.00  0.00    -0.144 F 
ENDBRANCH  34  35
ENDBRANCH  31  34
ENDBRANCH  27  28
ENDBRANCH  11  27
TORSDOF 9
ENDMDL
