MODEL 5
REMARK VINA RESULT: -11.695451475      5.014      9.295
REMARK  9 active torsions:
REMARK  status: ('A' for Active; 'I' for Inactive)
REMARK    1  A    between atoms: C2_2  and  N1_3 
REMARK    2  A    between atoms: C2_2  and  C20_32 
REMARK       I    between atoms: N1_3  and  C3_5 
REMARK    3  A    between atoms: C3_5  and  C4_7 
REMARK    4  A    between atoms: C4_7  and  C5_8 
REMARK    5  A    between atoms: C5_8  and  C6_9 
REMARK    6  A    between atoms: N4_19  and  C12_20 
REMARK    7  A    between atoms: C12_20  and  C13_21 
REMARK    8  A    between atoms: C16_24  and  O2_25 
REMARK    9  A    between atoms: O2_25  and  C17_26 
ROOT
HETATM    1  C6  UNL     1     -42.217  21.565  -6.792  1.00  0.00     0.086 A 
HETATM    2  N2  UNL     1     -42.196  22.812  -6.260  1.00  0.00    -0.343 N 
ATOM      3  H2  UNL     1     -41.406  23.457  -6.288  1.00  0.00     0.167 HD
HETATM    4  C7  UNL     1     -43.376  23.056  -5.693  1.00  0.00     0.078 A 
HETATM    5  C8  UNL     1     -43.856  24.169  -5.022  1.00  0.00     0.035 A 
HETATM    6  C9  UNL     1     -45.147  24.090  -4.552  1.00  0.00     0.019 A 
HETATM    7  C10 UNL     1     -45.918  22.963  -4.739  1.00  0.00     0.090 A 
HETATM    8  N3  UNL     1     -45.447  21.893  -5.386  1.00  0.00    -0.350 N 
ATOM      9  H3  UNL     1     -46.021  21.060  -5.522  1.00  0.00     0.166 HD
HETATM   10  C11 UNL     1     -44.167  21.958  -5.859  1.00  0.00     0.136 A 
HETATM   11  N4  UNL     1     -43.424  21.043  -6.546  1.00  0.00    -0.317 N 
ENDROOT
BRANCH   1  12
HETATM   12  C5  UNL     1     -41.103  20.919  -7.546  1.00  0.00     0.086 C 
BRANCH  12  13
HETATM   13  C4  UNL     1     -40.265  21.902  -8.265  1.00  0.00     0.110 C 
BRANCH  13  14
HETATM   14  C3  UNL     1     -40.184  21.548  -9.706  1.00  0.00     0.218 C 
HETATM   15  N1  UNL     1     -38.918  21.366 -10.318  1.00  0.00    -0.353 N 
ATOM     16  H1  UNL     1     -38.059  21.475  -9.778  1.00  0.00     0.163 HD
HETATM   17  O1  UNL     1     -41.193  21.397 -10.428  1.00  0.00    -0.274 OA
BRANCH  15  18
HETATM   18  C2  UNL     1     -38.867  21.025 -11.716  1.00  0.00     0.113 C 
HETATM   19  C1  UNL     1     -38.436  22.294 -12.459  1.00  0.00     0.037 C 
BRANCH  18  20
HETATM   20  C20 UNL     1     -37.882  19.921 -11.957  1.00  0.00    -0.036 A 
HETATM   21  C21 UNL     1     -37.593  19.466 -13.231  1.00  0.00     0.011 A 
HETATM   22  C22 UNL     1     -36.672  18.436 -13.448  1.00  0.00     0.024 A 
HETATM   23  C23 UNL     1     -36.026  17.846 -12.383  1.00  0.00     0.034 A 
HETATM   24 CL1  UNL     1     -34.869  16.553 -12.646  1.00  0.00    -0.084 Cl
HETATM   25  C24 UNL     1     -36.301  18.285 -11.107  1.00  0.00     0.024 A 
HETATM   26  C25 UNL     1     -37.220  19.312 -10.907  1.00  0.00     0.011 A 
ENDBRANCH  18  20
ENDBRANCH  15  18
ENDBRANCH  13  14
ENDBRANCH  12  13
ENDBRANCH   1  12
BRANCH  11  27
HETATM   27  C12 UNL     1     -43.930  19.769  -6.947  1.00  0.00     0.170 C 
BRANCH  27  28
HETATM   28  C13 UNL     1     -44.296  19.608  -8.355  1.00  0.00    -0.040 A 
HETATM   29  C14 UNL     1     -44.379  20.658  -9.250  1.00  0.00     0.011 A 
HETATM   30  C15 UNL     1     -44.706  20.436 -10.567  1.00  0.00     0.037 A 
HETATM   31  C16 UNL     1     -44.968  19.182 -11.074  1.00  0.00     0.078 A 
HETATM   32  C18 UNL     1     -44.889  18.124 -10.194  1.00  0.00     0.037 A 
HETATM   33  C19 UNL     1     -44.560  18.360  -8.878  1.00  0.00     0.011 A 
BRANCH  31  34
HETATM   34  O2  UNL     1     -45.296  19.003 -12.418  1.00  0.00    -0.255 OA
BRANCH  34  35
HETATM   35  C17 UNL     1     -44.395  18.510 -13.369  1.00  0.00     0.530 C 
HETATM   36  F1  UNL     1     -45.002  18.573 -14.605  1.00  0.00    -0.144 F 
HETATM   37  F2  UNL     1     -43.235  19.232 -13.328  1.00  0.00    -0.144 F 
HETATM   38  F3  UNL     1     -44.145  17.173 -13.092  1.00  0.00    -0.144 F 
ENDBRANCH  34  35
ENDBRANCH  31  34
ENDBRANCH  27  28
ENDBRANCH  11  27
TORSDOF 9
ENDMDL
