MODEL 6
REMARK VINA RESULT: -11.691892785      4.608      8.256
REMARK  9 active torsions:
REMARK  status: ('A' for Active; 'I' for Inactive)
REMARK    1  A    between atoms: C2_2  and  N1_3 
REMARK    2  A    between atoms: C2_2  and  C20_32 
REMARK       I    between atoms: N1_3  and  C3_5 
REMARK    3  A    between atoms: C3_5  and  C4_7 
REMARK    4  A    between atoms: C4_7  and  C5_8 
REMARK    5  A    between atoms: C5_8  and  C6_9 
REMARK    6  A    between atoms: N4_19  and  C12_20 
REMARK    7  A    between atoms: C12_20  and  C13_21 
REMARK    8  A    between atoms: C16_24  and  O2_25 
REMARK    9  A    between atoms: O2_25  and  C17_26 
ROOT
HETATM    1  C6  UNL     1     -39.787  20.781  -6.964  1.00  0.00     0.086 A 
HETATM    2  N2  UNL     1     -38.675  21.554  -6.908  1.00  0.00    -0.343 N 
ATOM      3  H2  UNL     1     -37.713  21.215  -6.937  1.00  0.00     0.167 HD
HETATM    4  C7  UNL     1     -39.044  22.829  -6.806  1.00  0.00     0.078 A 
HETATM    5  C8  UNL     1     -38.298  23.993  -6.718  1.00  0.00     0.035 A 
HETATM    6  C9  UNL     1     -39.009  25.169  -6.623  1.00  0.00     0.019 A 
HETATM    7  C10 UNL     1     -40.387  25.184  -6.616  1.00  0.00     0.090 A 
HETATM    8  N3  UNL     1     -41.099  24.056  -6.701  1.00  0.00    -0.350 N 
ATOM      9  H3  UNL     1     -42.119  24.071  -6.695  1.00  0.00     0.166 HD
HETATM   10  C11 UNL     1     -40.406  22.881  -6.796  1.00  0.00     0.136 A 
HETATM   11  N4  UNL     1     -40.847  21.593  -6.896  1.00  0.00    -0.317 N 
ENDROOT
BRANCH   1  12
HETATM   12  C5  UNL     1     -39.811  19.296  -7.113  1.00  0.00     0.086 C 
BRANCH  12  13
HETATM   13  C4  UNL     1     -38.511  18.675  -6.780  1.00  0.00     0.110 C 
BRANCH  13  14
HETATM   14  C3  UNL     1     -37.621  18.683  -7.970  1.00  0.00     0.218 C 
HETATM   15  N1  UNL     1     -38.065  18.107  -9.188  1.00  0.00    -0.353 N 
ATOM     16  H1  UNL     1     -38.991  17.686  -9.257  1.00  0.00     0.163 HD
HETATM   17  O1  UNL     1     -36.475  19.182  -7.960  1.00  0.00    -0.274 OA
BRANCH  15  18
HETATM   18  C2  UNL     1     -37.183  18.127 -10.325  1.00  0.00     0.113 C 
HETATM   19  C1  UNL     1     -37.337  16.769 -11.021  1.00  0.00     0.037 C 
BRANCH  18  20
HETATM   20  C20 UNL     1     -37.551  19.236 -11.263  1.00  0.00    -0.036 A 
HETATM   21  C21 UNL     1     -37.415  19.109 -12.634  1.00  0.00     0.011 A 
HETATM   22  C22 UNL     1     -37.761  20.149 -13.502  1.00  0.00     0.024 A 
HETATM   23  C23 UNL     1     -38.250  21.337 -13.004  1.00  0.00     0.034 A 
HETATM   24 CL1  UNL     1     -38.687  22.647 -14.086  1.00  0.00    -0.084 Cl
HETATM   25  C24 UNL     1     -38.393  21.484 -11.642  1.00  0.00     0.024 A 
HETATM   26  C25 UNL     1     -38.044  20.438 -10.790  1.00  0.00     0.011 A 
ENDBRANCH  18  20
ENDBRANCH  15  18
ENDBRANCH  13  14
ENDBRANCH  12  13
ENDBRANCH   1  12
BRANCH  11  27
HETATM   27  C12 UNL     1     -42.230  21.244  -6.958  1.00  0.00     0.170 C 
BRANCH  27  28
HETATM   28  C13 UNL     1     -42.806  21.029  -8.286  1.00  0.00    -0.040 A 
HETATM   29  C14 UNL     1     -42.225  21.482  -9.455  1.00  0.00     0.011 A 
HETATM   30  C15 UNL     1     -42.806  21.227 -10.675  1.00  0.00     0.037 A 
HETATM   31  C16 UNL     1     -43.980  20.518 -10.813  1.00  0.00     0.078 A 
HETATM   32  C18 UNL     1     -44.571  20.059  -9.656  1.00  0.00     0.037 A 
HETATM   33  C19 UNL     1     -43.978  20.321  -8.441  1.00  0.00     0.011 A 
BRANCH  31  34
HETATM   34  O2  UNL     1     -44.534  20.282 -12.071  1.00  0.00    -0.255 OA
BRANCH  34  35
HETATM   35  C17 UNL     1     -44.318  19.105 -12.796  1.00  0.00     0.530 C 
HETATM   36  F1  UNL     1     -44.289  18.054 -11.904  1.00  0.00    -0.144 F 
HETATM   37  F2  UNL     1     -45.298  18.952 -13.738  1.00  0.00    -0.144 F 
HETATM   38  F3  UNL     1     -43.070  19.178 -13.400  1.00  0.00    -0.144 F 
ENDBRANCH  34  35
ENDBRANCH  31  34
ENDBRANCH  27  28
ENDBRANCH  11  27
TORSDOF 9
ENDMDL
