MODEL 9
REMARK VINA RESULT: -11.227171196      3.776      5.664
REMARK  9 active torsions:
REMARK  status: ('A' for Active; 'I' for Inactive)
REMARK    1  A    between atoms: C2_2  and  N1_3 
REMARK    2  A    between atoms: C2_2  and  C20_32 
REMARK       I    between atoms: N1_3  and  C3_5 
REMARK    3  A    between atoms: C3_5  and  C4_7 
REMARK    4  A    between atoms: C4_7  and  C5_8 
REMARK    5  A    between atoms: C5_8  and  C6_9 
REMARK    6  A    between atoms: N4_19  and  C12_20 
REMARK    7  A    between atoms: C12_20  and  C13_21 
REMARK    8  A    between atoms: C16_24  and  O2_25 
REMARK    9  A    between atoms: O2_25  and  C17_26 
ROOT
HETATM    1  C6  UNL     1     -34.580  17.252  -9.486  1.00  0.00     0.086 A 
HETATM    2  N2  UNL     1     -33.227  17.243  -9.384  1.00  0.00    -0.343 N 
ATOM      3  H2  UNL     1     -32.692  17.518  -8.560  1.00  0.00     0.167 HD
HETATM    4  C7  UNL     1     -32.714  16.815 -10.536  1.00  0.00     0.078 A 
HETATM    5  C8  UNL     1     -31.402  16.627 -10.938  1.00  0.00     0.035 A 
HETATM    6  C9  UNL     1     -31.216  16.164 -12.221  1.00  0.00     0.019 A 
HETATM    7  C10 UNL     1     -32.280  15.902 -13.057  1.00  0.00     0.090 A 
HETATM    8  N3  UNL     1     -33.543  16.087 -12.661  1.00  0.00    -0.350 N 
ATOM      9  H3  UNL     1     -34.328  15.892 -13.284  1.00  0.00     0.166 HD
HETATM   10  C11 UNL     1     -33.742  16.546 -11.390  1.00  0.00     0.136 A 
HETATM   11  N4  UNL     1     -34.894  16.826 -10.714  1.00  0.00    -0.317 N 
ENDROOT
BRANCH   1  12
HETATM   12  C5  UNL     1     -35.534  17.635  -8.404  1.00  0.00     0.086 C 
BRANCH  12  13
HETATM   13  C4  UNL     1     -35.951  19.050  -8.496  1.00  0.00     0.110 C 
BRANCH  13  14
HETATM   14  C3  UNL     1     -37.186  19.272  -7.700  1.00  0.00     0.218 C 
HETATM   15  N1  UNL     1     -37.807  20.548  -7.700  1.00  0.00    -0.353 N 
ATOM     16  H1  UNL     1     -37.413  21.317  -8.242  1.00  0.00     0.163 HD
HETATM   17  O1  UNL     1     -37.725  18.377  -7.014  1.00  0.00    -0.274 OA
BRANCH  15  18
HETATM   18  C2  UNL     1     -39.002  20.736  -6.920  1.00  0.00     0.113 C 
HETATM   19  C1  UNL     1     -38.791  22.014  -6.099  1.00  0.00     0.037 C 
BRANCH  18  20
HETATM   20  C20 UNL     1     -40.199  20.883  -7.810  1.00  0.00    -0.036 A 
HETATM   21  C21 UNL     1     -41.476  20.584  -7.372  1.00  0.00     0.011 A 
HETATM   22  C22 UNL     1     -42.587  20.724  -8.209  1.00  0.00     0.024 A 
HETATM   23  C23 UNL     1     -42.431  21.166  -9.505  1.00  0.00     0.034 A 
HETATM   24 CL1  UNL     1     -43.819  21.344 -10.562  1.00  0.00    -0.084 Cl
HETATM   25  C24 UNL     1     -41.166  21.468  -9.961  1.00  0.00     0.024 A 
HETATM   26  C25 UNL     1     -40.069  21.324  -9.114  1.00  0.00     0.011 A 
ENDBRANCH  18  20
ENDBRANCH  15  18
ENDBRANCH  13  14
ENDBRANCH  12  13
ENDBRANCH   1  12
BRANCH  11  27
HETATM   27  C12 UNL     1     -36.194  16.629 -11.272  1.00  0.00     0.170 C 
BRANCH  27  28
HETATM   28  C13 UNL     1     -36.818  17.774 -11.934  1.00  0.00    -0.040 A 
HETATM   29  C14 UNL     1     -37.532  18.750 -11.265  1.00  0.00     0.011 A 
HETATM   30  C15 UNL     1     -38.075  19.815 -11.944  1.00  0.00     0.037 A 
HETATM   31  C16 UNL     1     -37.948  19.980 -13.307  1.00  0.00     0.078 A 
HETATM   32  C18 UNL     1     -37.238  19.015 -13.988  1.00  0.00     0.037 A 
HETATM   33  C19 UNL     1     -36.699  17.954 -13.296  1.00  0.00     0.011 A 
BRANCH  31  34
HETATM   34  O2  UNL     1     -38.516  21.077 -13.955  1.00  0.00    -0.255 OA
BRANCH  34  35
HETATM   35  C17 UNL     1     -38.512  22.370 -13.421  1.00  0.00     0.530 C 
HETATM   36  F1  UNL     1     -39.486  22.433 -12.448  1.00  0.00    -0.144 F 
HETATM   37  F2  UNL     1     -37.271  22.664 -12.926  1.00  0.00    -0.144 F 
HETATM   38  F3  UNL     1     -38.860  23.266 -14.422  1.00  0.00    -0.144 F 
ENDBRANCH  34  35
ENDBRANCH  31  34
ENDBRANCH  27  28
ENDBRANCH  11  27
TORSDOF 9
ENDMDL
