MODEL 12
REMARK VINA RESULT: -8.835469679      3.734     12.202
REMARK  14 active torsions:
REMARK  status: ('A' for Active; 'I' for Inactive)
REMARK    1  A    between atoms: C2_2  and  C4_4 
REMARK    2  A    between atoms: C4_4  and  C5_5 
REMARK    3  A    between atoms: C5_5  and  N1_6 
REMARK    4  A    between atoms: C5_5  and  C15_24 
REMARK    5  A    between atoms: N1_6  and  P1_8 
REMARK    6  A    between atoms: P1_8  and  C6_11 
REMARK    7  A    between atoms: C6_11  and  N2_12 
REMARK       I    between atoms: N2_12  and  C7_14 
REMARK    8  A    between atoms: C7_14  and  O4_16 
REMARK    9  A    between atoms: O4_16  and  C8_17 
REMARK   10  A    between atoms: C8_17  and  C9_18 
REMARK       I    between atoms: C15_24  and  N3_26 
REMARK   11  A    between atoms: N3_26  and  C16_28 
REMARK   12  A    between atoms: C16_28  and  C17_29 
REMARK   13  A    between atoms: C16_28  and  C24_36 
REMARK   14  A    between atoms: C17_29  and  C18_30 
ROOT
HETATM    1  C5  UNL     1      13.606  38.261 -10.059  1.00  0.00     0.178 C 
ENDROOT
BRANCH   1   2
HETATM    2  C4  UNL     1      12.990  37.007 -10.675  1.00  0.00     0.038 C 
BRANCH   2   3
HETATM    3  C2  UNL     1      13.861  36.172 -11.497  1.00  0.00    -0.020 C 
HETATM    4  C1  UNL     1      13.000  35.354 -12.464  1.00  0.00     0.009 C 
HETATM    5  C3  UNL     1      14.982  35.380 -11.058  1.00  0.00     0.009 C 
ENDBRANCH   2   3
ENDBRANCH   1   2
BRANCH   1   6
HETATM    6  N1  UNL     1      12.666  38.952  -9.322  1.00  0.00    -0.334 N 
ATOM      7  H1  UNL     1      12.092  39.656  -9.786  1.00  0.00     0.164 HD
BRANCH   6   8
HETATM    8  P1  UNL     1      12.438  38.664  -7.671  1.00  0.00     0.224 P 
HETATM    9  O1  UNL     1      11.331  37.606  -7.996  1.00  0.00    -0.651 OA
HETATM   10  O2  UNL     1      13.277  37.380  -6.925  1.00  0.00    -0.651 OA
BRANCH   8  11
HETATM   11  C6  UNL     1      11.430  39.691  -6.698  1.00  0.00     0.252 C 
BRANCH  11  12
HETATM   12  N2  UNL     1      11.433  39.199  -5.356  1.00  0.00    -0.325 N 
HETATM   13  C7  UNL     1      10.465  38.340  -4.741  1.00  0.00     0.361 C 
HETATM   14  O3  UNL     1       9.534  37.909  -5.423  1.00  0.00    -0.238 OA
ATOM     15  H2  UNL     1      12.214  39.492  -4.769  1.00  0.00     0.165 HD
BRANCH  13  16
HETATM   16  O4  UNL     1      10.542  37.991  -3.436  1.00  0.00    -0.299 OA
BRANCH  16  17
HETATM   17  C8  UNL     1      10.653  38.745  -2.301  1.00  0.00     0.219 C 
BRANCH  17  18
HETATM   18  C9  UNL     1       9.866  38.021  -1.233  1.00  0.00    -0.034 A 
HETATM   19  C10 UNL     1       9.679  38.615  -0.013  1.00  0.00     0.009 A 
HETATM   20  C11 UNL     1       8.921  38.074   0.993  1.00  0.00     0.001 A 
HETATM   21  C12 UNL     1       8.310  36.869   0.775  1.00  0.00     0.000 A 
HETATM   22  C13 UNL     1       8.483  36.251  -0.441  1.00  0.00     0.001 A 
HETATM   23  C14 UNL     1       9.258  36.796  -1.465  1.00  0.00     0.009 A 
ENDBRANCH  17  18
ENDBRANCH  16  17
ENDBRANCH  13  16
ENDBRANCH  11  12
ENDBRANCH   8  11
ENDBRANCH   6   8
ENDBRANCH   1   6
BRANCH   1  24
HETATM   24  C15 UNL     1      14.280  39.069 -11.085  1.00  0.00     0.244 C 
HETATM   25  O5  UNL     1      13.657  39.857 -11.829  1.00  0.00    -0.271 OA
HETATM   26  N3  UNL     1      15.689  38.987 -11.231  1.00  0.00    -0.323 N 
ATOM     27  H3  UNL     1      16.141  38.307 -10.619  1.00  0.00     0.169 HD
BRANCH  26  28
HETATM   28  C16 UNL     1      16.566  39.687 -12.080  1.00  0.00     0.089 C 
BRANCH  28  29
HETATM   29  C17 UNL     1      16.684  39.094 -13.446  1.00  0.00     0.069 C 
BRANCH  29  30
HETATM   30  C18 UNL     1      16.153  37.711 -13.589  1.00  0.00    -0.009 C 
HETATM   31  C19 UNL     1      15.198  37.545 -14.725  1.00  0.00     0.005 C 
HETATM   32  C20 UNL     1      15.303  36.122 -15.291  1.00  0.00     0.000 C 
HETATM   33  C21 UNL     1      16.681  35.743 -15.721  1.00  0.00     0.000 C 
HETATM   34  C22 UNL     1      17.754  36.505 -14.975  1.00  0.00     0.000 C 
HETATM   35  C23 UNL     1      17.294  36.700 -13.574  1.00  0.00     0.005 C 
ENDBRANCH  29  30
ENDBRANCH  28  29
BRANCH  28  36
HETATM   36  C24 UNL     1      16.762  41.109 -11.937  1.00  0.00     0.222 C 
HETATM   37  O6  UNL     1      16.220  41.976 -12.632  1.00  0.00    -0.643 OA
HETATM   38  O7  UNL     1      17.637  41.616 -10.944  1.00  0.00    -0.643 OA
ENDBRANCH  28  36
ENDBRANCH  26  28
ENDBRANCH   1  24
TORSDOF 14
ENDMDL
