MODEL 15
REMARK VINA RESULT: -8.745607972      3.637      8.922
REMARK  14 active torsions:
REMARK  status: ('A' for Active; 'I' for Inactive)
REMARK    1  A    between atoms: C2_2  and  C4_4 
REMARK    2  A    between atoms: C4_4  and  C5_5 
REMARK    3  A    between atoms: C5_5  and  N1_6 
REMARK    4  A    between atoms: C5_5  and  C15_24 
REMARK    5  A    between atoms: N1_6  and  P1_8 
REMARK    6  A    between atoms: P1_8  and  C6_11 
REMARK    7  A    between atoms: C6_11  and  N2_12 
REMARK       I    between atoms: N2_12  and  C7_14 
REMARK    8  A    between atoms: C7_14  and  O4_16 
REMARK    9  A    between atoms: O4_16  and  C8_17 
REMARK   10  A    between atoms: C8_17  and  C9_18 
REMARK       I    between atoms: C15_24  and  N3_26 
REMARK   11  A    between atoms: N3_26  and  C16_28 
REMARK   12  A    between atoms: C16_28  and  C17_29 
REMARK   13  A    between atoms: C16_28  and  C24_36 
REMARK   14  A    between atoms: C17_29  and  C18_30 
ROOT
HETATM    1  C5  UNL     1       9.554  38.679  -3.382  1.00  0.00     0.178 C 
ENDROOT
BRANCH   1   2
HETATM    2  C4  UNL     1       9.505  37.338  -2.656  1.00  0.00     0.038 C 
BRANCH   2   3
HETATM    3  C2  UNL     1       9.757  37.348  -1.218  1.00  0.00    -0.020 C 
HETATM    4  C1  UNL     1       8.670  36.531  -0.514  1.00  0.00     0.009 C 
HETATM    5  C3  UNL     1      10.119  38.479  -0.401  1.00  0.00     0.009 C 
ENDBRANCH   2   3
ENDBRANCH   1   2
BRANCH   1   6
HETATM    6  N1  UNL     1       8.347  39.338  -3.269  1.00  0.00    -0.334 N 
ATOM      7  H1  UNL     1       7.492  38.791  -3.164  1.00  0.00     0.164 HD
BRANCH   6   8
HETATM    8  P1  UNL     1       8.244  41.026  -3.300  1.00  0.00     0.224 P 
HETATM    9  O1  UNL     1       6.687  40.946  -3.149  1.00  0.00    -0.651 OA
HETATM   10  O2  UNL     1       8.221  41.886  -1.828  1.00  0.00    -0.651 OA
BRANCH   8  11
HETATM   11  C6  UNL     1       8.238  41.911  -4.794  1.00  0.00     0.252 C 
BRANCH  11  12
HETATM   12  N2  UNL     1       6.912  42.386  -5.042  1.00  0.00    -0.325 N 
HETATM   13  C7  UNL     1       6.479  43.249  -6.100  1.00  0.00     0.361 C 
HETATM   14  O3  UNL     1       7.298  43.607  -6.948  1.00  0.00    -0.238 OA
ATOM     15  H2  UNL     1       6.192  42.074  -4.391  1.00  0.00     0.165 HD
BRANCH  13  16
HETATM   16  O4  UNL     1       5.202  43.684  -6.194  1.00  0.00    -0.299 OA
BRANCH  16  17
HETATM   17  C8  UNL     1       4.375  44.273  -5.279  1.00  0.00     0.219 C 
BRANCH  17  18
HETATM   18  C9  UNL     1       3.379  43.214  -4.864  1.00  0.00    -0.034 A 
HETATM   19  C10 UNL     1       3.630  42.448  -3.757  1.00  0.00     0.009 A 
HETATM   20  C11 UNL     1       2.759  41.514  -3.259  1.00  0.00     0.001 A 
HETATM   21  C12 UNL     1       1.563  41.329  -3.899  1.00  0.00     0.000 A 
HETATM   22  C13 UNL     1       1.287  42.085  -5.014  1.00  0.00     0.001 A 
HETATM   23  C14 UNL     1       2.175  43.032  -5.527  1.00  0.00     0.009 A 
ENDBRANCH  17  18
ENDBRANCH  16  17
ENDBRANCH  13  16
ENDBRANCH  11  12
ENDBRANCH   8  11
ENDBRANCH   6   8
ENDBRANCH   1   6
BRANCH   1  24
HETATM   24  C15 UNL     1      10.018  38.506  -4.766  1.00  0.00     0.244 C 
HETATM   25  O5  UNL     1       9.511  37.667  -5.540  1.00  0.00    -0.271 OA
HETATM   26  N3  UNL     1      11.059  39.332  -5.266  1.00  0.00    -0.323 N 
ATOM     27  H3  UNL     1      11.456  39.978  -4.583  1.00  0.00     0.169 HD
BRANCH  26  28
HETATM   28  C16 UNL     1      11.634  39.408  -6.548  1.00  0.00     0.089 C 
BRANCH  28  29
HETATM   29  C17 UNL     1      12.235  40.740  -6.861  1.00  0.00     0.069 C 
BRANCH  29  30
HETATM   30  C18 UNL     1      12.478  41.006  -8.305  1.00  0.00    -0.009 C 
HETATM   31  C19 UNL     1      11.306  41.601  -9.015  1.00  0.00     0.005 C 
HETATM   32  C20 UNL     1      11.792  42.521 -10.143  1.00  0.00     0.000 C 
HETATM   33  C21 UNL     1      12.717  43.600  -9.688  1.00  0.00     0.000 C 
HETATM   34  C22 UNL     1      13.473  43.227  -8.431  1.00  0.00     0.000 C 
HETATM   35  C23 UNL     1      13.782  41.774  -8.491  1.00  0.00     0.005 C 
ENDBRANCH  29  30
ENDBRANCH  28  29
BRANCH  28  36
HETATM   36  C24 UNL     1      12.203  38.242  -7.178  1.00  0.00     0.222 C 
HETATM   37  O6  UNL     1      13.286  37.727  -6.880  1.00  0.00    -0.643 OA
HETATM   38  O7  UNL     1      11.515  37.590  -8.233  1.00  0.00    -0.643 OA
ENDBRANCH  28  36
ENDBRANCH  26  28
ENDBRANCH   1  24
TORSDOF 14
ENDMDL
