MODEL 13
REMARK VINA RESULT: -8.776770446      2.439      5.695
REMARK  14 active torsions:
REMARK  status: ('A' for Active; 'I' for Inactive)
REMARK    1  A    between atoms: C2_2  and  C4_4 
REMARK    2  A    between atoms: C4_4  and  C5_5 
REMARK    3  A    between atoms: C5_5  and  N1_6 
REMARK    4  A    between atoms: C5_5  and  C15_24 
REMARK    5  A    between atoms: N1_6  and  P1_8 
REMARK    6  A    between atoms: P1_8  and  C6_11 
REMARK    7  A    between atoms: C6_11  and  N2_12 
REMARK       I    between atoms: N2_12  and  C7_14 
REMARK    8  A    between atoms: C7_14  and  O4_16 
REMARK    9  A    between atoms: O4_16  and  C8_17 
REMARK   10  A    between atoms: C8_17  and  C9_18 
REMARK       I    between atoms: C15_24  and  N3_26 
REMARK   11  A    between atoms: N3_26  and  C16_28 
REMARK   12  A    between atoms: C16_28  and  C17_29 
REMARK   13  A    between atoms: C16_28  and  C24_36 
REMARK   14  A    between atoms: C17_29  and  C18_30 
ROOT
HETATM    1  C5  UNL     1       7.885  42.017  -4.002  1.00  0.00     0.178 C 
ENDROOT
BRANCH   1   2
HETATM    2  C4  UNL     1       6.729  42.368  -3.069  1.00  0.00     0.038 C 
BRANCH   2   3
HETATM    3  C2  UNL     1       5.429  42.622  -3.683  1.00  0.00    -0.020 C 
HETATM    4  C1  UNL     1       4.934  44.005  -3.251  1.00  0.00     0.009 C 
HETATM    5  C3  UNL     1       4.313  41.714  -3.775  1.00  0.00     0.009 C 
ENDBRANCH   2   3
ENDBRANCH   1   2
BRANCH   1   6
HETATM    6  N1  UNL     1       7.623  42.453  -5.285  1.00  0.00    -0.334 N 
ATOM      7  H1  UNL     1       6.869  42.015  -5.813  1.00  0.00     0.164 HD
BRANCH   6   8
HETATM    8  P1  UNL     1       8.519  43.693  -6.006  1.00  0.00     0.224 P 
HETATM    9  O1  UNL     1       7.199  44.454  -6.366  1.00  0.00    -0.651 OA
HETATM   10  O2  UNL     1       8.922  45.073  -5.088  1.00  0.00    -0.651 OA
BRANCH   8  11
HETATM   11  C6  UNL     1       9.107  43.563  -7.635  1.00  0.00     0.252 C 
BRANCH  11  12
HETATM   12  N2  UNL     1      10.321  42.809  -7.627  1.00  0.00    -0.325 N 
HETATM   13  C7  UNL     1      10.923  42.115  -8.726  1.00  0.00     0.361 C 
HETATM   14  O3  UNL     1      10.397  42.192  -9.838  1.00  0.00    -0.238 OA
ATOM     15  H2  UNL     1      10.816  42.759  -6.736  1.00  0.00     0.165 HD
BRANCH  13  16
HETATM   16  O4  UNL     1      12.048  41.378  -8.580  1.00  0.00    -0.299 OA
BRANCH  16  17
HETATM   17  C8  UNL     1      13.204  41.333  -9.310  1.00  0.00     0.219 C 
BRANCH  17  18
HETATM   18  C9  UNL     1      13.322  39.917  -9.827  1.00  0.00    -0.034 A 
HETATM   19  C10 UNL     1      12.970  38.871  -9.017  1.00  0.00     0.009 A 
HETATM   20  C11 UNL     1      12.973  37.559  -9.417  1.00  0.00     0.001 A 
HETATM   21  C12 UNL     1      13.348  37.268 -10.700  1.00  0.00     0.000 A 
HETATM   22  C13 UNL     1      13.707  38.301 -11.533  1.00  0.00     0.001 A 
HETATM   23  C14 UNL     1      13.711  39.636 -11.128  1.00  0.00     0.009 A 
ENDBRANCH  17  18
ENDBRANCH  16  17
ENDBRANCH  13  16
ENDBRANCH  11  12
ENDBRANCH   8  11
ENDBRANCH   6   8
ENDBRANCH   1   6
BRANCH   1  24
HETATM   24  C15 UNL     1       8.215  40.588  -3.907  1.00  0.00     0.244 C 
HETATM   25  O5  UNL     1       7.370  39.728  -3.583  1.00  0.00    -0.271 OA
HETATM   26  N3  UNL     1       9.528  40.149  -4.221  1.00  0.00    -0.323 N 
ATOM     27  H3  UNL     1      10.184  40.896  -4.450  1.00  0.00     0.169 HD
BRANCH  26  28
HETATM   28  C16 UNL     1      10.076  38.853  -4.267  1.00  0.00     0.089 C 
BRANCH  28  29
HETATM   29  C17 UNL     1       9.413  37.885  -3.342  1.00  0.00     0.069 C 
BRANCH  29  30
HETATM   30  C18 UNL     1      10.037  37.757  -1.998  1.00  0.00    -0.009 C 
HETATM   31  C19 UNL     1       9.725  38.890  -1.076  1.00  0.00     0.005 C 
HETATM   32  C20 UNL     1       9.690  38.389   0.374  1.00  0.00     0.000 C 
HETATM   33  C21 UNL     1       8.734  37.266   0.602  1.00  0.00     0.000 C 
HETATM   34  C22 UNL     1       8.486  36.449  -0.648  1.00  0.00     0.000 C 
HETATM   35  C23 UNL     1       9.760  36.376  -1.413  1.00  0.00     0.005 C 
ENDBRANCH  29  30
ENDBRANCH  28  29
BRANCH  28  36
HETATM   36  C24 UNL     1      10.669  38.339  -5.477  1.00  0.00     0.222 C 
HETATM   37  O6  UNL     1      11.155  37.211  -5.609  1.00  0.00    -0.643 OA
HETATM   38  O7  UNL     1      10.735  39.146  -6.641  1.00  0.00    -0.643 OA
ENDBRANCH  28  36
ENDBRANCH  26  28
ENDBRANCH   1  24
TORSDOF 14
ENDMDL
