MODEL 1
REMARK VINA RESULT: -10.077995504      0.000      0.000
REMARK  10 active torsions:
REMARK  status: ('A' for Active; 'I' for Inactive)
REMARK    1  A    between atoms: N4_17  and  C9_18 
REMARK    2  A    between atoms: C9_18  and  C10_19 
REMARK    3  A    between atoms: C10_19  and  O3_20 
REMARK    4  A    between atoms: C10_19  and  C11_22 
REMARK    5  A    between atoms: C11_22  and  O4_23 
REMARK    6  A    between atoms: C11_22  and  C12_25 
REMARK    7  A    between atoms: C12_25  and  O5_26 
REMARK    8  A    between atoms: C12_25  and  C13_28 
REMARK    9  A    between atoms: C13_28  and  O6_29 
REMARK   10  A    between atoms: O6_29  and  P1_30 
ROOT
HETATM    1  C1  UNL     1       2.024 -38.179  -8.957  1.00  0.00     0.049 C 
HETATM    2  C2  UNL     1       1.227 -36.974  -9.290  1.00  0.00    -0.054 A 
HETATM    3  C3  UNL     1       1.530 -35.749  -8.737  1.00  0.00     0.039 A 
HETATM    4  C4  UNL     1       0.801 -34.606  -9.031  1.00  0.00     0.060 A 
HETATM    5  N1  UNL     1       1.147 -33.436  -8.465  1.00  0.00    -0.347 N 
ATOM      6  H1  UNL     1       1.938 -33.402  -7.822  1.00  0.00     0.166 HD
HETATM    7  C5  UNL     1       0.466 -32.317  -8.736  1.00  0.00     0.146 A 
HETATM    8  C6  UNL     1       0.785 -31.075  -8.173  1.00  0.00     0.280 A 
HETATM    9  O1  UNL     1       1.749 -31.026  -7.387  1.00  0.00    -0.265 OA
HETATM   10  N2  UNL     1       0.049 -29.982  -8.493  1.00  0.00    -0.273 N 
ATOM     11  H2  UNL     1       0.278 -29.075  -8.085  1.00  0.00     0.173 HD
HETATM   12  C7  UNL     1      -0.983 -30.092  -9.348  1.00  0.00     0.328 A 
HETATM   13  O2  UNL     1      -1.625 -29.039  -9.603  1.00  0.00    -0.247 OA
HETATM   14  N3  UNL     1      -1.330 -31.283  -9.920  1.00  0.00    -0.292 N 
ATOM     15  H3  UNL     1      -2.120 -31.317 -10.563  1.00  0.00     0.172 HD
HETATM   16  C8  UNL     1      -0.650 -32.409  -9.654  1.00  0.00     0.145 A 
HETATM   17  N4  UNL     1      -0.966 -33.621 -10.206  1.00  0.00    -0.327 N 
HETATM   18  C14 UNL     1      -0.270 -34.734  -9.923  1.00  0.00     0.063 A 
HETATM   19  C15 UNL     1      -0.581 -35.958 -10.483  1.00  0.00     0.039 A 
HETATM   20  C16 UNL     1       0.166 -37.078 -10.169  1.00  0.00    -0.054 A 
HETATM   21  C17 UNL     1      -0.154 -38.401 -10.761  1.00  0.00     0.049 C 
ENDROOT
BRANCH  17  22
HETATM   22  C9  UNL     1      -2.089 -33.657 -11.117  1.00  0.00     0.165 C 
BRANCH  22  23
HETATM   23  C10 UNL     1      -1.560 -33.342 -12.524  1.00  0.00     0.167 C 
BRANCH  23  24
HETATM   24  O3  UNL     1      -1.404 -32.008 -12.773  1.00  0.00    -0.391 OA
ATOM     25  H3  UNL     1      -1.370 -31.788 -13.697  1.00  0.00     0.210 HD
ENDBRANCH  23  24
BRANCH  23  26
HETATM   26  C11 UNL     1      -2.261 -34.046 -13.595  1.00  0.00     0.179 C 
BRANCH  26  27
HETATM   27  O4  UNL     1      -1.402 -34.948 -14.229  1.00  0.00    -0.390 OA
ATOM     28  H4  UNL     1      -1.894 -35.528 -14.800  1.00  0.00     0.210 HD
ENDBRANCH  26  27
BRANCH  26  29
HETATM   29  C12 UNL     1      -3.094 -33.359 -14.584  1.00  0.00     0.173 C 
BRANCH  29  30
HETATM   30  O5  UNL     1      -4.421 -33.383 -14.012  1.00  0.00    -0.391 OA
ATOM     31  H5  UNL     1      -4.920 -33.938 -14.600  1.00  0.00     0.210 HD
ENDBRANCH  29  30
BRANCH  29  32
HETATM   32  C13 UNL     1      -3.315 -34.094 -15.902  1.00  0.00     0.217 C 
BRANCH  32  33
HETATM   33  O6  UNL     1      -2.603 -33.406 -16.930  1.00  0.00    -0.280 OA
BRANCH  33  34
HETATM   34  P1  UNL     1      -1.801 -34.512 -17.911  1.00  0.00     0.422 P 
HETATM   35  O7  UNL     1      -1.097 -33.766 -18.996  1.00  0.00    -0.617 OA
HETATM   36  O8  UNL     1      -2.862 -35.623 -18.610  1.00  0.00    -0.617 OA
HETATM   37  O9  UNL     1      -0.635 -35.386 -17.037  1.00  0.00    -0.617 OA
ENDBRANCH  33  34
ENDBRANCH  32  33
ENDBRANCH  29  32
ENDBRANCH  26  29
ENDBRANCH  23  26
ENDBRANCH  22  23
ENDBRANCH  17  22
TORSDOF 10
ENDMDL
