MODEL 7
REMARK VINA RESULT: -9.042776647      2.118      4.557
REMARK  10 active torsions:
REMARK  status: ('A' for Active; 'I' for Inactive)
REMARK    1  A    between atoms: N4_17  and  C9_18 
REMARK    2  A    between atoms: C9_18  and  C10_19 
REMARK    3  A    between atoms: C10_19  and  O3_20 
REMARK    4  A    between atoms: C10_19  and  C11_22 
REMARK    5  A    between atoms: C11_22  and  O4_23 
REMARK    6  A    between atoms: C11_22  and  C12_25 
REMARK    7  A    between atoms: C12_25  and  O5_26 
REMARK    8  A    between atoms: C12_25  and  C13_28 
REMARK    9  A    between atoms: C13_28  and  O6_29 
REMARK   10  A    between atoms: O6_29  and  P1_30 
ROOT
HETATM    1  C1  UNL     1       0.890 -30.107  -7.818  1.00  0.00     0.049 C 
HETATM    2  C2  UNL     1       0.332 -31.294  -8.510  1.00  0.00    -0.054 A 
HETATM    3  C3  UNL     1       0.914 -32.535  -8.368  1.00  0.00     0.039 A 
HETATM    4  C4  UNL     1       0.412 -33.661  -9.004  1.00  0.00     0.060 A 
HETATM    5  N1  UNL     1       1.018 -34.848  -8.824  1.00  0.00    -0.347 N 
ATOM      6  H1  UNL     1       1.842 -34.907  -8.226  1.00  0.00     0.166 HD
HETATM    7  C5  UNL     1       0.552 -35.952  -9.420  1.00  0.00     0.146 A 
HETATM    8  C6  UNL     1       1.146 -37.210  -9.265  1.00  0.00     0.280 A 
HETATM    9  O1  UNL     1       2.152 -37.290  -8.537  1.00  0.00    -0.265 OA
HETATM   10  N2  UNL     1       0.619 -38.286  -9.901  1.00  0.00    -0.273 N 
ATOM     11  H2  UNL     1       1.050 -39.205  -9.791  1.00  0.00     0.173 HD
HETATM   12  C7  UNL     1      -0.469 -38.143 -10.677  1.00  0.00     0.328 A 
HETATM   13  O2  UNL     1      -0.908 -39.181 -11.238  1.00  0.00    -0.247 OA
HETATM   14  N3  UNL     1      -1.081 -36.934 -10.857  1.00  0.00    -0.292 N 
ATOM     15  H3  UNL     1      -1.904 -36.875 -11.455  1.00  0.00     0.172 HD
HETATM   16  C8  UNL     1      -0.619 -35.824 -10.261  1.00  0.00     0.145 A 
HETATM   17  N4  UNL     1      -1.203 -34.596 -10.416  1.00  0.00    -0.327 N 
HETATM   18  C14 UNL     1      -0.722 -33.499  -9.809  1.00  0.00     0.063 A 
HETATM   19  C15 UNL     1      -1.312 -32.258  -9.957  1.00  0.00     0.039 A 
HETATM   20  C16 UNL     1      -0.787 -31.156  -9.309  1.00  0.00    -0.054 A 
HETATM   21  C17 UNL     1      -1.408 -29.815  -9.456  1.00  0.00     0.049 C 
ENDROOT
BRANCH  17  22
HETATM   22  C9  UNL     1      -2.372 -34.524 -11.266  1.00  0.00     0.165 C 
BRANCH  22  23
HETATM   23  C10 UNL     1      -1.904 -34.683 -12.719  1.00  0.00     0.167 C 
BRANCH  23  24
HETATM   24  O3  UNL     1      -0.921 -33.807 -13.087  1.00  0.00    -0.391 OA
ATOM     25  H3  UNL     1      -0.660 -33.879 -13.997  1.00  0.00     0.210 HD
ENDBRANCH  23  24
BRANCH  23  26
HETATM   26  C11 UNL     1      -2.993 -34.761 -13.690  1.00  0.00     0.179 C 
BRANCH  26  27
HETATM   27  O4  UNL     1      -2.908 -35.948 -14.422  1.00  0.00    -0.390 OA
ATOM     28  H4  UNL     1      -2.693 -35.763 -15.329  1.00  0.00     0.210 HD
ENDBRANCH  26  27
BRANCH  26  29
HETATM   29  C12 UNL     1      -3.353 -33.647 -14.570  1.00  0.00     0.173 C 
BRANCH  29  30
HETATM   30  O5  UNL     1      -4.793 -33.570 -14.478  1.00  0.00    -0.391 OA
ATOM     31  H5  UNL     1      -5.008 -32.727 -14.859  1.00  0.00     0.210 HD
ENDBRANCH  29  30
BRANCH  29  32
HETATM   32  C13 UNL     1      -3.153 -33.880 -16.064  1.00  0.00     0.217 C 
BRANCH  32  33
HETATM   33  O6  UNL     1      -1.807 -34.300 -16.281  1.00  0.00    -0.280 OA
BRANCH  33  34
HETATM   34  P1  UNL     1      -1.614 -34.807 -17.874  1.00  0.00     0.422 P 
HETATM   35  O7  UNL     1      -1.440 -33.605 -18.741  1.00  0.00    -0.617 OA
HETATM   36  O8  UNL     1      -2.946 -35.688 -18.422  1.00  0.00    -0.617 OA
HETATM   37  O9  UNL     1      -0.237 -35.786 -18.052  1.00  0.00    -0.617 OA
ENDBRANCH  33  34
ENDBRANCH  32  33
ENDBRANCH  29  32
ENDBRANCH  26  29
ENDBRANCH  23  26
ENDBRANCH  22  23
ENDBRANCH  17  22
TORSDOF 10
ENDMDL
