MODEL 2
REMARK VINA RESULT: -9.877995554      0.709      1.206
REMARK  10 active torsions:
REMARK  status: ('A' for Active; 'I' for Inactive)
REMARK    1  A    between atoms: N4_17  and  C9_18 
REMARK    2  A    between atoms: C9_18  and  C10_19 
REMARK    3  A    between atoms: C10_19  and  O3_20 
REMARK    4  A    between atoms: C10_19  and  C11_22 
REMARK    5  A    between atoms: C11_22  and  O4_23 
REMARK    6  A    between atoms: C11_22  and  C12_25 
REMARK    7  A    between atoms: C12_25  and  O5_26 
REMARK    8  A    between atoms: C12_25  and  C13_28 
REMARK    9  A    between atoms: C13_28  and  O6_29 
REMARK   10  A    between atoms: O6_29  and  P1_30 
ROOT
HETATM    1  C1  UNL     1       1.553 -38.398  -9.216  1.00  0.00     0.049 C 
HETATM    2  C2  UNL     1       0.835 -37.136  -9.517  1.00  0.00    -0.054 A 
HETATM    3  C3  UNL     1       1.229 -35.944  -8.948  1.00  0.00     0.039 A 
HETATM    4  C4  UNL     1       0.575 -34.750  -9.212  1.00  0.00     0.060 A 
HETATM    5  N1  UNL     1       1.007 -33.617  -8.631  1.00  0.00    -0.347 N 
ATOM      6  H1  UNL     1       1.808 -33.647  -8.000  1.00  0.00     0.166 HD
HETATM    7  C5  UNL     1       0.399 -32.449  -8.873  1.00  0.00     0.146 A 
HETATM    8  C6  UNL     1       0.810 -31.242  -8.294  1.00  0.00     0.280 A 
HETATM    9  O1  UNL     1       1.786 -31.272  -7.523  1.00  0.00    -0.265 OA
HETATM   10  N2  UNL     1       0.145 -30.096  -8.584  1.00  0.00    -0.273 N 
ATOM     11  H2  UNL     1       0.441 -29.214  -8.164  1.00  0.00     0.173 HD
HETATM   12  C7  UNL     1      -0.904 -30.121  -9.425  1.00  0.00     0.328 A 
HETATM   13  O2  UNL     1      -1.476 -29.023  -9.653  1.00  0.00    -0.247 OA
HETATM   14  N3  UNL     1      -1.338 -31.275 -10.012  1.00  0.00    -0.292 N 
ATOM     15  H3  UNL     1      -2.139 -31.245 -10.643  1.00  0.00     0.172 HD
HETATM   16  C8  UNL     1      -0.733 -32.449  -9.775  1.00  0.00     0.145 A 
HETATM   17  N4  UNL     1      -1.138 -33.627 -10.342  1.00  0.00    -0.327 N 
HETATM   18  C14 UNL     1      -0.515 -34.789 -10.090  1.00  0.00     0.063 A 
HETATM   19  C15 UNL     1      -0.916 -35.979 -10.665  1.00  0.00     0.039 A 
HETATM   20  C16 UNL     1      -0.243 -37.152 -10.381  1.00  0.00    -0.054 A 
HETATM   21  C17 UNL     1      -0.660 -38.440 -10.990  1.00  0.00     0.049 C 
ENDROOT
BRANCH  17  22
HETATM   22  C9  UNL     1      -2.274 -33.571 -11.237  1.00  0.00     0.165 C 
BRANCH  22  23
HETATM   23  C10 UNL     1      -1.737 -33.386 -12.663  1.00  0.00     0.167 C 
BRANCH  23  24
HETATM   24  O3  UNL     1      -1.423 -32.094 -12.977  1.00  0.00    -0.391 OA
ATOM     25  H3  UNL     1      -2.179 -31.535 -13.118  1.00  0.00     0.210 HD
ENDBRANCH  23  24
BRANCH  23  26
HETATM   26  C11 UNL     1      -2.539 -34.045 -13.692  1.00  0.00     0.179 C 
BRANCH  26  27
HETATM   27  O4  UNL     1      -3.829 -33.509 -13.722  1.00  0.00    -0.390 OA
ATOM     28  H4  UNL     1      -4.476 -34.196 -13.615  1.00  0.00     0.210 HD
ENDBRANCH  26  27
BRANCH  26  29
HETATM   29  C12 UNL     1      -2.591 -35.500 -13.847  1.00  0.00     0.173 C 
BRANCH  29  30
HETATM   30  O5  UNL     1      -1.205 -35.909 -13.858  1.00  0.00    -0.391 OA
ATOM     31  H5  UNL     1      -1.237 -36.844 -14.024  1.00  0.00     0.210 HD
ENDBRANCH  29  30
BRANCH  29  32
HETATM   32  C13 UNL     1      -3.074 -36.014 -15.199  1.00  0.00     0.217 C 
BRANCH  32  33
HETATM   33  O6  UNL     1      -3.446 -34.896 -16.003  1.00  0.00    -0.280 OA
BRANCH  33  34
HETATM   34  P1  UNL     1      -2.338 -34.693 -17.252  1.00  0.00     0.422 P 
HETATM   35  O7  UNL     1      -2.276 -33.245 -17.606  1.00  0.00    -0.617 OA
HETATM   36  O8  UNL     1      -2.768 -35.574 -18.627  1.00  0.00    -0.617 OA
HETATM   37  O9  UNL     1      -0.780 -35.186 -16.787  1.00  0.00    -0.617 OA
ENDBRANCH  33  34
ENDBRANCH  32  33
ENDBRANCH  29  32
ENDBRANCH  26  29
ENDBRANCH  23  26
ENDBRANCH  22  23
ENDBRANCH  17  22
TORSDOF 10
ENDMDL
