MODEL 3
REMARK VINA RESULT: -9.403907456      1.178      1.482
REMARK  10 active torsions:
REMARK  status: ('A' for Active; 'I' for Inactive)
REMARK    1  A    between atoms: N4_17  and  C9_18 
REMARK    2  A    between atoms: C9_18  and  C10_19 
REMARK    3  A    between atoms: C10_19  and  O3_20 
REMARK    4  A    between atoms: C10_19  and  C11_22 
REMARK    5  A    between atoms: C11_22  and  O4_23 
REMARK    6  A    between atoms: C11_22  and  C12_25 
REMARK    7  A    between atoms: C12_25  and  O5_26 
REMARK    8  A    between atoms: C12_25  and  C13_28 
REMARK    9  A    between atoms: C13_28  and  O6_29 
REMARK   10  A    between atoms: O6_29  and  P1_30 
ROOT
HETATM    1  C1  UNL     1       2.066 -38.277  -8.949  1.00  0.00     0.049 C 
HETATM    2  C2  UNL     1       1.205 -37.108  -9.251  1.00  0.00    -0.054 A 
HETATM    3  C3  UNL     1       1.548 -35.846  -8.817  1.00  0.00     0.039 A 
HETATM    4  C4  UNL     1       0.762 -34.736  -9.086  1.00  0.00     0.060 A 
HETATM    5  N1  UNL     1       1.150 -33.527  -8.641  1.00  0.00    -0.347 N 
ATOM      6  H1  UNL     1       2.015 -33.440  -8.108  1.00  0.00     0.166 HD
HETATM    7  C5  UNL     1       0.414 -32.437  -8.891  1.00  0.00     0.146 A 
HETATM    8  C6  UNL     1       0.773 -31.158  -8.451  1.00  0.00     0.280 A 
HETATM    9  O1  UNL     1       1.828 -31.044  -7.800  1.00  0.00    -0.265 OA
HETATM   10  N2  UNL     1      -0.022 -30.098  -8.741  1.00  0.00    -0.273 N 
ATOM     11  H2  UNL     1       0.236 -29.164  -8.422  1.00  0.00     0.173 HD
HETATM   12  C7  UNL     1      -1.152 -30.278  -9.448  1.00  0.00     0.328 A 
HETATM   13  O2  UNL     1      -1.844 -29.254  -9.683  1.00  0.00    -0.247 OA
HETATM   14  N3  UNL     1      -1.540 -31.509  -9.897  1.00  0.00    -0.292 N 
ATOM     15  H3  UNL     1      -2.406 -31.596 -10.430  1.00  0.00     0.172 HD
HETATM   16  C8  UNL     1      -0.807 -32.605  -9.651  1.00  0.00     0.145 A 
HETATM   17  N4  UNL     1      -1.163 -33.854 -10.082  1.00  0.00    -0.327 N 
HETATM   18  C14 UNL     1      -0.411 -34.936  -9.823  1.00  0.00     0.063 A 
HETATM   19  C15 UNL     1      -0.762 -36.198 -10.262  1.00  0.00     0.039 A 
HETATM   20  C16 UNL     1       0.044 -37.284  -9.978  1.00  0.00    -0.054 A 
HETATM   21  C17 UNL     1      -0.318 -38.647 -10.442  1.00  0.00     0.049 C 
ENDROOT
BRANCH  17  22
HETATM   22  C9  UNL     1      -2.391 -33.965 -10.838  1.00  0.00     0.165 C 
BRANCH  22  23
HETATM   23  C10 UNL     1      -2.033 -33.875 -12.328  1.00  0.00     0.167 C 
BRANCH  23  24
HETATM   24  O3  UNL     1      -1.422 -32.706 -12.684  1.00  0.00    -0.391 OA
ATOM     25  H3  UNL     1      -0.532 -32.814 -12.998  1.00  0.00     0.210 HD
ENDBRANCH  23  24
BRANCH  23  26
HETATM   26  C11 UNL     1      -3.124 -34.247 -13.227  1.00  0.00     0.179 C 
BRANCH  26  27
HETATM   27  O4  UNL     1      -3.270 -35.636 -13.267  1.00  0.00    -0.390 OA
ATOM     28  H4  UNL     1      -3.988 -35.877 -13.842  1.00  0.00     0.210 HD
ENDBRANCH  26  27
BRANCH  26  29
HETATM   29  C12 UNL     1      -3.274 -33.682 -14.569  1.00  0.00     0.173 C 
BRANCH  29  30
HETATM   30  O5  UNL     1      -4.691 -33.772 -14.838  1.00  0.00    -0.391 OA
ATOM     31  H5  UNL     1      -4.900 -32.952 -15.271  1.00  0.00     0.210 HD
ENDBRANCH  29  30
BRANCH  29  32
HETATM   32  C13 UNL     1      -2.691 -34.505 -15.713  1.00  0.00     0.217 C 
BRANCH  32  33
HETATM   33  O6  UNL     1      -1.272 -34.547 -15.565  1.00  0.00    -0.280 OA
BRANCH  33  34
HETATM   34  P1  UNL     1      -0.731 -36.135 -15.676  1.00  0.00     0.422 P 
HETATM   35  O7  UNL     1       0.473 -36.291 -14.808  1.00  0.00    -0.617 OA
HETATM   36  O8  UNL     1      -0.321 -36.554 -17.259  1.00  0.00    -0.617 OA
HETATM   37  O9  UNL     1      -1.910 -37.233 -15.137  1.00  0.00    -0.617 OA
ENDBRANCH  33  34
ENDBRANCH  32  33
ENDBRANCH  29  32
ENDBRANCH  26  29
ENDBRANCH  23  26
ENDBRANCH  22  23
ENDBRANCH  17  22
TORSDOF 10
ENDMDL
