MODEL 8
REMARK VINA RESULT: -8.798600340      2.653      4.977
REMARK  10 active torsions:
REMARK  status: ('A' for Active; 'I' for Inactive)
REMARK    1  A    between atoms: N4_17  and  C9_18 
REMARK    2  A    between atoms: C9_18  and  C10_19 
REMARK    3  A    between atoms: C10_19  and  O3_20 
REMARK    4  A    between atoms: C10_19  and  C11_22 
REMARK    5  A    between atoms: C11_22  and  O4_23 
REMARK    6  A    between atoms: C11_22  and  C12_25 
REMARK    7  A    between atoms: C12_25  and  O5_26 
REMARK    8  A    between atoms: C12_25  and  C13_28 
REMARK    9  A    between atoms: C13_28  and  O6_29 
REMARK   10  A    between atoms: O6_29  and  P1_30 
ROOT
HETATM    1  C1  UNL     1       1.276 -31.440  -7.617  1.00  0.00     0.049 C 
HETATM    2  C2  UNL     1       0.460 -32.209  -8.588  1.00  0.00    -0.054 A 
HETATM    3  C3  UNL     1       0.670 -33.558  -8.776  1.00  0.00     0.039 A 
HETATM    4  C4  UNL     1      -0.078 -34.301  -9.677  1.00  0.00     0.060 A 
HETATM    5  N1  UNL     1       0.167 -35.617  -9.814  1.00  0.00    -0.347 N 
ATOM      6  H1  UNL     1       0.902 -36.053  -9.258  1.00  0.00     0.166 HD
HETATM    7  C5  UNL     1      -0.543 -36.359 -10.672  1.00  0.00     0.146 A 
HETATM    8  C6  UNL     1      -0.328 -37.731 -10.852  1.00  0.00     0.280 A 
HETATM    9  O1  UNL     1       0.568 -38.270 -10.177  1.00  0.00    -0.265 OA
HETATM   10  N2  UNL     1      -1.086 -38.420 -11.740  1.00  0.00    -0.273 N 
ATOM     11  H2  UNL     1      -0.932 -39.420 -11.875  1.00  0.00     0.173 HD
HETATM   12  C7  UNL     1      -2.041 -37.787 -12.444  1.00  0.00     0.328 A 
HETATM   13  O2  UNL     1      -2.709 -38.485 -13.251  1.00  0.00    -0.247 OA
HETATM   14  N3  UNL     1      -2.285 -36.451 -12.300  1.00  0.00    -0.292 N 
ATOM     15  H3  UNL     1      -3.021 -36.015 -12.856  1.00  0.00     0.172 HD
HETATM   16  C8  UNL     1      -1.578 -35.701 -11.442  1.00  0.00     0.145 A 
HETATM   17  N4  UNL     1      -1.792 -34.360 -11.269  1.00  0.00    -0.327 N 
HETATM   18  C14 UNL     1      -1.070 -33.631 -10.403  1.00  0.00     0.063 A 
HETATM   19  C15 UNL     1      -1.287 -32.279 -10.221  1.00  0.00     0.039 A 
HETATM   20  C16 UNL     1      -0.524 -31.567  -9.314  1.00  0.00    -0.054 A 
HETATM   21  C17 UNL     1      -0.742 -30.114  -9.105  1.00  0.00     0.049 C 
ENDROOT
BRANCH  17  22
HETATM   22  C9  UNL     1      -2.838 -33.752 -12.062  1.00  0.00     0.165 C 
BRANCH  22  23
HETATM   23  C10 UNL     1      -2.251 -33.430 -13.443  1.00  0.00     0.167 C 
BRANCH  23  24
HETATM   24  O3  UNL     1      -1.502 -32.288 -13.477  1.00  0.00    -0.391 OA
ATOM     25  H3  UNL     1      -1.716 -31.664 -12.793  1.00  0.00     0.210 HD
ENDBRANCH  23  24
BRANCH  23  26
HETATM   26  C11 UNL     1      -3.218 -33.512 -14.535  1.00  0.00     0.179 C 
BRANCH  26  27
HETATM   27  O4  UNL     1      -4.517 -33.335 -14.050  1.00  0.00    -0.390 OA
ATOM     28  H4  UNL     1      -4.895 -34.171 -13.804  1.00  0.00     0.210 HD
ENDBRANCH  26  27
BRANCH  26  29
HETATM   29  C12 UNL     1      -3.193 -34.577 -15.540  1.00  0.00     0.173 C 
BRANCH  29  30
HETATM   30  O5  UNL     1      -3.696 -35.738 -14.843  1.00  0.00    -0.391 OA
ATOM     31  H5  UNL     1      -4.380 -36.075 -15.410  1.00  0.00     0.210 HD
ENDBRANCH  29  30
BRANCH  29  32
HETATM   32  C13 UNL     1      -1.813 -35.055 -15.977  1.00  0.00     0.217 C 
BRANCH  32  33
HETATM   33  O6  UNL     1      -1.669 -36.425 -15.607  1.00  0.00    -0.280 OA
BRANCH  33  34
HETATM   34  P1  UNL     1      -0.051 -36.770 -15.301  1.00  0.00     0.422 P 
HETATM   35  O7  UNL     1       0.438 -35.855 -14.228  1.00  0.00    -0.617 OA
HETATM   36  O8  UNL     1       0.910 -36.566 -16.674  1.00  0.00    -0.617 OA
HETATM   37  O9  UNL     1       0.152 -38.367 -14.759  1.00  0.00    -0.617 OA
ENDBRANCH  33  34
ENDBRANCH  32  33
ENDBRANCH  29  32
ENDBRANCH  26  29
ENDBRANCH  23  26
ENDBRANCH  22  23
ENDBRANCH  17  22
TORSDOF 10
ENDMDL
