MODEL 11
REMARK VINA RESULT: -7.231285145      2.914      4.261
REMARK  6 active torsions:
REMARK  status: ('A' for Active; 'I' for Inactive)
REMARK    1  A    between atoms: N1_1  and  S1_4 
REMARK    2  A    between atoms: S1_4  and  C1_7 
REMARK    3  A    between atoms: C4_10  and  N2_11 
REMARK    4  A    between atoms: C6_13  and  C7_14 
REMARK    5  A    between atoms: C7_14  and  O3_15 
REMARK    6  A    between atoms: O3_15  and  C8_16 
ROOT
HETATM    1  N2  UNL     1      -5.059   5.555  12.941  1.00  0.00    -0.249 N 
HETATM    2  C5  UNL     1      -3.885   6.036  12.479  1.00  0.00     0.142 A 
HETATM    3  C6  UNL     1      -4.117   7.041  11.563  1.00  0.00     0.065 A 
HETATM    4  N3  UNL     1      -5.458   7.139  11.496  1.00  0.00    -0.284 N 
ATOM      5  H3  UNL     1      -5.976   7.791  10.907  1.00  0.00     0.184 HD
HETATM    6  N4  UNL     1      -5.993   6.253  12.318  1.00  0.00    -0.015 NA
ENDROOT
BRANCH   1   7
HETATM    7  C4  UNL     1      -5.277   4.513  13.901  1.00  0.00     0.054 A 
HETATM    8  C3  UNL     1      -4.614   3.306  13.836  1.00  0.00     0.032 A 
HETATM    9  C2  UNL     1      -4.809   2.292  14.748  1.00  0.00     0.027 A 
HETATM   10  C1  UNL     1      -5.718   2.501  15.779  1.00  0.00     0.079 A 
HETATM   11  C15 UNL     1      -6.393   3.709  15.858  1.00  0.00     0.027 A 
HETATM   12  C14 UNL     1      -6.173   4.688  14.937  1.00  0.00     0.032 A 
BRANCH  10  13
HETATM   13  S1  UNL     1      -6.000   1.242  16.964  1.00  0.00     0.256 S 
HETATM   14  O1  UNL     1      -4.769   0.377  17.098  1.00  0.00    -0.201 OA
HETATM   15  O2  UNL     1      -7.151   0.370  16.585  1.00  0.00    -0.201 OA
BRANCH  13  16
HETATM   16  N1  UNL     1      -6.315   1.963  18.501  1.00  0.00    -0.324 N 
ATOM     17  H12 UNL     1      -6.347   1.463  19.390  1.00  0.00     0.169 HD
ATOM     18  H11 UNL     1      -6.460   2.962  18.356  1.00  0.00     0.169 HD
ENDBRANCH  13  16
ENDBRANCH  10  13
ENDBRANCH   1   7
BRANCH   3  19
HETATM   19  C7  UNL     1      -3.067   7.806  10.842  1.00  0.00     0.235 C 
BRANCH  19  20
HETATM   20  O3  UNL     1      -1.970   8.070  11.655  1.00  0.00    -0.345 OA
BRANCH  20  21
HETATM   21  C8  UNL     1      -1.972   9.169  12.489  1.00  0.00     0.069 A 
HETATM   22  C9  UNL     1      -2.307  10.443  12.056  1.00  0.00     0.037 A 
HETATM   23  C10 UNL     1      -2.304  11.531  12.907  1.00  0.00     0.003 A 
HETATM   24  C11 UNL     1      -1.957  11.344  14.223  1.00  0.00     0.000 A 
HETATM   25  C12 UNL     1      -1.621  10.091  14.674  1.00  0.00     0.003 A 
HETATM   26  C13 UNL     1      -1.628   9.006  13.813  1.00  0.00     0.037 A 
ENDBRANCH  20  21
ENDBRANCH  19  20
ENDBRANCH   3  19
TORSDOF 6
ENDMDL
