MODEL 2
REMARK VINA RESULT: -7.589236157      2.528      2.773
REMARK  6 active torsions:
REMARK  status: ('A' for Active; 'I' for Inactive)
REMARK    1  A    between atoms: N1_1  and  S1_4 
REMARK    2  A    between atoms: S1_4  and  C1_7 
REMARK    3  A    between atoms: C4_10  and  N2_11 
REMARK    4  A    between atoms: C6_13  and  C7_14 
REMARK    5  A    between atoms: C7_14  and  O3_15 
REMARK    6  A    between atoms: O3_15  and  C8_16 
ROOT
HETATM    1  N2  UNL     1      -3.952   4.227  10.508  1.00  0.00    -0.249 N 
HETATM    2  C5  UNL     1      -4.591   5.372  10.189  1.00  0.00     0.142 A 
HETATM    3  C6  UNL     1      -4.162   5.821   8.958  1.00  0.00     0.065 A 
HETATM    4  N3  UNL     1      -3.254   4.912   8.559  1.00  0.00    -0.284 N 
ATOM      5  H3  UNL     1      -2.734   4.938   7.681  1.00  0.00     0.184 HD
HETATM    6  N4  UNL     1      -3.146   3.979   9.489  1.00  0.00    -0.015 NA
ENDROOT
BRANCH   1   7
HETATM    7  C4  UNL     1      -4.095   3.428  11.690  1.00  0.00     0.054 A 
HETATM    8  C3  UNL     1      -4.308   2.067  11.634  1.00  0.00     0.032 A 
HETATM    9  C2  UNL     1      -4.449   1.282  12.757  1.00  0.00     0.027 A 
HETATM   10  C1  UNL     1      -4.372   1.896  14.002  1.00  0.00     0.079 A 
HETATM   11  C15 UNL     1      -4.158   3.263  14.076  1.00  0.00     0.027 A 
HETATM   12  C14 UNL     1      -4.025   4.007  12.943  1.00  0.00     0.032 A 
BRANCH  10  13
HETATM   13  S1  UNL     1      -4.544   0.940  15.460  1.00  0.00     0.256 S 
HETATM   14  O1  UNL     1      -3.300   1.069  16.309  1.00  0.00    -0.201 OA
HETATM   15  O2  UNL     1      -4.759  -0.505  15.155  1.00  0.00    -0.201 OA
BRANCH  13  16
HETATM   16  N1  UNL     1      -5.880   1.532  16.379  1.00  0.00    -0.324 N 
ATOM     17  H12 UNL     1      -6.211   1.137  17.260  1.00  0.00     0.169 HD
ATOM     18  H11 UNL     1      -6.270   2.336  15.886  1.00  0.00     0.169 HD
ENDBRANCH  13  16
ENDBRANCH  10  13
ENDBRANCH   1   7
BRANCH   3  19
HETATM   19  C7  UNL     1      -4.642   7.052   8.278  1.00  0.00     0.235 C 
BRANCH  19  20
HETATM   20  O3  UNL     1      -5.647   6.777   7.356  1.00  0.00    -0.345 OA
BRANCH  20  21
HETATM   21  C8  UNL     1      -6.846   7.457   7.413  1.00  0.00     0.069 A 
HETATM   22  C9  UNL     1      -7.117   8.573   6.636  1.00  0.00     0.037 A 
HETATM   23  C10 UNL     1      -8.325   9.240   6.708  1.00  0.00     0.003 A 
HETATM   24  C11 UNL     1      -9.286   8.783   7.576  1.00  0.00     0.000 A 
HETATM   25  C12 UNL     1      -9.039   7.679   8.355  1.00  0.00     0.003 A 
HETATM   26  C13 UNL     1      -7.825   7.016   8.277  1.00  0.00     0.037 A 
ENDBRANCH  20  21
ENDBRANCH  19  20
ENDBRANCH   3  19
TORSDOF 6
ENDMDL
