MODEL 6
REMARK VINA RESULT: -7.363836893      4.067      5.551
REMARK  6 active torsions:
REMARK  status: ('A' for Active; 'I' for Inactive)
REMARK    1  A    between atoms: N1_1  and  S1_4 
REMARK    2  A    between atoms: S1_4  and  C1_7 
REMARK    3  A    between atoms: C4_10  and  N2_11 
REMARK    4  A    between atoms: C6_13  and  C7_14 
REMARK    5  A    between atoms: C7_14  and  O3_15 
REMARK    6  A    between atoms: O3_15  and  C8_16 
ROOT
HETATM    1  N2  UNL     1      -3.922   5.485  13.937  1.00  0.00    -0.249 N 
HETATM    2  C5  UNL     1      -2.854   6.270  14.197  1.00  0.00     0.142 A 
HETATM    3  C6  UNL     1      -2.740   7.243  13.226  1.00  0.00     0.065 A 
HETATM    4  N3  UNL     1      -3.767   7.012  12.388  1.00  0.00    -0.284 N 
ATOM      5  H3  UNL     1      -3.983   7.553  11.550  1.00  0.00     0.184 HD
HETATM    6  N4  UNL     1      -4.452   5.970  12.827  1.00  0.00    -0.015 NA
ENDROOT
BRANCH   1   7
HETATM    7  C4  UNL     1      -4.403   4.362  14.687  1.00  0.00     0.054 A 
HETATM    8  C3  UNL     1      -3.562   3.368  15.139  1.00  0.00     0.032 A 
HETATM    9  C2  UNL     1      -4.003   2.280  15.861  1.00  0.00     0.027 A 
HETATM   10  C1  UNL     1      -5.362   2.185  16.141  1.00  0.00     0.079 A 
HETATM   11  C15 UNL     1      -6.221   3.176  15.693  1.00  0.00     0.027 A 
HETATM   12  C14 UNL     1      -5.747   4.236  14.982  1.00  0.00     0.032 A 
BRANCH  10  13
HETATM   13  S1  UNL     1      -5.972   0.822  17.055  1.00  0.00     0.256 S 
HETATM   14  O1  UNL     1      -5.514   0.920  18.492  1.00  0.00    -0.201 OA
HETATM   15  O2  UNL     1      -5.498  -0.479  16.497  1.00  0.00    -0.201 OA
BRANCH  13  16
HETATM   16  N1  UNL     1      -7.698   0.851  17.043  1.00  0.00    -0.324 N 
ATOM     17  H12 UNL     1      -8.295   0.728  17.862  1.00  0.00     0.169 HD
ATOM     18  H11 UNL     1      -8.004   1.011  16.083  1.00  0.00     0.169 HD
ENDBRANCH  13  16
ENDBRANCH  10  13
ENDBRANCH   1   7
BRANCH   3  19
HETATM   19  C7  UNL     1      -1.686   8.289  13.178  1.00  0.00     0.235 C 
BRANCH  19  20
HETATM   20  O3  UNL     1      -1.320   8.714  14.451  1.00  0.00    -0.345 OA
BRANCH  20  21
HETATM   21  C8  UNL     1      -0.913  10.015  14.658  1.00  0.00     0.069 A 
HETATM   22  C9  UNL     1       0.214  10.346  15.395  1.00  0.00     0.037 A 
HETATM   23  C10 UNL     1       0.604  11.656  15.590  1.00  0.00     0.003 A 
HETATM   24  C11 UNL     1      -0.147  12.663  15.036  1.00  0.00     0.000 A 
HETATM   25  C12 UNL     1      -1.268  12.359  14.302  1.00  0.00     0.003 A 
HETATM   26  C13 UNL     1      -1.652  11.042  14.111  1.00  0.00     0.037 A 
ENDBRANCH  20  21
ENDBRANCH  19  20
ENDBRANCH   3  19
TORSDOF 6
ENDMDL
