MODEL 1
REMARK VINA RESULT: -7.652307672      0.000      0.000
REMARK  6 active torsions:
REMARK  status: ('A' for Active; 'I' for Inactive)
REMARK    1  A    between atoms: N1_1  and  S1_4 
REMARK    2  A    between atoms: S1_4  and  C1_7 
REMARK    3  A    between atoms: C4_10  and  N2_11 
REMARK    4  A    between atoms: C6_13  and  C7_14 
REMARK    5  A    between atoms: C7_14  and  O3_15 
REMARK    6  A    between atoms: O3_15  and  C8_16 
ROOT
HETATM    1  N2  UNL     1      -4.397   5.657  13.377  1.00  0.00    -0.249 N 
HETATM    2  C5  UNL     1      -5.046   6.100  12.279  1.00  0.00     0.142 A 
HETATM    3  C6  UNL     1      -4.347   7.146  11.712  1.00  0.00     0.065 A 
HETATM    4  N3  UNL     1      -3.271   7.307  12.503  1.00  0.00    -0.284 N 
ATOM      5  H3  UNL     1      -2.536   8.003  12.371  1.00  0.00     0.184 HD
HETATM    6  N4  UNL     1      -3.320   6.417  13.480  1.00  0.00    -0.015 NA
ENDROOT
BRANCH   1   7
HETATM    7  C4  UNL     1      -4.771   4.592  14.261  1.00  0.00     0.054 A 
HETATM    8  C3  UNL     1      -3.898   3.583  14.605  1.00  0.00     0.032 A 
HETATM    9  C2  UNL     1      -4.237   2.551  15.452  1.00  0.00     0.027 A 
HETATM   10  C1  UNL     1      -5.523   2.531  15.980  1.00  0.00     0.079 A 
HETATM   11  C15 UNL     1      -6.415   3.538  15.644  1.00  0.00     0.027 A 
HETATM   12  C14 UNL     1      -6.042   4.541  14.803  1.00  0.00     0.032 A 
BRANCH  10  13
HETATM   13  S1  UNL     1      -6.003   1.240  17.063  1.00  0.00     0.256 S 
HETATM   14  O1  UNL     1      -4.867   0.257  17.225  1.00  0.00    -0.201 OA
HETATM   15  O2  UNL     1      -7.196   0.502  16.554  1.00  0.00    -0.201 OA
BRANCH  13  16
HETATM   16  N1  UNL     1      -6.363   1.900  18.617  1.00  0.00    -0.324 N 
ATOM     17  H12 UNL     1      -5.989   2.774  18.987  1.00  0.00     0.169 HD
ATOM     18  H11 UNL     1      -7.007   1.264  19.088  1.00  0.00     0.169 HD
ENDBRANCH  13  16
ENDBRANCH  10  13
ENDBRANCH   1   7
BRANCH   3  19
HETATM   19  C7  UNL     1      -4.753   7.888  10.490  1.00  0.00     0.235 C 
BRANCH  19  20
HETATM   20  O3  UNL     1      -5.957   8.561  10.670  1.00  0.00    -0.345 OA
BRANCH  20  21
HETATM   21  C8  UNL     1      -6.887   8.604   9.652  1.00  0.00     0.069 A 
HETATM   22  C9  UNL     1      -7.065   9.712   8.838  1.00  0.00     0.037 A 
HETATM   23  C10 UNL     1      -8.002   9.734   7.824  1.00  0.00     0.003 A 
HETATM   24  C11 UNL     1      -8.781   8.622   7.615  1.00  0.00     0.000 A 
HETATM   25  C12 UNL     1      -8.622   7.513   8.409  1.00  0.00     0.003 A 
HETATM   26  C13 UNL     1      -7.680   7.500   9.424  1.00  0.00     0.037 A 
ENDBRANCH  20  21
ENDBRANCH  19  20
ENDBRANCH   3  19
TORSDOF 6
ENDMDL
