MODEL 12
REMARK VINA RESULT: -7.228419750      3.930      5.204
REMARK  6 active torsions:
REMARK  status: ('A' for Active; 'I' for Inactive)
REMARK    1  A    between atoms: N1_1  and  S1_4 
REMARK    2  A    between atoms: S1_4  and  C1_7 
REMARK    3  A    between atoms: C4_10  and  N2_11 
REMARK    4  A    between atoms: C6_13  and  C7_14 
REMARK    5  A    between atoms: C7_14  and  O3_15 
REMARK    6  A    between atoms: O3_15  and  C8_16 
ROOT
HETATM    1  N2  UNL     1      -2.964   4.232  13.572  1.00  0.00    -0.249 N 
HETATM    2  C5  UNL     1      -3.107   5.505  13.146  1.00  0.00     0.142 A 
HETATM    3  C6  UNL     1      -2.065   5.839  12.306  1.00  0.00     0.065 A 
HETATM    4  N3  UNL     1      -1.304   4.731  12.248  1.00  0.00    -0.284 N 
ATOM      5  H3  UNL     1      -0.444   4.629  11.709  1.00  0.00     0.184 HD
HETATM    6  N4  UNL     1      -1.854   3.794  13.003  1.00  0.00    -0.015 NA
ENDROOT
BRANCH   1   7
HETATM    7  C4  UNL     1      -3.816   3.488  14.453  1.00  0.00     0.054 A 
HETATM    8  C3  UNL     1      -5.183   3.658  14.467  1.00  0.00     0.032 A 
HETATM    9  C2  UNL     1      -6.020   2.954  15.305  1.00  0.00     0.027 A 
HETATM   10  C1  UNL     1      -5.452   2.030  16.175  1.00  0.00     0.079 A 
HETATM   11  C15 UNL     1      -4.078   1.846  16.173  1.00  0.00     0.027 A 
HETATM   12  C14 UNL     1      -3.284   2.563  15.330  1.00  0.00     0.032 A 
BRANCH  10  13
HETATM   13  S1  UNL     1      -6.473   1.109  17.260  1.00  0.00     0.256 S 
HETATM   14  O1  UNL     1      -5.993  -0.323  17.326  1.00  0.00    -0.201 OA
HETATM   15  O2  UNL     1      -7.898   1.108  16.815  1.00  0.00    -0.201 OA
BRANCH  13  16
HETATM   16  N1  UNL     1      -6.373   1.778  18.848  1.00  0.00    -0.324 N 
ATOM     17  H12 UNL     1      -7.151   1.857  19.504  1.00  0.00     0.169 HD
ATOM     18  H11 UNL     1      -5.409   2.074  19.005  1.00  0.00     0.169 HD
ENDBRANCH  13  16
ENDBRANCH  10  13
ENDBRANCH   1   7
BRANCH   3  19
HETATM   19  C7  UNL     1      -1.884   7.156  11.643  1.00  0.00     0.235 C 
BRANCH  19  20
HETATM   20  O3  UNL     1      -2.431   8.192  12.393  1.00  0.00    -0.345 OA
BRANCH  20  21
HETATM   21  C8  UNL     1      -1.684   8.805  13.378  1.00  0.00     0.069 A 
HETATM   22  C9  UNL     1      -1.899   8.591  14.731  1.00  0.00     0.037 A 
HETATM   23  C10 UNL     1      -1.139   9.215  15.701  1.00  0.00     0.003 A 
HETATM   24  C11 UNL     1      -0.140  10.073  15.313  1.00  0.00     0.000 A 
HETATM   25  C12 UNL     1       0.091  10.301  13.978  1.00  0.00     0.003 A 
HETATM   26  C13 UNL     1      -0.676   9.671  13.012  1.00  0.00     0.037 A 
ENDBRANCH  20  21
ENDBRANCH  19  20
ENDBRANCH   3  19
TORSDOF 6
ENDMDL
