MODEL 13
REMARK VINA RESULT: -7.211797029      3.139      4.477
REMARK  6 active torsions:
REMARK  status: ('A' for Active; 'I' for Inactive)
REMARK    1  A    between atoms: N1_1  and  S1_4 
REMARK    2  A    between atoms: S1_4  and  C1_7 
REMARK    3  A    between atoms: C4_10  and  N2_11 
REMARK    4  A    between atoms: C6_13  and  C7_14 
REMARK    5  A    between atoms: C7_14  and  O3_15 
REMARK    6  A    between atoms: O3_15  and  C8_16 
ROOT
HETATM    1  N2  UNL     1      -4.846   5.305  13.115  1.00  0.00    -0.249 N 
HETATM    2  C5  UNL     1      -3.638   5.682  12.644  1.00  0.00     0.142 A 
HETATM    3  C6  UNL     1      -3.792   6.674  11.698  1.00  0.00     0.065 A 
HETATM    4  N3  UNL     1      -5.121   6.872  11.623  1.00  0.00    -0.284 N 
ATOM      5  H3  UNL     1      -5.588   7.544  11.013  1.00  0.00     0.184 HD
HETATM    6  N4  UNL     1      -5.724   6.054  12.469  1.00  0.00    -0.015 NA
ENDROOT
BRANCH   1   7
HETATM    7  C4  UNL     1      -5.144   4.311  14.104  1.00  0.00     0.054 A 
HETATM    8  C3  UNL     1      -4.333   3.216  14.311  1.00  0.00     0.032 A 
HETATM    9  C2  UNL     1      -4.602   2.250  15.255  1.00  0.00     0.027 A 
HETATM   10  C1  UNL     1      -5.746   2.390  16.032  1.00  0.00     0.079 A 
HETATM   11  C15 UNL     1      -6.572   3.486  15.837  1.00  0.00     0.027 A 
HETATM   12  C14 UNL     1      -6.273   4.421  14.893  1.00  0.00     0.032 A 
BRANCH  10  13
HETATM   13  S1  UNL     1      -6.130   1.189  17.247  1.00  0.00     0.256 S 
HETATM   14  O1  UNL     1      -4.991   0.204  17.375  1.00  0.00    -0.201 OA
HETATM   15  O2  UNL     1      -7.371   0.432  16.908  1.00  0.00    -0.201 OA
BRANCH  13  16
HETATM   16  N1  UNL     1      -6.337   1.965  18.776  1.00  0.00    -0.324 N 
ATOM     17  H12 UNL     1      -6.140   1.541  19.683  1.00  0.00     0.169 HD
ATOM     18  H11 UNL     1      -6.685   2.908  18.605  1.00  0.00     0.169 HD
ENDBRANCH  13  16
ENDBRANCH  10  13
ENDBRANCH   1   7
BRANCH   3  19
HETATM   19  C7  UNL     1      -2.686   7.337  10.960  1.00  0.00     0.235 C 
BRANCH  19  20
HETATM   20  O3  UNL     1      -1.593   7.588  11.783  1.00  0.00    -0.345 OA
BRANCH  20  21
HETATM   21  C8  UNL     1      -1.639   8.613  12.705  1.00  0.00     0.069 A 
HETATM   22  C9  UNL     1      -1.458   8.413  14.065  1.00  0.00     0.037 A 
HETATM   23  C10 UNL     1      -1.508   9.454  14.972  1.00  0.00     0.003 A 
HETATM   24  C11 UNL     1      -1.745  10.726  14.512  1.00  0.00     0.000 A 
HETATM   25  C12 UNL     1      -1.928  10.947  13.169  1.00  0.00     0.003 A 
HETATM   26  C13 UNL     1      -1.875   9.898  12.266  1.00  0.00     0.037 A 
ENDBRANCH  20  21
ENDBRANCH  19  20
ENDBRANCH   3  19
TORSDOF 6
ENDMDL
