MODEL 3
REMARK VINA RESULT: -7.577398353      0.809      1.289
REMARK  6 active torsions:
REMARK  status: ('A' for Active; 'I' for Inactive)
REMARK    1  A    between atoms: N1_1  and  S1_4 
REMARK    2  A    between atoms: S1_4  and  C1_7 
REMARK    3  A    between atoms: C4_10  and  N2_11 
REMARK    4  A    between atoms: C6_13  and  C7_14 
REMARK    5  A    between atoms: C7_14  and  O3_15 
REMARK    6  A    between atoms: O3_15  and  C8_16 
ROOT
HETATM    1  N2  UNL     1      -4.200   5.535  13.637  1.00  0.00    -0.249 N 
HETATM    2  C5  UNL     1      -4.811   6.063  12.554  1.00  0.00     0.142 A 
HETATM    3  C6  UNL     1      -4.072   7.122  12.069  1.00  0.00     0.065 A 
HETATM    4  N3  UNL     1      -3.012   7.206  12.893  1.00  0.00    -0.284 N 
ATOM      5  H3  UNL     1      -2.257   7.888  12.821  1.00  0.00     0.184 HD
HETATM    6  N4  UNL     1      -3.107   6.259  13.811  1.00  0.00    -0.015 NA
ENDROOT
BRANCH   1   7
HETATM    7  C4  UNL     1      -4.622   4.428  14.444  1.00  0.00     0.054 A 
HETATM    8  C3  UNL     1      -3.758   3.420  14.815  1.00  0.00     0.032 A 
HETATM    9  C2  UNL     1      -4.143   2.347  15.589  1.00  0.00     0.027 A 
HETATM   10  C1  UNL     1      -5.466   2.284  16.013  1.00  0.00     0.079 A 
HETATM   11  C15 UNL     1      -6.347   3.290  15.648  1.00  0.00     0.027 A 
HETATM   12  C14 UNL     1      -5.929   4.334  14.881  1.00  0.00     0.032 A 
BRANCH  10  13
HETATM   13  S1  UNL     1      -6.004   0.941  17.000  1.00  0.00     0.256 S 
HETATM   14  O1  UNL     1      -5.512   1.116  18.418  1.00  0.00    -0.201 OA
HETATM   15  O2  UNL     1      -5.500  -0.366  16.484  1.00  0.00    -0.201 OA
BRANCH  13  16
HETATM   16  N1  UNL     1      -7.730   0.911  17.035  1.00  0.00    -0.324 N 
ATOM     17  H12 UNL     1      -8.319   0.283  16.488  1.00  0.00     0.169 HD
ATOM     18  H11 UNL     1      -8.044   1.626  17.692  1.00  0.00     0.169 HD
ENDBRANCH  13  16
ENDBRANCH  10  13
ENDBRANCH   1   7
BRANCH   3  19
HETATM   19  C7  UNL     1      -4.430   7.949  10.888  1.00  0.00     0.235 C 
BRANCH  19  20
HETATM   20  O3  UNL     1      -5.742   8.407  10.955  1.00  0.00    -0.345 OA
BRANCH  20  21
HETATM   21  C8  UNL     1      -6.588   8.251   9.877  1.00  0.00     0.069 A 
HETATM   22  C9  UNL     1      -7.091   7.019   9.485  1.00  0.00     0.037 A 
HETATM   23  C10 UNL     1      -7.938   6.884   8.402  1.00  0.00     0.003 A 
HETATM   24  C11 UNL     1      -8.291   8.005   7.691  1.00  0.00     0.000 A 
HETATM   25  C12 UNL     1      -7.805   9.235   8.061  1.00  0.00     0.003 A 
HETATM   26  C13 UNL     1      -6.957   9.361   9.149  1.00  0.00     0.037 A 
ENDBRANCH  20  21
ENDBRANCH  19  20
ENDBRANCH   3  19
TORSDOF 6
ENDMDL
