MODEL 1
REMARK VINA RESULT: -8.203850115      0.000      0.000
REMARK  6 active torsions:
REMARK  status: ('A' for Active; 'I' for Inactive)
REMARK    1  A    between atoms: N1_1  and  S1_4 
REMARK    2  A    between atoms: S1_4  and  C1_7 
REMARK    3  A    between atoms: C4_10  and  O3_11 
REMARK    4  A    between atoms: O3_11  and  C5_12 
REMARK    5  A    between atoms: C5_12  and  C6_13 
REMARK    6  A    between atoms: N2_15  and  C8_16 
ROOT
HETATM    1  O3  UNL     1      -4.028   6.049  14.253  1.00  0.00    -0.345 OA
ENDROOT
BRANCH   1   2
HETATM    2  C4  UNL     1      -4.463   4.877  14.837  1.00  0.00     0.069 A 
HETATM    3  C3  UNL     1      -5.780   4.731  15.176  1.00  0.00     0.038 A 
HETATM    4  C2  UNL     1      -6.228   3.569  15.759  1.00  0.00     0.028 A 
HETATM    5  C1  UNL     1      -5.391   2.525  16.022  1.00  0.00     0.079 A 
HETATM    6  C15 UNL     1      -4.062   2.683  15.675  1.00  0.00     0.028 A 
HETATM    7  C14 UNL     1      -3.600   3.836  15.093  1.00  0.00     0.038 A 
BRANCH   5   8
HETATM    8  S1  UNL     1      -5.948   1.040  16.764  1.00  0.00     0.256 S 
HETATM    9  O1  UNL     1      -5.454   1.031  18.198  1.00  0.00    -0.201 OA
HETATM   10  O2  UNL     1      -5.382  -0.149  16.049  1.00  0.00    -0.201 OA
BRANCH   8  11
HETATM   11  N1  UNL     1      -7.664   1.022  16.789  1.00  0.00    -0.324 N 
ATOM     12  H12 UNL     1      -8.237   0.807  17.606  1.00  0.00     0.169 HD
ATOM     13  H11 UNL     1      -7.998   1.259  15.855  1.00  0.00     0.169 HD
ENDBRANCH   8  11
ENDBRANCH   5   8
ENDBRANCH   1   2
BRANCH   1  14
HETATM   14  C5  UNL     1      -3.384   5.993  13.018  1.00  0.00     0.235 C 
BRANCH  14  15
HETATM   15  C6  UNL     1      -4.320   6.001  11.871  1.00  0.00     0.065 A 
HETATM   16  C7  UNL     1      -5.061   7.048  11.368  1.00  0.00     0.142 A 
HETATM   17  N2  UNL     1      -5.789   6.613  10.304  1.00  0.00    -0.249 N 
HETATM   18  N3  UNL     1      -5.486   5.333  10.177  1.00  0.00    -0.015 NA
HETATM   19  N4  UNL     1      -4.617   4.948  11.094  1.00  0.00    -0.284 N 
ATOM     20  H4  UNL     1      -4.236   4.008  11.195  1.00  0.00     0.184 HD
BRANCH  17  21
HETATM   21  C8  UNL     1      -6.679   7.398   9.516  1.00  0.00     0.054 A 
HETATM   22  C9  UNL     1      -7.735   6.829   8.832  1.00  0.00     0.031 A 
HETATM   23  C10 UNL     1      -8.595   7.589   8.068  1.00  0.00     0.002 A 
HETATM   24  C11 UNL     1      -8.430   8.953   7.961  1.00  0.00     0.000 A 
HETATM   25  C12 UNL     1      -7.377   9.520   8.644  1.00  0.00     0.002 A 
HETATM   26  C13 UNL     1      -6.510   8.760   9.412  1.00  0.00     0.031 A 
ENDBRANCH  17  21
ENDBRANCH  14  15
ENDBRANCH   1  14
TORSDOF 6
ENDMDL
