MODEL 3
REMARK VINA RESULT: -7.867834781      0.835      1.418
REMARK  6 active torsions:
REMARK  status: ('A' for Active; 'I' for Inactive)
REMARK    1  A    between atoms: N1_1  and  S1_4 
REMARK    2  A    between atoms: S1_4  and  C1_7 
REMARK    3  A    between atoms: C4_10  and  O3_11 
REMARK    4  A    between atoms: O3_11  and  C5_12 
REMARK    5  A    between atoms: C5_12  and  C6_13 
REMARK    6  A    between atoms: N2_15  and  C8_16 
ROOT
HETATM    1  O3  UNL     1      -4.220   6.167  14.282  1.00  0.00    -0.345 OA
ENDROOT
BRANCH   1   2
HETATM    2  C4  UNL     1      -4.529   4.936  14.821  1.00  0.00     0.069 A 
HETATM    3  C3  UNL     1      -5.819   4.649  15.174  1.00  0.00     0.038 A 
HETATM    4  C2  UNL     1      -6.142   3.425  15.713  1.00  0.00     0.028 A 
HETATM    5  C1  UNL     1      -5.204   2.457  15.918  1.00  0.00     0.079 A 
HETATM    6  C15 UNL     1      -3.903   2.757  15.558  1.00  0.00     0.028 A 
HETATM    7  C14 UNL     1      -3.566   3.974  15.019  1.00  0.00     0.038 A 
BRANCH   5   8
HETATM    8  S1  UNL     1      -5.601   0.896  16.603  1.00  0.00     0.256 S 
HETATM    9  O1  UNL     1      -7.068   0.632  16.322  1.00  0.00    -0.201 OA
HETATM   10  O2  UNL     1      -5.387   0.903  18.086  1.00  0.00    -0.201 OA
BRANCH   8  11
HETATM   11  N1  UNL     1      -4.680  -0.323  15.823  1.00  0.00    -0.324 N 
ATOM     12  H12 UNL     1      -4.401  -1.209  16.245  1.00  0.00     0.169 HD
ATOM     13  H11 UNL     1      -4.467  -0.004  14.878  1.00  0.00     0.169 HD
ENDBRANCH   8  11
ENDBRANCH   5   8
ENDBRANCH   1   2
BRANCH   1  14
HETATM   14  C5  UNL     1      -3.541   6.224  13.066  1.00  0.00     0.235 C 
BRANCH  14  15
HETATM   15  C6  UNL     1      -4.441   6.200  11.892  1.00  0.00     0.065 A 
HETATM   16  C7  UNL     1      -5.186   7.226  11.354  1.00  0.00     0.142 A 
HETATM   17  N2  UNL     1      -5.873   6.765  10.274  1.00  0.00    -0.249 N 
HETATM   18  N3  UNL     1      -5.543   5.489  10.172  1.00  0.00    -0.015 NA
HETATM   19  N4  UNL     1      -4.696   5.132  11.120  1.00  0.00    -0.284 N 
ATOM     20  H4  UNL     1      -4.301   4.201  11.245  1.00  0.00     0.184 HD
BRANCH  17  21
HETATM   21  C8  UNL     1      -6.753   7.523   9.449  1.00  0.00     0.054 A 
HETATM   22  C9  UNL     1      -6.589   8.882   9.272  1.00  0.00     0.031 A 
HETATM   23  C10 UNL     1      -7.441   9.616   8.474  1.00  0.00     0.002 A 
HETATM   24  C11 UNL     1      -8.495   9.013   7.820  1.00  0.00     0.000 A 
HETATM   25  C12 UNL     1      -8.657   7.656   7.998  1.00  0.00     0.002 A 
HETATM   26  C13 UNL     1      -7.804   6.916   8.799  1.00  0.00     0.031 A 
ENDBRANCH  17  21
ENDBRANCH  14  15
ENDBRANCH   1  14
TORSDOF 6
ENDMDL
