MODEL 2
REMARK VINA RESULT: -8.200186054      0.068      1.389
REMARK  6 active torsions:
REMARK  status: ('A' for Active; 'I' for Inactive)
REMARK    1  A    between atoms: N1_1  and  S1_4 
REMARK    2  A    between atoms: S1_4  and  C1_7 
REMARK    3  A    between atoms: C4_10  and  O3_11 
REMARK    4  A    between atoms: O3_11  and  C5_12 
REMARK    5  A    between atoms: C5_12  and  C6_13 
REMARK    6  A    between atoms: N2_15  and  C8_16 
ROOT
HETATM    1  O3  UNL     1      -3.946   6.060  14.287  1.00  0.00    -0.345 OA
ENDROOT
BRANCH   1   2
HETATM    2  C4  UNL     1      -4.419   4.897  14.858  1.00  0.00     0.069 A 
HETATM    3  C3  UNL     1      -3.559   3.866  15.120  1.00  0.00     0.038 A 
HETATM    4  C2  UNL     1      -4.016   2.700  15.689  1.00  0.00     0.028 A 
HETATM    5  C1  UNL     1      -5.329   2.522  16.013  1.00  0.00     0.079 A 
HETATM    6  C15 UNL     1      -6.190   3.570  15.745  1.00  0.00     0.028 A 
HETATM    7  C14 UNL     1      -5.749   4.740  15.177  1.00  0.00     0.038 A 
BRANCH   5   8
HETATM    8  S1  UNL     1      -5.924   1.044  16.738  1.00  0.00     0.256 S 
HETATM    9  O1  UNL     1      -5.450   1.017  18.178  1.00  0.00    -0.201 OA
HETATM   10  O2  UNL     1      -5.370  -0.151  16.024  1.00  0.00    -0.201 OA
BRANCH   8  11
HETATM   11  N1  UNL     1      -7.640   1.057  16.740  1.00  0.00    -0.324 N 
ATOM     12  H12 UNL     1      -8.221   1.896  16.754  1.00  0.00     0.169 HD
ATOM     13  H11 UNL     1      -7.965   0.090  16.727  1.00  0.00     0.169 HD
ENDBRANCH   8  11
ENDBRANCH   5   8
ENDBRANCH   1   2
BRANCH   1  14
HETATM   14  C5  UNL     1      -3.325   5.999  13.040  1.00  0.00     0.235 C 
BRANCH  14  15
HETATM   15  C6  UNL     1      -4.280   6.007  11.910  1.00  0.00     0.065 A 
HETATM   16  C7  UNL     1      -4.985   7.066  11.381  1.00  0.00     0.142 A 
HETATM   17  N2  UNL     1      -5.750   6.625  10.346  1.00  0.00    -0.249 N 
HETATM   18  N3  UNL     1      -5.506   5.329  10.261  1.00  0.00    -0.015 NA
HETATM   19  N4  UNL     1      -4.638   4.940  11.178  1.00  0.00    -0.284 N 
ATOM     20  H4  UNL     1      -4.296   3.989  11.307  1.00  0.00     0.184 HD
BRANCH  17  21
HETATM   21  C8  UNL     1      -6.620   7.419   9.545  1.00  0.00     0.054 A 
HETATM   22  C9  UNL     1      -6.465   8.788   9.445  1.00  0.00     0.031 A 
HETATM   23  C10 UNL     1      -7.307   9.556   8.670  1.00  0.00     0.002 A 
HETATM   24  C11 UNL     1      -8.340   8.981   7.961  1.00  0.00     0.000 A 
HETATM   25  C12 UNL     1      -8.493   7.615   8.061  1.00  0.00     0.002 A 
HETATM   26  C13 UNL     1      -7.650   6.840   8.840  1.00  0.00     0.031 A 
ENDBRANCH  17  21
ENDBRANCH  14  15
ENDBRANCH   1  14
TORSDOF 6
ENDMDL
