MODEL 3
REMARK VINA RESULT: -8.798893875      1.776      2.033
REMARK  7 active torsions:
REMARK  status: ('A' for Active; 'I' for Inactive)
REMARK    1  A    between atoms: N1_2  and  C2_4 
REMARK    2  A    between atoms: C4_7  and  S1_8 
REMARK    3  A    between atoms: S1_8  and  N2_9 
REMARK    4  A    between atoms: C7_18  and  S2_19 
REMARK    5  A    between atoms: S2_19  and  C8_22 
REMARK    6  A    between atoms: C8_22  and  C9_23 
REMARK    7  A    between atoms: C9_23  and  C10_24 
ROOT
HETATM    1  C2  UNL     1      -4.233   3.131  12.274  1.00  0.00     0.093 A 
HETATM    2  C3  UNL     1      -4.025   2.190  13.283  1.00  0.00     0.170 A 
HETATM    3  F1  UNL     1      -3.105   1.188  13.133  1.00  0.00    -0.202 F 
HETATM    4  C4  UNL     1      -4.730   2.226  14.464  1.00  0.00     0.161 A 
HETATM    5  C5  UNL     1      -5.658   3.237  14.616  1.00  0.00     0.182 A 
HETATM    6  F2  UNL     1      -6.359   3.281  15.779  1.00  0.00    -0.201 F 
HETATM    7  C6  UNL     1      -5.877   4.177  13.629  1.00  0.00     0.180 A 
HETATM    8  F3  UNL     1      -6.787   5.169  13.776  1.00  0.00    -0.201 F 
HETATM    9  C7  UNL     1      -5.156   4.132  12.430  1.00  0.00     0.130 A 
ENDROOT
BRANCH   9  10
HETATM   10  S2  UNL     1      -5.410   5.296  11.166  1.00  0.00     0.181 S 
HETATM   11  O3  UNL     1      -4.119   6.100  11.059  1.00  0.00    -0.222 OA
HETATM   12  O4  UNL     1      -5.723   4.637   9.861  1.00  0.00    -0.222 OA
BRANCH  10  13
HETATM   13  C8  UNL     1      -6.695   6.429  11.542  1.00  0.00     0.150 C 
BRANCH  13  14
HETATM   14  C9  UNL     1      -6.362   7.829  11.102  1.00  0.00     0.054 C 
BRANCH  14  15
HETATM   15  C10 UNL     1      -7.118   8.324   9.955  1.00  0.00    -0.057 A 
HETATM   16  C11 UNL     1      -8.114   7.507   9.430  1.00  0.00     0.007 A 
HETATM   17  C12 UNL     1      -8.865   7.902   8.342  1.00  0.00     0.001 A 
HETATM   18  C13 UNL     1      -8.603   9.126   7.788  1.00  0.00     0.000 A 
HETATM   19  C14 UNL     1      -7.614   9.933   8.312  1.00  0.00     0.001 A 
HETATM   20  C15 UNL     1      -6.851   9.557   9.400  1.00  0.00     0.007 A 
ENDBRANCH  14  15
ENDBRANCH  13  14
ENDBRANCH  10  13
ENDBRANCH   9  10
BRANCH   1  21
HETATM   21  N1  UNL     1      -3.453   2.995  11.100  1.00  0.00    -0.390 N 
HETATM   22  C1  UNL     1      -2.060   3.372  10.993  1.00  0.00     0.146 C 
ATOM     23  H1  UNL     1      -3.904   2.605  10.272  1.00  0.00     0.159 HD
ENDBRANCH   1  21
BRANCH   4  24
HETATM   24  S1  UNL     1      -4.471   1.042  15.737  1.00  0.00     0.263 S 
HETATM   25  O1  UNL     1      -4.664  -0.315  15.114  1.00  0.00    -0.201 OA
HETATM   26  O2  UNL     1      -3.059   1.159  16.233  1.00  0.00    -0.201 OA
BRANCH  24  27
HETATM   27  N2  UNL     1      -5.611   1.223  17.008  1.00  0.00    -0.324 N 
ATOM     28  H22 UNL     1      -6.553   1.590  16.869  1.00  0.00     0.169 HD
ATOM     29  H21 UNL     1      -5.226   0.920  17.902  1.00  0.00     0.169 HD
ENDBRANCH  24  27
ENDBRANCH   4  24
TORSDOF 7
ENDMDL
