MODEL 4
REMARK VINA RESULT: -8.707039331      0.823      1.152
REMARK  7 active torsions:
REMARK  status: ('A' for Active; 'I' for Inactive)
REMARK    1  A    between atoms: N1_2  and  C2_4 
REMARK    2  A    between atoms: C4_7  and  S1_8 
REMARK    3  A    between atoms: S1_8  and  N2_9 
REMARK    4  A    between atoms: C7_18  and  S2_19 
REMARK    5  A    between atoms: S2_19  and  C8_22 
REMARK    6  A    between atoms: C8_22  and  C9_23 
REMARK    7  A    between atoms: C9_23  and  C10_24 
ROOT
HETATM    1  C2  UNL     1      -4.765   2.411  13.599  1.00  0.00     0.093 A 
HETATM    2  C3  UNL     1      -4.992   1.680  14.766  1.00  0.00     0.170 A 
HETATM    3  F1  UNL     1      -4.477   0.420  14.918  1.00  0.00    -0.202 F 
HETATM    4  C4  UNL     1      -5.736   2.186  15.805  1.00  0.00     0.161 A 
HETATM    5  C5  UNL     1      -6.255   3.457  15.652  1.00  0.00     0.182 A 
HETATM    6  F2  UNL     1      -6.992   3.965  16.674  1.00  0.00    -0.201 F 
HETATM    7  C6  UNL     1      -6.041   4.195  14.506  1.00  0.00     0.180 A 
HETATM    8  F3  UNL     1      -6.549   5.442  14.354  1.00  0.00    -0.201 F 
HETATM    9  C7  UNL     1      -5.283   3.672  13.453  1.00  0.00     0.130 A 
ENDROOT
BRANCH   9  10
HETATM   10  S2  UNL     1      -4.998   4.573  11.995  1.00  0.00     0.181 S 
HETATM   11  O3  UNL     1      -3.490   4.556  11.769  1.00  0.00    -0.222 OA
HETATM   12  O4  UNL     1      -5.707   3.971  10.825  1.00  0.00    -0.222 OA
BRANCH  10  13
HETATM   13  C8  UNL     1      -5.480   6.254  12.137  1.00  0.00     0.150 C 
BRANCH  13  14
HETATM   14  C9  UNL     1      -6.847   6.501  11.560  1.00  0.00     0.054 C 
BRANCH  14  15
HETATM   15  C10 UNL     1      -6.944   7.626  10.634  1.00  0.00    -0.057 A 
HETATM   16  C11 UNL     1      -7.701   7.456   9.479  1.00  0.00     0.007 A 
HETATM   17  C12 UNL     1      -7.832   8.471   8.554  1.00  0.00     0.001 A 
HETATM   18  C13 UNL     1      -7.196   9.657   8.802  1.00  0.00     0.000 A 
HETATM   19  C14 UNL     1      -6.447   9.822   9.949  1.00  0.00     0.001 A 
HETATM   20  C15 UNL     1      -6.302   8.819  10.888  1.00  0.00     0.007 A 
ENDBRANCH  14  15
ENDBRANCH  13  14
ENDBRANCH  10  13
ENDBRANCH   9  10
BRANCH   1  21
HETATM   21  N1  UNL     1      -3.986   1.790  12.593  1.00  0.00    -0.390 N 
HETATM   22  C1  UNL     1      -4.484   0.799  11.664  1.00  0.00     0.146 C 
ATOM     23  H1  UNL     1      -3.005   2.060  12.518  1.00  0.00     0.159 HD
ENDBRANCH   1  21
BRANCH   4  24
HETATM   24  S1  UNL     1      -6.025   1.266  17.276  1.00  0.00     0.263 S 
HETATM   25  O1  UNL     1      -7.359   0.590  17.110  1.00  0.00    -0.201 OA
HETATM   26  O2  UNL     1      -4.956   0.222  17.416  1.00  0.00    -0.201 OA
BRANCH  24  27
HETATM   27  N2  UNL     1      -6.102   2.288  18.653  1.00  0.00    -0.324 N 
ATOM     28  H22 UNL     1      -6.891   2.903  18.853  1.00  0.00     0.169 HD
ATOM     29  H21 UNL     1      -5.268   2.198  19.234  1.00  0.00     0.169 HD
ENDBRANCH  24  27
ENDBRANCH   4  24
TORSDOF 7
ENDMDL
