MODEL 1
REMARK VINA RESULT: -8.987852086      0.000      0.000
REMARK  7 active torsions:
REMARK  status: ('A' for Active; 'I' for Inactive)
REMARK    1  A    between atoms: N1_2  and  C2_4 
REMARK    2  A    between atoms: C4_7  and  S1_8 
REMARK    3  A    between atoms: S1_8  and  N2_9 
REMARK    4  A    between atoms: C7_18  and  S2_19 
REMARK    5  A    between atoms: S2_19  and  C8_22 
REMARK    6  A    between atoms: C8_22  and  C9_23 
REMARK    7  A    between atoms: C9_23  and  C10_24 
ROOT
HETATM    1  C2  UNL     1      -4.761   2.300  13.724  1.00  0.00     0.093 A 
HETATM    2  C3  UNL     1      -4.988   1.609  14.914  1.00  0.00     0.170 A 
HETATM    3  F1  UNL     1      -4.432   0.376  15.129  1.00  0.00    -0.202 F 
HETATM    4  C4  UNL     1      -5.775   2.128  15.915  1.00  0.00     0.161 A 
HETATM    5  C5  UNL     1      -6.335   3.371  15.698  1.00  0.00     0.182 A 
HETATM    6  F2  UNL     1      -7.114   3.893  16.682  1.00  0.00    -0.201 F 
HETATM    7  C6  UNL     1      -6.121   4.071  14.528  1.00  0.00     0.180 A 
HETATM    8  F3  UNL     1      -6.670   5.291  14.314  1.00  0.00    -0.201 F 
HETATM    9  C7  UNL     1      -5.320   3.534  13.514  1.00  0.00     0.130 A 
ENDROOT
BRANCH   9  10
HETATM   10  S2  UNL     1      -5.034   4.386  12.027  1.00  0.00     0.181 S 
HETATM   11  O3  UNL     1      -3.525   4.581  11.930  1.00  0.00    -0.222 OA
HETATM   12  O4  UNL     1      -5.537   3.622  10.845  1.00  0.00    -0.222 OA
BRANCH  10  13
HETATM   13  C8  UNL     1      -5.763   5.981  12.013  1.00  0.00     0.150 C 
BRANCH  13  14
HETATM   14  C9  UNL     1      -5.384   6.766  10.787  1.00  0.00     0.054 C 
BRANCH  14  15
HETATM   15  C10 UNL     1      -6.449   6.949   9.805  1.00  0.00    -0.057 A 
HETATM   16  C11 UNL     1      -6.371   6.229   8.617  1.00  0.00     0.007 A 
HETATM   17  C12 UNL     1      -7.336   6.355   7.639  1.00  0.00     0.001 A 
HETATM   18  C13 UNL     1      -8.378   7.213   7.867  1.00  0.00     0.000 A 
HETATM   19  C14 UNL     1      -8.451   7.925   9.046  1.00  0.00     0.001 A 
HETATM   20  C15 UNL     1      -7.497   7.813  10.038  1.00  0.00     0.007 A 
ENDBRANCH  14  15
ENDBRANCH  13  14
ENDBRANCH  10  13
ENDBRANCH   9  10
BRANCH   1  21
HETATM   21  N1  UNL     1      -3.936   1.668  12.761  1.00  0.00    -0.390 N 
HETATM   22  C1  UNL     1      -4.346   0.556  11.932  1.00  0.00     0.146 C 
ATOM     23  H1  UNL     1      -2.986   2.022  12.644  1.00  0.00     0.159 HD
ENDBRANCH   1  21
BRANCH   4  24
HETATM   24  S1  UNL     1      -6.064   1.258  17.416  1.00  0.00     0.263 S 
HETATM   25  O1  UNL     1      -7.407   0.592  17.278  1.00  0.00    -0.201 OA
HETATM   26  O2  UNL     1      -5.007   0.206  17.582  1.00  0.00    -0.201 OA
BRANCH  24  27
HETATM   27  N2  UNL     1      -6.122   2.323  18.760  1.00  0.00    -0.324 N 
ATOM     28  H22 UNL     1      -5.346   2.926  19.033  1.00  0.00     0.169 HD
ATOM     29  H21 UNL     1      -7.020   2.272  19.241  1.00  0.00     0.169 HD
ENDBRANCH  24  27
ENDBRANCH   4  24
TORSDOF 7
ENDMDL
