MODEL 17
REMARK VINA RESULT: -7.124300968      1.705      2.792
REMARK  4 active torsions:
REMARK  status: ('A' for Active; 'I' for Inactive)
REMARK    1  A    between atoms: N1_1  and  S1_4 
REMARK    2  A    between atoms: S1_4  and  C1_7 
REMARK    3  A    between atoms: C4_12  and  N2_13 
REMARK    4  A    between atoms: N2_13  and  C5_15 
ROOT
HETATM    1  C1  UNL     1      -4.489   2.194  14.353  1.00  0.00     0.162 A 
HETATM    2  C2  UNL     1      -4.982   3.435  14.661  1.00  0.00     0.183 A 
HETATM    3  F1  UNL     1      -5.533   3.598  15.891  1.00  0.00    -0.201 F 
HETATM    4  C3  UNL     1      -4.950   4.512  13.798  1.00  0.00     0.186 A 
HETATM    5  F2  UNL     1      -5.460   5.711  14.173  1.00  0.00    -0.200 F 
HETATM    6  C4  UNL     1      -4.385   4.334  12.542  1.00  0.00     0.113 A 
HETATM    7  C15 UNL     1      -3.877   3.091  12.201  1.00  0.00     0.186 A 
HETATM    8  F3  UNL     1      -3.310   2.843  10.991  1.00  0.00    -0.200 F 
HETATM    9  C16 UNL     1      -3.928   2.029  13.100  1.00  0.00     0.183 A 
HETATM   10  F4  UNL     1      -3.426   0.800  12.763  1.00  0.00    -0.201 F 
ENDROOT
BRANCH   6  11
HETATM   11  N2  UNL     1      -4.319   5.401  11.603  1.00  0.00    -0.376 N 
ATOM     12  H2  UNL     1      -5.070   5.485  10.919  1.00  0.00     0.160 HD
BRANCH  11  13
HETATM   13  C5  UNL     1      -3.255   6.367  11.561  1.00  0.00     0.031 C 
HETATM   14  C6  UNL     1      -2.321   5.979  10.439  1.00  0.00     0.035 C 
HETATM   15  C7  UNL     1      -1.183   6.989  10.345  1.00  0.00    -0.012 C 
HETATM   16  C8  UNL     1      -1.806   8.318   9.995  1.00  0.00     0.009 C 
HETATM   17  C12 UNL     1      -0.444   7.015  11.657  1.00  0.00     0.009 C 
HETATM   18  C9  UNL     1      -2.700   8.743  11.136  1.00  0.00    -0.012 C 
HETATM   19  C10 UNL     1      -1.916   8.808  12.408  1.00  0.00     0.009 C 
HETATM   20  C14 UNL     1      -3.812   7.730  11.311  1.00  0.00     0.035 C 
HETATM   21  C11 UNL     1      -1.388   7.436  12.759  1.00  0.00    -0.012 C 
HETATM   22  C13 UNL     1      -2.490   6.419  12.878  1.00  0.00     0.035 C 
ENDBRANCH  11  13
ENDBRANCH   6  11
BRANCH   1  23
HETATM   23  S1  UNL     1      -4.559   0.849  15.501  1.00  0.00     0.263 S 
HETATM   24  O1  UNL     1      -4.606  -0.435  14.730  1.00  0.00    -0.201 OA
HETATM   25  O2  UNL     1      -3.341   0.842  16.376  1.00  0.00    -0.201 OA
BRANCH  23  26
HETATM   26  N1  UNL     1      -6.007   0.958  16.436  1.00  0.00    -0.324 N 
ATOM     27  H12 UNL     1      -6.299   0.293  17.152  1.00  0.00     0.169 HD
ATOM     28  H11 UNL     1      -6.506   1.798  16.143  1.00  0.00     0.169 HD
ENDBRANCH  23  26
ENDBRANCH   1  23
TORSDOF 4
ENDMDL
