MODEL 1
REMARK VINA RESULT: -8.503146234      0.000      0.000
REMARK  4 active torsions:
REMARK  status: ('A' for Active; 'I' for Inactive)
REMARK    1  A    between atoms: N1_1  and  S1_4 
REMARK    2  A    between atoms: S1_4  and  C1_7 
REMARK    3  A    between atoms: C4_12  and  N2_13 
REMARK    4  A    between atoms: N2_13  and  C5_15 
ROOT
HETATM    1  C1  UNL     1      -5.602   2.079  15.880  1.00  0.00     0.162 A 
HETATM    2  C2  UNL     1      -4.752   1.547  14.946  1.00  0.00     0.183 A 
HETATM    3  F1  UNL     1      -4.341   0.267  15.136  1.00  0.00    -0.201 F 
HETATM    4  C3  UNL     1      -4.297   2.235  13.838  1.00  0.00     0.186 A 
HETATM    5  F2  UNL     1      -3.455   1.640  12.957  1.00  0.00    -0.200 F 
HETATM    6  C4  UNL     1      -4.723   3.543  13.653  1.00  0.00     0.113 A 
HETATM    7  C15 UNL     1      -5.582   4.110  14.580  1.00  0.00     0.186 A 
HETATM    8  F3  UNL     1      -6.040   5.384  14.465  1.00  0.00    -0.200 F 
HETATM    9  C16 UNL     1      -6.019   3.384  15.685  1.00  0.00     0.183 A 
HETATM   10  F4  UNL     1      -6.869   3.943  16.601  1.00  0.00    -0.201 F 
ENDROOT
BRANCH   6  11
HETATM   11  N2  UNL     1      -4.293   4.309  12.535  1.00  0.00    -0.376 N 
ATOM     12  H2  UNL     1      -4.761   4.159  11.642  1.00  0.00     0.160 HD
BRANCH  11  13
HETATM   13  C5  UNL     1      -3.237   5.283  12.589  1.00  0.00     0.031 C 
HETATM   14  C6  UNL     1      -2.233   4.939  11.515  1.00  0.00     0.035 C 
HETATM   15  C7  UNL     1      -1.100   5.959  11.523  1.00  0.00    -0.012 C 
HETATM   16  C8  UNL     1      -1.713   7.295  11.179  1.00  0.00     0.009 C 
HETATM   17  C12 UNL     1      -0.443   5.947  12.878  1.00  0.00     0.009 C 
HETATM   18  C9  UNL     1      -2.678   7.676  12.276  1.00  0.00    -0.012 C 
HETATM   19  C10 UNL     1      -1.974   7.705  13.595  1.00  0.00     0.009 C 
HETATM   20  C14 UNL     1      -3.789   6.650  12.350  1.00  0.00     0.035 C 
HETATM   21  C11 UNL     1      -1.456   6.326  13.933  1.00  0.00    -0.012 C 
HETATM   22  C13 UNL     1      -2.554   5.298  13.951  1.00  0.00     0.035 C 
ENDBRANCH  11  13
ENDBRANCH   6  11
BRANCH   1  23
HETATM   23  S1  UNL     1      -6.152   1.150  17.281  1.00  0.00     0.263 S 
HETATM   24  O1  UNL     1      -7.562   0.705  17.036  1.00  0.00    -0.201 OA
HETATM   25  O2  UNL     1      -5.291  -0.063  17.477  1.00  0.00    -0.201 OA
BRANCH  23  26
HETATM   26  N1  UNL     1      -6.152   2.158  18.684  1.00  0.00    -0.324 N 
ATOM     27  H12 UNL     1      -6.602   1.934  19.571  1.00  0.00     0.169 HD
ATOM     28  H11 UNL     1      -5.626   3.003  18.461  1.00  0.00     0.169 HD
ENDBRANCH  23  26
ENDBRANCH   1  23
TORSDOF 4
ENDMDL
