MODEL 3
REMARK VINA RESULT: -8.430604589      0.107      2.124
REMARK  4 active torsions:
REMARK  status: ('A' for Active; 'I' for Inactive)
REMARK    1  A    between atoms: N1_1  and  S1_4 
REMARK    2  A    between atoms: S1_4  and  C1_7 
REMARK    3  A    between atoms: C4_12  and  N2_13 
REMARK    4  A    between atoms: N2_13  and  C5_15 
ROOT
HETATM    1  C1  UNL     1      -5.541   2.001  15.904  1.00  0.00     0.162 A 
HETATM    2  C2  UNL     1      -5.945   3.293  15.688  1.00  0.00     0.183 A 
HETATM    3  F1  UNL     1      -6.793   3.840  16.597  1.00  0.00    -0.201 F 
HETATM    4  C3  UNL     1      -5.541   4.056  14.611  1.00  0.00     0.186 A 
HETATM    5  F2  UNL     1      -5.983   5.329  14.464  1.00  0.00    -0.200 F 
HETATM    6  C4  UNL     1      -4.673   3.488  13.688  1.00  0.00     0.113 A 
HETATM    7  C15 UNL     1      -4.247   2.183  13.878  1.00  0.00     0.186 A 
HETATM    8  F3  UNL     1      -3.400   1.561  13.017  1.00  0.00    -0.200 F 
HETATM    9  C16 UNL     1      -4.677   1.445  14.978  1.00  0.00     0.183 A 
HETATM   10  F4  UNL     1      -4.257   0.156  15.166  1.00  0.00    -0.201 F 
ENDROOT
BRANCH   6  11
HETATM   11  N2  UNL     1      -4.217   4.216  12.555  1.00  0.00    -0.376 N 
ATOM     12  H2  UNL     1      -4.652   4.022  11.654  1.00  0.00     0.160 HD
BRANCH  11  13
HETATM   13  C5  UNL     1      -3.180   5.210  12.606  1.00  0.00     0.031 C 
HETATM   14  C6  UNL     1      -2.136   4.843  11.578  1.00  0.00     0.035 C 
HETATM   15  C7  UNL     1      -1.021   5.882  11.584  1.00  0.00    -0.012 C 
HETATM   16  C8  UNL     1      -1.643   7.194  11.169  1.00  0.00     0.009 C 
HETATM   17  C12 UNL     1      -0.408   5.933  12.959  1.00  0.00     0.009 C 
HETATM   18  C9  UNL     1      -2.650   7.599  12.219  1.00  0.00    -0.012 C 
HETATM   19  C10 UNL     1      -1.990   7.690  13.558  1.00  0.00     0.009 C 
HETATM   20  C14 UNL     1      -3.746   6.557  12.297  1.00  0.00     0.035 C 
HETATM   21  C11 UNL     1      -1.461   6.334  13.966  1.00  0.00    -0.012 C 
HETATM   22  C13 UNL     1      -2.543   5.288  13.988  1.00  0.00     0.035 C 
ENDBRANCH  11  13
ENDBRANCH   6  11
BRANCH   1  23
HETATM   23  S1  UNL     1      -6.094   1.071  17.304  1.00  0.00     0.263 S 
HETATM   24  O1  UNL     1      -7.525   0.682  17.085  1.00  0.00    -0.201 OA
HETATM   25  O2  UNL     1      -5.275  -0.175  17.463  1.00  0.00    -0.201 OA
BRANCH  23  26
HETATM   26  N1  UNL     1      -6.025   2.057  18.721  1.00  0.00    -0.324 N 
ATOM     27  H12 UNL     1      -6.798   2.217  19.366  1.00  0.00     0.169 HD
ATOM     28  H11 UNL     1      -5.082   2.440  18.789  1.00  0.00     0.169 HD
ENDBRANCH  23  26
ENDBRANCH   1  23
TORSDOF 4
ENDMDL
