MODEL 2
REMARK VINA RESULT: -8.495625212      0.081      2.594
REMARK  4 active torsions:
REMARK  status: ('A' for Active; 'I' for Inactive)
REMARK    1  A    between atoms: N1_1  and  S1_4 
REMARK    2  A    between atoms: S1_4  and  C1_7 
REMARK    3  A    between atoms: C4_12  and  N2_13 
REMARK    4  A    between atoms: N2_13  and  C5_15 
ROOT
HETATM    1  C1  UNL     1      -5.584   2.082  15.880  1.00  0.00     0.162 A 
HETATM    2  C2  UNL     1      -5.987   3.373  15.656  1.00  0.00     0.183 A 
HETATM    3  F1  UNL     1      -6.829   3.928  16.565  1.00  0.00    -0.201 F 
HETATM    4  C3  UNL     1      -5.589   4.126  14.570  1.00  0.00     0.186 A 
HETATM    5  F2  UNL     1      -6.031   5.399  14.415  1.00  0.00    -0.200 F 
HETATM    6  C4  UNL     1      -4.728   3.549  13.646  1.00  0.00     0.113 A 
HETATM    7  C15 UNL     1      -4.302   2.245  13.844  1.00  0.00     0.186 A 
HETATM    8  F3  UNL     1      -3.461   1.615  12.983  1.00  0.00    -0.200 F 
HETATM    9  C16 UNL     1      -4.726   1.517  14.953  1.00  0.00     0.183 A 
HETATM   10  F4  UNL     1      -4.306   0.229  15.149  1.00  0.00    -0.201 F 
ENDROOT
BRANCH   6  11
HETATM   11  N2  UNL     1      -4.278   4.267  12.504  1.00  0.00    -0.376 N 
ATOM     12  H2  UNL     1      -4.749   4.099  11.616  1.00  0.00     0.160 HD
BRANCH  11  13
HETATM   13  C5  UNL     1      -3.199   5.217  12.529  1.00  0.00     0.031 C 
HETATM   14  C6  UNL     1      -3.787   6.592  12.320  1.00  0.00     0.035 C 
HETATM   15  C7  UNL     1      -2.678   7.637  12.356  1.00  0.00    -0.012 C 
HETATM   16  C8  UNL     1      -2.080   7.592  13.741  1.00  0.00     0.009 C 
HETATM   17  C12 UNL     1      -1.678   7.325  11.275  1.00  0.00     0.009 C 
HETATM   18  C9  UNL     1      -1.439   6.239  13.941  1.00  0.00    -0.012 C 
HETATM   19  C10 UNL     1      -0.415   5.991  12.879  1.00  0.00     0.009 C 
HETATM   20  C14 UNL     1      -2.497   5.159  13.846  1.00  0.00     0.035 C 
HETATM   21  C11 UNL     1      -1.079   5.960  11.521  1.00  0.00    -0.012 C 
HETATM   22  C13 UNL     1      -2.167   4.925  11.447  1.00  0.00     0.035 C 
ENDBRANCH  11  13
ENDBRANCH   6  11
BRANCH   1  23
HETATM   23  S1  UNL     1      -6.129   1.164  17.291  1.00  0.00     0.263 S 
HETATM   24  O1  UNL     1      -7.521   0.674  17.033  1.00  0.00    -0.201 OA
HETATM   25  O2  UNL     1      -5.237  -0.019  17.524  1.00  0.00    -0.201 OA
BRANCH  23  26
HETATM   26  N1  UNL     1      -6.179   2.199  18.673  1.00  0.00    -0.324 N 
ATOM     27  H12 UNL     1      -6.795   2.079  19.477  1.00  0.00     0.169 HD
ATOM     28  H11 UNL     1      -5.490   2.938  18.536  1.00  0.00     0.169 HD
ENDBRANCH  23  26
ENDBRANCH   1  23
TORSDOF 4
ENDMDL
