MODEL 1
REMARK VINA RESULT: -6.129129925      0.000      0.000
REMARK  5 active torsions:
REMARK  status: ('A' for Active; 'I' for Inactive)
REMARK    1  A    between atoms: C2_2  and  C3_3 
REMARK    2  A    between atoms: C3_3  and  S1_4 
REMARK    3  A    between atoms: S1_4  and  C4_5 
REMARK    4  A    between atoms: C7_8  and  S2_9 
REMARK    5  A    between atoms: S2_9  and  N1_10 
ROOT
HETATM    1  C4  UNL     1      -4.545   4.632  14.348  1.00  0.00     0.000 A 
HETATM    2  C5  UNL     1      -3.680   3.631  14.717  1.00  0.00     0.020 A 
HETATM    3  C6  UNL     1      -4.149   2.622  15.537  1.00  0.00     0.026 A 
HETATM    4  C7  UNL     1      -5.450   2.585  15.996  1.00  0.00     0.079 A 
HETATM    5  C8  UNL     1      -6.313   3.592  15.622  1.00  0.00     0.026 A 
HETATM    6  C9  UNL     1      -5.842   4.615  14.793  1.00  0.00     0.020 A 
ENDROOT
BRANCH   4   7
HETATM    7  S2  UNL     1      -5.933   1.254  17.031  1.00  0.00     0.256 S 
HETATM    8  O1  UNL     1      -4.793   0.299  17.123  1.00  0.00    -0.201 OA
HETATM    9  O2  UNL     1      -7.123   0.554  16.458  1.00  0.00    -0.201 OA
BRANCH   7  10
HETATM   10  N1  UNL     1      -6.238   1.907  18.593  1.00  0.00    -0.324 N 
ATOM     11  H12 UNL     1      -5.869   2.787  18.951  1.00  0.00     0.169 HD
ATOM     12  H11 UNL     1      -6.848   1.251  19.082  1.00  0.00     0.169 HD
ENDBRANCH   7  10
ENDBRANCH   4   7
BRANCH   1  13
HETATM   13  S1  UNL     1      -4.028   5.973  13.295  1.00  0.00    -0.130 SA
BRANCH  13  14
HETATM   14  C3  UNL     1      -2.486   6.623  13.952  1.00  0.00     0.079 C 
BRANCH  14  15
HETATM   15  C2  UNL     1      -2.693   7.560  15.115  1.00  0.00     0.006 C 
HETATM   16  C1  UNL     1      -1.624   8.640  15.000  1.00  0.00     0.006 C 
ENDBRANCH  14  15
ENDBRANCH  13  14
ENDBRANCH   1  13
TORSDOF 5
ENDMDL
