MODEL 8
REMARK VINA RESULT: -5.810965868      0.854      1.534
REMARK  5 active torsions:
REMARK  status: ('A' for Active; 'I' for Inactive)
REMARK    1  A    between atoms: C2_2  and  C3_3 
REMARK    2  A    between atoms: C3_3  and  S1_4 
REMARK    3  A    between atoms: S1_4  and  C4_5 
REMARK    4  A    between atoms: C7_8  and  S2_9 
REMARK    5  A    between atoms: S2_9  and  N1_10 
ROOT
HETATM    1  C4  UNL     1      -4.750   3.879  13.711  1.00  0.00     0.000 A 
HETATM    2  C5  UNL     1      -5.689   4.283  14.629  1.00  0.00     0.020 A 
HETATM    3  C6  UNL     1      -6.068   3.397  15.621  1.00  0.00     0.026 A 
HETATM    4  C7  UNL     1      -5.540   2.126  15.719  1.00  0.00     0.079 A 
HETATM    5  C8  UNL     1      -4.598   1.726  14.796  1.00  0.00     0.026 A 
HETATM    6  C9  UNL     1      -4.212   2.619  13.792  1.00  0.00     0.020 A 
ENDROOT
BRANCH   4   7
HETATM    7  S2  UNL     1      -6.096   1.089  17.019  1.00  0.00     0.256 S 
HETATM    8  O1  UNL     1      -5.048   0.061  17.275  1.00  0.00    -0.201 OA
HETATM    9  O2  UNL     1      -7.373   0.413  16.637  1.00  0.00    -0.201 OA
BRANCH   7  10
HETATM   10  N1  UNL     1      -6.262   2.072  18.422  1.00  0.00    -0.324 N 
ATOM     11  H12 UNL     1      -5.657   2.853  18.674  1.00  0.00     0.169 HD
ATOM     12  H11 UNL     1      -7.070   1.726  18.940  1.00  0.00     0.169 HD
ENDBRANCH   7  10
ENDBRANCH   4   7
BRANCH   1  13
HETATM   13  S1  UNL     1      -4.203   4.952  12.401  1.00  0.00    -0.130 SA
BRANCH  13  14
HETATM   14  C3  UNL     1      -3.666   6.498  13.145  1.00  0.00     0.079 C 
BRANCH  14  15
HETATM   15  C2  UNL     1      -2.556   6.311  14.148  1.00  0.00     0.006 C 
HETATM   16  C1  UNL     1      -2.194   7.699  14.662  1.00  0.00     0.006 C 
ENDBRANCH  14  15
ENDBRANCH  13  14
ENDBRANCH   1  13
TORSDOF 5
ENDMDL
