MODEL 20
REMARK VINA RESULT: -5.345045617      4.782      6.552
REMARK  5 active torsions:
REMARK  status: ('A' for Active; 'I' for Inactive)
REMARK    1  A    between atoms: C2_2  and  C3_3 
REMARK    2  A    between atoms: C3_3  and  S1_4 
REMARK    3  A    between atoms: S1_4  and  C4_5 
REMARK    4  A    between atoms: C7_8  and  S2_9 
REMARK    5  A    between atoms: S2_9  and  N1_10 
ROOT
HETATM    1  C4  UNL     1      -4.404   1.690  13.896  1.00  0.00     0.000 A 
HETATM    2  C5  UNL     1      -4.440   3.044  14.120  1.00  0.00     0.020 A 
HETATM    3  C6  UNL     1      -4.349   3.896  13.035  1.00  0.00     0.026 A 
HETATM    4  C7  UNL     1      -4.221   3.435  11.741  1.00  0.00     0.079 A 
HETATM    5  C8  UNL     1      -4.186   2.075  11.522  1.00  0.00     0.026 A 
HETATM    6  C9  UNL     1      -4.279   1.210  12.617  1.00  0.00     0.020 A 
ENDROOT
BRANCH   4   7
HETATM    7  S2  UNL     1      -4.114   4.610  10.443  1.00  0.00     0.256 S 
HETATM    8  O1  UNL     1      -5.442   5.269  10.301  1.00  0.00    -0.201 OA
HETATM    9  O2  UNL     1      -3.754   3.936   9.159  1.00  0.00    -0.201 OA
BRANCH   7  10
HETATM   10  N1  UNL     1      -2.956   5.791  10.918  1.00  0.00    -0.324 N 
ATOM     11  H12 UNL     1      -3.147   6.612  11.491  1.00  0.00     0.169 HD
ATOM     12  H11 UNL     1      -2.059   5.513  10.520  1.00  0.00     0.169 HD
ENDBRANCH   7  10
ENDBRANCH   4   7
BRANCH   1  13
HETATM   13  S1  UNL     1      -4.515   0.518  15.233  1.00  0.00    -0.130 SA
BRANCH  13  14
HETATM   14  C3  UNL     1      -4.931   1.428  16.727  1.00  0.00     0.079 C 
BRANCH  14  15
HETATM   15  C2  UNL     1      -6.020   0.765  17.532  1.00  0.00     0.006 C 
HETATM   16  C1  UNL     1      -7.342   1.167  16.890  1.00  0.00     0.006 C 
ENDBRANCH  14  15
ENDBRANCH  13  14
ENDBRANCH   1  13
TORSDOF 5
ENDMDL
