MODEL 2
REMARK VINA RESULT: -6.088678350      0.397      1.330
REMARK  5 active torsions:
REMARK  status: ('A' for Active; 'I' for Inactive)
REMARK    1  A    between atoms: C2_2  and  C3_3 
REMARK    2  A    between atoms: C3_3  and  S1_4 
REMARK    3  A    between atoms: S1_4  and  C4_5 
REMARK    4  A    between atoms: C7_8  and  S2_9 
REMARK    5  A    between atoms: S2_9  and  N1_10 
ROOT
HETATM    1  C4  UNL     1      -4.539   4.565  14.475  1.00  0.00     0.000 A 
HETATM    2  C5  UNL     1      -5.851   4.516  14.879  1.00  0.00     0.020 A 
HETATM    3  C6  UNL     1      -6.257   3.465  15.679  1.00  0.00     0.026 A 
HETATM    4  C7  UNL     1      -5.395   2.466  16.084  1.00  0.00     0.079 A 
HETATM    5  C8  UNL     1      -4.080   2.520  15.677  1.00  0.00     0.026 A 
HETATM    6  C9  UNL     1      -3.665   3.583  14.867  1.00  0.00     0.020 A 
ENDROOT
BRANCH   4   7
HETATM    7  S2  UNL     1      -6.023   1.182  17.100  1.00  0.00     0.256 S 
HETATM    8  O1  UNL     1      -4.972   0.134  17.228  1.00  0.00    -0.201 OA
HETATM    9  O2  UNL     1      -7.249   0.585  16.487  1.00  0.00    -0.201 OA
BRANCH   7  10
HETATM   10  N1  UNL     1      -6.323   1.859  18.653  1.00  0.00    -0.324 N 
ATOM     11  H12 UNL     1      -6.219   2.842  18.902  1.00  0.00     0.169 HD
ATOM     12  H11 UNL     1      -6.619   1.097  19.264  1.00  0.00     0.169 HD
ENDBRANCH   7  10
ENDBRANCH   4   7
BRANCH   1  13
HETATM   13  S1  UNL     1      -3.927   5.881  13.443  1.00  0.00    -0.130 SA
BRANCH  13  14
HETATM   14  C3  UNL     1      -2.377   6.456  14.148  1.00  0.00     0.079 C 
BRANCH  14  15
HETATM   15  C2  UNL     1      -2.184   7.944  14.002  1.00  0.00     0.006 C 
HETATM   16  C1  UNL     1      -1.744   8.462  15.366  1.00  0.00     0.006 C 
ENDBRANCH  14  15
ENDBRANCH  13  14
ENDBRANCH   1  13
TORSDOF 5
ENDMDL
