MODEL 16
REMARK VINA RESULT: -5.640454495      4.981      6.172
REMARK  5 active torsions:
REMARK  status: ('A' for Active; 'I' for Inactive)
REMARK    1  A    between atoms: C2_2  and  C3_3 
REMARK    2  A    between atoms: C3_3  and  S1_4 
REMARK    3  A    between atoms: S1_4  and  C4_5 
REMARK    4  A    between atoms: C7_8  and  S2_9 
REMARK    5  A    between atoms: S2_9  and  N1_10 
ROOT
HETATM    1  C4  UNL     1      -4.876   1.969  14.278  1.00  0.00     0.000 A 
HETATM    2  C5  UNL     1      -4.535   0.640  14.339  1.00  0.00     0.020 A 
HETATM    3  C6  UNL     1      -4.099   0.017  13.184  1.00  0.00     0.026 A 
HETATM    4  C7  UNL     1      -3.995   0.680  11.979  1.00  0.00     0.079 A 
HETATM    5  C8  UNL     1      -4.338   2.014  11.924  1.00  0.00     0.026 A 
HETATM    6  C9  UNL     1      -4.780   2.648  13.089  1.00  0.00     0.020 A 
ENDROOT
BRANCH   4   7
HETATM    7  S2  UNL     1      -3.429  -0.214  10.580  1.00  0.00     0.256 S 
HETATM    8  O1  UNL     1      -2.202   0.456  10.065  1.00  0.00    -0.201 OA
HETATM    9  O2  UNL     1      -4.474  -0.226   9.512  1.00  0.00    -0.201 OA
BRANCH   7  10
HETATM   10  N1  UNL     1      -3.013  -1.795  11.118  1.00  0.00    -0.324 N 
ATOM     11  H12 UNL     1      -2.907  -2.082  12.090  1.00  0.00     0.169 HD
ATOM     12  H11 UNL     1      -2.897  -2.376  10.288  1.00  0.00     0.169 HD
ENDBRANCH   7  10
ENDBRANCH   4   7
BRANCH   1  13
HETATM   13  S1  UNL     1      -5.449   2.853  15.714  1.00  0.00    -0.130 SA
BRANCH  13  14
HETATM   14  C3  UNL     1      -5.194   1.798  17.147  1.00  0.00     0.079 C 
BRANCH  14  15
HETATM   15  C2  UNL     1      -6.473   1.490  17.882  1.00  0.00     0.006 C 
HETATM   16  C1  UNL     1      -7.509   1.130  16.824  1.00  0.00     0.006 C 
ENDBRANCH  14  15
ENDBRANCH  13  14
ENDBRANCH   1  13
TORSDOF 5
ENDMDL
