MODEL 13
REMARK VINA RESULT: -5.717804846      1.556      2.007
REMARK  5 active torsions:
REMARK  status: ('A' for Active; 'I' for Inactive)
REMARK    1  A    between atoms: C2_2  and  C3_3 
REMARK    2  A    between atoms: C3_3  and  S1_4 
REMARK    3  A    between atoms: S1_4  and  C4_5 
REMARK    4  A    between atoms: C7_8  and  S2_9 
REMARK    5  A    between atoms: S2_9  and  N1_10 
ROOT
HETATM    1  C4  UNL     1      -4.608   4.723  13.314  1.00  0.00     0.000 A 
HETATM    2  C5  UNL     1      -5.245   4.609  14.526  1.00  0.00     0.020 A 
HETATM    3  C6  UNL     1      -5.251   3.378  15.155  1.00  0.00     0.026 A 
HETATM    4  C7  UNL     1      -4.644   2.265  14.611  1.00  0.00     0.079 A 
HETATM    5  C8  UNL     1      -4.006   2.386  13.396  1.00  0.00     0.026 A 
HETATM    6  C9  UNL     1      -3.998   3.629  12.755  1.00  0.00     0.020 A 
ENDROOT
BRANCH   4   7
HETATM    7  S2  UNL     1      -4.716   0.756  15.501  1.00  0.00     0.256 S 
HETATM    8  O1  UNL     1      -3.490   0.653  16.343  1.00  0.00    -0.201 OA
HETATM    9  O2  UNL     1      -4.770  -0.403  14.559  1.00  0.00    -0.201 OA
BRANCH   7  10
HETATM   10  N1  UNL     1      -6.091   0.836  16.532  1.00  0.00    -0.324 N 
ATOM     11  H12 UNL     1      -6.331   1.617  17.141  1.00  0.00     0.169 HD
ATOM     12  H11 UNL     1      -6.608  -0.036  16.416  1.00  0.00     0.169 HD
ENDBRANCH   7  10
ENDBRANCH   4   7
BRANCH   1  13
HETATM   13  S1  UNL     1      -4.550   6.269  12.431  1.00  0.00    -0.130 SA
BRANCH  13  14
HETATM   14  C3  UNL     1      -2.980   7.058  12.808  1.00  0.00     0.079 C 
BRANCH  14  15
HETATM   15  C2  UNL     1      -2.483   6.741  14.196  1.00  0.00     0.006 C 
HETATM   16  C1  UNL     1      -2.142   8.073  14.852  1.00  0.00     0.006 C 
ENDBRANCH  14  15
ENDBRANCH  13  14
ENDBRANCH   1  13
TORSDOF 5
ENDMDL
