MODEL 1
REMARK VINA RESULT: -8.869253608      0.000      0.000
REMARK  4 active torsions:
REMARK  status: ('A' for Active; 'I' for Inactive)
REMARK    1  A    between atoms: N1_1  and  S1_4 
REMARK    2  A    between atoms: S1_4  and  C1_7 
REMARK    3  A    between atoms: C4_12  and  S2_13 
REMARK    4  A    between atoms: S2_13  and  C5_14 
ROOT
HETATM    1  C1  UNL     1      -5.549   2.149  15.800  1.00  0.00     0.162 A 
HETATM    2  C2  UNL     1      -4.678   1.654  14.854  1.00  0.00     0.182 A 
HETATM    3  F1  UNL     1      -4.181   0.415  15.018  1.00  0.00    -0.201 F 
HETATM    4  C3  UNL     1      -4.305   2.403  13.749  1.00  0.00     0.176 A 
HETATM    5  F2  UNL     1      -3.444   1.855  12.858  1.00  0.00    -0.201 F 
HETATM    6  C4  UNL     1      -4.818   3.686  13.576  1.00  0.00     0.091 A 
HETATM    7  C12 UNL     1      -5.687   4.187  14.511  1.00  0.00     0.176 A 
HETATM    8  F3  UNL     1      -6.184   5.433  14.346  1.00  0.00    -0.201 F 
HETATM    9  C13 UNL     1      -6.042   3.414  15.612  1.00  0.00     0.182 A 
HETATM   10  F4  UNL     1      -6.899   3.907  16.536  1.00  0.00    -0.201 F 
ENDROOT
BRANCH   6  11
HETATM   11  S2  UNL     1      -4.294   4.577  12.136  1.00  0.00    -0.059 SA
BRANCH  11  12
HETATM   12  C5  UNL     1      -3.335   6.005  12.701  1.00  0.00     0.118 A 
HETATM   13  N2  UNL     1      -2.970   6.328  13.920  1.00  0.00    -0.344 N 
HETATM   14  C6  UNL     1      -2.275   7.406  14.137  1.00  0.00     0.050 A 
ATOM     15  H2  UNL     1      -3.232   5.729  14.703  1.00  0.00     0.167 HD
HETATM   16  C7  UNL     1      -1.818   7.874  15.377  1.00  0.00     0.031 A 
HETATM   17  C11 UNL     1      -1.946   8.176  13.053  1.00  0.00     0.034 A 
HETATM   18  C8  UNL     1      -1.092   9.018  15.510  1.00  0.00     0.002 A 
HETATM   19  C9  UNL     1      -0.765   9.788  14.417  1.00  0.00     0.002 A 
HETATM   20  C10 UNL     1      -1.198   9.357  13.180  1.00  0.00     0.021 A 
HETATM   21  S3  UNL     1      -2.666   7.289  11.776  1.00  0.00    -0.063 SA
ENDBRANCH  11  12
ENDBRANCH   6  11
BRANCH   1  22
HETATM   22  S1  UNL     1      -5.977   1.158  17.168  1.00  0.00     0.263 S 
HETATM   23  O1  UNL     1      -7.211   0.383  16.832  1.00  0.00    -0.201 OA
HETATM   24  O2  UNL     1      -4.833   0.238  17.455  1.00  0.00    -0.201 OA
BRANCH  22  25
HETATM   25  N1  UNL     1      -6.278   2.237  18.506  1.00  0.00    -0.324 N 
ATOM     26  H12 UNL     1      -6.864   2.001  19.306  1.00  0.00     0.169 HD
ATOM     27  H11 UNL     1      -5.787   3.121  18.369  1.00  0.00     0.169 HD
ENDBRANCH  22  25
ENDBRANCH   1  22
TORSDOF 4
ENDMDL
