MODEL 3
REMARK VINA RESULT: -8.692842880      1.076      2.574
REMARK  4 active torsions:
REMARK  status: ('A' for Active; 'I' for Inactive)
REMARK    1  A    between atoms: N1_1  and  S1_4 
REMARK    2  A    between atoms: S1_4  and  C1_7 
REMARK    3  A    between atoms: C4_12  and  S2_13 
REMARK    4  A    between atoms: S2_13  and  C5_14 
ROOT
HETATM    1  C1  UNL     1      -5.435   1.757  15.633  1.00  0.00     0.162 A 
HETATM    2  C2  UNL     1      -5.928   3.041  15.544  1.00  0.00     0.182 A 
HETATM    3  F1  UNL     1      -6.794   3.467  16.480  1.00  0.00    -0.201 F 
HETATM    4  C3  UNL     1      -5.553   3.893  14.516  1.00  0.00     0.176 A 
HETATM    5  F2  UNL     1      -6.077   5.143  14.491  1.00  0.00    -0.201 F 
HETATM    6  C4  UNL     1      -4.657   3.455  13.546  1.00  0.00     0.091 A 
HETATM    7  C12 UNL     1      -4.160   2.180  13.625  1.00  0.00     0.176 A 
HETATM    8  F3  UNL     1      -3.291   1.753  12.682  1.00  0.00    -0.201 F 
HETATM    9  C13 UNL     1      -4.554   1.346  14.667  1.00  0.00     0.182 A 
HETATM   10  F4  UNL     1      -4.065   0.087  14.746  1.00  0.00    -0.201 F 
ENDROOT
BRANCH   6  11
HETATM   11  S2  UNL     1      -4.228   4.605  12.267  1.00  0.00    -0.059 SA
BRANCH  11  12
HETATM   12  C5  UNL     1      -3.287   5.946  13.037  1.00  0.00     0.118 A 
HETATM   13  N2  UNL     1      -2.871   7.075  12.512  1.00  0.00    -0.344 N 
HETATM   14  C6  UNL     1      -2.199   7.928  13.229  1.00  0.00     0.050 A 
ATOM     15  H2  UNL     1      -3.075   7.285  11.535  1.00  0.00     0.167 HD
HETATM   16  C7  UNL     1      -1.694   9.165  12.805  1.00  0.00     0.031 A 
HETATM   17  C11 UNL     1      -1.952   7.601  14.535  1.00  0.00     0.034 A 
HETATM   18  C8  UNL     1      -1.000   9.998  13.628  1.00  0.00     0.002 A 
HETATM   19  C9  UNL     1      -0.754   9.663  14.941  1.00  0.00     0.002 A 
HETATM   20  C10 UNL     1      -1.238   8.453  15.393  1.00  0.00     0.021 A 
HETATM   21  S3  UNL     1      -2.710   6.069  14.651  1.00  0.00    -0.063 SA
ENDBRANCH  11  12
ENDBRANCH   6  11
BRANCH   1  22
HETATM   22  S1  UNL     1      -5.946   0.735  16.948  1.00  0.00     0.263 S 
HETATM   23  O1  UNL     1      -5.548  -0.673  16.644  1.00  0.00    -0.201 OA
HETATM   24  O2  UNL     1      -5.284   1.217  18.199  1.00  0.00    -0.201 OA
BRANCH  22  25
HETATM   25  N1  UNL     1      -7.683   0.870  17.054  1.00  0.00    -0.324 N 
ATOM     26  H12 UNL     1      -8.188   1.756  17.030  1.00  0.00     0.169 HD
ATOM     27  H11 UNL     1      -8.108  -0.054  17.142  1.00  0.00     0.169 HD
ENDBRANCH  22  25
ENDBRANCH   1  22
TORSDOF 4
ENDMDL
