MODEL 2
REMARK VINA RESULT: -8.739935718      0.256      2.166
REMARK  4 active torsions:
REMARK  status: ('A' for Active; 'I' for Inactive)
REMARK    1  A    between atoms: N1_1  and  S1_4 
REMARK    2  A    between atoms: S1_4  and  C1_7 
REMARK    3  A    between atoms: C4_12  and  S2_13 
REMARK    4  A    between atoms: S2_13  and  C5_14 
ROOT
HETATM    1  C1  UNL     1      -5.589   2.017  15.904  1.00  0.00     0.162 A 
HETATM    2  C2  UNL     1      -6.086   3.272  15.629  1.00  0.00     0.182 A 
HETATM    3  F1  UNL     1      -6.961   3.823  16.489  1.00  0.00    -0.201 F 
HETATM    4  C3  UNL     1      -5.708   3.970  14.493  1.00  0.00     0.176 A 
HETATM    5  F2  UNL     1      -6.236   5.200  14.285  1.00  0.00    -0.201 F 
HETATM    6  C4  UNL     1      -4.802   3.402  13.601  1.00  0.00     0.091 A 
HETATM    7  C12 UNL     1      -4.300   2.154  13.865  1.00  0.00     0.176 A 
HETATM    8  F3  UNL     1      -3.423   1.601  12.999  1.00  0.00    -0.201 F 
HETATM    9  C13 UNL     1      -4.699   1.475  15.013  1.00  0.00     0.182 A 
HETATM   10  F4  UNL     1      -4.205   0.243  15.275  1.00  0.00    -0.201 F 
ENDROOT
BRANCH   6  11
HETATM   11  S2  UNL     1      -4.368   4.360  12.173  1.00  0.00    -0.059 SA
BRANCH  11  12
HETATM   12  C5  UNL     1      -3.439   5.802  12.750  1.00  0.00     0.118 A 
HETATM   13  N2  UNL     1      -3.044   6.101  13.966  1.00  0.00    -0.344 N 
HETATM   14  C6  UNL     1      -2.378   7.196  14.192  1.00  0.00     0.050 A 
ATOM     15  H2  UNL     1      -3.260   5.471  14.738  1.00  0.00     0.167 HD
HETATM   16  C7  UNL     1      -1.896   7.642  15.430  1.00  0.00     0.031 A 
HETATM   17  C11 UNL     1      -2.112   8.008  13.122  1.00  0.00     0.034 A 
HETATM   18  C8  UNL     1      -1.204   8.806  15.575  1.00  0.00     0.002 A 
HETATM   19  C9  UNL     1      -0.940   9.618  14.495  1.00  0.00     0.002 A 
HETATM   20  C10 UNL     1      -1.400   9.209  13.260  1.00  0.00     0.021 A 
HETATM   21  S3  UNL     1      -2.845   7.135  11.843  1.00  0.00    -0.063 SA
ENDBRANCH  11  12
ENDBRANCH   6  11
BRANCH   1  22
HETATM   22  S1  UNL     1      -6.105   1.191  17.348  1.00  0.00     0.263 S 
HETATM   23  O1  UNL     1      -7.455   0.597  17.105  1.00  0.00    -0.201 OA
HETATM   24  O2  UNL     1      -5.104   0.125  17.661  1.00  0.00    -0.201 OA
BRANCH  22  25
HETATM   25  N1  UNL     1      -6.183   2.384  18.619  1.00  0.00    -0.324 N 
ATOM     26  H12 UNL     1      -7.037   2.870  18.892  1.00  0.00     0.169 HD
ATOM     27  H11 UNL     1      -5.263   2.519  19.039  1.00  0.00     0.169 HD
ENDBRANCH  22  25
ENDBRANCH   1  22
TORSDOF 4
ENDMDL
