MODEL 4
REMARK VINA RESULT: -8.657537753      1.057      1.416
REMARK  4 active torsions:
REMARK  status: ('A' for Active; 'I' for Inactive)
REMARK    1  A    between atoms: N1_1  and  S1_4 
REMARK    2  A    between atoms: S1_4  and  C1_7 
REMARK    3  A    between atoms: C4_12  and  S2_13 
REMARK    4  A    between atoms: S2_13  and  C5_14 
ROOT
HETATM    1  C1  UNL     1      -5.478   1.880  15.662  1.00  0.00     0.162 A 
HETATM    2  C2  UNL     1      -4.596   1.488  14.680  1.00  0.00     0.182 A 
HETATM    3  F1  UNL     1      -4.107   0.235  14.712  1.00  0.00    -0.201 F 
HETATM    4  C3  UNL     1      -4.203   2.352  13.669  1.00  0.00     0.176 A 
HETATM    5  F2  UNL     1      -3.332   1.900  12.735  1.00  0.00    -0.201 F 
HETATM    6  C4  UNL     1      -4.707   3.649  13.633  1.00  0.00     0.091 A 
HETATM    7  C12 UNL     1      -5.587   4.050  14.606  1.00  0.00     0.176 A 
HETATM    8  F3  UNL     1      -6.075   5.309  14.573  1.00  0.00    -0.201 F 
HETATM    9  C13 UNL     1      -5.962   3.161  15.609  1.00  0.00     0.182 A 
HETATM   10  F4  UNL     1      -6.830   3.555  16.570  1.00  0.00    -0.201 F 
ENDROOT
BRANCH   6  11
HETATM   11  S2  UNL     1      -4.158   4.691  12.308  1.00  0.00    -0.059 SA
BRANCH  11  12
HETATM   12  C5  UNL     1      -3.225   6.056  13.043  1.00  0.00     0.118 A 
HETATM   13  N2  UNL     1      -2.804   7.168  12.486  1.00  0.00    -0.344 N 
HETATM   14  C6  UNL     1      -2.139   8.045  13.181  1.00  0.00     0.050 A 
ATOM     15  H2  UNL     1      -2.999   7.346  11.501  1.00  0.00     0.167 HD
HETATM   16  C7  UNL     1      -1.630   9.267  12.722  1.00  0.00     0.031 A 
HETATM   17  C11 UNL     1      -1.903   7.760  14.499  1.00  0.00     0.034 A 
HETATM   18  C8  UNL     1      -0.944  10.127  13.524  1.00  0.00     0.002 A 
HETATM   19  C9  UNL     1      -0.710   9.835  14.849  1.00  0.00     0.002 A 
HETATM   20  C10 UNL     1      -1.197   8.639  15.335  1.00  0.00     0.021 A 
HETATM   21  S3  UNL     1      -2.662   6.232  14.657  1.00  0.00    -0.063 SA
ENDBRANCH  11  12
ENDBRANCH   6  11
BRANCH   1  22
HETATM   22  S1  UNL     1      -5.930   0.746  16.906  1.00  0.00     0.263 S 
HETATM   23  O1  UNL     1      -5.501  -0.623  16.487  1.00  0.00    -0.201 OA
HETATM   24  O2  UNL     1      -5.252   1.151  18.176  1.00  0.00    -0.201 OA
BRANCH  22  25
HETATM   25  N1  UNL     1      -7.667   0.823  17.059  1.00  0.00    -0.324 N 
ATOM     26  H12 UNL     1      -8.310   0.210  16.557  1.00  0.00     0.169 HD
ATOM     27  H11 UNL     1      -7.936   1.558  17.714  1.00  0.00     0.169 HD
ENDBRANCH  22  25
ENDBRANCH   1  22
TORSDOF 4
ENDMDL
