MODEL 5
REMARK VINA RESULT: -8.118737766      1.306      1.408
REMARK  4 active torsions:
REMARK  status: ('A' for Active; 'I' for Inactive)
REMARK    1  A    between atoms: N1_1  and  S1_4 
REMARK    2  A    between atoms: S1_4  and  C1_7 
REMARK    3  A    between atoms: C4_12  and  S2_13 
REMARK    4  A    between atoms: S2_13  and  C5_14 
ROOT
HETATM    1  C1  UNL     1      -4.647   2.051  14.606  1.00  0.00     0.162 A 
HETATM    2  C2  UNL     1      -3.974   1.979  13.406  1.00  0.00     0.182 A 
HETATM    3  F1  UNL     1      -3.360   0.828  13.078  1.00  0.00    -0.201 F 
HETATM    4  C3  UNL     1      -3.916   3.060  12.540  1.00  0.00     0.176 A 
HETATM    5  F2  UNL     1      -3.236   2.919  11.376  1.00  0.00    -0.201 F 
HETATM    6  C4  UNL     1      -4.550   4.252  12.877  1.00  0.00     0.091 A 
HETATM    7  C12 UNL     1      -5.224   4.335  14.068  1.00  0.00     0.176 A 
HETATM    8  F3  UNL     1      -5.839   5.492  14.397  1.00  0.00    -0.201 F 
HETATM    9  C13 UNL     1      -5.265   3.234  14.919  1.00  0.00     0.182 A 
HETATM   10  F4  UNL     1      -5.929   3.314  16.095  1.00  0.00    -0.201 F 
ENDROOT
BRANCH   6  11
HETATM   11  S2  UNL     1      -4.430   5.586  11.715  1.00  0.00    -0.059 SA
BRANCH  11  12
HETATM   12  C5  UNL     1      -3.306   6.818  12.419  1.00  0.00     0.118 A 
HETATM   13  N2  UNL     1      -2.890   6.949  13.657  1.00  0.00    -0.344 N 
HETATM   14  C6  UNL     1      -2.073   7.909  13.981  1.00  0.00     0.050 A 
ATOM     15  H2  UNL     1      -3.210   6.294  14.370  1.00  0.00     0.167 HD
HETATM   16  C7  UNL     1      -1.549   8.169  15.254  1.00  0.00     0.031 A 
HETATM   17  C11 UNL     1      -1.672   8.761  12.987  1.00  0.00     0.034 A 
HETATM   18  C8  UNL     1      -0.695   9.200  15.502  1.00  0.00     0.002 A 
HETATM   19  C9  UNL     1      -0.296  10.054  14.499  1.00  0.00     0.002 A 
HETATM   20  C10 UNL     1      -0.792   9.826  13.232  1.00  0.00     0.021 A 
HETATM   21  S3  UNL     1      -2.506   8.121  11.634  1.00  0.00    -0.063 SA
ENDBRANCH  11  12
ENDBRANCH   6  11
BRANCH   1  22
HETATM   22  S1  UNL     1      -4.682   0.658  15.651  1.00  0.00     0.263 S 
HETATM   23  O1  UNL     1      -4.791  -0.572  14.808  1.00  0.00    -0.201 OA
HETATM   24  O2  UNL     1      -3.420   0.643  16.453  1.00  0.00    -0.201 OA
BRANCH  22  25
HETATM   25  N1  UNL     1      -6.085   0.823  16.675  1.00  0.00    -0.324 N 
ATOM     26  H12 UNL     1      -7.018   0.499  16.419  1.00  0.00     0.169 HD
ATOM     27  H11 UNL     1      -5.836   1.283  17.552  1.00  0.00     0.169 HD
ENDBRANCH  22  25
ENDBRANCH   1  22
TORSDOF 4
ENDMDL
