MODEL 14
REMARK VINA RESULT: -7.635707766      3.663      5.079
REMARK  4 active torsions:
REMARK  status: ('A' for Active; 'I' for Inactive)
REMARK    1  A    between atoms: N1_1  and  S1_4 
REMARK    2  A    between atoms: S1_4  and  C1_7 
REMARK    3  A    between atoms: C4_12  and  S2_13 
REMARK    4  A    between atoms: S2_13  and  C5_14 
ROOT
HETATM    1  C1  UNL     1      -4.081   2.142  14.125  1.00  0.00     0.162 A 
HETATM    2  C2  UNL     1      -3.515   3.365  14.407  1.00  0.00     0.182 A 
HETATM    3  F1  UNL     1      -3.328   3.711  15.693  1.00  0.00    -0.201 F 
HETATM    4  C3  UNL     1      -3.139   4.241  13.399  1.00  0.00     0.176 A 
HETATM    5  F2  UNL     1      -2.588   5.429  13.748  1.00  0.00    -0.201 F 
HETATM    6  C4  UNL     1      -3.331   3.887  12.067  1.00  0.00     0.091 A 
HETATM    7  C12 UNL     1      -3.893   2.670  11.775  1.00  0.00     0.176 A 
HETATM    8  F3  UNL     1      -4.081   2.326  10.482  1.00  0.00    -0.201 F 
HETATM    9  C13 UNL     1      -4.261   1.812  12.806  1.00  0.00     0.182 A 
HETATM   10  F4  UNL     1      -4.816   0.612  12.520  1.00  0.00    -0.201 F 
ENDROOT
BRANCH   6  11
HETATM   11  S2  UNL     1      -2.823   5.061  10.839  1.00  0.00    -0.059 SA
BRANCH  11  12
HETATM   12  C5  UNL     1      -4.308   5.920  10.264  1.00  0.00     0.118 A 
HETATM   13  N2  UNL     1      -4.756   6.073   9.039  1.00  0.00    -0.344 N 
HETATM   14  C6  UNL     1      -5.856   6.731   8.815  1.00  0.00     0.050 A 
ATOM     15  H2  UNL     1      -4.237   5.672   8.257  1.00  0.00     0.167 HD
HETATM   16  C7  UNL     1      -6.449   6.972   7.569  1.00  0.00     0.031 A 
HETATM   17  C11 UNL     1      -6.515   7.247   9.898  1.00  0.00     0.034 A 
HETATM   18  C8  UNL     1      -7.608   7.673   7.428  1.00  0.00     0.002 A 
HETATM   19  C9  UNL     1      -8.267   8.190   8.522  1.00  0.00     0.002 A 
HETATM   20  C10 UNL     1      -7.710   7.971   9.765  1.00  0.00     0.021 A 
HETATM   21  S3  UNL     1      -5.499   6.748  11.184  1.00  0.00    -0.063 SA
ENDBRANCH  11  12
ENDBRANCH   6  11
BRANCH   1  22
HETATM   22  S1  UNL     1      -4.532   1.087  15.436  1.00  0.00     0.263 S 
HETATM   23  O1  UNL     1      -4.842  -0.265  14.879  1.00  0.00    -0.201 OA
HETATM   24  O2  UNL     1      -3.387   1.018  16.396  1.00  0.00    -0.201 OA
BRANCH  22  25
HETATM   25  N1  UNL     1      -5.949   1.780  16.183  1.00  0.00    -0.324 N 
ATOM     26  H12 UNL     1      -6.564   1.271  16.818  1.00  0.00     0.169 HD
ATOM     27  H11 UNL     1      -6.067   2.751  15.895  1.00  0.00     0.169 HD
ENDBRANCH  22  25
ENDBRANCH   1  22
TORSDOF 4
ENDMDL
