MODEL 18
REMARK VINA RESULT: -7.439085283      3.676      4.836
REMARK  4 active torsions:
REMARK  status: ('A' for Active; 'I' for Inactive)
REMARK    1  A    between atoms: N1_1  and  S1_4 
REMARK    2  A    between atoms: S1_4  and  C1_7 
REMARK    3  A    between atoms: C4_12  and  S2_13 
REMARK    4  A    between atoms: S2_13  and  C5_14 
ROOT
HETATM    1  C1  UNL     1      -4.048   2.167  14.124  1.00  0.00     0.162 A 
HETATM    2  C2  UNL     1      -4.210   1.763  12.817  1.00  0.00     0.182 A 
HETATM    3  F1  UNL     1      -4.741   0.551  12.576  1.00  0.00    -0.201 F 
HETATM    4  C3  UNL     1      -3.838   2.573  11.755  1.00  0.00     0.176 A 
HETATM    5  F2  UNL     1      -4.025   2.112  10.495  1.00  0.00    -0.201 F 
HETATM    6  C4  UNL     1      -3.288   3.828  12.001  1.00  0.00     0.091 A 
HETATM    7  C12 UNL     1      -3.123   4.241  13.299  1.00  0.00     0.176 A 
HETATM    8  F3  UNL     1      -2.588   5.458  13.538  1.00  0.00    -0.201 F 
HETATM    9  C13 UNL     1      -3.505   3.407  14.345  1.00  0.00     0.182 A 
HETATM   10  F4  UNL     1      -3.343   3.812  15.625  1.00  0.00    -0.201 F 
ENDROOT
BRANCH   6  11
HETATM   11  S2  UNL     1      -2.840   4.803  10.590  1.00  0.00    -0.059 SA
BRANCH  11  12
HETATM   12  C5  UNL     1      -4.301   5.752  10.101  1.00  0.00     0.118 A 
HETATM   13  N2  UNL     1      -4.781   5.975   8.899  1.00  0.00    -0.344 N 
HETATM   14  C6  UNL     1      -5.856   6.691   8.740  1.00  0.00     0.050 A 
ATOM     15  H2  UNL     1      -4.308   5.584   8.085  1.00  0.00     0.167 HD
HETATM   16  C7  UNL     1      -6.478   7.010   7.526  1.00  0.00     0.031 A 
HETATM   17  C11 UNL     1      -6.455   7.192   9.865  1.00  0.00     0.034 A 
HETATM   18  C8  UNL     1      -7.607   7.768   7.453  1.00  0.00     0.002 A 
HETATM   19  C9  UNL     1      -8.204   8.269   8.588  1.00  0.00     0.002 A 
HETATM   20  C10 UNL     1      -7.618   7.974   9.802  1.00  0.00     0.021 A 
HETATM   21  S3  UNL     1      -5.421   6.595  11.094  1.00  0.00    -0.063 SA
ENDBRANCH  11  12
ENDBRANCH   6  11
BRANCH   1  22
HETATM   22  S1  UNL     1      -4.535   1.102  15.414  1.00  0.00     0.263 S 
HETATM   23  O1  UNL     1      -4.839  -0.243  14.837  1.00  0.00    -0.201 OA
HETATM   24  O2  UNL     1      -3.412   1.017  16.399  1.00  0.00    -0.201 OA
BRANCH  22  25
HETATM   25  N1  UNL     1      -5.964   1.795  16.137  1.00  0.00    -0.324 N 
ATOM     26  H12 UNL     1      -6.893   1.377  16.075  1.00  0.00     0.169 HD
ATOM     27  H11 UNL     1      -5.735   2.664  16.620  1.00  0.00     0.169 HD
ENDBRANCH  22  25
ENDBRANCH   1  22
TORSDOF 4
ENDMDL
