MODEL 6
REMARK VINA RESULT: -8.116845912      4.094      5.153
REMARK  4 active torsions:
REMARK  status: ('A' for Active; 'I' for Inactive)
REMARK    1  A    between atoms: N1_1  and  S1_4 
REMARK    2  A    between atoms: S1_4  and  C1_7 
REMARK    3  A    between atoms: C4_12  and  S2_13 
REMARK    4  A    between atoms: S2_13  and  C5_14 
ROOT
HETATM    1  C1  UNL     1      -4.297   1.698  14.192  1.00  0.00     0.162 A 
HETATM    2  C2  UNL     1      -4.131   3.065  14.152  1.00  0.00     0.182 A 
HETATM    3  F1  UNL     1      -4.181   3.757  15.304  1.00  0.00    -0.201 F 
HETATM    4  C3  UNL     1      -3.916   3.735  12.957  1.00  0.00     0.176 A 
HETATM    5  F2  UNL     1      -3.761   5.081  12.990  1.00  0.00    -0.201 F 
HETATM    6  C4  UNL     1      -3.864   3.022  11.763  1.00  0.00     0.091 A 
HETATM    7  C12 UNL     1      -4.027   1.661  11.791  1.00  0.00     0.176 A 
HETATM    8  F3  UNL     1      -3.978   0.968  10.632  1.00  0.00    -0.201 F 
HETATM    9  C13 UNL     1      -4.242   1.014  13.005  1.00  0.00     0.182 A 
HETATM   10  F4  UNL     1      -4.404  -0.328  13.035  1.00  0.00    -0.201 F 
ENDROOT
BRANCH   6  11
HETATM   11  S2  UNL     1      -3.585   3.953  10.279  1.00  0.00    -0.059 SA
BRANCH  11  12
HETATM   12  C5  UNL     1      -1.807   3.914   9.942  1.00  0.00     0.118 A 
HETATM   13  N2  UNL     1      -1.183   3.849   8.789  1.00  0.00    -0.344 N 
HETATM   14  C6  UNL     1       0.117   3.831   8.742  1.00  0.00     0.050 A 
ATOM     15  H2  UNL     1      -1.722   3.814   7.923  1.00  0.00     0.167 HD
HETATM   16  C7  UNL     1       0.913   3.764   7.591  1.00  0.00     0.031 A 
HETATM   17  C11 UNL     1       0.794   3.883   9.931  1.00  0.00     0.034 A 
HETATM   18  C8  UNL     1       2.274   3.750   7.636  1.00  0.00     0.002 A 
HETATM   19  C9  UNL     1       2.949   3.802   8.835  1.00  0.00     0.002 A 
HETATM   20  C10 UNL     1       2.196   3.870   9.989  1.00  0.00     0.021 A 
HETATM   21  S3  UNL     1      -0.498   3.955  11.054  1.00  0.00    -0.063 SA
ENDBRANCH  11  12
ENDBRANCH   6  11
BRANCH   1  22
HETATM   22  S1  UNL     1      -4.564   0.915  15.725  1.00  0.00     0.263 S 
HETATM   23  O1  UNL     1      -4.769  -0.547  15.488  1.00  0.00    -0.201 OA
HETATM   24  O2  UNL     1      -3.364   1.151  16.586  1.00  0.00    -0.201 OA
BRANCH  22  25
HETATM   25  N1  UNL     1      -5.997   1.629  16.420  1.00  0.00    -0.324 N 
ATOM     26  H12 UNL     1      -6.616   1.144  17.070  1.00  0.00     0.169 HD
ATOM     27  H11 UNL     1      -6.118   2.585  16.085  1.00  0.00     0.169 HD
ENDBRANCH  22  25
ENDBRANCH   1  22
TORSDOF 4
ENDMDL
