MODEL 11
REMARK VINA RESULT: -6.729789926      3.965     11.807
REMARK  9 active torsions:
REMARK  status: ('A' for Active; 'I' for Inactive)
REMARK    1  A    between atoms: C4_7  and  C5_8 
REMARK    2  A    between atoms: C8_11  and  C9_12 
REMARK    3  A    between atoms: C9_12  and  N2_13 
REMARK       I    between atoms: N2_13  and  C10_15 
REMARK    4  A    between atoms: C10_15  and  C11_17 
REMARK    5  A    between atoms: C13_19  and  O2_20 
REMARK       I    between atoms: N3_23  and  C15_24 
REMARK    6  A    between atoms: C15_24  and  C16_26 
REMARK    7  A    between atoms: C16_26  and  N4_27 
REMARK    8  A    between atoms: C16_26  and  C22_36 
REMARK       I    between atoms: N4_27  and  C17_29 
REMARK    9  A    between atoms: C17_29  and  C18_31 
ROOT
HETATM    1  C18 UNL     1      15.004  51.659  81.685  1.00  0.00     0.129 A 
HETATM    2  C19 UNL     1      15.488  50.937  80.481  1.00  0.00     0.079 C 
HETATM    3  N5  UNL     1      15.855  50.389  79.534  1.00  0.00    -0.196 NA
HETATM    4  C20 UNL     1      15.908  51.574  82.888  1.00  0.00     0.037 A 
HETATM    5  C21 UNL     1      15.874  52.822  82.075  1.00  0.00     0.037 A 
ENDROOT
BRANCH   1   6
HETATM    6  C17 UNL     1      13.547  51.746  81.831  1.00  0.00     0.241 C 
HETATM    7  N4  UNL     1      12.872  51.467  83.045  1.00  0.00    -0.346 N 
ATOM      8  H4  UNL     1      13.401  51.188  83.871  1.00  0.00     0.163 HD
HETATM    9  O4  UNL     1      12.846  52.083  80.845  1.00  0.00    -0.272 OA
BRANCH   7  10
HETATM   10  C16 UNL     1      11.395  51.579  83.111  1.00  0.00     0.184 C 
BRANCH  10  11
HETATM   11  C15 UNL     1      11.000  52.262  84.343  1.00  0.00     0.244 C 
HETATM   12  N3  UNL     1      11.481  52.063  85.641  1.00  0.00    -0.334 N 
HETATM   13  C11 UNL     1      11.083  52.773  86.827  1.00  0.00     0.181 C 
HETATM   14  C14 UNL     1      12.464  51.101  86.061  1.00  0.00     0.158 C 
HETATM   15  C12 UNL     1      10.766  51.583  87.746  1.00  0.00     0.068 C 
HETATM   16  C13 UNL     1      11.942  50.683  87.441  1.00  0.00     0.138 C 
HETATM   17  O3  UNL     1      10.087  53.159  84.199  1.00  0.00    -0.271 OA
BRANCH  13  18
HETATM   18  C10 UNL     1      12.167  53.591  87.396  1.00  0.00     0.241 C 
HETATM   19  N2  UNL     1      12.368  53.785  88.795  1.00  0.00    -0.355 N 
ATOM     20  H2  UNL     1      11.737  53.339  89.461  1.00  0.00     0.162 HD
HETATM   21  O1  UNL     1      13.011  54.188  86.652  1.00  0.00    -0.271 OA
BRANCH  19  22
HETATM   22  C9  UNL     1      13.467  54.615  89.291  1.00  0.00     0.161 C 
BRANCH  22  23
HETATM   23  C8  UNL     1      13.330  54.805  90.738  1.00  0.00    -0.040 A 
HETATM   24  C7  UNL     1      12.182  54.427  91.401  1.00  0.00     0.010 A 
HETATM   25  C6  UNL     1      12.033  54.604  92.763  1.00  0.00     0.013 A 
HETATM   26  C5  UNL     1      13.049  55.179  93.535  1.00  0.00    -0.017 A 
HETATM   27  C27 UNL     1      14.176  55.551  92.890  1.00  0.00     0.013 A 
HETATM   28  C26 UNL     1      14.323  55.370  91.506  1.00  0.00     0.010 A 
BRANCH  26  29
HETATM   29  C4  UNL     1      12.770  55.293  94.970  1.00  0.00     0.038 A 
HETATM   30  C2  UNL     1      13.031  54.492  96.048  1.00  0.00     0.023 A 
HETATM   31  C1  UNL     1      13.764  53.162  95.921  1.00  0.00     0.069 C 
HETATM   32  N1  UNL     1      12.640  54.915  97.214  1.00  0.00    -0.362 N 
HETATM   33  C3  UNL     1      12.020  56.063  97.356  1.00  0.00     0.139 A 
ATOM     34  H1  UNL     1      12.818  54.341  98.038  1.00  0.00     0.165 HD
HETATM   35  S1  UNL     1      11.964  56.623  95.755  1.00  0.00    -0.082 SA
ENDBRANCH  26  29
ENDBRANCH  22  23
ENDBRANCH  19  22
ENDBRANCH  13  18
BRANCH  16  36
HETATM   36  O2  UNL     1      11.618  49.339  87.464  1.00  0.00    -0.394 OA
ATOM     37  H2  UNL     1      11.600  48.975  88.341  1.00  0.00     0.210 HD
ENDBRANCH  16  36
ENDBRANCH  10  11
BRANCH  10  38
HETATM   38  C22 UNL     1      10.931  50.138  83.127  1.00  0.00    -0.022 C 
HETATM   39  C23 UNL     1       9.769  50.018  84.131  1.00  0.00     0.017 C 
HETATM   40  C24 UNL     1      12.062  49.239  83.550  1.00  0.00     0.017 C 
HETATM   41  C25 UNL     1      10.395  49.673  81.796  1.00  0.00     0.017 C 
ENDBRANCH  10  38
ENDBRANCH   7  10
ENDBRANCH   1   6
TORSDOF 9
ENDMDL
