MODEL 7
REMARK VINA RESULT: -6.942114473      5.708     11.703
REMARK  9 active torsions:
REMARK  status: ('A' for Active; 'I' for Inactive)
REMARK    1  A    between atoms: C4_7  and  C5_8 
REMARK    2  A    between atoms: C8_11  and  C9_12 
REMARK    3  A    between atoms: C9_12  and  N2_13 
REMARK       I    between atoms: N2_13  and  C10_15 
REMARK    4  A    between atoms: C10_15  and  C11_17 
REMARK    5  A    between atoms: C13_19  and  O2_20 
REMARK       I    between atoms: N3_23  and  C15_24 
REMARK    6  A    between atoms: C15_24  and  C16_26 
REMARK    7  A    between atoms: C16_26  and  N4_27 
REMARK    8  A    between atoms: C16_26  and  C22_36 
REMARK       I    between atoms: N4_27  and  C17_29 
REMARK    9  A    between atoms: C17_29  and  C18_31 
ROOT
HETATM    1  C18 UNL     1      13.658  55.308  91.027  1.00  0.00     0.129 A 
HETATM    2  C19 UNL     1      13.372  54.577  89.767  1.00  0.00     0.079 C 
HETATM    3  N5  UNL     1      13.132  54.015  88.788  1.00  0.00    -0.196 NA
HETATM    4  C20 UNL     1      15.102  55.687  91.234  1.00  0.00     0.037 A 
HETATM    5  C21 UNL     1      14.120  56.722  90.806  1.00  0.00     0.037 A 
ENDROOT
BRANCH   1   6
HETATM    6  C17 UNL     1      12.785  54.987  92.161  1.00  0.00     0.241 C 
HETATM    7  N4  UNL     1      13.273  54.722  93.464  1.00  0.00    -0.346 N 
ATOM      8  H4  UNL     1      14.275  54.748  93.650  1.00  0.00     0.163 HD
HETATM    9  O4  UNL     1      11.541  54.939  91.991  1.00  0.00    -0.272 OA
BRANCH   7  10
HETATM   10  C16 UNL     1      12.324  54.405  94.558  1.00  0.00     0.184 C 
BRANCH  10  11
HETATM   11  C15 UNL     1      12.286  55.506  95.522  1.00  0.00     0.244 C 
HETATM   12  N3  UNL     1      11.277  55.829  96.434  1.00  0.00    -0.334 N 
HETATM   13  C11 UNL     1      11.287  56.908  97.384  1.00  0.00     0.181 C 
HETATM   14  C14 UNL     1      10.018  55.157  96.606  1.00  0.00     0.158 C 
HETATM   15  C12 UNL     1       9.931  57.553  97.057  1.00  0.00     0.068 C 
HETATM   16  C13 UNL     1       9.069  56.318  96.924  1.00  0.00     0.138 C 
HETATM   17  O3  UNL     1      13.322  56.271  95.514  1.00  0.00    -0.271 OA
BRANCH  13  18
HETATM   18  C10 UNL     1      11.315  56.443  98.781  1.00  0.00     0.241 C 
HETATM   19  N2  UNL     1      12.142  55.378  99.250  1.00  0.00    -0.355 N 
ATOM     20  H2  UNL     1      12.761  54.898  98.597  1.00  0.00     0.162 HD
HETATM   21  O1  UNL     1      10.583  56.978  99.675  1.00  0.00    -0.271 OA
BRANCH  19  22
HETATM   22  C9  UNL     1      12.116  54.966 100.655  1.00  0.00     0.161 C 
BRANCH  22  23
HETATM   23  C8  UNL     1      13.317  54.184 100.962  1.00  0.00    -0.040 A 
HETATM   24  C7  UNL     1      13.636  53.053 100.241  1.00  0.00     0.010 A 
HETATM   25  C6  UNL     1      14.760  52.301 100.521  1.00  0.00     0.013 A 
HETATM   26  C5  UNL     1      15.631  52.657 101.557  1.00  0.00    -0.017 A 
HETATM   27  C27 UNL     1      15.322  53.764 102.267  1.00  0.00     0.013 A 
HETATM   28  C26 UNL     1      14.179  54.525 101.979  1.00  0.00     0.010 A 
BRANCH  26  29
HETATM   29  C4  UNL     1      16.796  51.784 101.736  1.00  0.00     0.038 A 
HETATM   30  C2  UNL     1      18.028  51.722 101.146  1.00  0.00     0.023 A 
HETATM   31  C1  UNL     1      18.461  52.691 100.052  1.00  0.00     0.069 C 
HETATM   32  N1  UNL     1      18.845  50.801 101.565  1.00  0.00    -0.362 N 
HETATM   33  C3  UNL     1      18.505  49.963 102.516  1.00  0.00     0.139 A 
ATOM     34  H1  UNL     1      19.771  50.728 101.145  1.00  0.00     0.165 HD
HETATM   35  S1  UNL     1      16.928  50.474 102.877  1.00  0.00    -0.082 SA
ENDBRANCH  26  29
ENDBRANCH  22  23
ENDBRANCH  19  22
ENDBRANCH  13  18
BRANCH  16  36
HETATM   36  O2  UNL     1       8.091  56.441  95.954  1.00  0.00    -0.394 OA
ATOM     37  H2  UNL     1       7.310  55.935  96.146  1.00  0.00     0.210 HD
ENDBRANCH  16  36
ENDBRANCH  10  11
BRANCH  10  38
HETATM   38  C22 UNL     1      12.914  53.162  95.190  1.00  0.00    -0.022 C 
HETATM   39  C23 UNL     1      13.977  52.594  94.232  1.00  0.00     0.017 C 
HETATM   40  C24 UNL     1      11.833  52.138  95.414  1.00  0.00     0.017 C 
HETATM   41  C25 UNL     1      13.617  53.438  96.496  1.00  0.00     0.017 C 
ENDBRANCH  10  38
ENDBRANCH   7  10
ENDBRANCH   1   6
TORSDOF 9
ENDMDL
