MODEL 12
REMARK VINA RESULT: -6.723873530      4.357     11.665
REMARK  9 active torsions:
REMARK  status: ('A' for Active; 'I' for Inactive)
REMARK    1  A    between atoms: C4_7  and  C5_8 
REMARK    2  A    between atoms: C8_11  and  C9_12 
REMARK    3  A    between atoms: C9_12  and  N2_13 
REMARK       I    between atoms: N2_13  and  C10_15 
REMARK    4  A    between atoms: C10_15  and  C11_17 
REMARK    5  A    between atoms: C13_19  and  O2_20 
REMARK       I    between atoms: N3_23  and  C15_24 
REMARK    6  A    between atoms: C15_24  and  C16_26 
REMARK    7  A    between atoms: C16_26  and  N4_27 
REMARK    8  A    between atoms: C16_26  and  C22_36 
REMARK       I    between atoms: N4_27  and  C17_29 
REMARK    9  A    between atoms: C17_29  and  C18_31 
ROOT
HETATM    1  C18 UNL     1       8.268  52.703  82.580  1.00  0.00     0.129 A 
HETATM    2  C19 UNL     1       7.454  53.938  82.713  1.00  0.00     0.079 C 
HETATM    3  N5  UNL     1       6.837  54.907  82.822  1.00  0.00    -0.196 NA
HETATM    4  C20 UNL     1       7.786  51.728  81.537  1.00  0.00     0.037 A 
HETATM    5  C21 UNL     1       8.969  52.589  81.254  1.00  0.00     0.037 A 
ENDROOT
BRANCH   1   6
HETATM    6  C17 UNL     1       8.930  52.243  83.805  1.00  0.00     0.241 C 
HETATM    7  N4  UNL     1      10.303  52.462  84.073  1.00  0.00    -0.346 N 
ATOM      8  H4  UNL     1      10.883  52.960  83.398  1.00  0.00     0.163 HD
HETATM    9  O4  UNL     1       8.265  51.622  84.672  1.00  0.00    -0.272 OA
BRANCH   7  10
HETATM   10  C16 UNL     1      10.897  51.965  85.337  1.00  0.00     0.184 C 
BRANCH  10  11
HETATM   11  C15 UNL     1      10.767  52.978  86.385  1.00  0.00     0.244 C 
HETATM   12  N3  UNL     1      10.716  52.797  87.770  1.00  0.00    -0.334 N 
HETATM   13  C11 UNL     1      10.610  53.823  88.771  1.00  0.00     0.181 C 
HETATM   14  C14 UNL     1      10.749  51.547  88.481  1.00  0.00     0.158 C 
HETATM   15  C12 UNL     1       9.423  53.275  89.578  1.00  0.00     0.068 C 
HETATM   16  C13 UNL     1       9.796  51.812  89.652  1.00  0.00     0.138 C 
HETATM   17  O3  UNL     1      10.684  54.192  85.960  1.00  0.00    -0.271 OA
BRANCH  13  18
HETATM   18  C10 UNL     1      11.810  53.923  89.619  1.00  0.00     0.241 C 
HETATM   19  N2  UNL     1      11.772  54.145  91.029  1.00  0.00    -0.355 N 
ATOM     20  H2  UNL     1      10.872  54.241  91.499  1.00  0.00     0.162 HD
HETATM   21  O1  UNL     1      12.980  53.814  89.131  1.00  0.00    -0.271 OA
BRANCH  19  22
HETATM   22  C9  UNL     1      13.007  54.236  91.811  1.00  0.00     0.161 C 
BRANCH  22  23
HETATM   23  C8  UNL     1      12.703  54.719  93.160  1.00  0.00    -0.040 A 
HETATM   24  C7  UNL     1      11.439  54.592  93.696  1.00  0.00     0.010 A 
HETATM   25  C6  UNL     1      11.134  55.047  94.963  1.00  0.00     0.013 A 
HETATM   26  C5  UNL     1      12.102  55.660  95.767  1.00  0.00    -0.017 A 
HETATM   27  C27 UNL     1      13.342  55.786  95.247  1.00  0.00     0.013 A 
HETATM   28  C26 UNL     1      13.648  55.323  93.958  1.00  0.00     0.010 A 
BRANCH  26  29
HETATM   29  C4  UNL     1      11.651  56.080  97.098  1.00  0.00     0.038 A 
HETATM   30  C2  UNL     1      11.062  57.216  97.579  1.00  0.00     0.023 A 
HETATM   31  C1  UNL     1      10.719  58.402  96.686  1.00  0.00     0.069 C 
HETATM   32  N1  UNL     1      10.780  57.250  98.849  1.00  0.00    -0.362 N 
HETATM   33  C3  UNL     1      11.049  56.237  99.640  1.00  0.00     0.139 A 
ATOM     34  H1  UNL     1      10.340  58.083  99.239  1.00  0.00     0.165 HD
HETATM   35  S1  UNL     1      11.750  55.134  98.558  1.00  0.00    -0.082 SA
ENDBRANCH  26  29
ENDBRANCH  22  23
ENDBRANCH  19  22
ENDBRANCH  13  18
BRANCH  16  36
HETATM   36  O2  UNL     1       8.702  50.969  89.604  1.00  0.00    -0.394 OA
ATOM     37  H2  UNL     1       8.248  50.996  88.770  1.00  0.00     0.210 HD
ENDBRANCH  16  36
ENDBRANCH  10  11
BRANCH  10  38
HETATM   38  C22 UNL     1      12.354  51.748  84.983  1.00  0.00    -0.022 C 
HETATM   39  C23 UNL     1      12.467  51.656  83.450  1.00  0.00     0.017 C 
HETATM   40  C24 UNL     1      12.849  50.470  85.607  1.00  0.00     0.017 C 
HETATM   41  C25 UNL     1      13.244  52.889  85.410  1.00  0.00     0.017 C 
ENDBRANCH  10  38
ENDBRANCH   7  10
ENDBRANCH   1   6
TORSDOF 9
ENDMDL
