MODEL 4
REMARK VINA RESULT: -8.583045530      1.711      1.980
REMARK  8 active torsions:
REMARK  status: ('A' for Active; 'I' for Inactive)
REMARK    1  A    between atoms: N1_1  and  S1_4 
REMARK    2  A    between atoms: S1_4  and  C1_7 
REMARK    3  A    between atoms: C4_12  and  S2_13 
REMARK    4  A    between atoms: S2_13  and  C5_16 
REMARK    5  A    between atoms: C5_16  and  C6_17 
REMARK    6  A    between atoms: C6_17  and  O5_18 
REMARK    7  A    between atoms: C7_20  and  N2_21 
REMARK    8  A    between atoms: N2_21  and  C8_23 
ROOT
HETATM    1  C1  UNL     1      24.116   4.802  12.187  1.00  0.00     0.161 A 
HETATM    2  C2  UNL     1      24.173   4.702  13.543  1.00  0.00     0.182 A 
HETATM    3  F1  UNL     1      23.526   3.685  14.179  1.00  0.00    -0.201 F 
HETATM    4  C3  UNL     1      24.898   5.643  14.266  1.00  0.00     0.180 A 
HETATM    5  F2  UNL     1      24.907   5.485  15.595  1.00  0.00    -0.201 F 
HETATM    6  C4  UNL     1      25.575   6.700  13.638  1.00  0.00     0.130 A 
HETATM    7  C7  UNL     1      25.506   6.791  12.273  1.00  0.00     0.094 A 
HETATM    8  C17 UNL     1      24.777   5.835  11.585  1.00  0.00     0.170 A 
HETATM    9  F3  UNL     1      24.693   5.865  10.215  1.00  0.00    -0.202 F 
ENDROOT
BRANCH   7  10
HETATM   10  N2  UNL     1      26.147   7.790  11.523  1.00  0.00    -0.377 N 
ATOM     11  H2  UNL     1      25.871   8.738  11.776  1.00  0.00     0.160 HD
BRANCH  10  12
HETATM   12  C8  UNL     1      27.099   7.732  10.488  1.00  0.00     0.116 C 
HETATM   13  C9  UNL     1      27.121   9.123   9.818  1.00  0.00     0.034 C 
HETATM   14  C10 UNL     1      28.381   9.029   9.002  1.00  0.00     0.041 C 
HETATM   15  C11 UNL     1      29.262   8.254   9.923  1.00  0.00    -0.050 A 
HETATM   16  C12 UNL     1      30.640   8.240   9.946  1.00  0.00     0.007 A 
HETATM   17  C16 UNL     1      28.501   7.492  10.794  1.00  0.00    -0.029 A 
HETATM   18  C13 UNL     1      31.343   7.461  10.845  1.00  0.00     0.001 A 
HETATM   19  C14 UNL     1      30.617   6.693  11.719  1.00  0.00     0.001 A 
HETATM   20  C15 UNL     1      29.254   6.722  11.678  1.00  0.00     0.010 A 
ENDBRANCH  10  12
ENDBRANCH   7  10
BRANCH   6  21
HETATM   21  S2  UNL     1      26.481   7.753  14.678  1.00  0.00     0.182 S 
HETATM   22  O3  UNL     1      27.456   8.598  13.853  1.00  0.00    -0.222 OA
HETATM   23  O4  UNL     1      27.303   7.065  15.710  1.00  0.00    -0.222 OA
BRANCH  21  24
HETATM   24  C5  UNL     1      25.438   8.948  15.483  1.00  0.00     0.172 C 
BRANCH  24  25
HETATM   25  C6  UNL     1      24.380   9.477  14.542  1.00  0.00     0.179 C 
BRANCH  25  26
HETATM   26  O5  UNL     1      24.943  10.104  13.433  1.00  0.00    -0.400 OA
ATOM     27  H5  UNL     1      24.762  11.037  13.428  1.00  0.00     0.209 HD
ENDBRANCH  25  26
ENDBRANCH  24  25
ENDBRANCH  21  24
ENDBRANCH   6  21
BRANCH   1  28
HETATM   28  S1  UNL     1      23.209   3.624  11.274  1.00  0.00     0.263 S 
HETATM   29  O1  UNL     1      22.459   2.676  12.143  1.00  0.00    -0.201 OA
HETATM   30  O2  UNL     1      22.219   4.332  10.366  1.00  0.00    -0.201 OA
BRANCH  28  31
HETATM   31  N1  UNL     1      24.272   2.727  10.256  1.00  0.00    -0.324 N 
ATOM     32  H12 UNL     1      24.750   1.868  10.528  1.00  0.00     0.169 HD
ATOM     33  H11 UNL     1      24.338   3.196   9.353  1.00  0.00     0.169 HD
ENDBRANCH  28  31
ENDBRANCH   1  28
TORSDOF 8
ENDMDL
