MODEL 10
REMARK VINA RESULT: -7.960620338      2.033      5.040
REMARK  8 active torsions:
REMARK  status: ('A' for Active; 'I' for Inactive)
REMARK    1  A    between atoms: N1_1  and  S1_4 
REMARK    2  A    between atoms: S1_4  and  C1_7 
REMARK    3  A    between atoms: C4_12  and  S2_13 
REMARK    4  A    between atoms: S2_13  and  C5_16 
REMARK    5  A    between atoms: C5_16  and  C6_17 
REMARK    6  A    between atoms: C6_17  and  O5_18 
REMARK    7  A    between atoms: C7_20  and  N2_21 
REMARK    8  A    between atoms: N2_21  and  C8_23 
ROOT
HETATM    1  C1  UNL     1      25.011   5.156  14.388  1.00  0.00     0.161 A 
HETATM    2  C2  UNL     1      23.867   4.422  14.328  1.00  0.00     0.182 A 
HETATM    3  F1  UNL     1      23.189   4.123  15.473  1.00  0.00    -0.201 F 
HETATM    4  C3  UNL     1      23.399   3.986  13.094  1.00  0.00     0.180 A 
HETATM    5  F2  UNL     1      22.271   3.266  13.112  1.00  0.00    -0.201 F 
HETATM    6  C4  UNL     1      24.076   4.280  11.899  1.00  0.00     0.130 A 
HETATM    7  C7  UNL     1      25.227   5.016  11.973  1.00  0.00     0.094 A 
HETATM    8  C17 UNL     1      25.663   5.435  13.220  1.00  0.00     0.170 A 
HETATM    9  F3  UNL     1      26.799   6.195  13.350  1.00  0.00    -0.202 F 
ENDROOT
BRANCH   7  10
HETATM   10  N2  UNL     1      25.990   5.389  10.854  1.00  0.00    -0.377 N 
ATOM     11  H2  UNL     1      26.631   4.664  10.531  1.00  0.00     0.160 HD
BRANCH  10  12
HETATM   12  C8  UNL     1      26.039   6.573  10.094  1.00  0.00     0.116 C 
HETATM   13  C9  UNL     1      25.527   7.711  11.003  1.00  0.00     0.034 C 
HETATM   14  C10 UNL     1      25.954   8.921  10.217  1.00  0.00     0.041 C 
HETATM   15  C11 UNL     1      27.272   8.466   9.684  1.00  0.00    -0.050 A 
HETATM   16  C12 UNL     1      28.329   9.255   9.285  1.00  0.00     0.007 A 
HETATM   17  C16 UNL     1      27.314   7.083   9.613  1.00  0.00    -0.029 A 
HETATM   18  C13 UNL     1      29.497   8.707   8.792  1.00  0.00     0.001 A 
HETATM   19  C14 UNL     1      29.569   7.340   8.708  1.00  0.00     0.001 A 
HETATM   20  C15 UNL     1      28.510   6.579   9.107  1.00  0.00     0.010 A 
ENDBRANCH  10  12
ENDBRANCH   7  10
BRANCH   6  21
HETATM   21  S2  UNL     1      23.328   3.713  10.439  1.00  0.00     0.182 S 
HETATM   22  O3  UNL     1      22.615   4.868   9.730  1.00  0.00    -0.222 OA
HETATM   23  O4  UNL     1      22.306   2.649  10.626  1.00  0.00    -0.222 OA
BRANCH  21  24
HETATM   24  C5  UNL     1      24.531   3.148   9.255  1.00  0.00     0.172 C 
BRANCH  24  25
HETATM   25  C6  UNL     1      24.433   1.655   9.041  1.00  0.00     0.179 C 
BRANCH  25  26
HETATM   26  O5  UNL     1      24.383   0.964  10.250  1.00  0.00    -0.400 OA
ATOM     27  H5  UNL     1      23.496   0.902  10.583  1.00  0.00     0.209 HD
ENDBRANCH  25  26
ENDBRANCH  24  25
ENDBRANCH  21  24
ENDBRANCH   6  21
BRANCH   1  28
HETATM   28  S1  UNL     1      25.603   5.707  15.933  1.00  0.00     0.263 S 
HETATM   29  O1  UNL     1      26.457   6.921  15.822  1.00  0.00    -0.201 OA
HETATM   30  O2  UNL     1      24.433   6.022  16.847  1.00  0.00    -0.201 OA
BRANCH  28  31
HETATM   31  N1  UNL     1      26.511   4.455  16.694  1.00  0.00    -0.324 N 
ATOM     32  H12 UNL     1      27.512   4.497  16.885  1.00  0.00     0.169 HD
ATOM     33  H11 UNL     1      25.885   3.681  16.914  1.00  0.00     0.169 HD
ENDBRANCH  28  31
ENDBRANCH   1  28
TORSDOF 8
ENDMDL
