MODEL 2
REMARK VINA RESULT: -8.656616739      1.534      1.868
REMARK  8 active torsions:
REMARK  status: ('A' for Active; 'I' for Inactive)
REMARK    1  A    between atoms: N1_1  and  S1_4 
REMARK    2  A    between atoms: S1_4  and  C1_7 
REMARK    3  A    between atoms: C4_12  and  S2_13 
REMARK    4  A    between atoms: S2_13  and  C5_16 
REMARK    5  A    between atoms: C5_16  and  C6_17 
REMARK    6  A    between atoms: C6_17  and  O5_18 
REMARK    7  A    between atoms: C7_20  and  N2_21 
REMARK    8  A    between atoms: N2_21  and  C8_23 
ROOT
HETATM    1  C1  UNL     1      24.083   3.915  11.674  1.00  0.00     0.161 A 
HETATM    2  C2  UNL     1      23.387   3.923  12.843  1.00  0.00     0.182 A 
HETATM    3  F1  UNL     1      22.288   3.131  12.988  1.00  0.00    -0.201 F 
HETATM    4  C3  UNL     1      23.811   4.744  13.883  1.00  0.00     0.180 A 
HETATM    5  F2  UNL     1      23.077   4.705  15.001  1.00  0.00    -0.201 F 
HETATM    6  C4  UNL     1      24.940   5.570  13.763  1.00  0.00     0.130 A 
HETATM    7  C7  UNL     1      25.629   5.553  12.580  1.00  0.00     0.094 A 
HETATM    8  C17 UNL     1      25.179   4.722  11.567  1.00  0.00     0.170 A 
HETATM    9  F3  UNL     1      25.845   4.649  10.368  1.00  0.00    -0.202 F 
ENDROOT
BRANCH   7  10
HETATM   10  N2  UNL     1      26.780   6.320  12.335  1.00  0.00    -0.377 N 
ATOM     11  H2  UNL     1      27.606   5.998  12.839  1.00  0.00     0.160 HD
BRANCH  10  12
HETATM   12  C8  UNL     1      27.010   7.449  11.527  1.00  0.00     0.116 C 
HETATM   13  C9  UNL     1      27.666   8.520  12.426  1.00  0.00     0.034 C 
HETATM   14  C10 UNL     1      28.163   9.495  11.395  1.00  0.00     0.041 C 
HETATM   15  C11 UNL     1      28.605   8.569  10.312  1.00  0.00    -0.050 A 
HETATM   16  C12 UNL     1      29.539   8.816   9.330  1.00  0.00     0.007 A 
HETATM   17  C16 UNL     1      27.921   7.367  10.395  1.00  0.00    -0.029 A 
HETATM   18  C13 UNL     1      29.849   7.874   8.369  1.00  0.00     0.001 A 
HETATM   19  C14 UNL     1      29.188   6.673   8.423  1.00  0.00     0.001 A 
HETATM   20  C15 UNL     1      28.265   6.450   9.403  1.00  0.00     0.010 A 
ENDBRANCH  10  12
ENDBRANCH   7  10
BRANCH   6  21
HETATM   21  S2  UNL     1      25.369   6.487  15.172  1.00  0.00     0.182 S 
HETATM   22  O3  UNL     1      26.890   6.505  15.346  1.00  0.00    -0.222 OA
HETATM   23  O4  UNL     1      24.813   5.973  16.452  1.00  0.00    -0.222 OA
BRANCH  21  24
HETATM   24  C5  UNL     1      24.927   8.203  15.006  1.00  0.00     0.172 C 
BRANCH  24  25
HETATM   25  C6  UNL     1      23.673   8.370  14.179  1.00  0.00     0.179 C 
BRANCH  25  26
HETATM   26  O5  UNL     1      23.961   8.801  12.887  1.00  0.00    -0.400 OA
ATOM     27  H5  UNL     1      23.218   9.239  12.488  1.00  0.00     0.209 HD
ENDBRANCH  25  26
ENDBRANCH  24  25
ENDBRANCH  21  24
ENDBRANCH   6  21
BRANCH   1  28
HETATM   28  S1  UNL     1      23.558   2.887  10.366  1.00  0.00     0.263 S 
HETATM   29  O1  UNL     1      22.535   1.892  10.792  1.00  0.00    -0.201 OA
HETATM   30  O2  UNL     1      22.970   3.735   9.252  1.00  0.00    -0.201 OA
BRANCH  28  31
HETATM   31  N1  UNL     1      24.908   2.048   9.700  1.00  0.00    -0.324 N 
ATOM     32  H12 UNL     1      24.860   1.398   8.915  1.00  0.00     0.169 HD
ATOM     33  H11 UNL     1      25.747   2.310  10.218  1.00  0.00     0.169 HD
ENDBRANCH  28  31
ENDBRANCH   1  28
TORSDOF 8
ENDMDL
