MODEL 8
REMARK VINA RESULT: -8.165592156      2.056      5.267
REMARK  8 active torsions:
REMARK  status: ('A' for Active; 'I' for Inactive)
REMARK    1  A    between atoms: N1_1  and  S1_4 
REMARK    2  A    between atoms: S1_4  and  C1_7 
REMARK    3  A    between atoms: C4_12  and  S2_13 
REMARK    4  A    between atoms: S2_13  and  C5_16 
REMARK    5  A    between atoms: C5_16  and  C6_17 
REMARK    6  A    between atoms: C6_17  and  O5_18 
REMARK    7  A    between atoms: C7_20  and  N2_21 
REMARK    8  A    between atoms: N2_21  and  C8_23 
ROOT
HETATM    1  C1  UNL     1      25.626   7.212  14.087  1.00  0.00     0.161 A 
HETATM    2  C2  UNL     1      25.032   6.076  14.542  1.00  0.00     0.182 A 
HETATM    3  F1  UNL     1      24.938   5.846  15.883  1.00  0.00    -0.201 F 
HETATM    4  C3  UNL     1      24.522   5.160  13.629  1.00  0.00     0.180 A 
HETATM    5  F2  UNL     1      23.955   4.064  14.148  1.00  0.00    -0.201 F 
HETATM    6  C4  UNL     1      24.603   5.370  12.244  1.00  0.00     0.130 A 
HETATM    7  C7  UNL     1      25.206   6.516  11.799  1.00  0.00     0.094 A 
HETATM    8  C17 UNL     1      25.700   7.408  12.737  1.00  0.00     0.170 A 
HETATM    9  F3  UNL     1      26.295   8.582  12.347  1.00  0.00    -0.202 F 
ENDROOT
BRANCH   7  10
HETATM   10  N2  UNL     1      25.340   6.853  10.442  1.00  0.00    -0.377 N 
ATOM     11  H2  UNL     1      24.452   6.943   9.949  1.00  0.00     0.160 HD
BRANCH  10  12
HETATM   12  C8  UNL     1      26.467   7.088   9.633  1.00  0.00     0.116 C 
HETATM   13  C9  UNL     1      26.519   8.608   9.365  1.00  0.00     0.034 C 
HETATM   14  C10 UNL     1      27.911   8.756   8.815  1.00  0.00     0.041 C 
HETATM   15  C11 UNL     1      28.658   7.776   9.656  1.00  0.00    -0.050 A 
HETATM   16  C12 UNL     1      30.006   7.778   9.943  1.00  0.00     0.007 A 
HETATM   17  C16 UNL     1      27.802   6.797  10.133  1.00  0.00    -0.029 A 
HETATM   18  C13 UNL     1      30.582   6.798  10.728  1.00  0.00     0.001 A 
HETATM   19  C14 UNL     1      29.761   5.813  11.215  1.00  0.00     0.001 A 
HETATM   20  C15 UNL     1      28.429   5.830  10.917  1.00  0.00     0.010 A 
ENDBRANCH  10  12
ENDBRANCH   7  10
BRANCH   6  21
HETATM   21  S2  UNL     1      23.865   4.159  11.242  1.00  0.00     0.182 S 
HETATM   22  O3  UNL     1      22.892   4.813  10.256  1.00  0.00    -0.222 OA
HETATM   23  O4  UNL     1      23.081   3.129  11.974  1.00  0.00    -0.222 OA
BRANCH  21  24
HETATM   24  C5  UNL     1      25.057   3.341  10.205  1.00  0.00     0.172 C 
BRANCH  24  25
HETATM   25  C6  UNL     1      24.421   2.222   9.413  1.00  0.00     0.179 C 
BRANCH  25  26
HETATM   26  O5  UNL     1      24.187   1.100  10.203  1.00  0.00    -0.400 OA
ATOM     27  H5  UNL     1      23.269   1.016  10.433  1.00  0.00     0.209 HD
ENDBRANCH  25  26
ENDBRANCH  24  25
ENDBRANCH  21  24
ENDBRANCH   6  21
BRANCH   1  28
HETATM   28  S1  UNL     1      26.267   8.367  15.227  1.00  0.00     0.263 S 
HETATM   29  O1  UNL     1      25.240   8.858  16.186  1.00  0.00    -0.201 OA
HETATM   30  O2  UNL     1      27.399   7.734  16.015  1.00  0.00    -0.201 OA
BRANCH  28  31
HETATM   31  N1  UNL     1      26.933   9.714  14.385  1.00  0.00    -0.324 N 
ATOM     32  H12 UNL     1      27.323   9.677  13.443  1.00  0.00     0.169 HD
ATOM     33  H11 UNL     1      26.872  10.539  14.981  1.00  0.00     0.169 HD
ENDBRANCH  28  31
ENDBRANCH   1  28
TORSDOF 8
ENDMDL
