MODEL 11
REMARK VINA RESULT: -7.955425454      1.828      4.931
REMARK  8 active torsions:
REMARK  status: ('A' for Active; 'I' for Inactive)
REMARK    1  A    between atoms: N1_1  and  S1_4 
REMARK    2  A    between atoms: S1_4  and  C1_7 
REMARK    3  A    between atoms: C4_12  and  S2_13 
REMARK    4  A    between atoms: S2_13  and  C5_16 
REMARK    5  A    between atoms: C5_16  and  C6_17 
REMARK    6  A    between atoms: C6_17  and  O5_18 
REMARK    7  A    between atoms: C7_20  and  N2_21 
REMARK    8  A    between atoms: N2_21  and  C8_23 
ROOT
HETATM    1  C1  UNL     1      24.854   3.786  10.741  1.00  0.00     0.161 A 
HETATM    2  C2  UNL     1      25.924   4.108   9.965  1.00  0.00     0.182 A 
HETATM    3  F1  UNL     1      26.086   3.515   8.748  1.00  0.00    -0.201 F 
HETATM    4  C3  UNL     1      26.843   5.044  10.425  1.00  0.00     0.180 A 
HETATM    5  F2  UNL     1      27.872   5.308   9.611  1.00  0.00    -0.201 F 
HETATM    6  C4  UNL     1      26.701   5.671  11.673  1.00  0.00     0.130 A 
HETATM    7  C7  UNL     1      25.621   5.335  12.445  1.00  0.00     0.094 A 
HETATM    8  C17 UNL     1      24.725   4.400  11.954  1.00  0.00     0.170 A 
HETATM    9  F3  UNL     1      23.613   4.043  12.677  1.00  0.00    -0.202 F 
ENDROOT
BRANCH   7  10
HETATM   10  N2  UNL     1      25.357   5.897  13.705  1.00  0.00    -0.377 N 
ATOM     11  H2  UNL     1      26.042   5.651  14.419  1.00  0.00     0.160 HD
BRANCH  10  12
HETATM   12  C8  UNL     1      24.325   6.735  14.169  1.00  0.00     0.116 C 
HETATM   13  C9  UNL     1      24.251   6.551  15.700  1.00  0.00     0.034 C 
HETATM   14  C10 UNL     1      23.389   7.721  16.089  1.00  0.00     0.041 C 
HETATM   15  C11 UNL     1      23.880   8.766  15.144  1.00  0.00    -0.050 A 
HETATM   16  C12 UNL     1      23.813  10.133  15.302  1.00  0.00     0.007 A 
HETATM   17  C16 UNL     1      24.428   8.178  14.016  1.00  0.00    -0.029 A 
HETATM   18  C13 UNL     1      24.293  10.999  14.339  1.00  0.00     0.001 A 
HETATM   19  C14 UNL     1      24.841  10.448  13.209  1.00  0.00     0.001 A 
HETATM   20  C15 UNL     1      24.896   9.092  13.073  1.00  0.00     0.010 A 
ENDBRANCH  10  12
ENDBRANCH   7  10
BRANCH   6  21
HETATM   21  S2  UNL     1      27.902   6.859  12.072  1.00  0.00     0.182 S 
HETATM   22  O3  UNL     1      29.305   6.283  11.858  1.00  0.00    -0.222 OA
HETATM   23  O4  UNL     1      27.865   7.344  13.478  1.00  0.00    -0.222 OA
BRANCH  21  24
HETATM   24  C5  UNL     1      27.833   8.262  10.981  1.00  0.00     0.172 C 
BRANCH  24  25
HETATM   25  C6  UNL     1      29.186   8.926  10.852  1.00  0.00     0.179 C 
BRANCH  25  26
HETATM   26  O5  UNL     1      29.795   9.096  12.093  1.00  0.00    -0.400 OA
ATOM     27  H5  UNL     1      30.727   8.912  12.055  1.00  0.00     0.209 HD
ENDBRANCH  25  26
ENDBRANCH  24  25
ENDBRANCH  21  24
ENDBRANCH   6  21
BRANCH   1  28
HETATM   28  S1  UNL     1      23.696   2.612  10.170  1.00  0.00     0.263 S 
HETATM   29  O1  UNL     1      22.597   2.368  11.144  1.00  0.00    -0.201 OA
HETATM   30  O2  UNL     1      23.086   3.088   8.864  1.00  0.00    -0.201 OA
BRANCH  28  31
HETATM   31  N1  UNL     1      24.490   1.119   9.839  1.00  0.00    -0.324 N 
ATOM     32  H12 UNL     1      25.499   0.975   9.878  1.00  0.00     0.169 HD
ATOM     33  H11 UNL     1      23.788   0.418   9.600  1.00  0.00     0.169 HD
ENDBRANCH  28  31
ENDBRANCH   1  28
TORSDOF 8
ENDMDL
