MODEL 1
REMARK VINA RESULT: -8.921878826      0.000      0.000
REMARK  8 active torsions:
REMARK  status: ('A' for Active; 'I' for Inactive)
REMARK    1  A    between atoms: N1_1  and  S1_4 
REMARK    2  A    between atoms: S1_4  and  C1_7 
REMARK    3  A    between atoms: C4_12  and  S2_13 
REMARK    4  A    between atoms: S2_13  and  C5_16 
REMARK    5  A    between atoms: C5_16  and  C6_17 
REMARK    6  A    between atoms: C6_17  and  O5_18 
REMARK    7  A    between atoms: C7_20  and  N2_21 
REMARK    8  A    between atoms: N2_21  and  C8_23 
ROOT
HETATM    1  C1  UNL     1      24.387   3.466  10.808  1.00  0.00     0.161 A 
HETATM    2  C2  UNL     1      23.642   3.840  11.884  1.00  0.00     0.182 A 
HETATM    3  F1  UNL     1      22.412   3.288  12.087  1.00  0.00    -0.201 F 
HETATM    4  C3  UNL     1      24.149   4.786  12.768  1.00  0.00     0.180 A 
HETATM    5  F2  UNL     1      23.360   5.109  13.800  1.00  0.00    -0.201 F 
HETATM    6  C4  UNL     1      25.412   5.371  12.585  1.00  0.00     0.130 A 
HETATM    7  C7  UNL     1      26.149   4.987  11.497  1.00  0.00     0.094 A 
HETATM    8  C17 UNL     1      25.614   4.041  10.638  1.00  0.00     0.170 A 
HETATM    9  F3  UNL     1      26.319   3.604   9.545  1.00  0.00    -0.202 F 
ENDROOT
BRANCH   7  10
HETATM   10  N2  UNL     1      27.430   5.484  11.206  1.00  0.00    -0.377 N 
ATOM     11  H2  UNL     1      28.136   5.240  11.901  1.00  0.00     0.160 HD
BRANCH  10  12
HETATM   12  C8  UNL     1      27.925   6.257  10.139  1.00  0.00     0.116 C 
HETATM   13  C9  UNL     1      26.861   7.333   9.832  1.00  0.00     0.034 C 
HETATM   14  C10 UNL     1      27.644   8.268   8.951  1.00  0.00     0.041 C 
HETATM   15  C11 UNL     1      28.985   8.222   9.604  1.00  0.00    -0.050 A 
HETATM   16  C12 UNL     1      29.975   9.179   9.548  1.00  0.00     0.007 A 
HETATM   17  C16 UNL     1      29.144   7.035  10.300  1.00  0.00    -0.029 A 
HETATM   18  C13 UNL     1      31.187   9.008  10.188  1.00  0.00     0.001 A 
HETATM   19  C14 UNL     1      31.375   7.842  10.885  1.00  0.00     0.001 A 
HETATM   20  C15 UNL     1      30.382   6.907  10.926  1.00  0.00     0.010 A 
ENDBRANCH  10  12
ENDBRANCH   7  10
BRANCH   6  21
HETATM   21  S2  UNL     1      25.921   6.488  13.811  1.00  0.00     0.182 S 
HETATM   22  O3  UNL     1      27.320   7.022  13.489  1.00  0.00    -0.222 OA
HETATM   23  O4  UNL     1      26.001   5.923  15.185  1.00  0.00    -0.222 OA
BRANCH  21  24
HETATM   24  C5  UNL     1      24.896   7.942  13.850  1.00  0.00     0.172 C 
BRANCH  24  25
HETATM   25  C6  UNL     1      24.929   8.602  15.209  1.00  0.00     0.179 C 
BRANCH  25  26
HETATM   26  O5  UNL     1      26.230   8.718  15.693  1.00  0.00    -0.400 OA
ATOM     27  H5  UNL     1      26.313   9.438  16.308  1.00  0.00     0.209 HD
ENDBRANCH  25  26
ENDBRANCH  24  25
ENDBRANCH  21  24
ENDBRANCH   6  21
BRANCH   1  28
HETATM   28  S1  UNL     1      23.757   2.279   9.695  1.00  0.00     0.263 S 
HETATM   29  O1  UNL     1      24.128   0.887  10.069  1.00  0.00    -0.201 OA
HETATM   30  O2  UNL     1      22.243   2.377   9.643  1.00  0.00    -0.201 OA
BRANCH  28  31
HETATM   31  N1  UNL     1      24.336   2.603   8.104  1.00  0.00    -0.324 N 
ATOM     32  H12 UNL     1      24.871   1.946   7.536  1.00  0.00     0.169 HD
ATOM     33  H11 UNL     1      24.056   3.546   7.837  1.00  0.00     0.169 HD
ENDBRANCH  28  31
ENDBRANCH   1  28
TORSDOF 8
ENDMDL
