MODEL 5
REMARK VINA RESULT: -8.509744879      1.615      1.939
REMARK  8 active torsions:
REMARK  status: ('A' for Active; 'I' for Inactive)
REMARK    1  A    between atoms: N1_1  and  S1_4 
REMARK    2  A    between atoms: S1_4  and  C1_7 
REMARK    3  A    between atoms: C4_12  and  S2_13 
REMARK    4  A    between atoms: S2_13  and  C5_16 
REMARK    5  A    between atoms: C5_16  and  C6_17 
REMARK    6  A    between atoms: C6_17  and  O5_18 
REMARK    7  A    between atoms: C7_20  and  N2_21 
REMARK    8  A    between atoms: N2_21  and  C8_23 
ROOT
HETATM    1  C1  UNL     1      24.096   4.471  12.200  1.00  0.00     0.161 A 
HETATM    2  C2  UNL     1      23.906   4.541  13.545  1.00  0.00     0.182 A 
HETATM    3  F1  UNL     1      22.921   3.806  14.133  1.00  0.00    -0.201 F 
HETATM    4  C3  UNL     1      24.726   5.366  14.307  1.00  0.00     0.180 A 
HETATM    5  F2  UNL     1      24.479   5.388  15.623  1.00  0.00    -0.201 F 
HETATM    6  C4  UNL     1      25.749   6.133  13.729  1.00  0.00     0.130 A 
HETATM    7  C7  UNL     1      25.928   6.055  12.374  1.00  0.00     0.094 A 
HETATM    8  C17 UNL     1      25.094   5.222  11.646  1.00  0.00     0.170 A 
HETATM    9  F3  UNL     1      25.243   5.089  10.288  1.00  0.00    -0.202 F 
ENDROOT
BRANCH   7  10
HETATM   10  N2  UNL     1      26.921   6.760  11.675  1.00  0.00    -0.377 N 
ATOM     11  H2  UNL     1      27.868   6.577  12.006  1.00  0.00     0.160 HD
BRANCH  10  12
HETATM   12  C8  UNL     1      26.858   7.671  10.604  1.00  0.00     0.116 C 
HETATM   13  C9  UNL     1      25.924   8.819  11.045  1.00  0.00     0.034 C 
HETATM   14  C10 UNL     1      26.221   9.852   9.992  1.00  0.00     0.041 C 
HETATM   15  C11 UNL     1      27.688   9.658   9.804  1.00  0.00    -0.050 A 
HETATM   16  C12 UNL     1      28.599  10.576   9.330  1.00  0.00     0.007 A 
HETATM   17  C16 UNL     1      28.056   8.371  10.165  1.00  0.00    -0.029 A 
HETATM   18  C13 UNL     1      29.937  10.265   9.188  1.00  0.00     0.001 A 
HETATM   19  C14 UNL     1      30.332   8.998   9.535  1.00  0.00     0.001 A 
HETATM   20  C15 UNL     1      29.414   8.104  10.002  1.00  0.00     0.010 A 
ENDBRANCH  10  12
ENDBRANCH   7  10
BRANCH   6  21
HETATM   21  S2  UNL     1      26.720   7.063  14.827  1.00  0.00     0.182 S 
HETATM   22  O3  UNL     1      28.055   7.426  14.171  1.00  0.00    -0.222 OA
HETATM   23  O4  UNL     1      27.059   6.379  16.103  1.00  0.00    -0.222 OA
BRANCH  21  24
HETATM   24  C5  UNL     1      25.975   8.635  15.202  1.00  0.00     0.172 C 
BRANCH  24  25
HETATM   25  C6  UNL     1      27.019   9.667  15.560  1.00  0.00     0.179 C 
BRANCH  25  26
HETATM   26  O5  UNL     1      27.770   9.278  16.667  1.00  0.00    -0.400 OA
ATOM     27  H5  UNL     1      27.257   9.307  17.467  1.00  0.00     0.209 HD
ENDBRANCH  25  26
ENDBRANCH  24  25
ENDBRANCH  21  24
ENDBRANCH   6  21
BRANCH   1  28
HETATM   28  S1  UNL     1      23.072   3.437  11.237  1.00  0.00     0.263 S 
HETATM   29  O1  UNL     1      22.167   2.594  12.064  1.00  0.00    -0.201 OA
HETATM   30  O2  UNL     1      22.224   4.283  10.304  1.00  0.00    -0.201 OA
BRANCH  28  31
HETATM   31  N1  UNL     1      24.039   2.412  10.246  1.00  0.00    -0.324 N 
ATOM     32  H12 UNL     1      24.669   1.689  10.597  1.00  0.00     0.169 HD
ATOM     33  H11 UNL     1      23.876   2.648   9.268  1.00  0.00     0.169 HD
ENDBRANCH  28  31
ENDBRANCH   1  28
TORSDOF 8
ENDMDL
