MODEL 3
REMARK VINA RESULT: -8.632554941      1.527      1.683
REMARK  8 active torsions:
REMARK  status: ('A' for Active; 'I' for Inactive)
REMARK    1  A    between atoms: N1_1  and  S1_4 
REMARK    2  A    between atoms: S1_4  and  C1_7 
REMARK    3  A    between atoms: C4_12  and  S2_13 
REMARK    4  A    between atoms: S2_13  and  C5_16 
REMARK    5  A    between atoms: C5_16  and  C6_17 
REMARK    6  A    between atoms: C6_17  and  O5_18 
REMARK    7  A    between atoms: C7_20  and  N2_21 
REMARK    8  A    between atoms: N2_21  and  C8_23 
ROOT
HETATM    1  C1  UNL     1      24.031   4.481  12.141  1.00  0.00     0.161 A 
HETATM    2  C2  UNL     1      23.878   4.446  13.492  1.00  0.00     0.182 A 
HETATM    3  F1  UNL     1      22.969   3.600  14.054  1.00  0.00    -0.201 F 
HETATM    4  C3  UNL     1      24.657   5.278  14.289  1.00  0.00     0.180 A 
HETATM    5  F2  UNL     1      24.450   5.194  15.608  1.00  0.00    -0.201 F 
HETATM    6  C4  UNL     1      25.602   6.159  13.738  1.00  0.00     0.130 A 
HETATM    7  C7  UNL     1      25.744   6.186  12.377  1.00  0.00     0.094 A 
HETATM    8  C17 UNL     1      24.952   5.341  11.615  1.00  0.00     0.170 A 
HETATM    9  F3  UNL     1      25.069   5.311  10.248  1.00  0.00    -0.202 F 
ENDROOT
BRANCH   7  10
HETATM   10  N2  UNL     1      26.660   7.010  11.702  1.00  0.00    -0.377 N 
ATOM     11  H2  UNL     1      26.612   7.991  11.976  1.00  0.00     0.160 HD
BRANCH  10  12
HETATM   12  C8  UNL     1      27.631   6.738  10.721  1.00  0.00     0.116 C 
HETATM   13  C9  UNL     1      27.275   7.594   9.486  1.00  0.00     0.034 C 
HETATM   14  C10 UNL     1      28.542   7.483   8.683  1.00  0.00     0.041 C 
HETATM   15  C11 UNL     1      29.571   7.511   9.764  1.00  0.00    -0.050 A 
HETATM   16  C12 UNL     1      30.890   7.893   9.652  1.00  0.00     0.007 A 
HETATM   17  C16 UNL     1      29.028   7.070  10.960  1.00  0.00    -0.029 A 
HETATM   18  C13 UNL     1      31.750   7.859  10.732  1.00  0.00     0.001 A 
HETATM   19  C14 UNL     1      31.242   7.425  11.931  1.00  0.00     0.001 A 
HETATM   20  C15 UNL     1      29.934   7.051  12.019  1.00  0.00     0.010 A 
ENDBRANCH  10  12
ENDBRANCH   7  10
BRANCH   6  21
HETATM   21  S2  UNL     1      26.535   7.085  14.872  1.00  0.00     0.182 S 
HETATM   22  O3  UNL     1      27.817   7.594  14.208  1.00  0.00    -0.222 OA
HETATM   23  O4  UNL     1      26.965   6.344  16.088  1.00  0.00    -0.222 OA
BRANCH  21  24
HETATM   24  C5  UNL     1      25.685   8.565  15.376  1.00  0.00     0.172 C 
BRANCH  24  25
HETATM   25  C6  UNL     1      26.658   9.681  15.682  1.00  0.00     0.179 C 
BRANCH  25  26
HETATM   26  O5  UNL     1      27.605   9.294  16.627  1.00  0.00    -0.400 OA
ATOM     27  H5  UNL     1      27.220   9.193  17.489  1.00  0.00     0.209 HD
ENDBRANCH  25  26
ENDBRANCH  24  25
ENDBRANCH  21  24
ENDBRANCH   6  21
BRANCH   1  28
HETATM   28  S1  UNL     1      23.057   3.439  11.136  1.00  0.00     0.263 S 
HETATM   29  O1  UNL     1      22.142   2.570  11.926  1.00  0.00    -0.201 OA
HETATM   30  O2  UNL     1      22.224   4.278  10.185  1.00  0.00    -0.201 OA
BRANCH  28  31
HETATM   31  N1  UNL     1      24.074   2.441  10.166  1.00  0.00    -0.324 N 
ATOM     32  H12 UNL     1      24.768   1.789  10.532  1.00  0.00     0.169 HD
ATOM     33  H11 UNL     1      23.866   2.614   9.183  1.00  0.00     0.169 HD
ENDBRANCH  28  31
ENDBRANCH   1  28
TORSDOF 8
ENDMDL
