MODEL 9
REMARK VINA RESULT: -8.083372605      3.225      5.819
REMARK  8 active torsions:
REMARK  status: ('A' for Active; 'I' for Inactive)
REMARK    1  A    between atoms: N1_1  and  S1_4 
REMARK    2  A    between atoms: S1_4  and  C1_7 
REMARK    3  A    between atoms: C4_12  and  S2_13 
REMARK    4  A    between atoms: S2_13  and  C5_16 
REMARK    5  A    between atoms: C5_16  and  C6_17 
REMARK    6  A    between atoms: C6_17  and  O5_18 
REMARK    7  A    between atoms: C7_20  and  N2_21 
REMARK    8  A    between atoms: N2_21  and  C8_23 
ROOT
HETATM    1  C1  UNL     1      24.892   9.352  13.344  1.00  0.00     0.161 A 
HETATM    2  C2  UNL     1      24.729   9.297  14.709  1.00  0.00     0.182 A 
HETATM    3  F1  UNL     1      24.839  10.463  15.423  1.00  0.00    -0.201 F 
HETATM    4  C3  UNL     1      24.468   8.100  15.298  1.00  0.00     0.180 A 
HETATM    5  F2  UNL     1      24.313   8.093  16.648  1.00  0.00    -0.201 F 
HETATM    6  C4  UNL     1      24.357   6.912  14.552  1.00  0.00     0.130 A 
HETATM    7  C7  UNL     1      24.518   6.964  13.181  1.00  0.00     0.094 A 
HETATM    8  C18 UNL     1      24.783   8.198  12.625  1.00  0.00     0.170 A 
HETATM    9  F3  UNL     1      24.975   8.273  11.291  1.00  0.00    -0.202 F 
ENDROOT
BRANCH   7  10
HETATM   10  N2  UNL     1      24.396   5.802  12.406  1.00  0.00    -0.377 N 
ATOM     11  H2  UNL     1      23.583   5.217  12.602  1.00  0.00     0.160 HD
BRANCH  10  12
HETATM   12  C8  UNL     1      25.265   5.340  11.380  1.00  0.00     0.115 C 
HETATM   13  C9  UNL     1      26.690   5.066  11.842  1.00  0.00     0.030 C 
HETATM   14  C10 UNL     1      27.572   5.074  10.605  1.00  0.00     0.007 C 
HETATM   15  C11 UNL     1      26.946   4.507   9.388  1.00  0.00     0.039 C 
HETATM   16  C12 UNL     1      25.723   3.719   9.659  1.00  0.00    -0.050 A 
HETATM   17  C13 UNL     1      25.480   2.605   8.903  1.00  0.00     0.007 A 
HETATM   18  C17 UNL     1      24.829   4.105  10.674  1.00  0.00    -0.029 A 
HETATM   19  C14 UNL     1      24.342   1.870   9.156  1.00  0.00     0.001 A 
HETATM   20  C15 UNL     1      23.462   2.238  10.145  1.00  0.00     0.001 A 
HETATM   21  C16 UNL     1      23.718   3.378  10.914  1.00  0.00     0.010 A 
ENDBRANCH  10  12
ENDBRANCH   7  10
BRANCH   6  22
HETATM   22  S2  UNL     1      24.086   5.474  15.469  1.00  0.00     0.182 S 
HETATM   23  O3  UNL     1      24.327   4.277  14.552  1.00  0.00    -0.222 OA
HETATM   24  O4  UNL     1      24.949   5.259  16.638  1.00  0.00    -0.222 OA
BRANCH  22  25
HETATM   25  C5  UNL     1      22.349   5.382  15.894  1.00  0.00     0.172 C 
BRANCH  25  26
HETATM   26  C6  UNL     1      21.886   3.929  15.870  1.00  0.00     0.179 C 
BRANCH  26  27
HETATM   27  O5  UNL     1      20.741   3.745  16.612  1.00  0.00    -0.400 OA
ATOM     28  H5  UNL     1      20.409   2.859  16.534  1.00  0.00     0.209 HD
ENDBRANCH  26  27
ENDBRANCH  25  26
ENDBRANCH  22  25
ENDBRANCH   6  22
BRANCH   1  29
HETATM   29  S1  UNL     1      25.232  10.905  12.581  1.00  0.00     0.263 S 
HETATM   30  O1  UNL     1      26.308  11.620  13.348  1.00  0.00    -0.201 OA
HETATM   31  O2  UNL     1      25.742  10.712  11.185  1.00  0.00    -0.201 OA
BRANCH  29  32
HETATM   32  N1  UNL     1      23.834  11.918  12.607  1.00  0.00    -0.324 N 
ATOM     33  H12 UNL     1      23.588  12.573  13.349  1.00  0.00     0.169 HD
ATOM     34  H11 UNL     1      23.315  11.733  11.748  1.00  0.00     0.169 HD
ENDBRANCH  29  32
ENDBRANCH   1  29
TORSDOF 8
ENDMDL
