MODEL 6
REMARK VINA RESULT: -8.725929961      2.088      2.668
REMARK  8 active torsions:
REMARK  status: ('A' for Active; 'I' for Inactive)
REMARK    1  A    between atoms: N1_1  and  S1_4 
REMARK    2  A    between atoms: S1_4  and  C1_7 
REMARK    3  A    between atoms: C4_12  and  S2_13 
REMARK    4  A    between atoms: S2_13  and  C5_16 
REMARK    5  A    between atoms: C5_16  and  C6_17 
REMARK    6  A    between atoms: C6_17  and  O5_18 
REMARK    7  A    between atoms: C7_20  and  N2_21 
REMARK    8  A    between atoms: N2_21  and  C8_23 
ROOT
HETATM    1  C1  UNL     1      23.989   3.388  11.019  1.00  0.00     0.161 A 
HETATM    2  C2  UNL     1      23.164   3.479  12.116  1.00  0.00     0.182 A 
HETATM    3  F1  UNL     1      22.085   2.634  12.188  1.00  0.00    -0.201 F 
HETATM    4  C3  UNL     1      23.442   4.394  13.081  1.00  0.00     0.180 A 
HETATM    5  F2  UNL     1      22.601   4.447  14.148  1.00  0.00    -0.201 F 
HETATM    6  C4  UNL     1      24.553   5.254  12.994  1.00  0.00     0.130 A 
HETATM    7  C7  UNL     1      25.384   5.164  11.895  1.00  0.00     0.094 A 
HETATM    8  C18 UNL     1      25.065   4.223  10.939  1.00  0.00     0.170 A 
HETATM    9  F3  UNL     1      25.843   4.135   9.840  1.00  0.00    -0.202 F 
ENDROOT
BRANCH   7  10
HETATM   10  N2  UNL     1      26.510   5.993  11.786  1.00  0.00    -0.377 N 
ATOM     11  H2  UNL     1      27.232   5.863  12.495  1.00  0.00     0.160 HD
BRANCH  10  12
HETATM   12  C8  UNL     1      26.769   6.992  10.807  1.00  0.00     0.115 C 
HETATM   13  C9  UNL     1      26.683   8.419  11.331  1.00  0.00     0.030 C 
HETATM   14  C10 UNL     1      26.486   9.327  10.129  1.00  0.00     0.007 C 
HETATM   15  C11 UNL     1      27.210   8.909   8.906  1.00  0.00     0.039 C 
HETATM   16  C12 UNL     1      28.263   7.900   9.153  1.00  0.00    -0.050 A 
HETATM   17  C13 UNL     1      29.417   7.964   8.420  1.00  0.00     0.007 A 
HETATM   18  C17 UNL     1      28.085   6.895  10.121  1.00  0.00    -0.029 A 
HETATM   19  C14 UNL     1      30.399   7.026   8.650  1.00  0.00     0.001 A 
HETATM   20  C15 UNL     1      30.236   6.041   9.594  1.00  0.00     0.001 A 
HETATM   21  C16 UNL     1      29.054   5.982  10.339  1.00  0.00     0.010 A 
ENDBRANCH  10  12
ENDBRANCH   7  10
BRANCH   6  22
HETATM   22  S2  UNL     1      24.718   6.397  14.278  1.00  0.00     0.182 S 
HETATM   23  O3  UNL     1      26.174   6.854  14.317  1.00  0.00    -0.222 OA
HETATM   24  O4  UNL     1      23.919   7.625  14.181  1.00  0.00    -0.222 OA
BRANCH  22  25
HETATM   25  C5  UNL     1      24.463   5.552  15.836  1.00  0.00     0.172 C 
BRANCH  25  26
HETATM   26  C6  UNL     1      25.488   4.434  15.994  1.00  0.00     0.179 C 
BRANCH  26  27
HETATM   27  O5  UNL     1      26.762   4.930  16.161  1.00  0.00    -0.400 OA
ATOM     28  H5  UNL     1      27.406   4.235  16.218  1.00  0.00     0.209 HD
ENDBRANCH  26  27
ENDBRANCH  25  26
ENDBRANCH  22  25
ENDBRANCH   6  22
BRANCH   1  29
HETATM   29  S1  UNL     1      23.626   2.201   9.766  1.00  0.00     0.263 S 
HETATM   30  O1  UNL     1      22.426   1.392  10.169  1.00  0.00    -0.201 OA
HETATM   31  O2  UNL     1      23.285   2.879   8.474  1.00  0.00    -0.201 OA
BRANCH  29  32
HETATM   32  N1  UNL     1      24.939   1.097   9.571  1.00  0.00    -0.324 N 
ATOM     33  H12 UNL     1      24.853   0.097   9.387  1.00  0.00     0.169 HD
ATOM     34  H11 UNL     1      25.800   1.634   9.676  1.00  0.00     0.169 HD
ENDBRANCH  29  32
ENDBRANCH   1  29
TORSDOF 8
ENDMDL
