MODEL 4
REMARK VINA RESULT: -8.828217438      1.658      2.301
REMARK  8 active torsions:
REMARK  status: ('A' for Active; 'I' for Inactive)
REMARK    1  A    between atoms: N1_1  and  S1_4 
REMARK    2  A    between atoms: S1_4  and  C1_7 
REMARK    3  A    between atoms: C4_12  and  S2_13 
REMARK    4  A    between atoms: S2_13  and  C5_16 
REMARK    5  A    between atoms: C5_16  and  C6_17 
REMARK    6  A    between atoms: C6_17  and  O5_18 
REMARK    7  A    between atoms: C7_20  and  N2_21 
REMARK    8  A    between atoms: N2_21  and  C8_23 
ROOT
HETATM    1  C1  UNL     1      24.076   3.839  11.515  1.00  0.00     0.161 A 
HETATM    2  C2  UNL     1      23.340   3.813  12.677  1.00  0.00     0.182 A 
HETATM    3  F1  UNL     1      22.277   2.949  12.753  1.00  0.00    -0.201 F 
HETATM    4  C3  UNL     1      23.688   4.637  13.700  1.00  0.00     0.180 A 
HETATM    5  F2  UNL     1      22.935   4.576  14.830  1.00  0.00    -0.201 F 
HETATM    6  C4  UNL     1      24.782   5.517  13.608  1.00  0.00     0.130 A 
HETATM    7  C7  UNL     1      25.524   5.544  12.443  1.00  0.00     0.094 A 
HETATM    8  C18 UNL     1      25.135   4.694  11.429  1.00  0.00     0.170 A 
HETATM    9  F3  UNL     1      25.824   4.721  10.269  1.00  0.00    -0.202 F 
ENDROOT
BRANCH   7  10
HETATM   10  N2  UNL     1      26.631   6.396  12.325  1.00  0.00    -0.377 N 
ATOM     11  H2  UNL     1      27.336   6.318  13.058  1.00  0.00     0.160 HD
BRANCH  10  12
HETATM   12  C8  UNL     1      26.892   7.355  11.307  1.00  0.00     0.115 C 
HETATM   13  C9  UNL     1      27.036   8.784  11.815  1.00  0.00     0.030 C 
HETATM   14  C10 UNL     1      26.811   9.706  10.629  1.00  0.00     0.007 C 
HETATM   15  C11 UNL     1      27.335   9.202   9.339  1.00  0.00     0.039 C 
HETATM   16  C12 UNL     1      28.283   8.075   9.480  1.00  0.00    -0.050 A 
HETATM   17  C13 UNL     1      29.344   8.000   8.619  1.00  0.00     0.007 A 
HETATM   18  C17 UNL     1      28.100   7.101  10.478  1.00  0.00    -0.029 A 
HETATM   19  C14 UNL     1      30.228   6.952   8.750  1.00  0.00     0.001 A 
HETATM   20  C15 UNL     1      30.059   5.995   9.723  1.00  0.00     0.001 A 
HETATM   21  C16 UNL     1      28.972   6.079  10.598  1.00  0.00     0.010 A 
ENDBRANCH  10  12
ENDBRANCH   7  10
BRANCH   6  22
HETATM   22  S2  UNL     1      25.042   6.535  14.978  1.00  0.00     0.182 S 
HETATM   23  O3  UNL     1      24.863   5.689  16.235  1.00  0.00    -0.222 OA
HETATM   24  O4  UNL     1      26.368   7.155  15.103  1.00  0.00    -0.222 OA
BRANCH  22  25
HETATM   25  C5  UNL     1      23.726   7.748  15.051  1.00  0.00     0.172 C 
BRANCH  25  26
HETATM   26  C6  UNL     1      24.090   8.959  14.198  1.00  0.00     0.179 C 
BRANCH  26  27
HETATM   27  O5  UNL     1      23.689   8.801  12.890  1.00  0.00    -0.400 OA
ATOM     28  H5  UNL     1      22.743   8.757  12.815  1.00  0.00     0.209 HD
ENDBRANCH  26  27
ENDBRANCH  25  26
ENDBRANCH  22  25
ENDBRANCH   6  22
BRANCH   1  29
HETATM   29  S1  UNL     1      23.622   2.770  10.187  1.00  0.00     0.263 S 
HETATM   30  O1  UNL     1      22.531   1.840  10.636  1.00  0.00    -0.201 OA
HETATM   31  O2  UNL     1      23.080   3.557   9.032  1.00  0.00    -0.201 OA
BRANCH  29  32
HETATM   32  N1  UNL     1      24.958   1.788   9.708  1.00  0.00    -0.324 N 
ATOM     33  H12 UNL     1      25.070   1.337   8.800  1.00  0.00     0.169 HD
ATOM     34  H11 UNL     1      25.601   1.752  10.499  1.00  0.00     0.169 HD
ENDBRANCH  29  32
ENDBRANCH   1  29
TORSDOF 8
ENDMDL
