MODEL 10
REMARK VINA RESULT: -8.008072403      2.753      5.431
REMARK  8 active torsions:
REMARK  status: ('A' for Active; 'I' for Inactive)
REMARK    1  A    between atoms: N1_1  and  S1_4 
REMARK    2  A    between atoms: S1_4  and  C1_7 
REMARK    3  A    between atoms: C4_12  and  S2_13 
REMARK    4  A    between atoms: S2_13  and  C5_16 
REMARK    5  A    between atoms: C5_16  and  C6_17 
REMARK    6  A    between atoms: C6_17  and  O5_18 
REMARK    7  A    between atoms: C7_20  and  N2_21 
REMARK    8  A    between atoms: N2_21  and  C8_23 
ROOT
HETATM    1  C1  UNL     1      24.760   4.255  11.066  1.00  0.00     0.161 A 
HETATM    2  C2  UNL     1      25.697   4.052  10.079  1.00  0.00     0.182 A 
HETATM    3  F1  UNL     1      25.413   3.144   9.091  1.00  0.00    -0.201 F 
HETATM    4  C3  UNL     1      26.861   4.753  10.117  1.00  0.00     0.180 A 
HETATM    5  F2  UNL     1      27.757   4.522   9.121  1.00  0.00    -0.201 F 
HETATM    6  C4  UNL     1      27.137   5.683  11.136  1.00  0.00     0.130 A 
HETATM    7  C7  UNL     1      26.198   5.890  12.127  1.00  0.00     0.094 A 
HETATM    8  C18 UNL     1      25.032   5.157  12.052  1.00  0.00     0.170 A 
HETATM    9  F3  UNL     1      24.110   5.318  13.023  1.00  0.00    -0.202 F 
ENDROOT
BRANCH   7  10
HETATM   10  N2  UNL     1      26.434   6.823  13.147  1.00  0.00    -0.377 N 
ATOM     11  H2  UNL     1      27.375   6.827  13.541  1.00  0.00     0.160 HD
BRANCH  10  12
HETATM   12  C8  UNL     1      25.522   7.764  13.699  1.00  0.00     0.115 C 
HETATM   13  C9  UNL     1      25.736   8.049  15.180  1.00  0.00     0.030 C 
HETATM   14  C10 UNL     1      24.443   8.644  15.713  1.00  0.00     0.007 C 
HETATM   15  C11 UNL     1      23.728   9.532  14.768  1.00  0.00     0.039 C 
HETATM   16  C12 UNL     1      24.552   9.966  13.618  1.00  0.00    -0.050 A 
HETATM   17  C13 UNL     1      24.384  11.234  13.134  1.00  0.00     0.007 A 
HETATM   18  C17 UNL     1      25.490   9.094  13.035  1.00  0.00    -0.029 A 
HETATM   19  C14 UNL     1      25.152  11.640  12.064  1.00  0.00     0.001 A 
HETATM   20  C15 UNL     1      26.072  10.798  11.488  1.00  0.00     0.001 A 
HETATM   21  C16 UNL     1      26.238   9.503  11.989  1.00  0.00     0.010 A 
ENDBRANCH  10  12
ENDBRANCH   7  10
BRANCH   6  22
HETATM   22  S2  UNL     1      28.690   6.435  11.063  1.00  0.00     0.182 S 
HETATM   23  O3  UNL     1      29.002   7.009  12.442  1.00  0.00    -0.222 OA
HETATM   24  O4  UNL     1      29.831   5.573  10.726  1.00  0.00    -0.222 OA
BRANCH  22  25
HETATM   25  C5  UNL     1      28.588   7.862   9.985  1.00  0.00     0.172 C 
BRANCH  25  26
HETATM   26  C6  UNL     1      29.015   7.476   8.573  1.00  0.00     0.179 C 
BRANCH  26  27
HETATM   27  O5  UNL     1      30.382   7.536   8.419  1.00  0.00    -0.400 OA
ATOM     28  H5  UNL     1      30.714   6.798   7.922  1.00  0.00     0.209 HD
ENDBRANCH  26  27
ENDBRANCH  25  26
ENDBRANCH  22  25
ENDBRANCH   6  22
BRANCH   1  29
HETATM   29  S1  UNL     1      23.250   3.344  11.017  1.00  0.00     0.263 S 
HETATM   30  O1  UNL     1      22.863   2.932  12.409  1.00  0.00    -0.201 OA
HETATM   31  O2  UNL     1      22.135   4.191  10.483  1.00  0.00    -0.201 OA
BRANCH  29  32
HETATM   32  N1  UNL     1      23.439   1.896  10.095  1.00  0.00    -0.324 N 
ATOM     33  H12 UNL     1      22.704   1.429   9.564  1.00  0.00     0.169 HD
ATOM     34  H11 UNL     1      24.413   1.608  10.188  1.00  0.00     0.169 HD
ENDBRANCH  29  32
ENDBRANCH   1  29
TORSDOF 8
ENDMDL
