MODEL 3
REMARK VINA RESULT: -8.904530390      1.556      1.937
REMARK  8 active torsions:
REMARK  status: ('A' for Active; 'I' for Inactive)
REMARK    1  A    between atoms: N1_1  and  S1_4 
REMARK    2  A    between atoms: S1_4  and  C1_7 
REMARK    3  A    between atoms: C4_12  and  S2_13 
REMARK    4  A    between atoms: S2_13  and  C5_16 
REMARK    5  A    between atoms: C5_16  and  C6_17 
REMARK    6  A    between atoms: C6_17  and  O5_18 
REMARK    7  A    between atoms: C7_20  and  N2_21 
REMARK    8  A    between atoms: N2_21  and  C8_23 
ROOT
HETATM    1  C1  UNL     1      24.188   3.405  11.047  1.00  0.00     0.161 A 
HETATM    2  C2  UNL     1      23.437   3.633  12.176  1.00  0.00     0.182 A 
HETATM    3  F1  UNL     1      22.258   2.946  12.322  1.00  0.00    -0.201 F 
HETATM    4  C3  UNL     1      23.884   4.523  13.101  1.00  0.00     0.180 A 
HETATM    5  F2  UNL     1      23.111   4.715  14.202  1.00  0.00    -0.201 F 
HETATM    6  C4  UNL     1      25.096   5.219  12.939  1.00  0.00     0.130 A 
HETATM    7  C7  UNL     1      25.853   4.991  11.807  1.00  0.00     0.094 A 
HETATM    8  C18 UNL     1      25.362   4.082  10.894  1.00  0.00     0.170 A 
HETATM    9  F3  UNL     1      26.067   3.862   9.764  1.00  0.00    -0.202 F 
ENDROOT
BRANCH   7  10
HETATM   10  N2  UNL     1      27.075   5.654  11.623  1.00  0.00    -0.377 N 
ATOM     11  H2  UNL     1      27.851   5.333  12.203  1.00  0.00     0.160 HD
BRANCH  10  12
HETATM   12  C8  UNL     1      27.365   6.720  10.727  1.00  0.00     0.115 C 
HETATM   13  C9  UNL     1      26.550   7.983  10.970  1.00  0.00     0.030 C 
HETATM   14  C10 UNL     1      26.599   8.801   9.691  1.00  0.00     0.007 C 
HETATM   15  C11 UNL     1      27.887   8.745   8.963  1.00  0.00     0.039 C 
HETATM   16  C12 UNL     1      29.003   8.200   9.767  1.00  0.00    -0.050 A 
HETATM   17  C13 UNL     1      30.253   8.730   9.597  1.00  0.00     0.007 A 
HETATM   18  C17 UNL     1      28.785   7.161  10.690  1.00  0.00    -0.029 A 
HETATM   19  C14 UNL     1      31.293   8.225  10.347  1.00  0.00     0.001 A 
HETATM   20  C15 UNL     1      31.091   7.211  11.252  1.00  0.00     0.001 A 
HETATM   21  C16 UNL     1      29.810   6.674  11.420  1.00  0.00     0.010 A 
ENDBRANCH  10  12
ENDBRANCH   7  10
BRANCH   6  22
HETATM   22  S2  UNL     1      25.478   6.357  14.180  1.00  0.00     0.182 S 
HETATM   23  O3  UNL     1      25.215   5.691  15.528  1.00  0.00    -0.222 OA
HETATM   24  O4  UNL     1      26.865   6.836  14.239  1.00  0.00    -0.222 OA
BRANCH  22  25
HETATM   25  C5  UNL     1      24.306   7.710  14.102  1.00  0.00     0.172 C 
BRANCH  25  26
HETATM   26  C6  UNL     1      23.953   8.171  15.512  1.00  0.00     0.179 C 
BRANCH  26  27
HETATM   27  O5  UNL     1      25.077   8.494  16.240  1.00  0.00    -0.400 OA
ATOM     28  H5  UNL     1      25.807   7.924  16.031  1.00  0.00     0.209 HD
ENDBRANCH  26  27
ENDBRANCH  25  26
ENDBRANCH  22  25
ENDBRANCH   6  22
BRANCH   1  29
HETATM   29  S1  UNL     1      23.606   2.250   9.846  1.00  0.00     0.263 S 
HETATM   30  O1  UNL     1      22.428   1.498  10.398  1.00  0.00    -0.201 OA
HETATM   31  O2  UNL     1      23.137   2.958   8.611  1.00  0.00    -0.201 OA
BRANCH  29  32
HETATM   32  N1  UNL     1      24.825   1.084   9.479  1.00  0.00    -0.324 N 
ATOM     33  H12 UNL     1      25.432   1.096   8.660  1.00  0.00     0.169 HD
ATOM     34  H11 UNL     1      24.815   0.394  10.231  1.00  0.00     0.169 HD
ENDBRANCH  29  32
ENDBRANCH   1  29
TORSDOF 8
ENDMDL
