MODEL 12
REMARK VINA RESULT: -7.882847014      3.595      7.177
REMARK  8 active torsions:
REMARK  status: ('A' for Active; 'I' for Inactive)
REMARK    1  A    between atoms: N1_1  and  S1_4 
REMARK    2  A    between atoms: S1_4  and  C1_7 
REMARK    3  A    between atoms: C4_12  and  S2_13 
REMARK    4  A    between atoms: S2_13  and  C5_16 
REMARK    5  A    between atoms: C5_16  and  C6_17 
REMARK    6  A    between atoms: C6_17  and  O5_18 
REMARK    7  A    between atoms: C7_20  and  N2_21 
REMARK    8  A    between atoms: N2_21  and  C8_23 
ROOT
HETATM    1  C1  UNL     1      26.502   9.508   9.861  1.00  0.00     0.161 A 
HETATM    2  C2  UNL     1      26.938   8.254   9.501  1.00  0.00     0.182 A 
HETATM    3  F1  UNL     1      27.796   8.147   8.435  1.00  0.00    -0.201 F 
HETATM    4  C3  UNL     1      26.509   7.175  10.207  1.00  0.00     0.180 A 
HETATM    5  F2  UNL     1      26.968   5.956   9.817  1.00  0.00    -0.201 F 
HETATM    6  C4  UNL     1      25.630   7.301  11.299  1.00  0.00     0.130 A 
HETATM    7  C7  UNL     1      25.192   8.558  11.663  1.00  0.00     0.094 A 
HETATM    8  C18 UNL     1      25.650   9.626  10.920  1.00  0.00     0.170 A 
HETATM    9  F3  UNL     1      25.213  10.863  11.236  1.00  0.00    -0.202 F 
ENDROOT
BRANCH   7  10
HETATM   10  N2  UNL     1      24.330   8.721  12.758  1.00  0.00    -0.377 N 
ATOM     11  H2  UNL     1      23.349   8.495  12.593  1.00  0.00     0.160 HD
BRANCH  10  12
HETATM   12  C8  UNL     1      24.657   9.162  14.070  1.00  0.00     0.115 C 
HETATM   13  C9  UNL     1      26.145   9.115  14.395  1.00  0.00     0.030 C 
HETATM   14  C10 UNL     1      26.274   9.126  15.908  1.00  0.00     0.007 C 
HETATM   15  C11 UNL     1      25.272   9.957  16.615  1.00  0.00     0.039 C 
HETATM   16  C12 UNL     1      24.551  10.901  15.732  1.00  0.00    -0.050 A 
HETATM   17  C13 UNL     1      24.220  12.134  16.223  1.00  0.00     0.007 A 
HETATM   18  C17 UNL     1      24.215  10.540  14.414  1.00  0.00    -0.029 A 
HETATM   19  C14 UNL     1      23.551  13.014  15.401  1.00  0.00     0.001 A 
HETATM   20  C15 UNL     1      23.218  12.673  14.112  1.00  0.00     0.001 A 
HETATM   21  C16 UNL     1      23.560  11.410  13.618  1.00  0.00     0.010 A 
ENDBRANCH  10  12
ENDBRANCH   7  10
BRANCH   6  22
HETATM   22  S2  UNL     1      25.139   5.820  12.040  1.00  0.00     0.182 S 
HETATM   23  O3  UNL     1      26.383   5.142  12.608  1.00  0.00    -0.222 OA
HETATM   24  O4  UNL     1      24.195   5.919  13.161  1.00  0.00    -0.222 OA
BRANCH  22  25
HETATM   25  C5  UNL     1      24.552   4.707  10.766  1.00  0.00     0.172 C 
BRANCH  25  26
HETATM   26  C6  UNL     1      23.435   3.829  11.321  1.00  0.00     0.179 C 
BRANCH  26  27
HETATM   27  O5  UNL     1      22.251   4.022  10.646  1.00  0.00    -0.400 OA
ATOM     28  H5  UNL     1      21.557   4.310  11.227  1.00  0.00     0.209 HD
ENDBRANCH  26  27
ENDBRANCH  25  26
ENDBRANCH  22  25
ENDBRANCH   6  22
BRANCH   1  29
HETATM   29  S1  UNL     1      27.058  10.908   8.943  1.00  0.00     0.263 S 
HETATM   30  O1  UNL     1      26.625  12.170   9.634  1.00  0.00    -0.201 OA
HETATM   31  O2  UNL     1      28.554  10.937   8.872  1.00  0.00    -0.201 OA
BRANCH  29  32
HETATM   32  N1  UNL     1      26.351  10.926   7.368  1.00  0.00    -0.324 N 
ATOM     33  H12 UNL     1      26.268  11.743   6.763  1.00  0.00     0.169 HD
ATOM     34  H11 UNL     1      26.040   9.975   7.169  1.00  0.00     0.169 HD
ENDBRANCH  29  32
ENDBRANCH   1  29
TORSDOF 8
ENDMDL
