MODEL 8
REMARK VINA RESULT: -4.491316129      1.894      3.773
REMARK  6 active torsions:
REMARK  status: ('A' for Active; 'I' for Inactive)
REMARK    1  A    between atoms: O1_1  and  C1_3 
REMARK    2  A    between atoms: C1_3  and  C2_4 
REMARK    3  A    between atoms: C3_6  and  O3_7 
REMARK    4  A    between atoms: C4_9  and  O4_10 
REMARK    5  A    between atoms: C5_12  and  O5_13 
REMARK    6  A    between atoms: C6_15  and  O6_16 
ROOT
HETATM    1  C2  UNL     1       3.835 -16.018   0.427  1.00  0.00     0.179 C 
HETATM    2  O2  UNL     1       3.864 -15.995  -0.929  1.00  0.00    -0.349 OA
HETATM    3  C3  UNL     1       4.761 -15.141  -1.519  1.00  0.00     0.288 C 
HETATM    4  C4  UNL     1       6.172 -15.291  -1.049  1.00  0.00     0.204 C 
HETATM    5  C5  UNL     1       6.206 -16.275   0.100  1.00  0.00     0.183 C 
HETATM    6  C6  UNL     1       5.173 -15.747   1.086  1.00  0.00     0.180 C 
ENDROOT
BRANCH   1   7
HETATM    7  C1  UNL     1       2.738 -15.167   1.032  1.00  0.00     0.198 C 
BRANCH   7   8
HETATM    8  O1  UNL     1       2.861 -15.152   2.421  1.00  0.00    -0.398 OA
ATOM      9  H1  UNL     1       3.063 -14.272   2.718  1.00  0.00     0.209 HD
ENDBRANCH   7   8
ENDBRANCH   1   7
BRANCH   6  10
HETATM   10  O6  UNL     1       5.309 -14.360   1.164  1.00  0.00    -0.390 OA
ATOM     11  H6  UNL     1       5.532 -14.157   2.064  1.00  0.00     0.210 HD
ENDBRANCH   6  10
BRANCH   3  12
HETATM   12  O3  UNL     1       4.311 -13.806  -1.416  1.00  0.00    -0.369 OA
ATOM     13  H3  UNL     1       5.014 -13.241  -1.120  1.00  0.00     0.212 HD
ENDBRANCH   3  12
BRANCH   5  14
HETATM   14  O5  UNL     1       7.455 -16.400   0.670  1.00  0.00    -0.390 OA
ATOM     15  H5  UNL     1       7.453 -16.919   1.466  1.00  0.00     0.210 HD
ENDBRANCH   5  14
BRANCH   4  16
HETATM   16  O4  UNL     1       7.067 -15.609  -2.048  1.00  0.00    -0.388 OA
ATOM     17  H4  UNL     1       7.962 -15.349  -1.864  1.00  0.00     0.210 HD
ENDBRANCH   4  16
TORSDOF 6
ENDMDL
