MODEL 18
REMARK VINA RESULT: -4.183828673      1.372      2.634
REMARK  6 active torsions:
REMARK  status: ('A' for Active; 'I' for Inactive)
REMARK    1  A    between atoms: O1_1  and  C1_3 
REMARK    2  A    between atoms: C1_3  and  C2_4 
REMARK    3  A    between atoms: C3_6  and  O3_7 
REMARK    4  A    between atoms: C4_9  and  O4_10 
REMARK    5  A    between atoms: C5_12  and  O5_13 
REMARK    6  A    between atoms: C6_15  and  O6_16 
ROOT
HETATM    1  C2  UNL     1       2.582 -14.563  -2.366  1.00  0.00     0.179 C 
HETATM    2  O2  UNL     1       1.488 -14.039  -1.760  1.00  0.00    -0.349 OA
HETATM    3  C3  UNL     1       1.166 -14.530  -0.520  1.00  0.00     0.288 C 
HETATM    4  C4  UNL     1       2.282 -14.499   0.475  1.00  0.00     0.204 C 
HETATM    5  C5  UNL     1       3.550 -14.059  -0.221  1.00  0.00     0.183 C 
HETATM    6  C6  UNL     1       3.677 -14.997  -1.413  1.00  0.00     0.180 C 
ENDROOT
BRANCH   1   7
HETATM    7  C1  UNL     1       2.264 -15.648  -3.374  1.00  0.00     0.198 C 
BRANCH   7   8
HETATM    8  O1  UNL     1       1.798 -15.075  -4.556  1.00  0.00    -0.398 OA
ATOM      9  H1  UNL     1       1.641 -15.752  -5.204  1.00  0.00     0.209 HD
ENDBRANCH   7   8
ENDBRANCH   1   7
BRANCH   6  10
HETATM   10  O6  UNL     1       3.356 -16.288  -0.992  1.00  0.00    -0.390 OA
ATOM     11  H6  UNL     1       4.070 -16.851  -1.265  1.00  0.00     0.210 HD
ENDBRANCH   6  10
BRANCH   3  12
HETATM   12  O3  UNL     1       0.597 -15.819  -0.633  1.00  0.00    -0.369 OA
ATOM     13  H3  UNL     1       0.058 -15.876  -1.412  1.00  0.00     0.212 HD
ENDBRANCH   3  12
BRANCH   5  14
HETATM   14  O5  UNL     1       4.660 -14.099   0.596  1.00  0.00    -0.390 OA
ATOM     15  H5  UNL     1       5.479 -14.105   0.115  1.00  0.00     0.210 HD
ENDBRANCH   5  14
BRANCH   4  16
HETATM   16  O4  UNL     1       2.008 -13.755   1.603  1.00  0.00    -0.388 OA
ATOM     17  H4  UNL     1       2.757 -13.625   2.173  1.00  0.00     0.210 HD
ENDBRANCH   4  16
TORSDOF 6
ENDMDL
