MODEL 11
REMARK VINA RESULT: -4.300545744      1.281      2.353
REMARK  6 active torsions:
REMARK  status: ('A' for Active; 'I' for Inactive)
REMARK    1  A    between atoms: O1_1  and  C1_3 
REMARK    2  A    between atoms: C1_3  and  C2_4 
REMARK    3  A    between atoms: C3_6  and  O3_7 
REMARK    4  A    between atoms: C4_9  and  O4_10 
REMARK    5  A    between atoms: C5_12  and  O5_13 
REMARK    6  A    between atoms: C6_15  and  O6_16 
ROOT
HETATM    1  C2  UNL     1       2.723 -14.261  -1.681  1.00  0.00     0.179 C 
HETATM    2  O2  UNL     1       1.692 -14.296  -0.798  1.00  0.00    -0.349 OA
HETATM    3  C3  UNL     1       1.752 -15.244   0.191  1.00  0.00     0.288 C 
HETATM    4  C4  UNL     1       3.017 -15.242   0.987  1.00  0.00     0.204 C 
HETATM    5  C5  UNL     1       3.987 -14.260   0.368  1.00  0.00     0.183 C 
HETATM    6  C6  UNL     1       4.060 -14.668  -1.097  1.00  0.00     0.180 C 
ENDROOT
BRANCH   1   7
HETATM    7  C1  UNL     1       2.442 -14.986  -2.980  1.00  0.00     0.198 C 
BRANCH   7   8
HETATM    8  O1  UNL     1       1.648 -14.191  -3.805  1.00  0.00    -0.398 OA
ATOM      9  H1  UNL     1       1.531 -13.334  -3.413  1.00  0.00     0.209 HD
ENDBRANCH   7   8
ENDBRANCH   1   7
BRANCH   6  10
HETATM   10  O6  UNL     1       4.120 -16.061  -1.162  1.00  0.00    -0.390 OA
ATOM     11  H6  UNL     1       4.957 -16.281  -1.553  1.00  0.00     0.210 HD
ENDBRANCH   6  10
BRANCH   3  12
HETATM   12  O3  UNL     1       1.463 -16.524  -0.334  1.00  0.00    -0.369 OA
ATOM     13  H3  UNL     1       1.437 -17.170   0.361  1.00  0.00     0.212 HD
ENDBRANCH   3  12
BRANCH   5  14
HETATM   14  O5  UNL     1       5.225 -14.264   0.974  1.00  0.00    -0.390 OA
ATOM     15  H5  UNL     1       5.720 -15.057   0.807  1.00  0.00     0.210 HD
ENDBRANCH   5  14
BRANCH   4  16
HETATM   16  O4  UNL     1       2.832 -15.027   2.336  1.00  0.00    -0.388 OA
ATOM     17  H4  UNL     1       1.929 -15.108   2.622  1.00  0.00     0.210 HD
ENDBRANCH   4  16
TORSDOF 6
ENDMDL
