MODEL 9
REMARK VINA RESULT: -5.644545757      2.095      5.852
REMARK  12 active torsions:
REMARK  status: ('A' for Active; 'I' for Inactive)
REMARK       I    between atoms: C2_2  and  N1_4 
REMARK    1  A    between atoms: N1_4  and  C3_6 
REMARK    2  A    between atoms: C4_7  and  O2_8 
REMARK    3  A    between atoms: C5_11  and  C6_12 
REMARK    4  A    between atoms: C6_12  and  O4_13 
REMARK    5  A    between atoms: C7_15  and  O5_16 
REMARK    6  A    between atoms: C8_18  and  O6_19 
REMARK    7  A    between atoms: O6_19  and  C9_20 
REMARK    8  A    between atoms: C10_22  and  C11_23 
REMARK    9  A    between atoms: C11_23  and  O8_24 
REMARK   10  A    between atoms: C12_26  and  O9_27 
REMARK   11  A    between atoms: C13_29  and  O10_30 
REMARK   12  A    between atoms: C14_32  and  O11_33 
ROOT
HETATM    1  C3  UNL     1     -14.598 -21.564  37.194  1.00  0.00     0.171 C 
HETATM    2  C4  UNL     1     -13.507 -20.676  37.718  1.00  0.00     0.282 C 
HETATM    3  O3  UNL     1     -12.250 -21.043  37.310  1.00  0.00    -0.349 OA
HETATM    4  C5  UNL     1     -12.127 -21.445  36.006  1.00  0.00     0.179 C 
HETATM    5  C7  UNL     1     -13.267 -20.918  35.194  1.00  0.00     0.180 C 
HETATM    6  C8  UNL     1     -14.548 -21.543  35.695  1.00  0.00     0.183 C 
ENDROOT
BRANCH   6   7
HETATM    7  O6  UNL     1     -15.673 -20.854  35.256  1.00  0.00    -0.348 OA
BRANCH   7   8
HETATM    8  C9  UNL     1     -15.886 -20.955  33.898  1.00  0.00     0.292 C 
HETATM    9  O7  UNL     1     -16.438 -19.766  33.458  1.00  0.00    -0.348 OA
HETATM   10  C10 UNL     1     -17.791 -19.798  33.266  1.00  0.00     0.179 C 
HETATM   11  C12 UNL     1     -18.503 -20.606  34.349  1.00  0.00     0.180 C 
HETATM   12  C13 UNL     1     -18.083 -22.047  34.166  1.00  0.00     0.183 C 
HETATM   13  C14 UNL     1     -16.719 -22.159  33.565  1.00  0.00     0.204 C 
BRANCH  10  14
HETATM   14  C11 UNL     1     -18.351 -18.386  33.365  1.00  0.00     0.198 C 
BRANCH  14  15
HETATM   15  O8  UNL     1     -17.578 -17.652  34.250  1.00  0.00    -0.398 OA
ATOM     16  H8  UNL     1     -16.877 -18.202  34.581  1.00  0.00     0.209 HD
ENDBRANCH  14  15
ENDBRANCH  10  14
BRANCH  11  17
HETATM   17  O9  UNL     1     -18.176 -20.109  35.606  1.00  0.00    -0.390 OA
ATOM     18  H9  UNL     1     -17.330 -20.446  35.880  1.00  0.00     0.210 HD
ENDBRANCH  11  17
BRANCH  12  19
HETATM   19  O10 UNL     1     -18.031 -22.613  35.452  1.00  0.00    -0.390 OA
ATOM     20  H10 UNL     1     -17.511 -23.405  35.377  1.00  0.00     0.210 HD
ENDBRANCH  12  19
BRANCH  13  21
HETATM   21  O11 UNL     1     -16.733 -22.331  32.184  1.00  0.00    -0.388 OA
ATOM     22  H11 UNL     1     -15.845 -22.263  31.854  1.00  0.00     0.210 HD
ENDBRANCH  13  21
ENDBRANCH   7   8
ENDBRANCH   6   7
BRANCH   1  23
HETATM   23  N1  UNL     1     -14.443 -22.876  37.759  1.00  0.00    -0.349 N 
HETATM   24  C2  UNL     1     -15.495 -23.802  37.961  1.00  0.00     0.214 C 
HETATM   25  C1  UNL     1     -15.257 -25.155  38.556  1.00  0.00     0.117 C 
HETATM   26  O1  UNL     1     -16.659 -23.466  37.626  1.00  0.00    -0.274 OA
ATOM     27  H1  UNL     1     -13.504 -23.163  38.035  1.00  0.00     0.163 HD
ENDBRANCH   1  23
BRANCH   5  28
HETATM   28  O5  UNL     1     -13.268 -19.537  35.265  1.00  0.00    -0.390 OA
ATOM     29  H5  UNL     1     -12.372 -19.225  35.214  1.00  0.00     0.210 HD
ENDBRANCH   5  28
BRANCH   2  30
HETATM   30  O2  UNL     1     -13.534 -20.813  39.126  1.00  0.00    -0.369 OA
ATOM     31  H2  UNL     1     -13.638 -19.936  39.474  1.00  0.00     0.212 HD
ENDBRANCH   2  30
BRANCH   4  32
HETATM   32  C6  UNL     1     -10.791 -20.925  35.458  1.00  0.00     0.198 C 
BRANCH  32  33
HETATM   33  O4  UNL     1     -10.941 -20.531  34.144  1.00  0.00    -0.398 OA
ATOM     34  H4  UNL     1     -11.154 -19.606  34.104  1.00  0.00     0.209 HD
ENDBRANCH  32  33
ENDBRANCH   4  32
TORSDOF 12
ENDMDL
