MODEL 10
REMARK VINA RESULT: -5.615470184      2.052      6.172
REMARK  12 active torsions:
REMARK  status: ('A' for Active; 'I' for Inactive)
REMARK       I    between atoms: C2_2  and  N1_4 
REMARK    1  A    between atoms: N1_4  and  C3_6 
REMARK    2  A    between atoms: C4_7  and  O2_8 
REMARK    3  A    between atoms: C5_11  and  C6_12 
REMARK    4  A    between atoms: C6_12  and  O4_13 
REMARK    5  A    between atoms: C7_15  and  O5_16 
REMARK    6  A    between atoms: C8_18  and  O6_19 
REMARK    7  A    between atoms: O6_19  and  C9_20 
REMARK    8  A    between atoms: C10_22  and  C11_23 
REMARK    9  A    between atoms: C11_23  and  O8_24 
REMARK   10  A    between atoms: C12_26  and  O9_27 
REMARK   11  A    between atoms: C13_29  and  O10_30 
REMARK   12  A    between atoms: C14_32  and  O11_33 
ROOT
HETATM    1  C3  UNL     1     -12.400 -20.587  35.853  1.00  0.00     0.171 C 
HETATM    2  C4  UNL     1     -11.625 -21.694  36.508  1.00  0.00     0.282 C 
HETATM    3  O3  UNL     1     -11.474 -21.537  37.862  1.00  0.00    -0.349 OA
HETATM    4  C5  UNL     1     -12.568 -21.079  38.548  1.00  0.00     0.179 C 
HETATM    5  C7  UNL     1     -13.814 -21.331  37.759  1.00  0.00     0.180 C 
HETATM    6  C8  UNL     1     -13.756 -20.516  36.489  1.00  0.00     0.183 C 
ENDROOT
BRANCH   6   7
HETATM    7  O6  UNL     1     -14.676 -20.957  35.544  1.00  0.00    -0.348 OA
BRANCH   7   8
HETATM    8  C9  UNL     1     -15.559 -19.980  35.136  1.00  0.00     0.292 C 
HETATM    9  O7  UNL     1     -16.490 -19.792  36.142  1.00  0.00    -0.348 OA
HETATM   10  C10 UNL     1     -17.694 -20.403  35.930  1.00  0.00     0.179 C 
HETATM   11  C12 UNL     1     -17.531 -21.784  35.299  1.00  0.00     0.180 C 
HETATM   12  C13 UNL     1     -16.991 -21.567  33.903  1.00  0.00     0.183 C 
HETATM   13  C14 UNL     1     -16.174 -20.318  33.810  1.00  0.00     0.204 C 
BRANCH  10  14
HETATM   14  C11 UNL     1     -18.388 -20.635  37.265  1.00  0.00     0.198 C 
BRANCH  14  15
HETATM   15  O8  UNL     1     -17.430 -20.755  38.259  1.00  0.00    -0.398 OA
ATOM     16  H8  UNL     1     -17.437 -19.971  38.794  1.00  0.00     0.209 HD
ENDBRANCH  14  15
ENDBRANCH  10  14
BRANCH  11  17
HETATM   17  O9  UNL     1     -16.690 -22.569  36.081  1.00  0.00    -0.390 OA
ATOM     18  H9  UNL     1     -16.253 -22.031  36.731  1.00  0.00     0.210 HD
ENDBRANCH  11  17
BRANCH  12  19
HETATM   19  O10 UNL     1     -16.143 -22.654  33.630  1.00  0.00    -0.390 OA
ATOM     20  H10 UNL     1     -16.613 -23.436  33.896  1.00  0.00     0.210 HD
ENDBRANCH  12  19
BRANCH  13  21
HETATM   21  O11 UNL     1     -16.891 -19.218  33.349  1.00  0.00    -0.388 OA
ATOM     22  H11 UNL     1     -16.751 -19.127  32.414  1.00  0.00     0.210 HD
ENDBRANCH  13  21
ENDBRANCH   7   8
ENDBRANCH   6   7
BRANCH   1  23
HETATM   23  N1  UNL     1     -11.648 -19.366  35.957  1.00  0.00    -0.349 N 
HETATM   24  C2  UNL     1     -10.915 -18.772  34.902  1.00  0.00     0.214 C 
HETATM   25  C1  UNL     1     -10.155 -17.496  35.085  1.00  0.00     0.117 C 
HETATM   26  O1  UNL     1     -10.910 -19.343  33.782  1.00  0.00    -0.274 OA
ATOM     27  H1  UNL     1     -11.644 -18.891  36.860  1.00  0.00     0.163 HD
ENDBRANCH   1  23
BRANCH   5  28
HETATM   28  O5  UNL     1     -13.933 -22.690  37.534  1.00  0.00    -0.390 OA
ATOM     29  H5  UNL     1     -14.855 -22.915  37.489  1.00  0.00     0.210 HD
ENDBRANCH   5  28
BRANCH   2  30
HETATM   30  O2  UNL     1     -10.327 -21.648  35.946  1.00  0.00    -0.369 OA
ATOM     31  H2  UNL     1     -10.191 -22.491  35.530  1.00  0.00     0.212 HD
ENDBRANCH   2  30
BRANCH   4  32
HETATM   32  C6  UNL     1     -12.633 -21.796  39.902  1.00  0.00     0.198 C 
BRANCH  32  33
HETATM   33  O4  UNL     1     -11.838 -22.924  39.878  1.00  0.00    -0.398 OA
ATOM     34  H4  UNL     1     -11.290 -22.919  39.101  1.00  0.00     0.209 HD
ENDBRANCH  32  33
ENDBRANCH   4  32
TORSDOF 12
ENDMDL
