MODEL 8
REMARK VINA RESULT: -5.735617999      2.013      5.677
REMARK  12 active torsions:
REMARK  status: ('A' for Active; 'I' for Inactive)
REMARK       I    between atoms: C2_2  and  N1_4 
REMARK    1  A    between atoms: N1_4  and  C3_6 
REMARK    2  A    between atoms: C4_7  and  O2_8 
REMARK    3  A    between atoms: C5_11  and  C6_12 
REMARK    4  A    between atoms: C6_12  and  O4_13 
REMARK    5  A    between atoms: C7_15  and  O5_16 
REMARK    6  A    between atoms: C8_18  and  O6_19 
REMARK    7  A    between atoms: O6_19  and  C9_20 
REMARK    8  A    between atoms: C10_22  and  C11_23 
REMARK    9  A    between atoms: C11_23  and  O8_24 
REMARK   10  A    between atoms: C12_26  and  O9_27 
REMARK   11  A    between atoms: C13_29  and  O10_30 
REMARK   12  A    between atoms: C14_32  and  O11_33 
ROOT
HETATM    1  C3  UNL     1     -14.646 -21.456  37.704  1.00  0.00     0.171 C 
HETATM    2  C4  UNL     1     -13.683 -20.353  38.033  1.00  0.00     0.282 C 
HETATM    3  O3  UNL     1     -12.401 -20.591  37.609  1.00  0.00    -0.349 OA
HETATM    4  C5  UNL     1     -12.266 -21.159  36.369  1.00  0.00     0.179 C 
HETATM    5  C7  UNL     1     -13.502 -20.928  35.559  1.00  0.00     0.180 C 
HETATM    6  C8  UNL     1     -14.655 -21.651  36.217  1.00  0.00     0.183 C 
ENDROOT
BRANCH   6   7
HETATM    7  O6  UNL     1     -15.886 -21.203  35.752  1.00  0.00    -0.348 OA
BRANCH   7   8
HETATM    8  C9  UNL     1     -16.648 -22.193  35.170  1.00  0.00     0.292 C 
HETATM    9  O7  UNL     1     -16.055 -22.545  33.970  1.00  0.00    -0.348 OA
HETATM   10  C10 UNL     1     -16.640 -22.000  32.860  1.00  0.00     0.179 C 
HETATM   11  C12 UNL     1     -17.073 -20.555  33.094  1.00  0.00     0.180 C 
HETATM   12  C13 UNL     1     -18.196 -20.592  34.105  1.00  0.00     0.183 C 
HETATM   13  C14 UNL     1     -18.080 -21.766  35.024  1.00  0.00     0.204 C 
BRANCH  10  14
HETATM   14  C11 UNL     1     -15.626 -21.952  31.725  1.00  0.00     0.198 C 
BRANCH  14  15
HETATM   15  O8  UNL     1     -14.365 -21.724  32.252  1.00  0.00    -0.398 OA
ATOM     16  H8  UNL     1     -13.766 -21.513  31.546  1.00  0.00     0.209 HD
ENDBRANCH  14  15
ENDBRANCH  10  14
BRANCH  11  17
HETATM   17  O9  UNL     1     -15.990 -19.796  33.526  1.00  0.00    -0.390 OA
ATOM     18  H9  UNL     1     -15.961 -18.972  33.055  1.00  0.00     0.210 HD
ENDBRANCH  11  17
BRANCH  12  19
HETATM   19  O10 UNL     1     -18.073 -19.428  34.882  1.00  0.00    -0.390 OA
ATOM     20  H10 UNL     1     -18.728 -18.818  34.560  1.00  0.00     0.210 HD
ENDBRANCH  12  19
BRANCH  13  21
HETATM   21  O11 UNL     1     -18.841 -22.861  34.627  1.00  0.00    -0.388 OA
ATOM     22  H11 UNL     1     -18.664 -23.589  35.211  1.00  0.00     0.210 HD
ENDBRANCH  13  21
ENDBRANCH   7   8
ENDBRANCH   6   7
BRANCH   1  23
HETATM   23  N1  UNL     1     -14.273 -22.635  38.439  1.00  0.00    -0.349 N 
HETATM   24  C2  UNL     1     -15.184 -23.572  38.984  1.00  0.00     0.214 C 
HETATM   25  C1  UNL     1     -14.721 -24.779  39.739  1.00  0.00     0.117 C 
HETATM   26  O1  UNL     1     -16.414 -23.373  38.824  1.00  0.00    -0.274 OA
ATOM     27  H1  UNL     1     -13.278 -22.809  38.577  1.00  0.00     0.163 HD
ENDBRANCH   1  23
BRANCH   5  28
HETATM   28  O5  UNL     1     -13.709 -19.567  35.434  1.00  0.00    -0.390 OA
ATOM     29  H5  UNL     1     -13.697 -19.337  34.513  1.00  0.00     0.210 HD
ENDBRANCH   5  28
BRANCH   2  30
HETATM   30  O2  UNL     1     -13.636 -20.283  39.446  1.00  0.00    -0.369 OA
ATOM     31  H2  UNL     1     -13.905 -21.138  39.760  1.00  0.00     0.212 HD
ENDBRANCH   2  30
BRANCH   4  32
HETATM   32  C6  UNL     1     -11.046 -20.540  35.677  1.00  0.00     0.198 C 
BRANCH  32  33
HETATM   33  O4  UNL     1     -11.253 -20.484  34.313  1.00  0.00    -0.398 OA
ATOM     34  H4  UNL     1     -10.420 -20.503  33.856  1.00  0.00     0.209 HD
ENDBRANCH  32  33
ENDBRANCH   4  32
TORSDOF 12
ENDMDL
