MODEL 4
REMARK VINA RESULT: -9.421101239      4.047      9.442
REMARK  5 active torsions:
REMARK  status: ('A' for Active; 'I' for Inactive)
REMARK       I    between atoms: N1_2  and  C2_3 
REMARK    1  A    between atoms: N1_2  and  C16_26 
REMARK    2  A    between atoms: C2_3  and  C3_5 
REMARK    3  A    between atoms: C6_8  and  C7_9 
REMARK       I    between atoms: C7_9  and  N2_11 
REMARK    4  A    between atoms: C15_23  and  O3_24 
REMARK    5  A    between atoms: C19_29  and  N5_30 
ROOT
HETATM    1  C3  UNL     1       3.419   7.664  24.433  1.00  0.00     0.066 A 
HETATM    2  C4  UNL     1       4.469   8.575  24.304  1.00  0.00     0.036 A 
HETATM    3  C5  UNL     1       5.001   8.835  23.071  1.00  0.00     0.027 A 
HETATM    4  C6  UNL     1       6.025   9.677  22.670  1.00  0.00     0.128 A 
HETATM    5  N3  UNL     1       6.109   9.520  21.339  1.00  0.00    -0.294 N 
ATOM      6  H3  UNL     1       6.775  10.008  20.740  1.00  0.00     0.187 HD
HETATM    7  N4  UNL     1       5.220   8.655  20.915  1.00  0.00    -0.299 N 
ATOM      8  H4  UNL     1       5.094   8.374  19.942  1.00  0.00     0.187 HD
HETATM    9  C13 UNL     1       4.485   8.184  21.971  1.00  0.00     0.063 A 
HETATM   10  C14 UNL     1       3.460   7.287  22.059  1.00  0.00     0.069 A 
HETATM   11  C15 UNL     1       2.897   7.005  23.314  1.00  0.00     0.083 A 
ENDROOT
BRANCH   1  12
HETATM   12  C2  UNL     1       2.943   7.332  25.751  1.00  0.00     0.260 C 
HETATM   13  N1  UNL     1       2.151   8.156  26.575  1.00  0.00    -0.318 N 
HETATM   14  C1  UNL     1       1.449   9.342  26.138  1.00  0.00     0.159 C 
HETATM   15  O1  UNL     1       3.268   6.176  26.214  1.00  0.00    -0.267 OA
BRANCH  13  16
HETATM   16  C16 UNL     1       1.925   7.805  27.948  1.00  0.00     0.037 A 
HETATM   17  C17 UNL     1       0.752   7.230  28.322  1.00  0.00     0.032 A 
HETATM   18  C18 UNL     1       0.514   6.880  29.665  1.00  0.00     0.031 A 
HETATM   19  C19 UNL     1       1.486   7.124  30.609  1.00  0.00     0.030 A 
HETATM   20  C24 UNL     1       2.675   7.710  30.218  1.00  0.00     0.031 A 
HETATM   21  C25 UNL     1       2.890   8.051  28.876  1.00  0.00     0.032 A 
BRANCH  19  22
HETATM   22  N5  UNL     1       1.297   6.787  31.990  1.00  0.00    -0.377 N 
HETATM   23  C20 UNL     1       2.444   6.307  32.736  1.00  0.00     0.149 C 
HETATM   24  C21 UNL     1       1.949   5.808  34.077  1.00  0.00     0.187 C 
HETATM   25  O4  UNL     1       0.873   4.966  33.927  1.00  0.00    -0.388 OA
HETATM   26  C22 UNL     1      -0.233   5.543  33.356  1.00  0.00     0.187 C 
HETATM   27  C23 UNL     1       0.053   6.887  32.697  1.00  0.00     0.149 C 
ENDBRANCH  19  22
ENDBRANCH  13  16
ENDBRANCH   1  12
BRANCH  11  28
HETATM   28  O3  UNL     1       1.862   6.105  23.377  1.00  0.00    -0.360 OA
ATOM     29  H3  UNL     1       1.109   6.129  22.799  1.00  0.00     0.217 HD
ENDBRANCH  11  28
BRANCH   4  30
HETATM   30  C7  UNL     1       6.837  10.550  23.528  1.00  0.00     0.272 C 
HETATM   31  O2  UNL     1       8.024  10.204  23.844  1.00  0.00    -0.266 OA
HETATM   32  N2  UNL     1       6.363  11.772  24.029  1.00  0.00    -0.347 N 
HETATM   33  C8  UNL     1       5.031  12.216  23.710  1.00  0.00     0.126 C 
HETATM   34  C12 UNL     1       7.194  12.595  24.861  1.00  0.00     0.126 C 
HETATM   35  C9  UNL     1       4.630  13.446  24.478  1.00  0.00     0.020 C 
HETATM   36  C10 UNL     1       5.635  14.542  24.494  1.00  0.00     0.003 C 
HETATM   37  C11 UNL     1       7.044  14.066  24.540  1.00  0.00     0.020 C 
ENDBRANCH   4  30
TORSDOF 5
ENDMDL
