MODEL 1
REMARK VINA RESULT: -11.094279526      0.000      0.000
REMARK  5 active torsions:
REMARK  status: ('A' for Active; 'I' for Inactive)
REMARK       I    between atoms: N1_2  and  C2_3 
REMARK    1  A    between atoms: N1_2  and  C16_26 
REMARK    2  A    between atoms: C2_3  and  C3_5 
REMARK    3  A    between atoms: C6_8  and  C7_9 
REMARK       I    between atoms: C7_9  and  N2_11 
REMARK    4  A    between atoms: C15_23  and  O3_24 
REMARK    5  A    between atoms: C19_29  and  N5_30 
ROOT
HETATM    1  C3  UNL     1       1.412  12.787  23.855  1.00  0.00     0.066 A 
HETATM    2  C4  UNL     1       0.771  12.055  24.857  1.00  0.00     0.036 A 
HETATM    3  C5  UNL     1      -0.561  11.763  24.744  1.00  0.00     0.027 A 
HETATM    4  C6  UNL     1      -1.423  11.066  25.574  1.00  0.00     0.128 A 
HETATM    5  N3  UNL     1      -2.613  11.097  24.953  1.00  0.00    -0.294 N 
ATOM      6  H3  UNL     1      -3.465  10.667  25.312  1.00  0.00     0.187 HD
HETATM    7  N4  UNL     1      -2.530  11.754  23.821  1.00  0.00    -0.299 N 
ATOM      8  H4  UNL     1      -3.305  11.909  23.176  1.00  0.00     0.187 HD
HETATM    9  C13 UNL     1      -1.248  12.202  23.634  1.00  0.00     0.063 A 
HETATM   10  C14 UNL     1      -0.656  12.920  22.636  1.00  0.00     0.069 A 
HETATM   11  C15 UNL     1       0.711  13.232  22.729  1.00  0.00     0.083 A 
ENDROOT
BRANCH   1  12
HETATM   12  C2  UNL     1       2.787  13.169  24.044  1.00  0.00     0.260 C 
HETATM   13  N1  UNL     1       3.909  12.339  23.848  1.00  0.00    -0.318 N 
HETATM   14  C1  UNL     1       3.894  11.068  23.159  1.00  0.00     0.159 C 
HETATM   15  O1  UNL     1       3.010  14.379  24.423  1.00  0.00    -0.267 OA
BRANCH  13  16
HETATM   16  C16 UNL     1       5.210  12.765  24.278  1.00  0.00     0.037 A 
HETATM   17  C17 UNL     1       5.484  14.089  24.416  1.00  0.00     0.032 A 
HETATM   18  C18 UNL     1       6.756  14.523  24.837  1.00  0.00     0.031 A 
HETATM   19  C19 UNL     1       7.731  13.592  25.114  1.00  0.00     0.030 A 
HETATM   20  C24 UNL     1       7.441  12.248  24.970  1.00  0.00     0.031 A 
HETATM   21  C25 UNL     1       6.170  11.838  24.548  1.00  0.00     0.032 A 
BRANCH  19  22
HETATM   22  N5  UNL     1       9.042  13.979  25.548  1.00  0.00    -0.377 N 
HETATM   23  C20 UNL     1       9.742  13.101  26.464  1.00  0.00     0.149 C 
HETATM   24  C21 UNL     1      10.981  13.825  26.945  1.00  0.00     0.187 C 
HETATM   25  O4  UNL     1      10.680  15.097  27.368  1.00  0.00    -0.388 OA
HETATM   26  C22 UNL     1      10.168  15.920  26.396  1.00  0.00     0.187 C 
HETATM   27  C23 UNL     1       9.721  15.176  25.143  1.00  0.00     0.149 C 
ENDBRANCH  19  22
ENDBRANCH  13  16
ENDBRANCH   1  12
BRANCH  11  28
HETATM   28  O3  UNL     1       1.287  13.949  21.710  1.00  0.00    -0.360 OA
ATOM     29  H3  UNL     1       0.908  14.025  20.842  1.00  0.00     0.217 HD
ENDBRANCH  11  28
BRANCH   4  30
HETATM   30  C7  UNL     1      -1.093  10.432  26.858  1.00  0.00     0.272 C 
HETATM   31  O2  UNL     1      -1.406  11.011  27.952  1.00  0.00    -0.266 OA
HETATM   32  N2  UNL     1      -0.436   9.195  26.945  1.00  0.00    -0.347 N 
HETATM   33  C8  UNL     1      -0.055   8.494  25.747  1.00  0.00     0.126 C 
HETATM   34  C12 UNL     1      -0.138   8.612  28.222  1.00  0.00     0.126 C 
HETATM   35  C9  UNL     1       0.797   7.286  26.029  1.00  0.00     0.020 C 
HETATM   36  C10 UNL     1       0.299   6.393  27.108  1.00  0.00     0.003 C 
HETATM   37  C11 UNL     1      -0.358   7.116  28.231  1.00  0.00     0.020 C 
ENDBRANCH   4  30
TORSDOF 5
ENDMDL
