MODEL 2
REMARK VINA RESULT: -9.563694433      5.355      7.995
REMARK  5 active torsions:
REMARK  status: ('A' for Active; 'I' for Inactive)
REMARK       I    between atoms: N1_2  and  C2_3 
REMARK    1  A    between atoms: N1_2  and  C16_26 
REMARK    2  A    between atoms: C2_3  and  C3_5 
REMARK    3  A    between atoms: C6_8  and  C7_9 
REMARK       I    between atoms: C7_9  and  N2_11 
REMARK    4  A    between atoms: C15_23  and  O3_24 
REMARK    5  A    between atoms: C19_29  and  N5_30 
ROOT
HETATM    1  C3  UNL     1       5.156  11.015  23.489  1.00  0.00     0.066 A 
HETATM    2  C4  UNL     1       3.832  11.373  23.751  1.00  0.00     0.036 A 
HETATM    3  C5  UNL     1       3.536  12.647  24.154  1.00  0.00     0.027 A 
HETATM    4  C6  UNL     1       2.332  13.254  24.472  1.00  0.00     0.128 A 
HETATM    5  N3  UNL     1       2.650  14.517  24.799  1.00  0.00    -0.294 N 
ATOM      6  H3  UNL     1       1.977  15.228  25.085  1.00  0.00     0.187 HD
HETATM    7  N4  UNL     1       3.944  14.711  24.702  1.00  0.00    -0.299 N 
ATOM      8  H4  UNL     1       4.419  15.592  24.900  1.00  0.00     0.187 HD
HETATM    9  C13 UNL     1       4.561  13.557  24.296  1.00  0.00     0.063 A 
HETATM   10  C14 UNL     1       5.865  13.242  24.050  1.00  0.00     0.069 A 
HETATM   11  C15 UNL     1       6.194  11.942  23.634  1.00  0.00     0.083 A 
ENDROOT
BRANCH   1  12
HETATM   12  C2  UNL     1       5.455   9.645  23.164  1.00  0.00     0.260 C 
HETATM   13  N1  UNL     1       4.974   8.510  23.847  1.00  0.00    -0.318 N 
HETATM   14  C1  UNL     1       3.887   8.510  24.800  1.00  0.00     0.159 C 
HETATM   15  O1  UNL     1       6.228   9.441  22.155  1.00  0.00    -0.267 OA
BRANCH  13  16
HETATM   16  C16 UNL     1       5.516   7.211  23.566  1.00  0.00     0.037 A 
HETATM   17  C17 UNL     1       4.787   6.305  22.861  1.00  0.00     0.032 A 
HETATM   18  C18 UNL     1       5.303   5.027  22.577  1.00  0.00     0.031 A 
HETATM   19  C19 UNL     1       6.564   4.693  23.018  1.00  0.00     0.030 A 
HETATM   20  C24 UNL     1       7.297   5.622  23.733  1.00  0.00     0.031 A 
HETATM   21  C25 UNL     1       6.763   6.888  24.006  1.00  0.00     0.032 A 
BRANCH  19  22
HETATM   22  N5  UNL     1       7.139   3.407  22.755  1.00  0.00    -0.377 N 
HETATM   23  C20 UNL     1       8.473   3.360  22.191  1.00  0.00     0.149 C 
HETATM   24  C21 UNL     1       8.761   1.927  21.797  1.00  0.00     0.187 C 
HETATM   25  O4  UNL     1       7.728   1.396  21.063  1.00  0.00    -0.388 OA
HETATM   26  C22 UNL     1       6.528   1.327  21.727  1.00  0.00     0.187 C 
HETATM   27  C23 UNL     1       6.493   2.150  23.009  1.00  0.00     0.149 C 
ENDBRANCH  19  22
ENDBRANCH  13  16
ENDBRANCH   1  12
BRANCH  11  28
HETATM   28  O3  UNL     1       7.512  11.650  23.386  1.00  0.00    -0.360 OA
ATOM     29  H3  UNL     1       8.059  11.145  23.976  1.00  0.00     0.217 HD
ENDBRANCH  11  28
BRANCH   4  30
HETATM   30  C7  UNL     1       0.999  12.638  24.450  1.00  0.00     0.272 C 
HETATM   31  O2  UNL     1       0.572  12.010  25.477  1.00  0.00    -0.266 OA
HETATM   32  N2  UNL     1       0.152  12.703  23.333  1.00  0.00    -0.347 N 
HETATM   33  C8  UNL     1       0.577  13.394  22.144  1.00  0.00     0.126 C 
HETATM   34  C12 UNL     1      -1.144  12.088  23.359  1.00  0.00     0.126 C 
HETATM   35  C9  UNL     1      -0.372  13.204  20.992  1.00  0.00     0.020 C 
HETATM   36  C10 UNL     1      -1.810  13.404  21.314  1.00  0.00     0.003 C 
HETATM   37  C11 UNL     1      -2.192  12.938  22.675  1.00  0.00     0.020 C 
ENDBRANCH   4  30
TORSDOF 5
ENDMDL
