MODEL 6
REMARK VINA RESULT: -7.150280409      4.449      8.355
REMARK  11 active torsions:
REMARK  status: ('A' for Active; 'I' for Inactive)
REMARK    1  A    between atoms: C1_2  and  C2_4 
REMARK    2  A    between atoms: C2_4  and  C3_5 
REMARK    3  A    between atoms: C3_5  and  C4_6 
REMARK    4  A    between atoms: C4_6  and  N2_7 
REMARK    5  A    between atoms: C4_6  and  C11_25 
REMARK    6  A    between atoms: N2_7  and  C5_10 
REMARK    7  A    between atoms: C5_10  and  C6_11 
REMARK    8  A    between atoms: C6_11  and  O2_12 
REMARK    9  A    between atoms: C8_16  and  O4_17 
REMARK   10  A    between atoms: C9_19  and  O5_20 
REMARK   11  A    between atoms: C10_22  and  O6_23 
ROOT
HETATM    1  C6  UNL     1      43.243 -63.957  34.246  1.00  0.00     0.215 C 
HETATM    2  O3  UNL     1      41.988 -64.272  34.769  1.00  0.00    -0.349 OA
HETATM    3  C7  UNL     1      41.365 -65.220  33.985  1.00  0.00     0.206 C 
HETATM    4  C8  UNL     1      41.047 -64.596  32.645  1.00  0.00     0.173 C 
HETATM    5  C9  UNL     1      41.619 -63.213  32.540  1.00  0.00     0.183 C 
HETATM    6  C10 UNL     1      43.095 -63.211  32.942  1.00  0.00     0.213 C 
ENDROOT
BRANCH   1   7
HETATM    7  C5  UNL     1      43.956 -63.092  35.237  1.00  0.00     0.304 C 
BRANCH   7   8
HETATM    8  N2  UNL     1      45.223 -62.701  34.692  1.00  0.00    -0.056 N 
ATOM      9  H22 UNL     1      45.333 -63.012  33.727  1.00  0.00     0.278 HD
ATOM     10  H21 UNL     1      45.993 -63.223  35.109  1.00  0.00     0.278 HD
BRANCH   8  11
HETATM   11  C4  UNL     1      45.414 -61.247  34.824  1.00  0.00     0.286 C 
BRANCH  11  12
HETATM   12  C3  UNL     1      45.517 -60.984  36.297  1.00  0.00     0.053 C 
BRANCH  12  13
HETATM   13  C2  UNL     1      46.490 -59.924  36.683  1.00  0.00     0.102 C 
BRANCH  13  14
HETATM   14  C1  UNL     1      45.763 -58.673  36.974  1.00  0.00     0.231 C 
HETATM   15  N1  UNL     1      45.511 -57.715  35.978  1.00  0.00    -0.062 NA
HETATM   16  O1  UNL     1      45.361 -58.458  38.137  1.00  0.00    -0.277 OA
ENDBRANCH  13  14
ENDBRANCH  12  13
ENDBRANCH  11  12
BRANCH  11  17
HETATM   17  C11 UNL     1      46.644 -60.894  34.087  1.00  0.00     0.204 C 
HETATM   18  O7  UNL     1      47.613 -61.699  33.969  1.00  0.00    -0.646 OA
HETATM   19  O8  UNL     1      46.795 -59.639  33.480  1.00  0.00    -0.646 OA
ENDBRANCH  11  17
ENDBRANCH   8  11
ENDBRANCH   7   8
ENDBRANCH   1   7
BRANCH   1  20
HETATM   20  O2  UNL     1      44.001 -65.101  34.033  1.00  0.00    -0.362 OA
ATOM     21  H2  UNL     1      44.633 -65.180  34.737  1.00  0.00     0.213 HD
ENDBRANCH   1  20
BRANCH   6  22
HETATM   22  O6  UNL     1      43.811 -63.794  31.905  1.00  0.00    -0.387 OA
ATOM     23  H6  UNL     1      43.277 -63.955  31.135  1.00  0.00     0.210 HD
ENDBRANCH   6  22
BRANCH   5  24
HETATM   24  O5  UNL     1      40.949 -62.336  33.394  1.00  0.00    -0.390 OA
ATOM     25  H5  UNL     1      41.556 -61.928  34.001  1.00  0.00     0.210 HD
ENDBRANCH   5  24
BRANCH   4  26
HETATM   26  O4  UNL     1      39.666 -64.556  32.485  1.00  0.00    -0.391 OA
ATOM     27  H4  UNL     1      39.367 -65.407  32.186  1.00  0.00     0.210 HD
ENDBRANCH   4  26
TORSDOF 11
ENDMDL
