MODEL 1
REMARK VINA RESULT: -8.576392753      0.000      0.000
REMARK  11 active torsions:
REMARK  status: ('A' for Active; 'I' for Inactive)
REMARK    1  A    between atoms: C1_2  and  C2_4 
REMARK    2  A    between atoms: C2_4  and  C3_5 
REMARK    3  A    between atoms: C3_5  and  C4_6 
REMARK    4  A    between atoms: C4_6  and  N2_7 
REMARK    5  A    between atoms: C4_6  and  C11_25 
REMARK    6  A    between atoms: N2_7  and  C5_10 
REMARK    7  A    between atoms: C5_10  and  C6_11 
REMARK    8  A    between atoms: C6_11  and  O2_12 
REMARK    9  A    between atoms: C8_16  and  O4_17 
REMARK   10  A    between atoms: C9_19  and  O5_20 
REMARK   11  A    between atoms: C10_22  and  O6_23 
ROOT
HETATM    1  C6  UNL     1      41.346 -65.679  33.167  1.00  0.00     0.215 C 
HETATM    2  O3  UNL     1      42.620 -65.716  33.735  1.00  0.00    -0.349 OA
HETATM    3  C7  UNL     1      42.689 -64.862  34.815  1.00  0.00     0.206 C 
HETATM    4  C8  UNL     1      42.565 -63.442  34.309  1.00  0.00     0.173 C 
HETATM    5  C9  UNL     1      42.273 -63.413  32.838  1.00  0.00     0.183 C 
HETATM    6  C10 UNL     1      41.105 -64.344  32.504  1.00  0.00     0.213 C 
ENDROOT
BRANCH   1   7
HETATM    7  C5  UNL     1      41.262 -66.767  32.143  1.00  0.00     0.304 C 
BRANCH   7   8
HETATM    8  N2  UNL     1      41.996 -67.907  32.608  1.00  0.00    -0.056 N 
ATOM      9  H22 UNL     1      41.636 -68.254  33.496  1.00  0.00     0.278 HD
ATOM     10  H21 UNL     1      42.936 -67.654  32.913  1.00  0.00     0.278 HD
BRANCH   8  11
HETATM   11  C4  UNL     1      42.020 -68.960  31.579  1.00  0.00     0.286 C 
BRANCH  11  12
HETATM   12  C3  UNL     1      43.172 -69.851  31.938  1.00  0.00     0.053 C 
BRANCH  12  13
HETATM   13  C2  UNL     1      43.727 -70.651  30.811  1.00  0.00     0.102 C 
BRANCH  13  14
HETATM   14  C1  UNL     1      45.166 -70.356  30.662  1.00  0.00     0.231 C 
HETATM   15  N1  UNL     1      45.659 -69.607  29.582  1.00  0.00    -0.062 NA
HETATM   16  O1  UNL     1      45.968 -70.785  31.520  1.00  0.00    -0.277 OA
ENDBRANCH  13  14
ENDBRANCH  12  13
ENDBRANCH  11  12
BRANCH  11  17
HETATM   17  C11 UNL     1      40.718 -69.653  31.624  1.00  0.00     0.204 C 
HETATM   18  O7  UNL     1      40.105 -70.005  30.575  1.00  0.00    -0.646 OA
HETATM   19  O8  UNL     1      40.095 -69.954  32.844  1.00  0.00    -0.646 OA
ENDBRANCH  11  17
ENDBRANCH   8  11
ENDBRANCH   7   8
ENDBRANCH   1   7
BRANCH   1  20
HETATM   20  O2  UNL     1      40.363 -65.896  34.123  1.00  0.00    -0.362 OA
ATOM     21  H2  UNL     1      40.264 -66.833  34.248  1.00  0.00     0.213 HD
ENDBRANCH   1  20
BRANCH   6  22
HETATM   22  O6  UNL     1      39.942 -63.728  32.944  1.00  0.00    -0.387 OA
ATOM     23  H6  UNL     1      39.568 -63.141  32.296  1.00  0.00     0.210 HD
ENDBRANCH   6  22
BRANCH   5  24
HETATM   24  O5  UNL     1      43.380 -63.847  32.107  1.00  0.00    -0.390 OA
ATOM     25  H5  UNL     1      43.876 -63.106  31.778  1.00  0.00     0.210 HD
ENDBRANCH   5  24
BRANCH   4  26
HETATM   26  O4  UNL     1      43.750 -62.765  34.575  1.00  0.00    -0.391 OA
ATOM     27  H4  UNL     1      43.548 -61.970  35.055  1.00  0.00     0.210 HD
ENDBRANCH   4  26
TORSDOF 11
ENDMDL
