MODEL 8
REMARK VINA RESULT: -6.956906479      4.555      8.343
REMARK  11 active torsions:
REMARK  status: ('A' for Active; 'I' for Inactive)
REMARK    1  A    between atoms: C1_2  and  C2_4 
REMARK    2  A    between atoms: C2_4  and  C3_5 
REMARK    3  A    between atoms: C3_5  and  C4_6 
REMARK    4  A    between atoms: C4_6  and  N2_7 
REMARK    5  A    between atoms: C4_6  and  C11_25 
REMARK    6  A    between atoms: N2_7  and  C5_10 
REMARK    7  A    between atoms: C5_10  and  C6_11 
REMARK    8  A    between atoms: C6_11  and  O2_12 
REMARK    9  A    between atoms: C8_16  and  O4_17 
REMARK   10  A    between atoms: C9_19  and  O5_20 
REMARK   11  A    between atoms: C10_22  and  O6_23 
ROOT
HETATM    1  C6  UNL     1      43.659 -63.863  34.260  1.00  0.00     0.215 C 
HETATM    2  O3  UNL     1      42.442 -64.221  34.840  1.00  0.00    -0.349 OA
HETATM    3  C7  UNL     1      41.826 -65.206  34.096  1.00  0.00     0.206 C 
HETATM    4  C8  UNL     1      41.426 -64.615  32.763  1.00  0.00     0.173 C 
HETATM    5  C9  UNL     1      41.936 -63.213  32.615  1.00  0.00     0.183 C 
HETATM    6  C10 UNL     1      43.427 -63.144  32.953  1.00  0.00     0.213 C 
ENDROOT
BRANCH   1   7
HETATM    7  C5  UNL     1      44.377 -62.955  35.209  1.00  0.00     0.304 C 
BRANCH   7   8
HETATM    8  N2  UNL     1      44.871 -61.819  34.486  1.00  0.00    -0.056 N 
ATOM      9  H22 UNL     1      44.247 -61.017  34.568  1.00  0.00     0.278 HD
ATOM     10  H21 UNL     1      44.812 -61.956  33.478  1.00  0.00     0.278 HD
BRANCH   8  11
HETATM   11  C4  UNL     1      46.241 -61.493  34.914  1.00  0.00     0.286 C 
BRANCH  11  12
HETATM   12  C3  UNL     1      46.774 -60.547  33.879  1.00  0.00     0.053 C 
BRANCH  12  13
HETATM   13  C2  UNL     1      47.581 -59.415  34.414  1.00  0.00     0.102 C 
BRANCH  13  14
HETATM   14  C1  UNL     1      47.088 -58.147  33.840  1.00  0.00     0.231 C 
HETATM   15  N1  UNL     1      46.053 -57.415  34.444  1.00  0.00    -0.062 NA
HETATM   16  O1  UNL     1      47.604 -57.713  32.788  1.00  0.00    -0.277 OA
ENDBRANCH  13  14
ENDBRANCH  12  13
ENDBRANCH  11  12
BRANCH  11  17
HETATM   17  C11 UNL     1      46.153 -60.888  36.258  1.00  0.00     0.204 C 
HETATM   18  O7  UNL     1      45.248 -60.058  36.565  1.00  0.00    -0.646 OA
HETATM   19  O8  UNL     1      47.076 -61.208  37.264  1.00  0.00    -0.646 OA
ENDBRANCH  11  17
ENDBRANCH   8  11
ENDBRANCH   7   8
ENDBRANCH   1   7
BRANCH   1  20
HETATM   20  O2  UNL     1      44.454 -64.979  34.031  1.00  0.00    -0.362 OA
ATOM     21  H2  UNL     1      44.078 -65.718  34.492  1.00  0.00     0.213 HD
ENDBRANCH   1  20
BRANCH   6  22
HETATM   22  O6  UNL     1      44.121 -63.713  31.895  1.00  0.00    -0.387 OA
ATOM     23  H6  UNL     1      44.156 -63.149  31.131  1.00  0.00     0.210 HD
ENDBRANCH   6  22
BRANCH   5  24
HETATM   24  O5  UNL     1      41.266 -62.350  33.485  1.00  0.00    -0.390 OA
ATOM     25  H5  UNL     1      40.507 -62.778  33.864  1.00  0.00     0.210 HD
ENDBRANCH   5  24
BRANCH   4  26
HETATM   26  O4  UNL     1      40.040 -64.634  32.661  1.00  0.00    -0.391 OA
ATOM     27  H4  UNL     1      39.734 -63.756  32.468  1.00  0.00     0.210 HD
ENDBRANCH   4  26
TORSDOF 11
ENDMDL
