MODEL 3
REMARK VINA RESULT: -8.239508179      1.224      1.513
REMARK  11 active torsions:
REMARK  status: ('A' for Active; 'I' for Inactive)
REMARK    1  A    between atoms: C1_2  and  C2_4 
REMARK    2  A    between atoms: C2_4  and  C3_5 
REMARK    3  A    between atoms: C3_5  and  C4_6 
REMARK    4  A    between atoms: C4_6  and  N2_7 
REMARK    5  A    between atoms: C4_6  and  C11_25 
REMARK    6  A    between atoms: N2_7  and  C5_10 
REMARK    7  A    between atoms: C5_10  and  C6_11 
REMARK    8  A    between atoms: C6_11  and  O2_12 
REMARK    9  A    between atoms: C8_16  and  O4_17 
REMARK   10  A    between atoms: C9_19  and  O5_20 
REMARK   11  A    between atoms: C10_22  and  O6_23 
ROOT
HETATM    1  C6  UNL     1      40.893 -65.695  32.755  1.00  0.00     0.215 C 
HETATM    2  O3  UNL     1      40.836 -66.133  34.078  1.00  0.00    -0.349 OA
HETATM    3  C7  UNL     1      40.539 -65.081  34.919  1.00  0.00     0.206 C 
HETATM    4  C8  UNL     1      41.706 -64.119  34.911  1.00  0.00     0.173 C 
HETATM    5  C9  UNL     1      42.741 -64.530  33.906  1.00  0.00     0.183 C 
HETATM    6  C10 UNL     1      42.093 -64.802  32.547  1.00  0.00     0.213 C 
ENDROOT
BRANCH   1   7
HETATM    7  C5  UNL     1      41.008 -66.898  31.872  1.00  0.00     0.304 C 
BRANCH   7   8
HETATM    8  N2  UNL     1      41.929 -67.825  32.461  1.00  0.00    -0.056 N 
ATOM      9  H22 UNL     1      41.679 -68.048  33.424  1.00  0.00     0.278 HD
ATOM     10  H21 UNL     1      42.839 -67.398  32.634  1.00  0.00     0.278 HD
BRANCH   8  11
HETATM   11  C4  UNL     1      42.043 -69.036  31.631  1.00  0.00     0.286 C 
BRANCH  11  12
HETATM   12  C3  UNL     1      43.124 -69.861  32.265  1.00  0.00     0.053 C 
BRANCH  12  13
HETATM   13  C2  UNL     1      43.679 -70.944  31.405  1.00  0.00     0.102 C 
BRANCH  13  14
HETATM   14  C1  UNL     1      44.976 -70.512  30.847  1.00  0.00     0.231 C 
HETATM   15  N1  UNL     1      46.196 -70.947  31.389  1.00  0.00    -0.062 NA
HETATM   16  O1  UNL     1      44.989 -69.737  29.867  1.00  0.00    -0.277 OA
ENDBRANCH  13  14
ENDBRANCH  12  13
ENDBRANCH  11  12
BRANCH  11  17
HETATM   17  C11 UNL     1      40.727 -69.705  31.640  1.00  0.00     0.204 C 
HETATM   18  O7  UNL     1      40.126 -70.025  30.574  1.00  0.00    -0.646 OA
HETATM   19  O8  UNL     1      40.077 -70.018  32.843  1.00  0.00    -0.646 OA
ENDBRANCH  11  17
ENDBRANCH   8  11
ENDBRANCH   7   8
ENDBRANCH   1   7
BRANCH   1  20
HETATM   20  O2  UNL     1      39.743 -65.000  32.405  1.00  0.00    -0.362 OA
ATOM     21  H2  UNL     1      39.958 -64.388  31.711  1.00  0.00     0.213 HD
ENDBRANCH   1  20
BRANCH   6  22
HETATM   22  O6  UNL     1      41.760 -63.575  31.990  1.00  0.00    -0.387 OA
ATOM     23  H6  UNL     1      40.872 -63.306  32.196  1.00  0.00     0.210 HD
ENDBRANCH   6  22
BRANCH   5  24
HETATM   24  O5  UNL     1      43.382 -65.702  34.310  1.00  0.00    -0.390 OA
ATOM     25  H5  UNL     1      44.295 -65.533  34.512  1.00  0.00     0.210 HD
ENDBRANCH   5  24
BRANCH   4  26
HETATM   26  O4  UNL     1      42.263 -64.078  36.183  1.00  0.00    -0.391 OA
ATOM     27  H4  UNL     1      41.583 -64.255  36.823  1.00  0.00     0.210 HD
ENDBRANCH   4  26
TORSDOF 11
ENDMDL
