MODEL 3
REMARK VINA RESULT: -3.867870678      6.482     10.756
REMARK  3 active torsions:
REMARK  status: ('A' for Active; 'I' for Inactive)
REMARK    1  A    between atoms: C2_2  and  C4_4 
REMARK    2  A    between atoms: C7_7  and  C8_8 
REMARK    3  A    between atoms: C21_23  and  O3_24 
ROOT
HETATM    1  C4  UNL     1      17.388  20.861   9.806  1.00  0.00     0.019 C 
HETATM    2  C5  UNL     1      18.432  20.991   8.726  1.00  0.00     0.011 C 
HETATM    3  C6  UNL     1      17.973  19.958   7.673  1.00  0.00     0.022 C 
HETATM    4  C7  UNL     1      17.628  18.842   8.589  1.00  0.00     0.053 C 
HETATM    5  C9  UNL     1      16.726  17.784   7.983  1.00  0.00     0.022 C 
HETATM    6  C10 UNL     1      16.348  16.759   9.020  1.00  0.00     0.011 C 
HETATM    7  C11 UNL     1      15.893  17.338  10.331  1.00  0.00    -0.032 C 
HETATM    8  C12 UNL     1      14.457  17.760  10.050  1.00  0.00     0.016 C 
HETATM    9  C13 UNL     1      16.654  18.583  10.749  1.00  0.00     0.000 C 
HETATM   10  C14 UNL     1      16.091  19.152  11.986  1.00  0.00     0.006 C 
HETATM   11  C15 UNL     1      15.964  18.152  13.124  1.00  0.00     0.006 C 
HETATM   12  C16 UNL     1      15.288  16.890  12.684  1.00  0.00     0.003 C 
HETATM   13  C17 UNL     1      15.044  15.936  13.793  1.00  0.00    -0.035 C 
HETATM   14  C18 UNL     1      16.269  15.379  14.478  1.00  0.00     0.016 C 
HETATM   15  C19 UNL     1      14.322  16.702  14.907  1.00  0.00     0.012 C 
HETATM   16  C20 UNL     1      12.963  17.136  14.532  1.00  0.00     0.033 C 
HETATM   17  C21 UNL     1      12.127  16.001  14.052  1.00  0.00     0.126 C 
HETATM   18  C22 UNL     1      12.842  14.682  13.925  1.00  0.00    -0.017 C 
HETATM   19  C23 UNL     1      11.934  13.851  12.994  1.00  0.00     0.018 C 
HETATM   20  C24 UNL     1      12.887  13.901  15.224  1.00  0.00     0.018 C 
HETATM   21  C25 UNL     1      14.216  14.762  13.351  1.00  0.00     0.004 C 
HETATM   22  C26 UNL     1      14.064  14.750  11.831  1.00  0.00     0.007 C 
HETATM   23  C27 UNL     1      15.348  15.023  11.125  1.00  0.00     0.011 C 
HETATM   24  C28 UNL     1      15.981  16.354  11.467  1.00  0.00    -0.032 C 
HETATM   25  C29 UNL     1      17.443  16.063  11.734  1.00  0.00     0.016 C 
HETATM   26  C30 UNL     1      16.754  19.546   9.627  1.00  0.00     0.017 C 
ENDROOT
BRANCH   1  27
HETATM   27  C2  UNL     1      16.445  22.006   9.722  1.00  0.00    -0.088 C 
HETATM   28  C1  UNL     1      15.217  21.953  10.166  1.00  0.00     0.014 C 
HETATM   29  C3  UNL     1      16.881  23.267   9.067  1.00  0.00     0.043 C 
ENDBRANCH   1  27
BRANCH   4  30
HETATM   30  C8  UNL     1      18.832  18.272   9.160  1.00  0.00     0.182 C 
HETATM   31  O1  UNL     1      19.715  17.850   8.319  1.00  0.00    -0.647 OA
HETATM   32  O2  UNL     1      19.184  18.112  10.474  1.00  0.00    -0.647 OA
ENDBRANCH   4  30
BRANCH  17  33
HETATM   33  O3  UNL     1      11.012  15.767  14.890  1.00  0.00    -0.395 OA
ATOM     34  H3  UNL     1      10.340  15.253  14.458  1.00  0.00     0.210 HD
ENDBRANCH  17  33
TORSDOF 3
ENDMDL
