MODEL 6
REMARK VINA RESULT: -2.978243588      9.182     11.916
REMARK  3 active torsions:
REMARK  status: ('A' for Active; 'I' for Inactive)
REMARK    1  A    between atoms: C2_2  and  C4_4 
REMARK    2  A    between atoms: C7_7  and  C8_8 
REMARK    3  A    between atoms: C21_23  and  O3_24 
ROOT
HETATM    1  C4  UNL     1      18.853  19.134  17.985  1.00  0.00     0.019 C 
HETATM    2  C5  UNL     1      19.089  18.427  19.295  1.00  0.00     0.011 C 
HETATM    3  C6  UNL     1      19.999  17.245  18.894  1.00  0.00     0.022 C 
HETATM    4  C7  UNL     1      19.293  16.829  17.656  1.00  0.00     0.053 C 
HETATM    5  C9  UNL     1      20.117  15.968  16.718  1.00  0.00     0.022 C 
HETATM    6  C10 UNL     1      19.353  15.692  15.449  1.00  0.00     0.011 C 
HETATM    7  C11 UNL     1      18.711  16.904  14.833  1.00  0.00    -0.032 C 
HETATM    8  C12 UNL     1      19.870  17.597  14.128  1.00  0.00     0.016 C 
HETATM    9  C13 UNL     1      18.151  17.885  15.848  1.00  0.00     0.000 C 
HETATM   10  C14 UNL     1      17.629  19.091  15.182  1.00  0.00     0.006 C 
HETATM   11  C15 UNL     1      16.640  18.800  14.065  1.00  0.00     0.006 C 
HETATM   12  C16 UNL     1      17.163  17.768  13.113  1.00  0.00     0.003 C 
HETATM   13  C17 UNL     1      16.274  17.541  11.947  1.00  0.00    -0.035 C 
HETATM   14  C18 UNL     1      14.904  16.982  12.248  1.00  0.00     0.016 C 
HETATM   15  C19 UNL     1      15.980  18.908  11.321  1.00  0.00     0.012 C 
HETATM   16  C20 UNL     1      17.167  19.545  10.720  1.00  0.00     0.033 C 
HETATM   17  C21 UNL     1      17.839  18.653   9.735  1.00  0.00     0.126 C 
HETATM   18  C22 UNL     1      17.271  17.263   9.630  1.00  0.00    -0.017 C 
HETATM   19  C23 UNL     1      18.392  16.449   8.950  1.00  0.00     0.018 C 
HETATM   20  C24 UNL     1      16.093  17.171   8.680  1.00  0.00     0.018 C 
HETATM   21  C25 UNL     1      16.906  16.631  10.931  1.00  0.00     0.004 C 
HETATM   22  C26 UNL     1      18.178  15.997  11.489  1.00  0.00     0.007 C 
HETATM   23  C27 UNL     1      18.004  15.497  12.883  1.00  0.00     0.011 C 
HETATM   24  C28 UNL     1      17.597  16.556  13.883  1.00  0.00    -0.032 C 
HETATM   25  C29 UNL     1      16.457  15.959  14.681  1.00  0.00     0.016 C 
HETATM   26  C30 UNL     1      19.138  18.161  16.920  1.00  0.00     0.017 C 
ENDROOT
BRANCH   1  27
HETATM   27  C2  UNL     1      19.692  20.359  17.927  1.00  0.00    -0.088 C 
HETATM   28  C1  UNL     1      20.377  20.705  16.869  1.00  0.00     0.014 C 
HETATM   29  C3  UNL     1      19.808  21.224  19.130  1.00  0.00     0.043 C 
ENDBRANCH   1  27
BRANCH   4  30
HETATM   30  C8  UNL     1      18.022  16.216  17.985  1.00  0.00     0.182 C 
HETATM   31  O1  UNL     1      17.951  15.640  19.137  1.00  0.00    -0.647 OA
HETATM   32  O2  UNL     1      16.866  16.156  17.254  1.00  0.00    -0.647 OA
ENDBRANCH   4  30
BRANCH  17  33
HETATM   33  O3  UNL     1      17.816  19.189   8.427  1.00  0.00    -0.395 OA
ATOM     34  H3  UNL     1      18.597  19.695   8.232  1.00  0.00     0.210 HD
ENDBRANCH  17  33
TORSDOF 3
ENDMDL
