MODEL 1
REMARK VINA RESULT: -4.894818333      0.000      0.000
REMARK  3 active torsions:
REMARK  status: ('A' for Active; 'I' for Inactive)
REMARK    1  A    between atoms: C2_2  and  C4_4 
REMARK    2  A    between atoms: C7_7  and  C8_8 
REMARK    3  A    between atoms: C21_23  and  O3_24 
ROOT
HETATM    1  C4  UNL     1      10.500  23.521  10.074  1.00  0.00     0.019 C 
HETATM    2  C5  UNL     1       9.091  24.056  10.042  1.00  0.00     0.011 C 
HETATM    3  C6  UNL     1       8.881  24.395   8.549  1.00  0.00     0.022 C 
HETATM    4  C7  UNL     1      10.192  25.037   8.279  1.00  0.00     0.053 C 
HETATM    5  C9  UNL     1      10.562  25.126   6.811  1.00  0.00     0.022 C 
HETATM    6  C10 UNL     1      11.949  25.690   6.651  1.00  0.00     0.011 C 
HETATM    7  C11 UNL     1      12.981  25.070   7.551  1.00  0.00    -0.032 C 
HETATM    8  C12 UNL     1      13.306  23.753   6.858  1.00  0.00     0.016 C 
HETATM    9  C13 UNL     1      12.464  24.733   8.938  1.00  0.00     0.000 C 
HETATM   10  C14 UNL     1      13.494  24.039   9.730  1.00  0.00     0.006 C 
HETATM   11  C15 UNL     1      14.828  24.767   9.780  1.00  0.00     0.006 C 
HETATM   12  C16 UNL     1      15.293  25.173   8.415  1.00  0.00     0.003 C 
HETATM   13  C17 UNL     1      16.644  25.784   8.412  1.00  0.00    -0.035 C 
HETATM   14  C18 UNL     1      16.791  27.087   9.162  1.00  0.00     0.016 C 
HETATM   15  C19 UNL     1      17.582  24.829   9.158  1.00  0.00     0.012 C 
HETATM   16  C20 UNL     1      17.791  23.548   8.456  1.00  0.00     0.033 C 
HETATM   17  C21 UNL     1      18.256  23.749   7.056  1.00  0.00     0.126 C 
HETATM   18  C22 UNL     1      18.305  25.180   6.591  1.00  0.00    -0.017 C 
HETATM   19  C23 UNL     1      18.336  25.075   5.052  1.00  0.00     0.018 C 
HETATM   20  C24 UNL     1      19.598  25.882   6.959  1.00  0.00     0.018 C 
HETATM   21  C25 UNL     1      17.149  26.021   7.017  1.00  0.00     0.004 C 
HETATM   22  C26 UNL     1      16.037  25.798   5.994  1.00  0.00     0.007 C 
HETATM   23  C27 UNL     1      14.749  26.427   6.403  1.00  0.00     0.011 C 
HETATM   24  C28 UNL     1      14.201  25.934   7.724  1.00  0.00    -0.032 C 
HETATM   25  C29 UNL     1      13.803  27.174   8.498  1.00  0.00     0.016 C 
HETATM   26  C30 UNL     1      11.169  24.015   8.861  1.00  0.00     0.017 C 
ENDROOT
BRANCH   1  27
HETATM   27  C2  UNL     1      10.462  22.040  10.186  1.00  0.00    -0.088 C 
HETATM   28  C1  UNL     1      11.462  21.272   9.836  1.00  0.00     0.014 C 
HETATM   29  C3  UNL     1       9.227  21.373  10.674  1.00  0.00     0.043 C 
ENDBRANCH   1  27
BRANCH   4  30
HETATM   30  C8  UNL     1      10.265  26.325   8.940  1.00  0.00     0.182 C 
HETATM   31  O1  UNL     1       9.461  27.234   8.502  1.00  0.00    -0.647 OA
HETATM   32  O2  UNL     1      11.064  26.732   9.975  1.00  0.00    -0.647 OA
ENDBRANCH   4  30
BRANCH  17  33
HETATM   33  O3  UNL     1      19.549  23.219   6.841  1.00  0.00    -0.395 OA
ATOM     34  H3  UNL     1      20.223  23.729   7.276  1.00  0.00     0.210 HD
ENDBRANCH  17  33
TORSDOF 3
ENDMDL
