MODEL 2
REMARK VINA RESULT: -4.086656625      1.660      7.468
REMARK  3 active torsions:
REMARK  status: ('A' for Active; 'I' for Inactive)
REMARK    1  A    between atoms: C2_2  and  C4_4 
REMARK    2  A    between atoms: C7_7  and  C8_8 
REMARK    3  A    between atoms: C21_23  and  O3_24 
ROOT
HETATM    1  C4  UNL     1      17.473  25.868   4.709  1.00  0.00     0.019 C 
HETATM    2  C5  UNL     1      18.978  25.905   4.784  1.00  0.00     0.011 C 
HETATM    3  C6  UNL     1      19.318  24.622   5.576  1.00  0.00     0.022 C 
HETATM    4  C7  UNL     1      18.271  24.721   6.623  1.00  0.00     0.053 C 
HETATM    5  C9  UNL     1      17.983  23.423   7.353  1.00  0.00     0.022 C 
HETATM    6  C10 UNL     1      16.836  23.601   8.313  1.00  0.00     0.011 C 
HETATM    7  C11 UNL     1      15.642  24.306   7.731  1.00  0.00    -0.032 C 
HETATM    8  C12 UNL     1      14.951  23.217   6.920  1.00  0.00     0.016 C 
HETATM    9  C13 UNL     1      15.997  25.426   6.770  1.00  0.00     0.000 C 
HETATM   10  C14 UNL     1      14.785  26.003   6.163  1.00  0.00     0.006 C 
HETATM   11  C15 UNL     1      13.733  26.432   7.174  1.00  0.00     0.006 C 
HETATM   12  C16 UNL     1      13.448  25.352   8.173  1.00  0.00     0.003 C 
HETATM   13  C17 UNL     1      12.346  25.691   9.105  1.00  0.00    -0.035 C 
HETATM   14  C18 UNL     1      12.581  26.870  10.020  1.00  0.00     0.016 C 
HETATM   15  C19 UNL     1      11.144  26.123   8.258  1.00  0.00     0.012 C 
HETATM   16  C20 UNL     1      10.575  25.029   7.449  1.00  0.00     0.033 C 
HETATM   17  C21 UNL     1      10.229  23.842   8.279  1.00  0.00     0.126 C 
HETATM   18  C22 UNL     1      10.627  23.931   9.729  1.00  0.00    -0.017 C 
HETATM   19  C23 UNL     1      10.605  22.467  10.215  1.00  0.00     0.018 C 
HETATM   20  C24 UNL     1       9.598  24.642  10.587  1.00  0.00     0.018 C 
HETATM   21  C25 UNL     1      11.972  24.526   9.978  1.00  0.00     0.004 C 
HETATM   22  C26 UNL     1      12.990  23.396   9.837  1.00  0.00     0.007 C 
HETATM   23  C27 UNL     1      14.397  23.888   9.866  1.00  0.00     0.011 C 
HETATM   24  C28 UNL     1      14.736  24.887   8.783  1.00  0.00    -0.032 C 
HETATM   25  C29 UNL     1      15.471  26.017   9.475  1.00  0.00     0.016 C 
HETATM   26  C30 UNL     1      17.015  24.980   5.788  1.00  0.00     0.017 C 
ENDROOT
BRANCH   1  27
HETATM   27  C2  UNL     1      17.057  25.435   3.350  1.00  0.00    -0.088 C 
HETATM   28  C1  UNL     1      17.864  25.439   2.322  1.00  0.00     0.014 C 
HETATM   29  C3  UNL     1      15.651  25.013   3.114  1.00  0.00     0.043 C 
ENDBRANCH   1  27
BRANCH   4  30
HETATM   30  C8  UNL     1      18.574  25.805   7.536  1.00  0.00     0.182 C 
HETATM   31  O1  UNL     1      19.332  25.509   8.537  1.00  0.00    -0.647 OA
HETATM   32  O2  UNL     1      18.178  27.115   7.497  1.00  0.00    -0.647 OA
ENDBRANCH   4  30
BRANCH  17  33
HETATM   33  O3  UNL     1       8.842  23.568   8.267  1.00  0.00    -0.395 OA
ATOM     34  H3  UNL     1       8.604  22.952   7.583  1.00  0.00     0.210 HD
ENDBRANCH  17  33
TORSDOF 3
ENDMDL
