MODEL 2
REMARK VINA RESULT: -5.743698206      0.963      1.045
REMARK  4 active torsions:
REMARK  status: ('A' for Active; 'I' for Inactive)
REMARK    1  A    between atoms: C1_2  and  C2_4 
REMARK    2  A    between atoms: C2_4  and  C3_6 
REMARK    3  A    between atoms: C3_6  and  C4_7 
REMARK    4  A    between atoms: C4_7  and  C5_9 
ROOT
HETATM    1  C4  UNL     1     -33.926 -13.891   2.760  1.00  0.00     0.167 C 
HETATM    2  O4  UNL     1     -32.847 -14.345   3.230  1.00  0.00    -0.292 OA
ENDROOT
BRANCH   1   3
HETATM    3  C3  UNL     1     -34.028 -12.440   2.509  1.00  0.00     0.174 C 
BRANCH   3   4
HETATM    4  C2  UNL     1     -34.900 -11.883   3.596  1.00  0.00     0.232 C 
HETATM    5  O3  UNL     1     -35.166 -12.471   4.652  1.00  0.00    -0.285 OA
BRANCH   4   6
HETATM    6  C1  UNL     1     -35.456 -10.552   3.359  1.00  0.00     0.247 C 
HETATM    7  O1  UNL     1     -36.647 -10.368   2.989  1.00  0.00    -0.642 OA
HETATM    8  O2  UNL     1     -34.675  -9.419   3.535  1.00  0.00    -0.642 OA
ENDBRANCH   4   6
ENDBRANCH   3   4
ENDBRANCH   1   3
BRANCH   1   9
HETATM    9  C5  UNL     1     -35.036 -14.793   2.481  1.00  0.00     0.010 A 
HETATM   10  C6  UNL     1     -35.726 -14.733   1.264  1.00  0.00     0.015 A 
HETATM   11  C7  UNL     1     -36.762 -15.612   0.992  1.00  0.00     0.001 A 
HETATM   12  C8  UNL     1     -37.110 -16.555   1.940  1.00  0.00     0.000 A 
HETATM   13  C9  UNL     1     -36.452 -16.648   3.161  1.00  0.00     0.001 A 
HETATM   14  C10 UNL     1     -35.410 -15.741   3.398  1.00  0.00     0.015 A 
ENDBRANCH   1   9
TORSDOF 4
ENDMDL
