MODEL 1
REMARK VINA RESULT: -5.794958812      0.000      0.000
REMARK  4 active torsions:
REMARK  status: ('A' for Active; 'I' for Inactive)
REMARK    1  A    between atoms: C1_2  and  C2_4 
REMARK    2  A    between atoms: C2_4  and  C3_6 
REMARK    3  A    between atoms: C3_6  and  C4_7 
REMARK    4  A    between atoms: C4_7  and  C5_9 
ROOT
HETATM    1  C4  UNL     1     -33.966 -14.163   3.311  1.00  0.00     0.167 C 
HETATM    2  O4  UNL     1     -32.777 -14.535   3.109  1.00  0.00    -0.292 OA
ENDROOT
BRANCH   1   3
HETATM    3  C3  UNL     1     -34.197 -12.958   4.131  1.00  0.00     0.174 C 
BRANCH   3   4
HETATM    4  C2  UNL     1     -34.158 -11.791   3.189  1.00  0.00     0.232 C 
HETATM    5  O3  UNL     1     -33.390 -11.695   2.224  1.00  0.00    -0.285 OA
BRANCH   4   6
HETATM    6  C1  UNL     1     -35.106 -10.711   3.459  1.00  0.00     0.247 C 
HETATM    7  O1  UNL     1     -36.336 -10.917   3.648  1.00  0.00    -0.642 OA
HETATM    8  O2  UNL     1     -34.678  -9.393   3.517  1.00  0.00    -0.642 OA
ENDBRANCH   4   6
ENDBRANCH   3   4
ENDBRANCH   1   3
BRANCH   1   9
HETATM    9  C5  UNL     1     -35.073 -14.922   2.742  1.00  0.00     0.010 A 
HETATM   10  C6  UNL     1     -35.564 -14.633   1.463  1.00  0.00     0.015 A 
HETATM   11  C7  UNL     1     -36.597 -15.376   0.915  1.00  0.00     0.001 A 
HETATM   12  C8  UNL     1     -37.142 -16.413   1.649  1.00  0.00     0.000 A 
HETATM   13  C9  UNL     1     -36.684 -16.733   2.922  1.00  0.00     0.001 A 
HETATM   14  C10 UNL     1     -35.637 -15.957   3.441  1.00  0.00     0.015 A 
ENDBRANCH   1   9
TORSDOF 4
ENDMDL
