MODEL 3
REMARK VINA RESULT: -5.732892543      0.955      1.652
REMARK  4 active torsions:
REMARK  status: ('A' for Active; 'I' for Inactive)
REMARK    1  A    between atoms: C1_2  and  C2_4 
REMARK    2  A    between atoms: C2_4  and  C3_6 
REMARK    3  A    between atoms: C3_6  and  C4_7 
REMARK    4  A    between atoms: C4_7  and  C5_9 
ROOT
HETATM    1  C4  UNL     1     -33.965 -13.833   2.730  1.00  0.00     0.167 C 
HETATM    2  O4  UNL     1     -32.873 -14.236   3.217  1.00  0.00    -0.292 OA
ENDROOT
BRANCH   1   3
HETATM    3  C3  UNL     1     -34.125 -12.391   2.460  1.00  0.00     0.174 C 
BRANCH   3   4
HETATM    4  C2  UNL     1     -34.948 -11.838   3.586  1.00  0.00     0.232 C 
HETATM    5  O3  UNL     1     -35.203 -12.447   4.632  1.00  0.00    -0.285 OA
BRANCH   4   6
HETATM    6  C1  UNL     1     -35.469 -10.484   3.401  1.00  0.00     0.247 C 
HETATM    7  O1  UNL     1     -36.678 -10.250   3.135  1.00  0.00    -0.642 OA
HETATM    8  O2  UNL     1     -34.630  -9.384   3.511  1.00  0.00    -0.642 OA
ENDBRANCH   4   6
ENDBRANCH   3   4
ENDBRANCH   1   3
BRANCH   1   9
HETATM    9  C5  UNL     1     -35.034 -14.784   2.453  1.00  0.00     0.010 A 
HETATM   10  C6  UNL     1     -35.410 -15.744   3.401  1.00  0.00     0.015 A 
HETATM   11  C7  UNL     1     -36.446 -16.626   3.144  1.00  0.00     0.001 A 
HETATM   12  C8  UNL     1     -37.111 -16.550   1.934  1.00  0.00     0.000 A 
HETATM   13  C9  UNL     1     -36.770 -15.612   0.966  1.00  0.00     0.001 A 
HETATM   14  C10 UNL     1     -35.715 -14.737   1.264  1.00  0.00     0.015 A 
ENDBRANCH   1   9
TORSDOF 4
ENDMDL
