MODEL 3
REMARK VINA RESULT: -4.795552013      1.426      2.232
REMARK  0 active torsions:
REMARK  status: ('A' for Active; 'I' for Inactive)
ROOT
HETATM    1  N1  UNL     1      -7.632  20.499  -9.498  1.00  0.00    -0.099 NA
HETATM    2  C1  UNL     1      -6.445  20.059  -8.865  1.00  0.00     0.087 A 
HETATM    3  C2  UNL     1      -5.709  20.881  -8.035  1.00  0.00     0.031 A 
HETATM    4  C3  UNL     1      -4.556  20.414  -7.437  1.00  0.00     0.019 A 
HETATM    5  C4  UNL     1      -4.120  19.125  -7.655  1.00  0.00     0.089 A 
HETATM    6  N2  UNL     1      -4.855  18.343  -8.468  1.00  0.00    -0.353 N 
ATOM      7  H2  UNL     1      -4.539  17.388  -8.635  1.00  0.00     0.166 HD
HETATM    8  C5  UNL     1      -5.980  18.755  -9.070  1.00  0.00     0.140 A 
HETATM    9  N3  UNL     1      -6.754  17.936  -9.924  1.00  0.00    -0.081 NA
ENDROOT
TORSDOF 0
ENDMDL
