MODEL 18
REMARK VINA RESULT: -3.979328782      9.166     10.159
REMARK  0 active torsions:
REMARK  status: ('A' for Active; 'I' for Inactive)
ROOT
HETATM    1  N1  UNL     1      -0.767  14.968  -2.336  1.00  0.00    -0.099 NA
HETATM    2  C1  UNL     1      -0.413  13.983  -3.289  1.00  0.00     0.087 A 
HETATM    3  C2  UNL     1      -0.047  12.703  -2.920  1.00  0.00     0.031 A 
HETATM    4  C3  UNL     1       0.291  11.772  -3.880  1.00  0.00     0.019 A 
HETATM    5  C4  UNL     1       0.269  12.099  -5.219  1.00  0.00     0.089 A 
HETATM    6  N2  UNL     1      -0.090  13.351  -5.554  1.00  0.00    -0.353 N 
ATOM      7  H2  UNL     1      -0.108  13.602  -6.542  1.00  0.00     0.166 HD
HETATM    8  C5  UNL     1      -0.426  14.288  -4.654  1.00  0.00     0.140 A 
HETATM    9  N3  UNL     1      -0.805  15.605  -5.003  1.00  0.00    -0.081 NA
ENDROOT
TORSDOF 0
ENDMDL
