MODEL 17
REMARK VINA RESULT: -4.044632187      1.342      2.712
REMARK  0 active torsions:
REMARK  status: ('A' for Active; 'I' for Inactive)
ROOT
HETATM    1  N1  UNL     1      -5.736  22.674  -9.142  1.00  0.00    -0.099 NA
HETATM    2  C1  UNL     1      -5.664  21.277  -8.924  1.00  0.00     0.087 A 
HETATM    3  C2  UNL     1      -4.724  20.713  -8.085  1.00  0.00     0.031 A 
HETATM    4  C3  UNL     1      -4.687  19.346  -7.900  1.00  0.00     0.019 A 
HETATM    5  C4  UNL     1      -5.584  18.522  -8.545  1.00  0.00     0.089 A 
HETATM    6  N2  UNL     1      -6.491  19.096  -9.357  1.00  0.00    -0.353 N 
ATOM      7  H2  UNL     1      -7.158  18.493  -9.839  1.00  0.00     0.166 HD
HETATM    8  C5  UNL     1      -6.563  20.419  -9.567  1.00  0.00     0.140 A 
HETATM    9  N3  UNL     1      -7.514  21.024 -10.419  1.00  0.00    -0.081 NA
ENDROOT
TORSDOF 0
ENDMDL
