MODEL 9
REMARK VINA RESULT: -8.574815735      2.275      2.963
REMARK  0 active torsions:
REMARK  status: ('A' for Active; 'I' for Inactive)
ROOT
HETATM    1  O1  UNL     1     -17.673  -3.808  -9.011  1.00  0.00    -0.287 OA
HETATM    2  C1  UNL     1     -16.463  -3.890  -8.723  1.00  0.00     0.194 A 
HETATM    3  C2  UNL     1     -15.720  -2.770  -8.130  1.00  0.00     0.027 A 
HETATM    4  C3  UNL     1     -16.315  -1.559  -7.853  1.00  0.00     0.016 A 
HETATM    5  C4  UNL     1     -15.646  -0.490  -7.297  1.00  0.00     0.001 A 
HETATM    6  C5  UNL     1     -14.302  -0.626  -6.994  1.00  0.00     0.001 A 
HETATM    7  C6  UNL     1     -13.672  -1.834  -7.259  1.00  0.00     0.015 A 
HETATM    8  C7  UNL     1     -14.366  -2.882  -7.815  1.00  0.00     0.007 A 
HETATM    9  C8  UNL     1     -13.710  -4.163  -8.100  1.00  0.00     0.072 A 
HETATM   10  N1  UNL     1     -12.464  -4.649  -7.947  1.00  0.00    -0.299 N 
ATOM     11  H1  UNL     1     -11.673  -4.135  -7.558  1.00  0.00     0.187 HD
HETATM   12  N2  UNL     1     -12.425  -5.922  -8.391  1.00  0.00    -0.299 N 
ATOM     13  H2  UNL     1     -11.596  -6.516  -8.384  1.00  0.00     0.187 HD
HETATM   14  C9  UNL     1     -13.632  -6.297  -8.841  1.00  0.00     0.061 A 
HETATM   15  C10 UNL     1     -14.206  -7.446  -9.401  1.00  0.00     0.032 A 
HETATM   16  C11 UNL     1     -15.549  -7.419  -9.743  1.00  0.00     0.003 A 
HETATM   17  C12 UNL     1     -16.329  -6.272  -9.538  1.00  0.00     0.016 A 
HETATM   18  C13 UNL     1     -15.765  -5.136  -8.985  1.00  0.00     0.030 A 
HETATM   19  C14 UNL     1     -14.431  -5.195  -8.657  1.00  0.00     0.035 A 
ENDROOT
TORSDOF 0
ENDMDL
