MODEL 4
REMARK VINA RESULT: -8.839488702      2.409      5.397
REMARK  0 active torsions:
REMARK  status: ('A' for Active; 'I' for Inactive)
ROOT
HETATM    1  O1  UNL     1     -17.205  -3.814  -9.192  1.00  0.00    -0.287 OA
HETATM    2  C1  UNL     1     -16.035  -3.838  -8.763  1.00  0.00     0.194 A 
HETATM    3  C2  UNL     1     -15.162  -5.007  -8.931  1.00  0.00     0.027 A 
HETATM    4  C3  UNL     1     -15.581  -6.151  -9.573  1.00  0.00     0.016 A 
HETATM    5  C4  UNL     1     -14.787  -7.263  -9.747  1.00  0.00     0.001 A 
HETATM    6  C5  UNL     1     -13.493  -7.245  -9.253  1.00  0.00     0.001 A 
HETATM    7  C6  UNL     1     -13.039  -6.108  -8.600  1.00  0.00     0.015 A 
HETATM    8  C7  UNL     1     -13.855  -5.014  -8.443  1.00  0.00     0.007 A 
HETATM    9  C8  UNL     1     -13.385  -3.806  -7.755  1.00  0.00     0.072 A 
HETATM   10  N1  UNL     1     -12.234  -3.435  -7.165  1.00  0.00    -0.299 N 
ATOM     11  H1  UNL     1     -11.395  -4.011  -7.092  1.00  0.00     0.187 HD
HETATM   12  N2  UNL     1     -12.365  -2.181  -6.683  1.00  0.00    -0.299 N 
ATOM     13  H2  UNL     1     -11.634  -1.667  -6.191  1.00  0.00     0.187 HD
HETATM   14  C9  UNL     1     -13.593  -1.707  -6.942  1.00  0.00     0.061 A 
HETATM   15  C10 UNL     1     -14.306  -0.524  -6.708  1.00  0.00     0.032 A 
HETATM   16  C11 UNL     1     -15.613  -0.435  -7.160  1.00  0.00     0.003 A 
HETATM   17  C12 UNL     1     -16.222  -1.499  -7.841  1.00  0.00     0.016 A 
HETATM   18  C13 UNL     1     -15.520  -2.668  -8.073  1.00  0.00     0.030 A 
HETATM   19  C14 UNL     1     -14.226  -2.726  -7.612  1.00  0.00     0.035 A 
ENDROOT
TORSDOF 0
ENDMDL
