MODEL 3
REMARK VINA RESULT: -8.946447627      1.207      1.913
REMARK  0 active torsions:
REMARK  status: ('A' for Active; 'I' for Inactive)
ROOT
HETATM    1  O1  UNL     1     -12.768  -2.084  -7.055  1.00  0.00    -0.287 OA
HETATM    2  C1  UNL     1     -13.811  -2.546  -7.557  1.00  0.00     0.194 A 
HETATM    3  C2  UNL     1     -15.055  -1.770  -7.634  1.00  0.00     0.027 A 
HETATM    4  C3  UNL     1     -15.148  -0.481  -7.156  1.00  0.00     0.016 A 
HETATM    5  C4  UNL     1     -16.300   0.273  -7.215  1.00  0.00     0.001 A 
HETATM    6  C5  UNL     1     -17.435  -0.282  -7.781  1.00  0.00     0.001 A 
HETATM    7  C6  UNL     1     -17.376  -1.578  -8.272  1.00  0.00     0.015 A 
HETATM    8  C7  UNL     1     -16.212  -2.305  -8.200  1.00  0.00     0.007 A 
HETATM    9  C8  UNL     1     -16.138  -3.677  -8.716  1.00  0.00     0.072 A 
HETATM   10  N1  UNL     1     -17.005  -4.517  -9.312  1.00  0.00    -0.299 N 
ATOM     11  H1  UNL     1     -17.980  -4.306  -9.527  1.00  0.00     0.187 HD
HETATM   12  N2  UNL     1     -16.382  -5.684  -9.579  1.00  0.00    -0.299 N 
ATOM     13  H2  UNL     1     -16.819  -6.487 -10.029  1.00  0.00     0.187 HD
HETATM   14  C9  UNL     1     -15.105  -5.636  -9.167  1.00  0.00     0.061 A 
HETATM   15  C10 UNL     1     -13.997  -6.493  -9.164  1.00  0.00     0.032 A 
HETATM   16  C11 UNL     1     -12.807  -6.038  -8.619  1.00  0.00     0.003 A 
HETATM   17  C12 UNL     1     -12.699  -4.748  -8.080  1.00  0.00     0.016 A 
HETATM   18  C13 UNL     1     -13.792  -3.900  -8.082  1.00  0.00     0.030 A 
HETATM   19  C14 UNL     1     -14.959  -4.381  -8.629  1.00  0.00     0.035 A 
ENDROOT
TORSDOF 0
ENDMDL
