MODEL 1
REMARK VINA RESULT: -9.348177663      0.000      0.000
REMARK  0 active torsions:
REMARK  status: ('A' for Active; 'I' for Inactive)
ROOT
HETATM    1  O1  UNL     1     -11.839  -4.634  -7.673  1.00  0.00    -0.287 OA
HETATM    2  C1  UNL     1     -13.034  -4.439  -7.970  1.00  0.00     0.194 A 
HETATM    3  C2  UNL     1     -13.713  -3.167  -7.693  1.00  0.00     0.027 A 
HETATM    4  C3  UNL     1     -13.072  -2.108  -7.087  1.00  0.00     0.016 A 
HETATM    5  C4  UNL     1     -13.681  -0.903  -6.814  1.00  0.00     0.001 A 
HETATM    6  C5  UNL     1     -15.010  -0.730  -7.162  1.00  0.00     0.001 A 
HETATM    7  C6  UNL     1     -15.686  -1.777  -7.774  1.00  0.00     0.015 A 
HETATM    8  C7  UNL     1     -15.051  -2.967  -8.034  1.00  0.00     0.007 A 
HETATM    9  C8  UNL     1     -15.755  -4.080  -8.680  1.00  0.00     0.072 A 
HETATM   10  N1  UNL     1     -17.004  -4.274  -9.144  1.00  0.00    -0.299 N 
ATOM     11  H1  UNL     1     -17.759  -3.589  -9.114  1.00  0.00     0.187 HD
HETATM   12  N2  UNL     1     -17.101  -5.520  -9.653  1.00  0.00    -0.299 N 
ATOM     13  H2  UNL     1     -17.945  -5.916 -10.068  1.00  0.00     0.187 HD
HETATM   14  C9  UNL     1     -15.930  -6.166  -9.535  1.00  0.00     0.061 A 
HETATM   15  C10 UNL     1     -15.418  -7.428  -9.861  1.00  0.00     0.032 A 
HETATM   16  C11 UNL     1     -14.096  -7.708  -9.556  1.00  0.00     0.003 A 
HETATM   17  C12 UNL     1     -13.275  -6.755  -8.935  1.00  0.00     0.016 A 
HETATM   18  C13 UNL     1     -13.778  -5.508  -8.612  1.00  0.00     0.030 A 
HETATM   19  C14 UNL     1     -15.093  -5.261  -8.927  1.00  0.00     0.035 A 
ENDROOT
TORSDOF 0
ENDMDL
