MODEL 3
REMARK VINA RESULT: -6.746914724      2.017      4.436
REMARK  3 active torsions:
REMARK  status: ('A' for Active; 'I' for Inactive)
REMARK       I    between atoms: N1_2  and  C2_4 
REMARK    1  A    between atoms: C2_4  and  C3_6 
REMARK    2  A    between atoms: C8_11  and  O2_12 
REMARK    3  A    between atoms: O2_12  and  C9_13 
ROOT
HETATM    1  C3  UNL     1      20.593  -1.866  56.163  1.00  0.00     0.065 A 
HETATM    2  C4  UNL     1      20.635  -3.248  56.420  1.00  0.00     0.020 A 
HETATM    3  C5  UNL     1      20.935  -3.683  57.689  1.00  0.00     0.001 A 
HETATM    4  C6  UNL     1      21.186  -2.767  58.686  1.00  0.00     0.003 A 
HETATM    5  C7  UNL     1      21.142  -1.418  58.424  1.00  0.00     0.038 A 
HETATM    6  C8  UNL     1      20.842  -0.962  57.152  1.00  0.00     0.085 A 
ENDROOT
BRANCH   6   7
HETATM    7  O2  UNL     1      20.810   0.359  56.936  1.00  0.00    -0.345 OA
BRANCH   7   8
HETATM    8  C9  UNL     1      21.784   1.333  56.968  1.00  0.00     0.133 C 
HETATM    9  C10 UNL     1      22.214   1.814  55.591  1.00  0.00     0.058 C 
HETATM   10  C11 UNL     1      23.136   2.996  55.789  1.00  0.00     0.170 C 
HETATM   11  O3  UNL     1      22.402   4.061  56.355  1.00  0.00    -0.391 OA
HETATM   12  C12 UNL     1      22.116   3.703  57.669  1.00  0.00     0.170 C 
HETATM   13  C13 UNL     1      21.148   2.559  57.644  1.00  0.00     0.058 C 
ENDBRANCH   7   8
ENDBRANCH   6   7
BRANCH   1  14
HETATM   14  C2  UNL     1      20.270  -1.512  54.799  1.00  0.00     0.254 C 
HETATM   15  N1  UNL     1      19.530  -0.387  54.369  1.00  0.00    -0.361 N 
HETATM   16  C1  UNL     1      19.277  -0.152  52.928  1.00  0.00     0.149 C 
ATOM     17  H1  UNL     1      19.166   0.271  55.058  1.00  0.00     0.162 HD
HETATM   18  O1  UNL     1      20.673  -2.262  53.824  1.00  0.00    -0.268 OA
ENDBRANCH   1  14
TORSDOF 3
ENDMDL
