MODEL 4
REMARK VINA RESULT: -6.740557119      1.948      4.675
REMARK  3 active torsions:
REMARK  status: ('A' for Active; 'I' for Inactive)
REMARK       I    between atoms: N1_2  and  C2_4 
REMARK    1  A    between atoms: C2_4  and  C3_6 
REMARK    2  A    between atoms: C8_11  and  O2_12 
REMARK    3  A    between atoms: O2_12  and  C9_13 
ROOT
HETATM    1  C3  UNL     1      20.734   0.627  55.851  1.00  0.00     0.065 A 
HETATM    2  C4  UNL     1      20.205  -0.459  56.570  1.00  0.00     0.020 A 
HETATM    3  C5  UNL     1      20.456  -0.555  57.918  1.00  0.00     0.001 A 
HETATM    4  C6  UNL     1      21.215   0.408  58.544  1.00  0.00     0.003 A 
HETATM    5  C7  UNL     1      21.728   1.467  57.832  1.00  0.00     0.038 A 
HETATM    6  C8  UNL     1      21.485   1.579  56.474  1.00  0.00     0.085 A 
ENDROOT
BRANCH   6   7
HETATM    7  O2  UNL     1      22.003   2.624  55.815  1.00  0.00    -0.345 OA
BRANCH   7   8
HETATM    8  C9  UNL     1      21.719   3.972  55.835  1.00  0.00     0.133 C 
HETATM    9  C10 UNL     1      20.339   4.315  55.297  1.00  0.00     0.058 C 
HETATM   10  C11 UNL     1      20.103   5.787  55.553  1.00  0.00     0.170 C 
HETATM   11  O3  UNL     1      20.037   6.006  56.947  1.00  0.00    -0.391 OA
HETATM   12  C12 UNL     1      21.326   5.836  57.444  1.00  0.00     0.170 C 
HETATM   13  C13 UNL     1      21.692   4.388  57.315  1.00  0.00     0.058 C 
ENDBRANCH   7   8
ENDBRANCH   6   7
BRANCH   1  14
HETATM   14  C2  UNL     1      20.415   0.636  54.442  1.00  0.00     0.254 C 
HETATM   15  N1  UNL     1      21.329   0.571  53.365  1.00  0.00    -0.361 N 
HETATM   16  C1  UNL     1      20.853   0.589  51.964  1.00  0.00     0.149 C 
ATOM     17  H1  UNL     1      22.330   0.510  53.556  1.00  0.00     0.162 HD
HETATM   18  O1  UNL     1      19.180   0.709  54.059  1.00  0.00    -0.268 OA
ENDBRANCH   1  14
TORSDOF 3
ENDMDL
