MODEL 5
REMARK VINA RESULT: -6.709377469      2.204      4.841
REMARK  3 active torsions:
REMARK  status: ('A' for Active; 'I' for Inactive)
REMARK       I    between atoms: N1_2  and  C2_4 
REMARK    1  A    between atoms: C2_4  and  C3_6 
REMARK    2  A    between atoms: C8_11  and  O2_12 
REMARK    3  A    between atoms: O2_12  and  C9_13 
ROOT
HETATM    1  C3  UNL     1      20.876   0.635  55.814  1.00  0.00     0.065 A 
HETATM    2  C4  UNL     1      20.748  -0.654  56.361  1.00  0.00     0.020 A 
HETATM    3  C5  UNL     1      21.003  -0.842  57.699  1.00  0.00     0.001 A 
HETATM    4  C6  UNL     1      21.376   0.227  58.482  1.00  0.00     0.003 A 
HETATM    5  C7  UNL     1      21.498   1.484  57.937  1.00  0.00     0.038 A 
HETATM    6  C8  UNL     1      21.245   1.691  56.592  1.00  0.00     0.085 A 
ENDROOT
BRANCH   6   7
HETATM    7  O2  UNL     1      21.376   2.929  56.100  1.00  0.00    -0.345 OA
BRANCH   7   8
HETATM    8  C9  UNL     1      20.791   4.132  56.433  1.00  0.00     0.133 C 
HETATM    9  C10 UNL     1      21.722   5.082  57.170  1.00  0.00     0.058 C 
HETATM   10  C11 UNL     1      21.009   6.409  57.300  1.00  0.00     0.170 C 
HETATM   11  O3  UNL     1      20.835   6.965  56.014  1.00  0.00    -0.391 OA
HETATM   12  C12 UNL     1      19.877   6.192  55.365  1.00  0.00     0.170 C 
HETATM   13  C13 UNL     1      20.463   4.836  55.106  1.00  0.00     0.058 C 
ENDBRANCH   7   8
ENDBRANCH   6   7
BRANCH   1  14
HETATM   14  C2  UNL     1      20.587   0.727  54.402  1.00  0.00     0.254 C 
HETATM   15  N1  UNL     1      19.491   1.389  53.802  1.00  0.00    -0.361 N 
HETATM   16  C1  UNL     1      19.323   1.399  52.331  1.00  0.00     0.149 C 
ATOM     17  H1  UNL     1      18.806   1.865  54.390  1.00  0.00     0.162 HD
HETATM   18  O1  UNL     1      21.377   0.167  53.542  1.00  0.00    -0.268 OA
ENDBRANCH   1  14
TORSDOF 3
ENDMDL
