MODEL 9
REMARK VINA RESULT: -6.422566861      0.636      1.302
REMARK  3 active torsions:
REMARK  status: ('A' for Active; 'I' for Inactive)
REMARK       I    between atoms: N1_2  and  C2_4 
REMARK    1  A    between atoms: C2_4  and  C3_6 
REMARK    2  A    between atoms: C8_11  and  O2_12 
REMARK    3  A    between atoms: O2_12  and  C9_13 
ROOT
HETATM    1  C3  UNL     1      20.984   0.012  57.458  1.00  0.00     0.065 A 
HETATM    2  C4  UNL     1      21.385  -0.945  58.407  1.00  0.00     0.020 A 
HETATM    3  C5  UNL     1      20.986  -2.251  58.249  1.00  0.00     0.001 A 
HETATM    4  C6  UNL     1      20.207  -2.604  57.169  1.00  0.00     0.003 A 
HETATM    5  C7  UNL     1      19.821  -1.660  56.247  1.00  0.00     0.038 A 
HETATM    6  C8  UNL     1      20.213  -0.340  56.391  1.00  0.00     0.085 A 
ENDROOT
BRANCH   6   7
HETATM    7  O2  UNL     1      19.816   0.549  55.472  1.00  0.00    -0.345 OA
BRANCH   7   8
HETATM    8  C9  UNL     1      20.230   0.806  54.183  1.00  0.00     0.133 C 
HETATM    9  C10 UNL     1      21.271  -0.175  53.667  1.00  0.00     0.058 C 
HETATM   10  C11 UNL     1      21.484   0.118  52.199  1.00  0.00     0.170 C 
HETATM   11  O3  UNL     1      20.296  -0.178  51.494  1.00  0.00    -0.391 OA
HETATM   12  C12 UNL     1      19.365   0.795  51.844  1.00  0.00     0.170 C 
HETATM   13  C13 UNL     1      19.000   0.600  53.284  1.00  0.00     0.058 C 
ENDBRANCH   7   8
ENDBRANCH   6   7
BRANCH   1  14
HETATM   14  C2  UNL     1      21.454   1.354  57.714  1.00  0.00     0.254 C 
HETATM   15  N1  UNL     1      21.648   2.381  56.761  1.00  0.00    -0.361 N 
HETATM   16  C1  UNL     1      22.138   3.716  57.173  1.00  0.00     0.149 C 
ATOM     17  H1  UNL     1      21.448   2.200  55.777  1.00  0.00     0.162 HD
HETATM   18  O1  UNL     1      21.745   1.718  58.922  1.00  0.00    -0.268 OA
ENDBRANCH   1  14
TORSDOF 3
ENDMDL
