MODEL 8
REMARK VINA RESULT: -6.617612201      1.084      1.552
REMARK  3 active torsions:
REMARK  status: ('A' for Active; 'I' for Inactive)
REMARK       I    between atoms: N1_2  and  C2_4 
REMARK    1  A    between atoms: C2_4  and  C3_6 
REMARK    2  A    between atoms: C8_11  and  O2_12 
REMARK    3  A    between atoms: O2_12  and  C9_13 
ROOT
HETATM    1  C3  UNL     1      21.288   1.175  57.481  1.00  0.00     0.065 A 
HETATM    2  C4  UNL     1      20.879   0.625  58.708  1.00  0.00     0.020 A 
HETATM    3  C5  UNL     1      20.563  -0.712  58.770  1.00  0.00     0.001 A 
HETATM    4  C6  UNL     1      20.655  -1.491  57.638  1.00  0.00     0.003 A 
HETATM    5  C7  UNL     1      21.057  -0.942  56.442  1.00  0.00     0.038 A 
HETATM    6  C8  UNL     1      21.377   0.402  56.363  1.00  0.00     0.085 A 
ENDROOT
BRANCH   6   7
HETATM    7  O2  UNL     1      21.763   0.899  55.181  1.00  0.00    -0.345 OA
BRANCH   7   8
HETATM    8  C9  UNL     1      21.113   1.051  53.975  1.00  0.00     0.133 C 
HETATM    9  C10 UNL     1      21.430  -0.042  52.966  1.00  0.00     0.058 C 
HETATM   10  C11 UNL     1      20.513   0.153  51.780  1.00  0.00     0.170 C 
HETATM   11  O3  UNL     1      19.181  -0.076  52.187  1.00  0.00    -0.391 OA
HETATM   12  C12 UNL     1      18.817   0.991  53.003  1.00  0.00     0.170 C 
HETATM   13  C13 UNL     1      19.612   0.904  54.271  1.00  0.00     0.058 C 
ENDBRANCH   7   8
ENDBRANCH   6   7
BRANCH   1  14
HETATM   14  C2  UNL     1      21.595   2.586  57.522  1.00  0.00     0.254 C 
HETATM   15  N1  UNL     1      21.384   3.530  56.489  1.00  0.00    -0.361 N 
HETATM   16  C1  UNL     1      21.750   4.952  56.676  1.00  0.00     0.149 C 
ATOM     17  H1  UNL     1      20.974   3.226  55.606  1.00  0.00     0.162 HD
HETATM   18  O1  UNL     1      22.119   3.104  58.586  1.00  0.00    -0.268 OA
ENDBRANCH   1  14
TORSDOF 3
ENDMDL
