MODEL 13
REMARK VINA RESULT: -6.135089966      1.442      1.600
REMARK  3 active torsions:
REMARK  status: ('A' for Active; 'I' for Inactive)
REMARK       I    between atoms: N1_2  and  C2_4 
REMARK    1  A    between atoms: C2_4  and  C3_6 
REMARK    2  A    between atoms: C8_11  and  O2_12 
REMARK    3  A    between atoms: O2_12  and  C9_13 
ROOT
HETATM    1  C3  UNL     1      21.144   0.097  56.135  1.00  0.00     0.065 A 
HETATM    2  C4  UNL     1      21.001  -0.171  57.508  1.00  0.00     0.020 A 
HETATM    3  C5  UNL     1      20.423  -1.355  57.902  1.00  0.00     0.001 A 
HETATM    4  C6  UNL     1      19.998  -2.258  56.954  1.00  0.00     0.003 A 
HETATM    5  C7  UNL     1      20.143  -1.986  55.614  1.00  0.00     0.038 A 
HETATM    6  C8  UNL     1      20.722  -0.799  55.200  1.00  0.00     0.085 A 
ENDROOT
BRANCH   6   7
HETATM    7  O2  UNL     1      20.844  -0.571  53.886  1.00  0.00    -0.345 OA
BRANCH   7   8
HETATM    8  C9  UNL     1      19.931  -0.246  52.906  1.00  0.00     0.133 C 
HETATM    9  C10 UNL     1      18.910   0.793  53.341  1.00  0.00     0.058 C 
HETATM   10  C11 UNL     1      18.105   1.178  52.121  1.00  0.00     0.170 C 
HETATM   11  O3  UNL     1      18.951   1.834  51.200  1.00  0.00    -0.391 OA
HETATM   12  C12 UNL     1      19.808   0.869  50.680  1.00  0.00     0.170 C 
HETATM   13  C13 UNL     1      20.729   0.420  51.774  1.00  0.00     0.058 C 
ENDBRANCH   7   8
ENDBRANCH   6   7
BRANCH   1  14
HETATM   14  C2  UNL     1      21.761   1.366  55.826  1.00  0.00     0.254 C 
HETATM   15  N1  UNL     1      21.587   2.585  56.523  1.00  0.00    -0.361 N 
HETATM   16  C1  UNL     1      22.290   3.814  56.087  1.00  0.00     0.149 C 
ATOM     17  H1  UNL     1      20.970   2.618  57.335  1.00  0.00     0.162 HD
HETATM   18  O1  UNL     1      22.569   1.465  54.820  1.00  0.00    -0.268 OA
ENDBRANCH   1  14
TORSDOF 3
ENDMDL
