MODEL 1
REMARK VINA RESULT: -6.948238107      0.000      0.000
REMARK  3 active torsions:
REMARK  status: ('A' for Active; 'I' for Inactive)
REMARK       I    between atoms: N1_2  and  C2_4 
REMARK    1  A    between atoms: C2_4  and  C3_6 
REMARK    2  A    between atoms: C8_11  and  O2_12 
REMARK    3  A    between atoms: O2_12  and  C9_13 
ROOT
HETATM    1  C3  UNL     1      21.138   0.403  57.336  1.00  0.00     0.065 A 
HETATM    2  C4  UNL     1      21.516  -0.306  58.490  1.00  0.00     0.020 A 
HETATM    3  C5  UNL     1      21.177  -1.634  58.599  1.00  0.00     0.001 A 
HETATM    4  C6  UNL     1      20.479  -2.250  57.585  1.00  0.00     0.003 A 
HETATM    5  C7  UNL     1      20.113  -1.546  56.461  1.00  0.00     0.038 A 
HETATM    6  C8  UNL     1      20.446  -0.208  56.334  1.00  0.00     0.085 A 
ENDROOT
BRANCH   6   7
HETATM    7  O2  UNL     1      20.072   0.442  55.225  1.00  0.00    -0.345 OA
BRANCH   7   8
HETATM    8  C9  UNL     1      20.022   0.072  53.898  1.00  0.00     0.133 C 
HETATM    9  C10 UNL     1      19.162   0.985  53.040  1.00  0.00     0.058 C 
HETATM   10  C11 UNL     1      19.354   0.569  51.599  1.00  0.00     0.170 C 
HETATM   11  O3  UNL     1      20.689   0.831  51.219  1.00  0.00    -0.391 OA
HETATM   12  C12 UNL     1      21.488  -0.091  51.888  1.00  0.00     0.170 C 
HETATM   13  C13 UNL     1      21.450   0.230  53.351  1.00  0.00     0.058 C 
ENDBRANCH   7   8
ENDBRANCH   6   7
BRANCH   1  14
HETATM   14  C2  UNL     1      21.540   1.791  57.318  1.00  0.00     0.254 C 
HETATM   15  N1  UNL     1      21.667   2.621  56.181  1.00  0.00    -0.361 N 
HETATM   16  C1  UNL     1      22.092   4.033  56.317  1.00  0.00     0.149 C 
ATOM     17  H1  UNL     1      21.464   2.244  55.255  1.00  0.00     0.162 HD
HETATM   18  O1  UNL     1      21.827   2.396  58.426  1.00  0.00    -0.268 OA
ENDBRANCH   1  14
TORSDOF 3
ENDMDL
