MODEL 20
REMARK VINA RESULT: -5.997720518      3.094      5.766
REMARK  2 active torsions:
REMARK  status: ('A' for Active; 'I' for Inactive)
REMARK    1  A    between atoms: N2_5  and  C3_6 
REMARK    2  A    between atoms: C9_14  and  C10_15 
ROOT
HETATM    1  C1  UNL     1     -10.055  18.135  75.365  1.00  0.00     0.072 C 
HETATM    2  C2  UNL     1      -9.799  18.566  76.779  1.00  0.00     0.057 A 
HETATM    3  N1  UNL     1     -10.202  17.911  77.876  1.00  0.00    -0.281 N 
ATOM      4  H1  UNL     1     -10.731  17.039  77.884  1.00  0.00     0.189 HD
HETATM    5  N2  UNL     1      -9.804  18.574  78.941  1.00  0.00    -0.196 N 
HETATM    6  N3  UNL     1      -9.159  19.631  78.533  1.00  0.00    -0.273 N 
ATOM      7  H3  UNL     1      -8.739  20.325  79.150  1.00  0.00     0.189 HD
HETATM    8  C9  UNL     1      -9.121  19.683  77.195  1.00  0.00     0.138 A 
ENDROOT
BRANCH   5   9
HETATM    9  C3  UNL     1     -10.060  18.164  80.304  1.00  0.00     0.074 A 
HETATM   10  C4  UNL     1     -10.818  18.939  81.127  1.00  0.00     0.033 A 
HETATM   11  C5  UNL     1     -11.039  18.507  82.430  1.00  0.00     0.002 A 
HETATM   12  C6  UNL     1     -10.497  17.316  82.876  1.00  0.00     0.000 A 
HETATM   13  C7  UNL     1      -9.722  16.513  82.051  1.00  0.00     0.002 A 
HETATM   14  C8  UNL     1      -9.531  16.991  80.757  1.00  0.00     0.033 A 
ENDBRANCH   5   9
BRANCH   8  15
HETATM   15  C10 UNL     1      -8.505  20.690  76.330  1.00  0.00     0.284 C 
HETATM   16  N4  UNL     1      -7.337  20.413  75.569  1.00  0.00    -0.056 NA
HETATM   17  O1  UNL     1      -9.007  21.834  76.247  1.00  0.00    -0.269 OA
ENDBRANCH   8  15
TORSDOF 2
ENDMDL
