MODEL 3
REMARK VINA RESULT: -6.951182150      1.257      1.815
REMARK  2 active torsions:
REMARK  status: ('A' for Active; 'I' for Inactive)
REMARK    1  A    between atoms: N2_5  and  C3_6 
REMARK    2  A    between atoms: C9_14  and  C10_15 
ROOT
HETATM    1  C1  UNL     1      -8.392  14.834  81.706  1.00  0.00     0.072 C 
HETATM    2  C2  UNL     1      -8.728  16.141  81.051  1.00  0.00     0.057 A 
HETATM    3  N1  UNL     1      -9.162  16.292  79.793  1.00  0.00    -0.281 N 
ATOM      4  H1  UNL     1      -9.319  15.536  79.126  1.00  0.00     0.189 HD
HETATM    5  N2  UNL     1      -9.355  17.572  79.556  1.00  0.00    -0.196 N 
HETATM    6  N3  UNL     1      -9.050  18.227  80.641  1.00  0.00    -0.273 N 
ATOM      7  H3  UNL     1      -9.108  19.240  80.740  1.00  0.00     0.189 HD
HETATM    8  C9  UNL     1      -8.652  17.391  81.610  1.00  0.00     0.138 A 
ENDROOT
BRANCH   5   9
HETATM    9  C3  UNL     1      -9.824  18.111  78.298  1.00  0.00     0.074 A 
HETATM   10  C4  UNL     1     -10.278  17.282  77.319  1.00  0.00     0.033 A 
HETATM   11  C5  UNL     1     -10.720  17.842  76.126  1.00  0.00     0.002 A 
HETATM   12  C6  UNL     1     -10.696  19.212  75.942  1.00  0.00     0.000 A 
HETATM   13  C7  UNL     1     -10.236  20.073  76.930  1.00  0.00     0.002 A 
HETATM   14  C8  UNL     1      -9.805  19.461  78.104  1.00  0.00     0.033 A 
ENDBRANCH   5   9
BRANCH   8  15
HETATM   15  C10 UNL     1      -8.223  17.702  82.974  1.00  0.00     0.284 C 
HETATM   16  N4  UNL     1      -6.921  18.198  83.256  1.00  0.00    -0.056 NA
HETATM   17  O1  UNL     1      -9.011  17.532  83.931  1.00  0.00    -0.269 OA
ENDBRANCH   8  15
TORSDOF 2
ENDMDL
