MODEL 14
REMARK VINA RESULT: -6.106751814      3.122      5.891
REMARK  2 active torsions:
REMARK  status: ('A' for Active; 'I' for Inactive)
REMARK    1  A    between atoms: N2_5  and  C3_6 
REMARK    2  A    between atoms: C9_14  and  C10_15 
ROOT
HETATM    1  C1  UNL     1     -10.421  18.051  75.338  1.00  0.00     0.072 C 
HETATM    2  C2  UNL     1      -9.866  18.279  76.713  1.00  0.00     0.057 A 
HETATM    3  N1  UNL     1      -9.877  17.389  77.714  1.00  0.00    -0.281 N 
ATOM      4  H1  UNL     1     -10.264  16.446  77.664  1.00  0.00     0.189 HD
HETATM    5  N2  UNL     1      -9.309  17.926  78.773  1.00  0.00    -0.196 N 
HETATM    6  N3  UNL     1      -8.941  19.136  78.454  1.00  0.00    -0.273 N 
ATOM      7  H3  UNL     1      -8.472  19.783  79.088  1.00  0.00     0.189 HD
HETATM    8  C9  UNL     1      -9.260  19.416  77.184  1.00  0.00     0.138 A 
ENDROOT
BRANCH   5   9
HETATM    9  C3  UNL     1      -9.143  17.255  80.043  1.00  0.00     0.074 A 
HETATM   10  C4  UNL     1      -7.921  16.791  80.423  1.00  0.00     0.033 A 
HETATM   11  C5  UNL     1      -7.806  16.152  81.652  1.00  0.00     0.002 A 
HETATM   12  C6  UNL     1      -8.912  15.994  82.467  1.00  0.00     0.000 A 
HETATM   13  C7  UNL     1     -10.165  16.461  82.096  1.00  0.00     0.002 A 
HETATM   14  C8  UNL     1     -10.225  17.093  80.856  1.00  0.00     0.033 A 
ENDBRANCH   5   9
BRANCH   8  15
HETATM   15  C10 UNL     1      -9.032  20.648  76.428  1.00  0.00     0.284 C 
HETATM   16  N4  UNL     1      -8.055  20.726  75.399  1.00  0.00    -0.056 NA
HETATM   17  O1  UNL     1      -9.706  21.672  76.682  1.00  0.00    -0.269 OA
ENDBRANCH   8  15
TORSDOF 2
ENDMDL
