MODEL 15
REMARK VINA RESULT: -6.096819391      3.115      5.895
REMARK  2 active torsions:
REMARK  status: ('A' for Active; 'I' for Inactive)
REMARK    1  A    between atoms: N2_5  and  C3_6 
REMARK    2  A    between atoms: C9_14  and  C10_15 
ROOT
HETATM    1  C1  UNL     1     -10.399  18.037  75.367  1.00  0.00     0.072 C 
HETATM    2  C2  UNL     1      -9.859  18.277  76.746  1.00  0.00     0.057 A 
HETATM    3  N1  UNL     1      -9.874  17.393  77.752  1.00  0.00    -0.281 N 
ATOM      4  H1  UNL     1     -10.253  16.447  77.703  1.00  0.00     0.189 HD
HETATM    5  N2  UNL     1      -9.320  17.941  78.813  1.00  0.00    -0.196 N 
HETATM    6  N3  UNL     1      -8.957  19.151  78.490  1.00  0.00    -0.273 N 
ATOM      7  H3  UNL     1      -8.500  19.805  79.125  1.00  0.00     0.189 HD
HETATM    8  C9  UNL     1      -9.267  19.421  77.215  1.00  0.00     0.138 A 
ENDROOT
BRANCH   5   9
HETATM    9  C3  UNL     1      -9.161  17.279  80.089  1.00  0.00     0.074 A 
HETATM   10  C4  UNL     1      -9.665  17.838  81.223  1.00  0.00     0.033 A 
HETATM   11  C5  UNL     1      -9.491  17.169  82.428  1.00  0.00     0.002 A 
HETATM   12  C6  UNL     1      -8.819  15.961  82.469  1.00  0.00     0.000 A 
HETATM   13  C7  UNL     1      -8.299  15.376  81.323  1.00  0.00     0.002 A 
HETATM   14  C8  UNL     1      -8.501  16.088  80.143  1.00  0.00     0.033 A 
ENDBRANCH   5   9
BRANCH   8  15
HETATM   15  C10 UNL     1      -9.040  20.650  76.454  1.00  0.00     0.284 C 
HETATM   16  N4  UNL     1      -8.080  20.719  75.408  1.00  0.00    -0.056 NA
HETATM   17  O1  UNL     1      -9.700  21.680  76.718  1.00  0.00    -0.269 OA
ENDBRANCH   8  15
TORSDOF 2
ENDMDL
