MODEL 18
REMARK VINA RESULT: -6.067262682      3.121      5.693
REMARK  2 active torsions:
REMARK  status: ('A' for Active; 'I' for Inactive)
REMARK    1  A    between atoms: N2_5  and  C3_6 
REMARK    2  A    between atoms: C9_14  and  C10_15 
ROOT
HETATM    1  C1  UNL     1     -10.077  18.123  75.316  1.00  0.00     0.072 C 
HETATM    2  C2  UNL     1      -9.801  18.537  76.731  1.00  0.00     0.057 A 
HETATM    3  N1  UNL     1     -10.210  17.885  77.827  1.00  0.00    -0.281 N 
ATOM      4  H1  UNL     1     -10.759  17.025  77.833  1.00  0.00     0.189 HD
HETATM    5  N2  UNL     1      -9.790  18.531  78.894  1.00  0.00    -0.196 N 
HETATM    6  N3  UNL     1      -9.124  19.575  78.488  1.00  0.00    -0.273 N 
ATOM      7  H3  UNL     1      -8.683  20.256  79.107  1.00  0.00     0.189 HD
HETATM    8  C9  UNL     1      -9.095  19.636  77.150  1.00  0.00     0.138 A 
ENDROOT
BRANCH   5   9
HETATM    9  C3  UNL     1     -10.045  18.117  80.256  1.00  0.00     0.074 A 
HETATM   10  C4  UNL     1      -9.611  16.905  80.701  1.00  0.00     0.033 A 
HETATM   11  C5  UNL     1      -9.877  16.547  82.017  1.00  0.00     0.002 A 
HETATM   12  C6  UNL     1     -10.568  17.405  82.852  1.00  0.00     0.000 A 
HETATM   13  C7  UNL     1     -11.017  18.644  82.416  1.00  0.00     0.002 A 
HETATM   14  C8  UNL     1     -10.725  18.953  81.090  1.00  0.00     0.033 A 
ENDBRANCH   5   9
BRANCH   8  15
HETATM   15  C10 UNL     1      -8.462  20.635  76.288  1.00  0.00     0.284 C 
HETATM   16  N4  UNL     1      -7.216  20.393  75.649  1.00  0.00    -0.056 NA
HETATM   17  O1  UNL     1      -9.019  21.739  76.097  1.00  0.00    -0.269 OA
ENDBRANCH   8  15
TORSDOF 2
ENDMDL
