MODEL 2
REMARK VINA RESULT: -6.958537389      0.398      1.264
REMARK  2 active torsions:
REMARK  status: ('A' for Active; 'I' for Inactive)
REMARK    1  A    between atoms: N2_5  and  C3_6 
REMARK    2  A    between atoms: C9_14  and  C10_15 
ROOT
HETATM    1  C1  UNL     1     -10.554  18.435  83.318  1.00  0.00     0.072 C 
HETATM    2  C2  UNL     1      -9.957  18.293  81.949  1.00  0.00     0.057 A 
HETATM    3  N1  UNL     1     -10.553  18.637  80.801  1.00  0.00    -0.281 N 
ATOM      4  H1  UNL     1     -11.486  19.040  80.715  1.00  0.00     0.189 HD
HETATM    5  N2  UNL     1      -9.741  18.373  79.799  1.00  0.00    -0.196 N 
HETATM    6  N3  UNL     1      -8.646  17.870  80.298  1.00  0.00    -0.273 N 
ATOM      7  H3  UNL     1      -7.842  17.574  79.745  1.00  0.00     0.189 HD
HETATM    8  C9  UNL     1      -8.719  17.793  81.634  1.00  0.00     0.138 A 
ENDROOT
BRANCH   5   9
HETATM    9  C3  UNL     1     -10.050  18.616  78.407  1.00  0.00     0.074 A 
HETATM   10  C4  UNL     1     -10.013  19.880  77.903  1.00  0.00     0.033 A 
HETATM   11  C5  UNL     1     -10.317  20.068  76.560  1.00  0.00     0.002 A 
HETATM   12  C6  UNL     1     -10.649  18.993  75.757  1.00  0.00     0.000 A 
HETATM   13  C7  UNL     1     -10.691  17.697  76.255  1.00  0.00     0.002 A 
HETATM   14  C8  UNL     1     -10.379  17.564  77.605  1.00  0.00     0.033 A 
ENDBRANCH   5   9
BRANCH   8  15
HETATM   15  C10 UNL     1      -7.722  17.295  82.582  1.00  0.00     0.284 C 
HETATM   16  N4  UNL     1      -6.910  18.174  83.348  1.00  0.00    -0.056 NA
HETATM   17  O1  UNL     1      -7.566  16.062  82.735  1.00  0.00    -0.269 OA
ENDBRANCH   8  15
TORSDOF 2
ENDMDL
