MODEL 1
REMARK VINA RESULT: -6.968956951      0.000      0.000
REMARK  2 active torsions:
REMARK  status: ('A' for Active; 'I' for Inactive)
REMARK    1  A    between atoms: N2_5  and  C3_6 
REMARK    2  A    between atoms: C9_14  and  C10_15 
ROOT
HETATM    1  C1  UNL     1     -10.608  18.559  83.595  1.00  0.00     0.072 C 
HETATM    2  C2  UNL     1     -10.049  18.399  82.212  1.00  0.00     0.057 A 
HETATM    3  N1  UNL     1     -10.665  18.759  81.078  1.00  0.00    -0.281 N 
ATOM      4  H1  UNL     1     -11.589  19.188  81.016  1.00  0.00     0.189 HD
HETATM    5  N2  UNL     1      -9.886  18.473  80.057  1.00  0.00    -0.196 N 
HETATM    6  N3  UNL     1      -8.793  17.941  80.529  1.00  0.00    -0.273 N 
ATOM      7  H3  UNL     1      -8.011  17.623  79.956  1.00  0.00     0.189 HD
HETATM    8  C9  UNL     1      -8.834  17.867  81.866  1.00  0.00     0.138 A 
ENDROOT
BRANCH   5   9
HETATM    9  C3  UNL     1     -10.223  18.723  78.673  1.00  0.00     0.074 A 
HETATM   10  C4  UNL     1     -10.931  17.805  77.959  1.00  0.00     0.033 A 
HETATM   11  C5  UNL     1     -11.234  18.086  76.632  1.00  0.00     0.002 A 
HETATM   12  C6  UNL     1     -10.823  19.273  76.054  1.00  0.00     0.000 A 
HETATM   13  C7  UNL     1     -10.102  20.220  76.767  1.00  0.00     0.002 A 
HETATM   14  C8  UNL     1      -9.824  19.890  78.091  1.00  0.00     0.033 A 
ENDBRANCH   5   9
BRANCH   8  15
HETATM   15  C10 UNL     1      -7.827  17.342  82.789  1.00  0.00     0.284 C 
HETATM   16  N4  UNL     1      -6.827  18.175  83.361  1.00  0.00    -0.056 NA
HETATM   17  O1  UNL     1      -7.831  16.129  83.095  1.00  0.00    -0.269 OA
ENDBRANCH   8  15
TORSDOF 2
ENDMDL
