MODEL 7
REMARK VINA RESULT: -8.579700710      2.884     10.306
REMARK  12 active torsions:
REMARK  status: ('A' for Active; 'I' for Inactive)
REMARK    1  A    between atoms: C2_2  and  C4_4 
REMARK    2  A    between atoms: C4_4  and  C5_5 
REMARK    3  A    between atoms: C5_5  and  N1_6 
REMARK    4  A    between atoms: C5_5  and  C15_24 
REMARK    5  A    between atoms: N1_6  and  P1_8 
REMARK    6  A    between atoms: P1_8  and  C6_11 
REMARK    7  A    between atoms: C6_11  and  N2_12 
REMARK       I    between atoms: N2_12  and  C7_14 
REMARK    8  A    between atoms: C7_14  and  O4_16 
REMARK    9  A    between atoms: O4_16  and  C8_17 
REMARK   10  A    between atoms: C8_17  and  C9_18 
REMARK       I    between atoms: C15_24  and  N3_26 
REMARK   11  A    between atoms: N3_26  and  C16_28 
REMARK   12  A    between atoms: C16_28  and  C17_29 
ROOT
HETATM    1  P1  UNL     1      13.632  38.278  -8.776  1.00  0.00     0.224 P 
HETATM    2  O1  UNL     1      14.385  36.985  -7.903  1.00  0.00    -0.651 OA
HETATM    3  O2  UNL     1      12.425  37.646  -9.832  1.00  0.00    -0.651 OA
ENDROOT
BRANCH   1   4
HETATM    4  N1  UNL     1      14.834  39.183  -9.732  1.00  0.00    -0.334 N 
ATOM      5  H1  UNL     1      15.823  39.212  -9.484  1.00  0.00     0.164 HD
BRANCH   4   6
HETATM    6  C5  UNL     1      14.315  39.853 -10.852  1.00  0.00     0.178 C 
BRANCH   6   7
HETATM    7  C4  UNL     1      15.066  41.130 -11.013  1.00  0.00     0.038 C 
BRANCH   7   8
HETATM    8  C2  UNL     1      16.042  41.508  -9.982  1.00  0.00    -0.020 C 
HETATM    9  C1  UNL     1      15.845  42.769  -9.231  1.00  0.00     0.009 C 
HETATM   10  C3  UNL     1      17.405  41.632 -10.692  1.00  0.00     0.009 C 
ENDBRANCH   7   8
ENDBRANCH   6   7
BRANCH   6  11
HETATM   11  C15 UNL     1      14.674  38.931 -11.985  1.00  0.00     0.240 C 
HETATM   12  O5  UNL     1      15.847  38.957 -12.490  1.00  0.00    -0.271 OA
HETATM   13  N3  UNL     1      13.775  38.002 -12.547  1.00  0.00    -0.351 N 
ATOM     14  H3  UNL     1      12.826  37.946 -12.176  1.00  0.00     0.163 HD
BRANCH  13  15
HETATM   15  C16 UNL     1      14.153  37.129 -13.629  1.00  0.00     0.222 C 
BRANCH  15  16
HETATM   16  C17 UNL     1      13.304  35.904 -13.655  1.00  0.00     0.248 C 
HETATM   17  N4  UNL     1      13.046  35.171 -12.465  1.00  0.00    -0.061 NA
HETATM   18  O6  UNL     1      12.797  35.493 -14.733  1.00  0.00    -0.275 OA
ENDBRANCH  15  16
ENDBRANCH  13  15
ENDBRANCH   6  11
ENDBRANCH   4   6
ENDBRANCH   1   4
BRANCH   1  19
HETATM   19  C6  UNL     1      12.857  39.389  -7.573  1.00  0.00     0.252 C 
BRANCH  19  20
HETATM   20  N2  UNL     1      12.302  38.508  -6.570  1.00  0.00    -0.325 N 
HETATM   21  C7  UNL     1      11.148  38.823  -5.841  1.00  0.00     0.361 C 
HETATM   22  O3  UNL     1      10.582  39.927  -6.082  1.00  0.00    -0.238 OA
ATOM     23  H2  UNL     1      12.770  37.621  -6.385  1.00  0.00     0.165 HD
BRANCH  21  24
HETATM   24  O4  UNL     1      10.579  38.018  -4.875  1.00  0.00    -0.299 OA
BRANCH  24  25
HETATM   25  C8  UNL     1       9.400  38.440  -4.213  1.00  0.00     0.219 C 
BRANCH  25  26
HETATM   26  C9  UNL     1       9.518  38.368  -2.751  1.00  0.00    -0.034 A 
HETATM   27  C10 UNL     1       9.369  37.131  -2.149  1.00  0.00     0.009 A 
HETATM   28  C11 UNL     1       9.472  37.025  -0.798  1.00  0.00     0.001 A 
HETATM   29  C12 UNL     1       9.726  38.161  -0.040  1.00  0.00     0.000 A 
HETATM   30  C13 UNL     1       9.874  39.395  -0.644  1.00  0.00     0.001 A 
HETATM   31  C14 UNL     1       9.769  39.494  -2.017  1.00  0.00     0.009 A 
ENDBRANCH  25  26
ENDBRANCH  24  25
ENDBRANCH  21  24
ENDBRANCH  19  20
ENDBRANCH   1  19
TORSDOF 12
ENDMDL
