MODEL 12
REMARK VINA RESULT: -8.198429930      2.811     10.108
REMARK  12 active torsions:
REMARK  status: ('A' for Active; 'I' for Inactive)
REMARK    1  A    between atoms: C2_2  and  C4_4 
REMARK    2  A    between atoms: C4_4  and  C5_5 
REMARK    3  A    between atoms: C5_5  and  N1_6 
REMARK    4  A    between atoms: C5_5  and  C15_24 
REMARK    5  A    between atoms: N1_6  and  P1_8 
REMARK    6  A    between atoms: P1_8  and  C6_11 
REMARK    7  A    between atoms: C6_11  and  N2_12 
REMARK       I    between atoms: N2_12  and  C7_14 
REMARK    8  A    between atoms: C7_14  and  O4_16 
REMARK    9  A    between atoms: O4_16  and  C8_17 
REMARK   10  A    between atoms: C8_17  and  C9_18 
REMARK       I    between atoms: C15_24  and  N3_26 
REMARK   11  A    between atoms: N3_26  and  C16_28 
REMARK   12  A    between atoms: C16_28  and  C17_29 
ROOT
HETATM    1  P1  UNL     1      12.676  40.292  -8.039  1.00  0.00     0.224 P 
HETATM    2  O1  UNL     1      11.186  40.845  -8.730  1.00  0.00    -0.651 OA
HETATM    3  O2  UNL     1      13.116  41.301  -6.713  1.00  0.00    -0.651 OA
ENDROOT
BRANCH   1   4
HETATM    4  N1  UNL     1      13.983  40.311  -9.251  1.00  0.00    -0.334 N 
ATOM      5  H1  UNL     1      14.873  39.836  -9.105  1.00  0.00     0.164 HD
BRANCH   4   6
HETATM    6  C5  UNL     1      13.692  41.031 -10.422  1.00  0.00     0.178 C 
BRANCH   6   7
HETATM    7  C4  UNL     1      14.728  42.091 -10.579  1.00  0.00     0.038 C 
BRANCH   7   8
HETATM    8  C2  UNL     1      15.795  42.188  -9.574  1.00  0.00    -0.020 C 
HETATM    9  C1  UNL     1      15.812  43.346  -8.651  1.00  0.00     0.009 C 
HETATM   10  C3  UNL     1      17.127  42.229 -10.350  1.00  0.00     0.009 C 
ENDBRANCH   7   8
ENDBRANCH   6   7
BRANCH   6  11
HETATM   11  C15 UNL     1      13.883  39.999 -11.500  1.00  0.00     0.240 C 
HETATM   12  O5  UNL     1      14.396  40.328 -12.623  1.00  0.00    -0.271 OA
HETATM   13  N3  UNL     1      13.526  38.644 -11.351  1.00  0.00    -0.351 N 
ATOM     14  H3  UNL     1      13.112  38.336 -10.472  1.00  0.00     0.163 HD
BRANCH  13  15
HETATM   15  C16 UNL     1      13.727  37.680 -12.404  1.00  0.00     0.222 C 
BRANCH  15  16
HETATM   16  C17 UNL     1      13.856  36.300 -11.853  1.00  0.00     0.248 C 
HETATM   17  N4  UNL     1      12.976  35.265 -12.272  1.00  0.00    -0.061 NA
HETATM   18  O6  UNL     1      14.747  36.023 -11.007  1.00  0.00    -0.275 OA
ENDBRANCH  15  16
ENDBRANCH  13  15
ENDBRANCH   6  11
ENDBRANCH   4   6
ENDBRANCH   1   4
BRANCH   1  19
HETATM   19  C6  UNL     1      12.425  38.598  -7.449  1.00  0.00     0.252 C 
BRANCH  19  20
HETATM   20  N2  UNL     1      12.251  38.732  -6.020  1.00  0.00    -0.325 N 
HETATM   21  C7  UNL     1      11.003  38.606  -5.395  1.00  0.00     0.361 C 
HETATM   22  O3  UNL     1      10.000  38.367  -6.124  1.00  0.00    -0.238 OA
ATOM     23  H2  UNL     1      13.070  38.927  -5.444  1.00  0.00     0.165 HD
BRANCH  21  24
HETATM   24  O4  UNL     1      10.785  38.725  -4.037  1.00  0.00    -0.299 OA
BRANCH  24  25
HETATM   25  C8  UNL     1       9.549  38.309  -3.485  1.00  0.00     0.219 C 
BRANCH  25  26
HETATM   26  C9  UNL     1       9.515  38.431  -2.022  1.00  0.00    -0.034 A 
HETATM   27  C10 UNL     1       9.072  37.343  -1.292  1.00  0.00     0.009 A 
HETATM   28  C11 UNL     1       9.026  37.418   0.065  1.00  0.00     0.001 A 
HETATM   29  C12 UNL     1       9.426  38.588   0.699  1.00  0.00     0.000 A 
HETATM   30  C13 UNL     1       9.868  39.673  -0.034  1.00  0.00     0.001 A 
HETATM   31  C14 UNL     1       9.911  39.588  -1.411  1.00  0.00     0.009 A 
ENDBRANCH  25  26
ENDBRANCH  24  25
ENDBRANCH  21  24
ENDBRANCH  19  20
ENDBRANCH   1  19
TORSDOF 12
ENDMDL
