MODEL 20
REMARK VINA RESULT: -7.799055197      1.902      2.610
REMARK  12 active torsions:
REMARK  status: ('A' for Active; 'I' for Inactive)
REMARK    1  A    between atoms: C2_2  and  C4_4 
REMARK    2  A    between atoms: C4_4  and  C5_5 
REMARK    3  A    between atoms: C5_5  and  N1_6 
REMARK    4  A    between atoms: C5_5  and  C15_24 
REMARK    5  A    between atoms: N1_6  and  P1_8 
REMARK    6  A    between atoms: P1_8  and  C6_11 
REMARK    7  A    between atoms: C6_11  and  N2_12 
REMARK       I    between atoms: N2_12  and  C7_14 
REMARK    8  A    between atoms: C7_14  and  O4_16 
REMARK    9  A    between atoms: O4_16  and  C8_17 
REMARK   10  A    between atoms: C8_17  and  C9_18 
REMARK       I    between atoms: C15_24  and  N3_26 
REMARK   11  A    between atoms: N3_26  and  C16_28 
REMARK   12  A    between atoms: C16_28  and  C17_29 
ROOT
HETATM    1  P1  UNL     1      10.952  38.949  -5.378  1.00  0.00     0.224 P 
HETATM    2  O1  UNL     1       9.454  38.137  -5.694  1.00  0.00    -0.651 OA
HETATM    3  O2  UNL     1      12.263  38.022  -6.001  1.00  0.00    -0.651 OA
ENDROOT
BRANCH   1   4
HETATM    4  N1  UNL     1      11.183  39.194  -3.628  1.00  0.00    -0.334 N 
ATOM      5  H1  UNL     1      11.991  39.684  -3.244  1.00  0.00     0.164 HD
BRANCH   4   6
HETATM    6  C5  UNL     1      10.168  38.659  -2.817  1.00  0.00     0.178 C 
BRANCH   6   7
HETATM    7  C4  UNL     1      10.664  38.639  -1.411  1.00  0.00     0.038 C 
BRANCH   7   8
HETATM    8  C2  UNL     1      10.024  37.729  -0.451  1.00  0.00    -0.020 C 
HETATM    9  C1  UNL     1       8.934  36.842  -0.917  1.00  0.00     0.009 C 
HETATM   10  C3  UNL     1       9.423  38.613   0.659  1.00  0.00     0.009 C 
ENDBRANCH   7   8
ENDBRANCH   6   7
BRANCH   6  11
HETATM   11  C15 UNL     1       9.075  39.687  -2.934  1.00  0.00     0.240 C 
HETATM   12  O5  UNL     1       7.895  39.336  -3.274  1.00  0.00    -0.271 OA
HETATM   13  N3  UNL     1       9.269  41.060  -2.681  1.00  0.00    -0.351 N 
ATOM     14  H3  UNL     1      10.196  41.386  -2.407  1.00  0.00     0.163 HD
BRANCH  13  15
HETATM   15  C16 UNL     1       8.199  42.017  -2.797  1.00  0.00     0.222 C 
BRANCH  15  16
HETATM   16  C17 UNL     1       8.294  42.781  -4.075  1.00  0.00     0.248 C 
HETATM   17  N4  UNL     1       8.666  44.153  -4.077  1.00  0.00    -0.061 NA
HETATM   18  O6  UNL     1       8.049  42.225  -5.179  1.00  0.00    -0.275 OA
ENDBRANCH  15  16
ENDBRANCH  13  15
ENDBRANCH   6  11
ENDBRANCH   4   6
ENDBRANCH   1   4
BRANCH   1  19
HETATM   19  C6  UNL     1      10.901  40.558  -6.210  1.00  0.00     0.252 C 
BRANCH  19  20
HETATM   20  N2  UNL     1      11.304  40.276  -7.570  1.00  0.00    -0.325 N 
HETATM   21  C7  UNL     1      12.349  40.959  -8.206  1.00  0.00     0.361 C 
HETATM   22  O3  UNL     1      12.952  41.855  -7.552  1.00  0.00    -0.238 OA
ATOM     23  H2  UNL     1      10.807  39.551  -8.086  1.00  0.00     0.165 HD
BRANCH  21  24
HETATM   24  O4  UNL     1      12.770  40.728  -9.500  1.00  0.00    -0.299 OA
BRANCH  24  25
HETATM   25  C8  UNL     1      13.568  39.592  -9.786  1.00  0.00     0.219 C 
BRANCH  25  26
HETATM   26  C9  UNL     1      14.805  39.937 -10.497  1.00  0.00    -0.034 A 
HETATM   27  C10 UNL     1      15.033  39.342 -11.725  1.00  0.00     0.009 A 
HETATM   28  C11 UNL     1      16.168  39.637 -12.413  1.00  0.00     0.001 A 
HETATM   29  C12 UNL     1      17.083  40.531 -11.872  1.00  0.00     0.000 A 
HETATM   30  C13 UNL     1      16.852  41.123 -10.645  1.00  0.00     0.001 A 
HETATM   31  C14 UNL     1      15.698  40.819  -9.953  1.00  0.00     0.009 A 
ENDBRANCH  25  26
ENDBRANCH  24  25
ENDBRANCH  21  24
ENDBRANCH  19  20
ENDBRANCH   1  19
TORSDOF 12
ENDMDL
