MODEL 11
REMARK VINA RESULT: -8.204048287      3.164      9.735
REMARK  12 active torsions:
REMARK  status: ('A' for Active; 'I' for Inactive)
REMARK    1  A    between atoms: C2_2  and  C4_4 
REMARK    2  A    between atoms: C4_4  and  C5_5 
REMARK    3  A    between atoms: C5_5  and  N1_6 
REMARK    4  A    between atoms: C5_5  and  C15_24 
REMARK    5  A    between atoms: N1_6  and  P1_8 
REMARK    6  A    between atoms: P1_8  and  C6_11 
REMARK    7  A    between atoms: C6_11  and  N2_12 
REMARK       I    between atoms: N2_12  and  C7_14 
REMARK    8  A    between atoms: C7_14  and  O4_16 
REMARK    9  A    between atoms: O4_16  and  C8_17 
REMARK   10  A    between atoms: C8_17  and  C9_18 
REMARK       I    between atoms: C15_24  and  N3_26 
REMARK   11  A    between atoms: N3_26  and  C16_28 
REMARK   12  A    between atoms: C16_28  and  C17_29 
ROOT
HETATM    1  P1  UNL     1      11.895  41.213  -7.622  1.00  0.00     0.224 P 
HETATM    2  O1  UNL     1      10.987  41.365  -9.090  1.00  0.00    -0.651 OA
HETATM    3  O2  UNL     1      11.218  42.232  -6.408  1.00  0.00    -0.651 OA
ENDROOT
BRANCH   1   4
HETATM    4  N1  UNL     1      13.600  41.663  -7.882  1.00  0.00    -0.334 N 
ATOM      5  H1  UNL     1      14.297  41.624  -7.138  1.00  0.00     0.164 HD
BRANCH   4   6
HETATM    6  C5  UNL     1      13.911  42.074  -9.189  1.00  0.00     0.178 C 
BRANCH   6   7
HETATM    7  C4  UNL     1      15.052  43.030  -9.112  1.00  0.00     0.038 C 
BRANCH   7   8
HETATM    8  C2  UNL     1      15.262  43.777  -7.864  1.00  0.00    -0.020 C 
HETATM    9  C1  UNL     1      14.372  44.917  -7.548  1.00  0.00     0.009 C 
HETATM   10  C3  UNL     1      16.694  44.345  -7.928  1.00  0.00     0.009 C 
ENDBRANCH   7   8
ENDBRANCH   6   7
BRANCH   6  11
HETATM   11  C15 UNL     1      14.384  40.800  -9.833  1.00  0.00     0.240 C 
HETATM   12  O5  UNL     1      15.600  40.428  -9.709  1.00  0.00    -0.271 OA
HETATM   13  N3  UNL     1      13.548  39.954 -10.590  1.00  0.00    -0.351 N 
ATOM     14  H3  UNL     1      12.569  40.211 -10.717  1.00  0.00     0.163 HD
BRANCH  13  15
HETATM   15  C16 UNL     1      14.033  38.737 -11.190  1.00  0.00     0.222 C 
BRANCH  15  16
HETATM   16  C17 UNL     1      13.241  37.559 -10.735  1.00  0.00     0.248 C 
HETATM   17  N4  UNL     1      13.188  36.372 -11.516  1.00  0.00    -0.061 NA
HETATM   18  O6  UNL     1      12.604  37.590  -9.648  1.00  0.00    -0.275 OA
ENDBRANCH  15  16
ENDBRANCH  13  15
ENDBRANCH   6  11
ENDBRANCH   4   6
ENDBRANCH   1   4
BRANCH   1  19
HETATM   19  C6  UNL     1      11.801  39.487  -7.082  1.00  0.00     0.252 C 
BRANCH  19  20
HETATM   20  N2  UNL     1      11.581  39.563  -5.656  1.00  0.00    -0.325 N 
HETATM   21  C7  UNL     1      10.529  38.895  -5.015  1.00  0.00     0.361 C 
HETATM   22  O3  UNL     1       9.750  38.203  -5.729  1.00  0.00    -0.238 OA
ATOM     23  H2  UNL     1      12.218  40.127  -5.092  1.00  0.00     0.165 HD
BRANCH  21  24
HETATM   24  O4  UNL     1      10.277  38.936  -3.659  1.00  0.00    -0.299 OA
BRANCH  24  25
HETATM   25  C8  UNL     1       9.683  37.820  -3.020  1.00  0.00     0.219 C 
BRANCH  25  26
HETATM   26  C9  UNL     1       9.487  38.031  -1.581  1.00  0.00    -0.034 A 
HETATM   27  C10 UNL     1      10.040  39.165  -1.012  1.00  0.00     0.009 A 
HETATM   28  C11 UNL     1       9.880  39.395   0.318  1.00  0.00     0.001 A 
HETATM   29  C12 UNL     1       9.163  38.488   1.088  1.00  0.00     0.000 A 
HETATM   30  C13 UNL     1       8.612  37.357   0.516  1.00  0.00     0.001 A 
HETATM   31  C14 UNL     1       8.779  37.130  -0.835  1.00  0.00     0.009 A 
ENDBRANCH  25  26
ENDBRANCH  24  25
ENDBRANCH  21  24
ENDBRANCH  19  20
ENDBRANCH   1  19
TORSDOF 12
ENDMDL
