MODEL 2
REMARK VINA RESULT: -8.779832576      2.655      4.541
REMARK  5 active torsions:
REMARK  status: ('A' for Active; 'I' for Inactive)
REMARK       I    between atoms: N1_2  and  C3_4 
REMARK    1  A    between atoms: C3_4  and  C4_6 
REMARK    2  A    between atoms: C4_6  and  C6_9 
REMARK    3  A    between atoms: C6_9  and  C7_10 
REMARK    4  A    between atoms: C10_13  and  C11_14 
REMARK    5  A    between atoms: N6_28  and  C19_29 
ROOT
HETATM    1  C4  UNL     1      30.896  27.866  55.092  1.00  0.00     0.191 C 
HETATM    2  C5  UNL     1      31.188  27.117  56.344  1.00  0.00     0.074 C 
HETATM    3  N2  UNL     1      31.397  26.527  57.318  1.00  0.00    -0.196 NA
ENDROOT
BRANCH   1   4
HETATM    4  C3  UNL     1      29.760  28.772  55.315  1.00  0.00     0.237 C 
HETATM    5  N1  UNL     1      28.967  29.218  54.238  1.00  0.00    -0.360 N 
HETATM    6  C1  UNL     1      27.848  30.123  54.441  1.00  0.00     0.152 C 
HETATM    7  C2  UNL     1      29.241  28.773  52.891  1.00  0.00     0.152 C 
HETATM    8  O1  UNL     1      29.497  29.155  56.498  1.00  0.00    -0.272 OA
ENDBRANCH   1   4
BRANCH   1   9
HETATM    9  C6  UNL     1      32.176  28.658  54.828  1.00  0.00     0.093 C 
BRANCH   9  10
HETATM   10  C7  UNL     1      33.021  27.775  53.962  1.00  0.00     0.055 A 
HETATM   11  C8  UNL     1      32.484  26.951  53.023  1.00  0.00     0.036 A 
HETATM   12  C9  UNL     1      33.557  26.316  52.447  1.00  0.00     0.043 A 
HETATM   13  C10 UNL     1      34.696  26.751  53.031  1.00  0.00     0.119 A 
HETATM   14  O2  UNL     1      34.297  27.643  53.948  1.00  0.00    -0.311 OA
BRANCH  13  15
HETATM   15  C11 UNL     1      36.126  26.459  52.872  1.00  0.00     0.143 A 
HETATM   16  N3  UNL     1      36.825  26.895  51.806  1.00  0.00    -0.337 N 
HETATM   17  C12 UNL     1      38.049  26.384  51.815  1.00  0.00     0.077 A 
ATOM     18  H3  UNL     1      36.464  27.528  51.092  1.00  0.00     0.167 HD
HETATM   19  C13 UNL     1      39.102  26.478  50.927  1.00  0.00     0.121 A 
HETATM   20  C18 UNL     1      38.159  25.571  52.948  1.00  0.00     0.079 A 
HETATM   21  N4  UNL     1      40.233  25.801  51.111  1.00  0.00    -0.349 N 
HETATM   22  C14 UNL     1      40.344  24.984  52.212  1.00  0.00     0.117 A 
ATOM     23  H4  UNL     1      41.004  25.886  50.448  1.00  0.00     0.167 HD
HETATM   24  N5  UNL     1      41.331  24.137  52.561  1.00  0.00    -0.352 N 
HETATM   25  C17 UNL     1      39.339  24.854  53.128  1.00  0.00     0.038 A 
HETATM   26  C15 UNL     1      40.970  23.475  53.657  1.00  0.00     0.090 A 
ATOM     27  H5  UNL     1      42.214  24.021  52.063  1.00  0.00     0.166 HD
HETATM   28  C16 UNL     1      39.705  23.907  54.040  1.00  0.00     0.034 A 
HETATM   29  N6  UNL     1      36.980  25.650  53.583  1.00  0.00    -0.323 N 
BRANCH  29  30
HETATM   30  C19 UNL     1      36.643  25.227  54.908  1.00  0.00     0.092 C 
HETATM   31  C20 UNL     1      37.611  24.012  55.215  1.00  0.00     0.026 C 
HETATM   32  C21 UNL     1      36.911  22.722  55.569  1.00  0.00     0.002 C 
HETATM   33  C22 UNL     1      35.726  22.356  54.766  1.00  0.00     0.000 C 
HETATM   34  C23 UNL     1      34.777  23.537  54.605  1.00  0.00     0.002 C 
HETATM   35  C24 UNL     1      35.392  24.650  55.362  1.00  0.00     0.026 C 
ENDBRANCH  29  30
ENDBRANCH  13  15
ENDBRANCH   9  10
ENDBRANCH   1   9
TORSDOF 5
ENDMDL
