MODEL 1
REMARK VINA RESULT: -8.791407156      0.000      0.000
REMARK  5 active torsions:
REMARK  status: ('A' for Active; 'I' for Inactive)
REMARK       I    between atoms: N1_2  and  C3_4 
REMARK    1  A    between atoms: C3_4  and  C4_6 
REMARK    2  A    between atoms: C4_6  and  C6_9 
REMARK    3  A    between atoms: C6_9  and  C7_10 
REMARK    4  A    between atoms: C10_13  and  C11_14 
REMARK    5  A    between atoms: N6_28  and  C19_29 
ROOT
HETATM    1  C4  UNL     1      31.102  28.458  51.805  1.00  0.00     0.191 C 
HETATM    2  C5  UNL     1      30.102  27.650  51.053  1.00  0.00     0.074 C 
HETATM    3  N2  UNL     1      29.335  27.027  50.452  1.00  0.00    -0.196 NA
ENDROOT
BRANCH   1   4
HETATM    4  C3  UNL     1      31.111  29.833  51.287  1.00  0.00     0.237 C 
HETATM    5  N1  UNL     1      32.312  30.569  51.209  1.00  0.00    -0.360 N 
HETATM    6  C1  UNL     1      32.335  31.935  50.711  1.00  0.00     0.152 C 
HETATM    7  C2  UNL     1      33.564  29.975  51.615  1.00  0.00     0.152 C 
HETATM    8  O1  UNL     1      30.018  30.359  50.908  1.00  0.00    -0.272 OA
ENDBRANCH   1   4
BRANCH   1   9
HETATM    9  C6  UNL     1      30.595  28.424  53.246  1.00  0.00     0.093 C 
BRANCH   9  10
HETATM   10  C7  UNL     1      31.750  27.941  54.065  1.00  0.00     0.055 A 
HETATM   11  C8  UNL     1      32.308  28.694  55.051  1.00  0.00     0.036 A 
HETATM   12  C9  UNL     1      33.322  27.922  55.562  1.00  0.00     0.043 A 
HETATM   13  C10 UNL     1      33.364  26.746  54.896  1.00  0.00     0.119 A 
HETATM   14  O2  UNL     1      32.375  26.821  53.994  1.00  0.00    -0.311 OA
BRANCH  13  15
HETATM   15  C11 UNL     1      34.200  25.540  54.962  1.00  0.00     0.143 A 
HETATM   16  N3  UNL     1      33.697  24.349  55.341  1.00  0.00    -0.337 N 
HETATM   17  C12 UNL     1      34.668  23.455  55.461  1.00  0.00     0.077 A 
ATOM     18  H3  UNL     1      32.708  24.161  55.510  1.00  0.00     0.167 HD
HETATM   19  C13 UNL     1      34.672  22.136  55.874  1.00  0.00     0.121 A 
HETATM   20  C18 UNL     1      35.872  24.092  55.145  1.00  0.00     0.079 A 
HETATM   21  N4  UNL     1      35.803  21.445  55.991  1.00  0.00    -0.349 N 
HETATM   22  C14 UNL     1      36.994  22.069  55.700  1.00  0.00     0.117 A 
ATOM     23  H4  UNL     1      35.788  20.470  56.292  1.00  0.00     0.167 HD
HETATM   24  N5  UNL     1      38.257  21.621  55.832  1.00  0.00    -0.352 N 
HETATM   25  C17 UNL     1      37.053  23.369  55.283  1.00  0.00     0.038 A 
HETATM   26  C15 UNL     1      39.101  22.601  55.522  1.00  0.00     0.090 A 
ATOM     27  H5  UNL     1      38.523  20.680  56.124  1.00  0.00     0.166 HD
HETATM   28  C16 UNL     1      38.366  23.728  55.172  1.00  0.00     0.034 A 
HETATM   29  N6  UNL     1      35.555  25.356  54.825  1.00  0.00    -0.323 N 
BRANCH  29  30
HETATM   30  C19 UNL     1      36.361  26.351  54.187  1.00  0.00     0.092 C 
HETATM   31  C20 UNL     1      35.409  27.039  53.125  1.00  0.00     0.026 C 
HETATM   32  C21 UNL     1      35.906  26.980  51.701  1.00  0.00     0.002 C 
HETATM   33  C22 UNL     1      36.490  25.702  51.244  1.00  0.00     0.000 C 
HETATM   34  C23 UNL     1      37.486  25.151  52.257  1.00  0.00     0.002 C 
HETATM   35  C24 UNL     1      37.530  26.144  53.355  1.00  0.00     0.026 C 
ENDBRANCH  29  30
ENDBRANCH  13  15
ENDBRANCH   9  10
ENDBRANCH   1   9
TORSDOF 5
ENDMDL
