MODEL 3
REMARK VINA RESULT: -8.730659086      2.012      2.904
REMARK  5 active torsions:
REMARK  status: ('A' for Active; 'I' for Inactive)
REMARK       I    between atoms: N1_2  and  C3_4 
REMARK    1  A    between atoms: C3_4  and  C4_6 
REMARK    2  A    between atoms: C4_6  and  C6_9 
REMARK    3  A    between atoms: C6_9  and  C7_10 
REMARK    4  A    between atoms: C10_13  and  C11_14 
REMARK    5  A    between atoms: N6_28  and  C19_29 
ROOT
HETATM    1  C4  UNL     1      29.755  29.227  54.438  1.00  0.00     0.191 C 
HETATM    2  C5  UNL     1      29.040  30.239  53.613  1.00  0.00     0.074 C 
HETATM    3  N2  UNL     1      28.474  31.032  52.989  1.00  0.00    -0.196 NA
ENDROOT
BRANCH   1   4
HETATM    4  C3  UNL     1      28.777  28.387  55.143  1.00  0.00     0.237 C 
HETATM    5  N1  UNL     1      28.861  28.192  56.538  1.00  0.00    -0.360 N 
HETATM    6  C1  UNL     1      27.909  27.354  57.247  1.00  0.00     0.152 C 
HETATM    7  C2  UNL     1      29.900  28.836  57.307  1.00  0.00     0.152 C 
HETATM    8  O1  UNL     1      27.847  27.831  54.479  1.00  0.00    -0.272 OA
ENDBRANCH   1   4
BRANCH   1   9
HETATM    9  C6  UNL     1      30.540  28.405  53.416  1.00  0.00     0.093 C 
BRANCH   9  10
HETATM   10  C7  UNL     1      31.776  27.954  54.130  1.00  0.00     0.055 A 
HETATM   11  C8  UNL     1      32.467  28.769  54.972  1.00  0.00     0.036 A 
HETATM   12  C9  UNL     1      33.518  28.010  55.423  1.00  0.00     0.043 A 
HETATM   13  C10 UNL     1      33.452  26.782  54.863  1.00  0.00     0.119 A 
HETATM   14  O2  UNL     1      32.362  26.813  54.083  1.00  0.00    -0.311 OA
BRANCH  13  15
HETATM   15  C11 UNL     1      34.262  25.558  54.934  1.00  0.00     0.143 A 
HETATM   16  N3  UNL     1      33.733  24.379  55.313  1.00  0.00    -0.337 N 
HETATM   17  C12 UNL     1      34.685  23.465  55.439  1.00  0.00     0.077 A 
ATOM     18  H3  UNL     1      32.740  24.213  55.481  1.00  0.00     0.167 HD
HETATM   19  C13 UNL     1      34.660  22.147  55.854  1.00  0.00     0.121 A 
HETATM   20  C18 UNL     1      35.903  24.075  55.124  1.00  0.00     0.079 A 
HETATM   21  N4  UNL     1      35.776  21.432  55.977  1.00  0.00    -0.349 N 
HETATM   22  C14 UNL     1      36.981  22.031  55.687  1.00  0.00     0.117 A 
ATOM     23  H4  UNL     1      35.740  20.459  56.279  1.00  0.00     0.167 HD
HETATM   24  N5  UNL     1      38.234  21.556  55.824  1.00  0.00    -0.352 N 
HETATM   25  C17 UNL     1      37.068  23.328  55.267  1.00  0.00     0.038 A 
HETATM   26  C15 UNL     1      39.099  22.518  55.514  1.00  0.00     0.090 A 
ATOM     27  H5  UNL     1      38.479  20.611  56.118  1.00  0.00     0.166 HD
HETATM   28  C16 UNL     1      38.388  23.659  55.159  1.00  0.00     0.034 A 
HETATM   29  N6  UNL     1      35.613  25.345  54.801  1.00  0.00    -0.323 N 
BRANCH  29  30
HETATM   30  C19 UNL     1      36.442  26.322  54.163  1.00  0.00     0.092 C 
HETATM   31  C20 UNL     1      35.516  27.006  53.076  1.00  0.00     0.026 C 
HETATM   32  C21 UNL     1      36.036  26.922  51.661  1.00  0.00     0.002 C 
HETATM   33  C22 UNL     1      36.612  25.631  51.231  1.00  0.00     0.000 C 
HETATM   34  C23 UNL     1      37.583  25.082  52.269  1.00  0.00     0.002 C 
HETATM   35  C24 UNL     1      37.622  26.090  53.353  1.00  0.00     0.026 C 
ENDBRANCH  29  30
ENDBRANCH  13  15
ENDBRANCH   9  10
ENDBRANCH   1   9
TORSDOF 5
ENDMDL
