MODEL 1
REMARK VINA RESULT: -6.487390137      0.000      0.000
REMARK  11 active torsions:
REMARK  status: ('A' for Active; 'I' for Inactive)
REMARK    1  A    between atoms: O1_1  and  C1_3 
REMARK    2  A    between atoms: C1_3  and  C2_4 
REMARK    3  A    between atoms: C3_6  and  O3_7 
REMARK    4  A    between atoms: O3_7  and  C4_8 
REMARK    5  A    between atoms: C5_9  and  O4_10 
REMARK    6  A    between atoms: C7_16  and  C8_17 
REMARK    7  A    between atoms: C8_17  and  O5_18 
REMARK    8  A    between atoms: C9_20  and  O6_21 
REMARK    9  A    between atoms: C10_23  and  O7_24 
REMARK   10  A    between atoms: C11_26  and  O8_27 
REMARK   11  A    between atoms: C12_29  and  O9_30 
ROOT
HETATM    1  O3  UNL     1       2.613  22.702   6.100  1.00  0.00    -0.346 OA
ENDROOT
BRANCH   1   2
HETATM    2  C3  UNL     1       3.403  22.035   7.023  1.00  0.00     0.292 C 
HETATM    3  O2  UNL     1       3.715  22.856   8.068  1.00  0.00    -0.348 OA
HETATM    4  C2  UNL     1       4.270  22.272   9.166  1.00  0.00     0.179 C 
HETATM    5  C12 UNL     1       3.588  21.033   9.651  1.00  0.00     0.180 C 
HETATM    6  C11 UNL     1       2.284  20.894   8.883  1.00  0.00     0.183 C 
HETATM    7  C10 UNL     1       2.658  20.778   7.421  1.00  0.00     0.204 C 
BRANCH   4   8
HETATM    8  C1  UNL     1       5.744  21.970   9.025  1.00  0.00     0.198 C 
BRANCH   8   9
HETATM    9  O1  UNL     1       6.038  20.625   9.198  1.00  0.00    -0.398 OA
ATOM     10  H1  UNL     1       6.802  20.347   8.706  1.00  0.00     0.209 HD
ENDBRANCH   8   9
ENDBRANCH   4   8
BRANCH   5  11
HETATM   11  O9  UNL     1       3.356  21.061  11.030  1.00  0.00    -0.390 OA
ATOM     12  H9  UNL     1       3.623  20.255  11.456  1.00  0.00     0.210 HD
ENDBRANCH   5  11
BRANCH   6  13
HETATM   13  O8  UNL     1       1.521  19.831   9.318  1.00  0.00    -0.390 OA
ATOM     14  H8  UNL     1       1.970  18.999   9.222  1.00  0.00     0.210 HD
ENDBRANCH   6  13
BRANCH   7  15
HETATM   15  O7  UNL     1       3.409  19.631   7.165  1.00  0.00    -0.388 OA
ATOM     16  H7  UNL     1       3.544  19.117   7.953  1.00  0.00     0.210 HD
ENDBRANCH   7  15
ENDBRANCH   1   2
BRANCH   1  17
HETATM   17  C4  UNL     1       3.074  22.635   4.809  1.00  0.00     0.210 C 
HETATM   18  C5  UNL     1       4.587  22.694   4.866  1.00  0.00     0.350 C 
HETATM   19  N1  UNL     1       5.174  22.601   3.541  1.00  0.00    -0.046 N 
HETATM   20  C6  UNL     1       4.829  23.833   2.848  1.00  0.00     0.244 C 
ATOM     21  H12 UNL     1       6.177  22.413   3.556  1.00  0.00     0.280 HD
ATOM     22  H11 UNL     1       4.896  21.761   3.033  1.00  0.00     0.280 HD
HETATM   23  C7  UNL     1       3.337  23.996   2.717  1.00  0.00     0.066 C 
HETATM   24  C9  UNL     1       2.613  23.843   4.027  1.00  0.00     0.159 C 
BRANCH  18  25
HETATM   25  O4  UNL     1       4.931  23.950   5.367  1.00  0.00    -0.368 OA
ATOM     26  H4  UNL     1       5.868  23.942   5.526  1.00  0.00     0.212 HD
ENDBRANCH  18  25
BRANCH  23  27
HETATM   27  C8  UNL     1       3.053  25.340   2.124  1.00  0.00     0.173 C 
BRANCH  27  28
HETATM   28  O5  UNL     1       2.994  26.330   3.093  1.00  0.00    -0.400 OA
ATOM     29  H5  UNL     1       3.800  26.387   3.591  1.00  0.00     0.209 HD
ENDBRANCH  27  28
ENDBRANCH  23  27
BRANCH  24  30
HETATM   30  O6  UNL     1       1.258  23.678   3.740  1.00  0.00    -0.392 OA
ATOM     31  H6  UNL     1       1.182  23.401   2.835  1.00  0.00     0.210 HD
ENDBRANCH  24  30
ENDBRANCH   1  17
TORSDOF 11
ENDMDL
