MODEL 5
REMARK VINA RESULT: -6.208635437      2.141      6.068
REMARK  11 active torsions:
REMARK  status: ('A' for Active; 'I' for Inactive)
REMARK    1  A    between atoms: O1_1  and  C1_3 
REMARK    2  A    between atoms: C1_3  and  C2_4 
REMARK    3  A    between atoms: C3_6  and  O3_7 
REMARK    4  A    between atoms: O3_7  and  C4_8 
REMARK    5  A    between atoms: C5_9  and  O4_10 
REMARK    6  A    between atoms: C7_16  and  C8_17 
REMARK    7  A    between atoms: C8_17  and  O5_18 
REMARK    8  A    between atoms: C9_20  and  O6_21 
REMARK    9  A    between atoms: C10_23  and  O7_24 
REMARK   10  A    between atoms: C11_26  and  O8_27 
REMARK   11  A    between atoms: C12_29  and  O9_30 
ROOT
HETATM    1  O3  UNL     1       2.697  24.044   6.505  1.00  0.00    -0.346 OA
ENDROOT
BRANCH   1   2
HETATM    2  C3  UNL     1       2.657  24.249   5.136  1.00  0.00     0.292 C 
HETATM    3  O2  UNL     1       3.878  24.653   4.677  1.00  0.00    -0.348 OA
HETATM    4  C2  UNL     1       4.060  24.650   3.326  1.00  0.00     0.179 C 
HETATM    5  C12 UNL     1       3.610  23.412   2.618  1.00  0.00     0.180 C 
HETATM    6  C11 UNL     1       3.266  22.375   3.675  1.00  0.00     0.183 C 
HETATM    7  C10 UNL     1       2.150  22.967   4.509  1.00  0.00     0.204 C 
BRANCH   4   8
HETATM    8  C1  UNL     1       3.453  25.840   2.620  1.00  0.00     0.198 C 
BRANCH   8   9
HETATM    9  O1  UNL     1       2.187  25.580   2.116  1.00  0.00    -0.398 OA
ATOM     10  H1  UNL     1       1.612  26.336   2.154  1.00  0.00     0.209 HD
ENDBRANCH   8   9
ENDBRANCH   4   8
BRANCH   5  11
HETATM   11  O9  UNL     1       4.579  22.924   1.736  1.00  0.00    -0.390 OA
ATOM     12  H9  UNL     1       4.318  23.018   0.827  1.00  0.00     0.210 HD
ENDBRANCH   5  11
BRANCH   6  13
HETATM   13  O8  UNL     1       2.927  21.154   3.131  1.00  0.00    -0.390 OA
ATOM     14  H8  UNL     1       2.538  21.236   2.269  1.00  0.00     0.210 HD
ENDBRANCH   6  13
BRANCH   7  15
HETATM   15  O7  UNL     1       0.996  23.184   3.756  1.00  0.00    -0.388 OA
ATOM     16  H7  UNL     1       1.122  23.871   3.111  1.00  0.00     0.210 HD
ENDBRANCH   7  15
ENDBRANCH   1   2
BRANCH   1  17
HETATM   17  C4  UNL     1       3.069  22.776   6.877  1.00  0.00     0.210 C 
HETATM   18  C5  UNL     1       2.165  22.357   8.019  1.00  0.00     0.350 C 
HETATM   19  N1  UNL     1       2.463  21.008   8.467  1.00  0.00    -0.046 N 
HETATM   20  C6  UNL     1       3.774  21.061   9.095  1.00  0.00     0.244 C 
ATOM     21  H12 UNL     1       1.741  20.615   9.071  1.00  0.00     0.280 HD
ATOM     22  H11 UNL     1       2.399  20.312   7.724  1.00  0.00     0.280 HD
HETATM   23  C7  UNL     1       4.837  21.505   8.124  1.00  0.00     0.066 C 
HETATM   24  C9  UNL     1       4.483  22.781   7.409  1.00  0.00     0.159 C 
BRANCH  18  25
HETATM   25  O4  UNL     1       2.441  23.204   9.093  1.00  0.00    -0.368 OA
ATOM     26  H4  UNL     1       1.903  22.918   9.822  1.00  0.00     0.212 HD
ENDBRANCH  18  25
BRANCH  23  27
HETATM   27  C8  UNL     1       6.125  21.669   8.866  1.00  0.00     0.173 C 
BRANCH  27  28
HETATM   28  O5  UNL     1       7.204  21.798   8.006  1.00  0.00    -0.400 OA
ATOM     29  H5  UNL     1       7.542  20.954   7.732  1.00  0.00     0.209 HD
ENDBRANCH  27  28
ENDBRANCH  23  27
BRANCH  24  30
HETATM   30  O6  UNL     1       5.350  22.908   6.325  1.00  0.00    -0.392 OA
ATOM     31  H6  UNL     1       5.294  23.802   6.008  1.00  0.00     0.210 HD
ENDBRANCH  24  30
ENDBRANCH   1  17
TORSDOF 11
ENDMDL
