MODEL 2
REMARK VINA RESULT: -6.453893744      1.297      1.569
REMARK  11 active torsions:
REMARK  status: ('A' for Active; 'I' for Inactive)
REMARK    1  A    between atoms: O1_1  and  C1_3 
REMARK    2  A    between atoms: C1_3  and  C2_4 
REMARK    3  A    between atoms: C3_6  and  O3_7 
REMARK    4  A    between atoms: O3_7  and  C4_8 
REMARK    5  A    between atoms: C5_9  and  O4_10 
REMARK    6  A    between atoms: C7_16  and  C8_17 
REMARK    7  A    between atoms: C8_17  and  O5_18 
REMARK    8  A    between atoms: C9_20  and  O6_21 
REMARK    9  A    between atoms: C10_23  and  O7_24 
REMARK   10  A    between atoms: C11_26  and  O8_27 
REMARK   11  A    between atoms: C12_29  and  O9_30 
ROOT
HETATM    1  O3  UNL     1       3.616  23.294   6.561  1.00  0.00    -0.346 OA
ENDROOT
BRANCH   1   2
HETATM    2  C3  UNL     1       3.341  22.279   7.463  1.00  0.00     0.292 C 
HETATM    3  O2  UNL     1       4.428  22.032   8.252  1.00  0.00    -0.348 OA
HETATM    4  C2  UNL     1       4.230  21.242   9.343  1.00  0.00     0.179 C 
HETATM    5  C12 UNL     1       3.036  21.581  10.177  1.00  0.00     0.180 C 
HETATM    6  C11 UNL     1       2.483  22.905   9.673  1.00  0.00     0.183 C 
HETATM    7  C10 UNL     1       2.098  22.685   8.226  1.00  0.00     0.204 C 
BRANCH   4   8
HETATM    8  C1  UNL     1       4.179  19.764   9.033  1.00  0.00     0.198 C 
BRANCH   8   9
HETATM    9  O1  UNL     1       5.366  19.110   9.328  1.00  0.00    -0.398 OA
ATOM     10  H1  UNL     1       5.758  18.696   8.568  1.00  0.00     0.209 HD
ENDBRANCH   8   9
ENDBRANCH   4   8
BRANCH   5  11
HETATM   11  O9  UNL     1       3.343  21.653  11.539  1.00  0.00    -0.390 OA
ATOM     12  H9  UNL     1       2.573  21.562  12.088  1.00  0.00     0.210 HD
ENDBRANCH   5  11
BRANCH   6  13
HETATM   13  O8  UNL     1       1.430  23.365  10.435  1.00  0.00    -0.390 OA
ATOM     14  H8  UNL     1       1.606  23.312  11.367  1.00  0.00     0.210 HD
ENDBRANCH   6  13
BRANCH   7  15
HETATM   15  O7  UNL     1       1.081  21.739   8.096  1.00  0.00    -0.388 OA
ATOM     16  H7  UNL     1       0.600  21.628   8.907  1.00  0.00     0.210 HD
ENDBRANCH   7  15
ENDBRANCH   1   2
BRANCH   1  17
HETATM   17  C4  UNL     1       3.505  22.926   5.244  1.00  0.00     0.210 C 
HETATM   18  C5  UNL     1       4.879  22.485   4.781  1.00  0.00     0.350 C 
HETATM   19  N1  UNL     1       4.860  22.046   3.397  1.00  0.00    -0.046 N 
HETATM   20  C6  UNL     1       4.612  23.230   2.591  1.00  0.00     0.244 C 
ATOM     21  H12 UNL     1       5.701  21.539   3.123  1.00  0.00     0.280 HD
ATOM     22  H11 UNL     1       4.195  21.292   3.222  1.00  0.00     0.280 HD
HETATM   23  C7  UNL     1       3.287  23.864   2.926  1.00  0.00     0.066 C 
HETATM   24  C9  UNL     1       3.114  24.117   4.400  1.00  0.00     0.159 C 
BRANCH  18  25
HETATM   25  O4  UNL     1       5.709  23.605   4.833  1.00  0.00    -0.368 OA
ATOM     26  H4  UNL     1       6.599  23.291   4.940  1.00  0.00     0.212 HD
ENDBRANCH  18  25
BRANCH  23  27
HETATM   27  C8  UNL     1       3.161  25.145   2.165  1.00  0.00     0.173 C 
BRANCH  27  28
HETATM   28  O5  UNL     1       3.177  26.248   3.004  1.00  0.00    -0.400 OA
ATOM     29  H5  UNL     1       2.372  26.749   2.947  1.00  0.00     0.209 HD
ENDBRANCH  27  28
ENDBRANCH  23  27
BRANCH  24  30
HETATM   30  O6  UNL     1       1.763  24.378   4.624  1.00  0.00    -0.392 OA
ATOM     31  H6  UNL     1       1.356  24.558   3.785  1.00  0.00     0.210 HD
ENDBRANCH  24  30
ENDBRANCH   1  17
TORSDOF 11
ENDMDL
