MODEL 6
REMARK VINA RESULT: -6.191269773      3.419      6.209
REMARK  11 active torsions:
REMARK  status: ('A' for Active; 'I' for Inactive)
REMARK    1  A    between atoms: O1_1  and  C1_3 
REMARK    2  A    between atoms: C1_3  and  C2_4 
REMARK    3  A    between atoms: C3_6  and  O3_7 
REMARK    4  A    between atoms: O3_7  and  C4_8 
REMARK    5  A    between atoms: C5_9  and  O4_10 
REMARK    6  A    between atoms: C7_16  and  C8_17 
REMARK    7  A    between atoms: C8_17  and  O5_18 
REMARK    8  A    between atoms: C9_20  and  O6_21 
REMARK    9  A    between atoms: C10_23  and  O7_24 
REMARK   10  A    between atoms: C11_26  and  O8_27 
REMARK   11  A    between atoms: C12_29  and  O9_30 
ROOT
HETATM    1  O3  UNL     1       3.742  21.038   2.948  1.00  0.00    -0.346 OA
ENDROOT
BRANCH   1   2
HETATM    2  C3  UNL     1       3.906  22.401   3.129  1.00  0.00     0.292 C 
HETATM    3  O2  UNL     1       2.734  23.061   2.892  1.00  0.00    -0.348 OA
HETATM    4  C2  UNL     1       2.675  24.368   3.272  1.00  0.00     0.179 C 
HETATM    5  C12 UNL     1       3.181  24.664   4.647  1.00  0.00     0.180 C 
HETATM    6  C11 UNL     1       3.423  23.335   5.345  1.00  0.00     0.183 C 
HETATM    7  C10 UNL     1       4.462  22.603   4.523  1.00  0.00     0.204 C 
BRANCH   4   8
HETATM    8  C1  UNL     1       3.349  25.320   2.311  1.00  0.00     0.198 C 
BRANCH   8   9
HETATM    9  O1  UNL     1       3.042  26.648   2.564  1.00  0.00    -0.398 OA
ATOM     10  H1  UNL     1       3.410  27.242   1.919  1.00  0.00     0.209 HD
ENDBRANCH   8   9
ENDBRANCH   4   8
BRANCH   5  11
HETATM   11  O9  UNL     1       2.293  25.458   5.379  1.00  0.00    -0.390 OA
ATOM     12  H9  UNL     1       2.709  25.863   6.131  1.00  0.00     0.210 HD
ENDBRANCH   5  11
BRANCH   6  13
HETATM   13  O8  UNL     1       3.804  23.487   6.661  1.00  0.00    -0.390 OA
ATOM     14  H8  UNL     1       4.232  24.319   6.821  1.00  0.00     0.210 HD
ENDBRANCH   6  13
BRANCH   7  15
HETATM   15  O7  UNL     1       5.680  23.282   4.499  1.00  0.00    -0.388 OA
ATOM     16  H7  UNL     1       6.243  23.017   5.217  1.00  0.00     0.210 HD
ENDBRANCH   7  15
ENDBRANCH   1   2
BRANCH   1  17
HETATM   17  C4  UNL     1       4.899  20.309   3.065  1.00  0.00     0.210 C 
HETATM   18  C5  UNL     1       5.575  20.313   1.709  1.00  0.00     0.350 C 
HETATM   19  N1  UNL     1       6.831  19.585   1.738  1.00  0.00    -0.046 N 
HETATM   20  C6  UNL     1       6.493  18.183   1.926  1.00  0.00     0.244 C 
ATOM     21  H12 UNL     1       7.414  19.754   0.918  1.00  0.00     0.280 HD
ATOM     22  H11 UNL     1       7.487  19.939   2.434  1.00  0.00     0.280 HD
HETATM   23  C7  UNL     1       5.762  17.957   3.224  1.00  0.00     0.066 C 
HETATM   24  C9  UNL     1       4.577  18.870   3.396  1.00  0.00     0.159 C 
BRANCH  18  25
HETATM   25  O4  UNL     1       4.736  19.626   0.830  1.00  0.00    -0.368 OA
ATOM     26  H4  UNL     1       4.138  20.264   0.458  1.00  0.00     0.212 HD
ENDBRANCH  18  25
BRANCH  23  27
HETATM   27  C8  UNL     1       5.325  16.528   3.286  1.00  0.00     0.173 C 
BRANCH  27  28
HETATM   28  O5  UNL     1       5.341  16.039   4.583  1.00  0.00    -0.400 OA
ATOM     29  H5  UNL     1       6.074  15.453   4.732  1.00  0.00     0.209 HD
ENDBRANCH  27  28
ENDBRANCH  23  27
BRANCH  24  30
HETATM   30  O6  UNL     1       4.195  18.811   4.736  1.00  0.00    -0.392 OA
ATOM     31  H6  UNL     1       4.611  18.052   5.126  1.00  0.00     0.210 HD
ENDBRANCH  24  30
ENDBRANCH   1  17
TORSDOF 11
ENDMDL
