MODEL 2
REMARK VINA RESULT: -8.664927827      1.402      1.822
REMARK  4 active torsions:
REMARK  status: ('A' for Active; 'I' for Inactive)
REMARK    1  A    between atoms: N1_7  and  C6_8 
REMARK    2  A    between atoms: C6_8  and  C7_9 
REMARK    3  A    between atoms: C7_9  and  O2_10 
REMARK    4  A    between atoms: O2_10  and  C8_11 
ROOT
HETATM    1  C8  UNL     1      23.826   7.560  -2.919  1.00  0.00     0.070 A 
HETATM    2  C9  UNL     1      23.566   7.220  -4.224  1.00  0.00     0.040 A 
HETATM    3  C10 UNL     1      22.705   7.990  -5.028  1.00  0.00     0.046 A 
HETATM    4  C11 UNL     1      22.100   9.113  -4.503  1.00  0.00     0.137 A 
HETATM    5  F1  UNL     1      21.274   9.843  -5.285  1.00  0.00    -0.204 F 
HETATM    6  C12 UNL     1      22.343   9.478  -3.196  1.00  0.00     0.085 A 
HETATM    7  C13 UNL     1      21.708  10.658  -2.646  1.00  0.00     0.102 C 
HETATM    8  N2  UNL     1      21.216  11.609  -2.213  1.00  0.00    -0.191 NA
HETATM    9  C14 UNL     1      23.180   8.707  -2.459  1.00  0.00     0.062 A 
ENDROOT
BRANCH   1  10
HETATM   10  O2  UNL     1      24.653   6.851  -2.103  1.00  0.00    -0.349 OA
BRANCH  10  11
HETATM   11  C7  UNL     1      25.105   5.556  -2.124  1.00  0.00     0.195 C 
BRANCH  11  12
HETATM   12  C6  UNL     1      26.499   5.307  -1.644  1.00  0.00     0.152 C 
BRANCH  12  13
HETATM   13  N1  UNL     1      26.822   3.876  -1.668  1.00  0.00    -0.349 N 
HETATM   14  C5  UNL     1      28.100   3.284  -1.817  1.00  0.00     0.220 C 
HETATM   15  C4  UNL     1      27.961   1.815  -1.949  1.00  0.00     0.113 C 
HETATM   16  O1  UNL     1      29.175   3.920  -1.831  1.00  0.00    -0.273 OA
HETATM   17  C2  UNL     1      26.500   1.712  -2.386  1.00  0.00    -0.023 C 
HETATM   18  C1  UNL     1      26.364   2.090  -3.824  1.00  0.00     0.017 C 
HETATM   19  C3  UNL     1      25.947   0.342  -2.078  1.00  0.00     0.017 C 
HETATM   20  C15 UNL     1      25.866   2.794  -1.541  1.00  0.00     0.135 C 
ENDBRANCH  12  13
ENDBRANCH  11  12
ENDBRANCH  10  11
ENDBRANCH   1  10
TORSDOF 4
ENDMDL
