MODEL 7
REMARK VINA RESULT: -7.611258009      3.493      7.903
REMARK  4 active torsions:
REMARK  status: ('A' for Active; 'I' for Inactive)
REMARK    1  A    between atoms: N1_7  and  C6_8 
REMARK    2  A    between atoms: C6_8  and  C7_9 
REMARK    3  A    between atoms: C7_9  and  O2_10 
REMARK    4  A    between atoms: O2_10  and  C8_11 
ROOT
HETATM    1  C8  UNL     1      27.380   3.478  -1.934  1.00  0.00     0.070 A 
HETATM    2  C9  UNL     1      28.603   2.876  -2.101  1.00  0.00     0.040 A 
HETATM    3  C10 UNL     1      28.801   1.517  -1.794  1.00  0.00     0.046 A 
HETATM    4  C11 UNL     1      27.751   0.763  -1.313  1.00  0.00     0.137 A 
HETATM    5  F1  UNL     1      27.955  -0.541  -1.021  1.00  0.00    -0.204 F 
HETATM    6  C12 UNL     1      26.512   1.343  -1.136  1.00  0.00     0.085 A 
HETATM    7  C13 UNL     1      25.410   0.550  -0.631  1.00  0.00     0.102 C 
HETATM    8  N2  UNL     1      24.526  -0.086  -0.246  1.00  0.00    -0.191 NA
HETATM    9  C14 UNL     1      26.367   2.654  -1.445  1.00  0.00     0.062 A 
ENDROOT
BRANCH   1  10
HETATM   10  O2  UNL     1      27.137   4.787  -2.220  1.00  0.00    -0.349 OA
BRANCH  10  11
HETATM   11  C7  UNL     1      26.174   5.672  -1.807  1.00  0.00     0.195 C 
BRANCH  11  12
HETATM   12  C6  UNL     1      24.807   5.525  -2.397  1.00  0.00     0.152 C 
BRANCH  12  13
HETATM   13  N1  UNL     1      24.287   6.816  -2.861  1.00  0.00    -0.349 N 
HETATM   14  C5  UNL     1      24.004   7.962  -2.079  1.00  0.00     0.220 C 
HETATM   15  C4  UNL     1      23.345   8.992  -2.916  1.00  0.00     0.113 C 
HETATM   16  O1  UNL     1      24.278   8.073  -0.865  1.00  0.00    -0.273 OA
HETATM   17  C2  UNL     1      22.822   8.126  -4.062  1.00  0.00    -0.023 C 
HETATM   18  C1  UNL     1      21.612   7.369  -3.626  1.00  0.00     0.017 C 
HETATM   19  C3  UNL     1      22.586   8.961  -5.297  1.00  0.00     0.017 C 
HETATM   20  C15 UNL     1      23.965   7.150  -4.234  1.00  0.00     0.135 C 
ENDBRANCH  12  13
ENDBRANCH  11  12
ENDBRANCH  10  11
ENDBRANCH   1  10
TORSDOF 4
ENDMDL
