MODEL 3
REMARK VINA RESULT: -7.987351495      4.929      8.056
REMARK  4 active torsions:
REMARK  status: ('A' for Active; 'I' for Inactive)
REMARK    1  A    between atoms: N1_7  and  C6_8 
REMARK    2  A    between atoms: C6_8  and  C7_9 
REMARK    3  A    between atoms: C7_9  and  O2_10 
REMARK    4  A    between atoms: O2_10  and  C8_11 
ROOT
HETATM    1  C8  UNL     1      21.498   7.627  -4.398  1.00  0.00     0.070 A 
HETATM    2  C9  UNL     1      22.779   7.221  -4.114  1.00  0.00     0.040 A 
HETATM    3  C10 UNL     1      23.644   8.009  -3.333  1.00  0.00     0.046 A 
HETATM    4  C11 UNL     1      23.208   9.219  -2.836  1.00  0.00     0.137 A 
HETATM    5  F1  UNL     1      24.049   9.967  -2.088  1.00  0.00    -0.204 F 
HETATM    6  C12 UNL     1      21.926   9.651  -3.105  1.00  0.00     0.085 A 
HETATM    7  C13 UNL     1      21.468  10.922  -2.583  1.00  0.00     0.102 C 
HETATM    8  N2  UNL     1      21.097  11.927  -2.152  1.00  0.00    -0.191 NA
HETATM    9  C14 UNL     1      21.127   8.860  -3.862  1.00  0.00     0.062 A 
ENDROOT
BRANCH   1  10
HETATM   10  O2  UNL     1      20.623   6.899  -5.144  1.00  0.00    -0.349 OA
BRANCH  10  11
HETATM   11  C7  UNL     1      19.717   5.918  -4.833  1.00  0.00     0.195 C 
BRANCH  11  12
HETATM   12  C6  UNL     1      18.375   6.353  -4.335  1.00  0.00     0.152 C 
BRANCH  12  13
HETATM   13  N1  UNL     1      17.564   6.919  -5.419  1.00  0.00    -0.349 N 
HETATM   14  C5  UNL     1      16.565   6.265  -6.179  1.00  0.00     0.220 C 
HETATM   15  C4  UNL     1      16.108   7.149  -7.276  1.00  0.00     0.113 C 
HETATM   16  O1  UNL     1      16.143   5.112  -5.945  1.00  0.00    -0.273 OA
HETATM   17  C2  UNL     1      17.293   8.109  -7.371  1.00  0.00    -0.023 C 
HETATM   18  C1  UNL     1      18.437   7.450  -8.065  1.00  0.00     0.017 C 
HETATM   19  C3  UNL     1      16.875   9.408  -8.019  1.00  0.00     0.017 C 
HETATM   20  C15 UNL     1      17.647   8.280  -5.911  1.00  0.00     0.135 C 
ENDBRANCH  12  13
ENDBRANCH  11  12
ENDBRANCH  10  11
ENDBRANCH   1  10
TORSDOF 4
ENDMDL
