MODEL 4
REMARK VINA RESULT: -7.864350593      4.655      8.123
REMARK  4 active torsions:
REMARK  status: ('A' for Active; 'I' for Inactive)
REMARK    1  A    between atoms: N1_7  and  C6_8 
REMARK    2  A    between atoms: C6_8  and  C7_9 
REMARK    3  A    between atoms: C7_9  and  O2_10 
REMARK    4  A    between atoms: O2_10  and  C8_11 
ROOT
HETATM    1  C8  UNL     1      21.516   7.582  -4.285  1.00  0.00     0.070 A 
HETATM    2  C9  UNL     1      21.187   8.915  -4.227  1.00  0.00     0.040 A 
HETATM    3  C10 UNL     1      21.974   9.836  -3.512  1.00  0.00     0.046 A 
HETATM    4  C11 UNL     1      23.103   9.404  -2.848  1.00  0.00     0.137 A 
HETATM    5  F1  UNL     1      23.849  10.299  -2.164  1.00  0.00    -0.204 F 
HETATM    6  C12 UNL     1      23.456   8.072  -2.889  1.00  0.00     0.085 A 
HETATM    7  C13 UNL     1      24.642   7.618  -2.191  1.00  0.00     0.102 C 
HETATM    8  N2  UNL     1      25.597   7.259  -1.650  1.00  0.00    -0.191 NA
HETATM    9  C14 UNL     1      22.670   7.219  -3.590  1.00  0.00     0.062 A 
ENDROOT
BRANCH   1  10
HETATM   10  O2  UNL     1      20.791   6.653  -4.966  1.00  0.00    -0.349 OA
BRANCH  10  11
HETATM   11  C7  UNL     1      19.784   5.797  -4.597  1.00  0.00     0.195 C 
BRANCH  11  12
HETATM   12  C6  UNL     1      18.505   6.407  -4.121  1.00  0.00     0.152 C 
BRANCH  12  13
HETATM   13  N1  UNL     1      17.700   6.902  -5.244  1.00  0.00    -0.349 N 
HETATM   14  C5  UNL     1      16.742   6.184  -5.999  1.00  0.00     0.220 C 
HETATM   15  C4  UNL     1      16.281   7.008  -7.140  1.00  0.00     0.113 C 
HETATM   16  O1  UNL     1      16.354   5.027  -5.729  1.00  0.00    -0.273 OA
HETATM   17  C2  UNL     1      17.434   8.005  -7.247  1.00  0.00    -0.023 C 
HETATM   18  C1  UNL     1      18.617   7.360  -7.888  1.00  0.00     0.017 C 
HETATM   19  C3  UNL     1      16.988   9.262  -7.954  1.00  0.00     0.017 C 
HETATM   20  C15 UNL     1      17.748   8.244  -5.786  1.00  0.00     0.135 C 
ENDBRANCH  12  13
ENDBRANCH  11  12
ENDBRANCH  10  11
ENDBRANCH   1  10
TORSDOF 4
ENDMDL
