MODEL 1
REMARK VINA RESULT: -8.721601881      0.000      0.000
REMARK  4 active torsions:
REMARK  status: ('A' for Active; 'I' for Inactive)
REMARK    1  A    between atoms: N1_7  and  C6_8 
REMARK    2  A    between atoms: C6_8  and  C7_9 
REMARK    3  A    between atoms: C7_9  and  O2_10 
REMARK    4  A    between atoms: O2_10  and  C8_11 
ROOT
HETATM    1  C8  UNL     1      24.185   7.924  -2.547  1.00  0.00     0.070 A 
HETATM    2  C9  UNL     1      23.939   7.406  -3.795  1.00  0.00     0.040 A 
HETATM    3  C10 UNL     1      22.991   7.987  -4.658  1.00  0.00     0.046 A 
HETATM    4  C11 UNL     1      22.286   9.101  -4.252  1.00  0.00     0.137 A 
HETATM    5  F1  UNL     1      21.378   9.647  -5.091  1.00  0.00    -0.204 F 
HETATM    6  C12 UNL     1      22.514   9.642  -3.005  1.00  0.00     0.085 A 
HETATM    7  C13 UNL     1      21.773  10.812  -2.580  1.00  0.00     0.102 C 
HETATM    8  N2  UNL     1      21.196  11.755  -2.247  1.00  0.00    -0.191 NA
HETATM    9  C14 UNL     1      23.436   9.051  -2.207  1.00  0.00     0.062 A 
ENDROOT
BRANCH   1  10
HETATM   10  O2  UNL     1      25.094   7.403  -1.678  1.00  0.00    -0.349 OA
BRANCH  10  11
HETATM   11  C7  UNL     1      26.021   6.397  -1.784  1.00  0.00     0.195 C 
BRANCH  11  12
HETATM   12  C6  UNL     1      25.744   5.126  -1.046  1.00  0.00     0.152 C 
BRANCH  12  13
HETATM   13  N1  UNL     1      26.161   3.956  -1.828  1.00  0.00    -0.349 N 
HETATM   14  C5  UNL     1      25.347   3.125  -2.634  1.00  0.00     0.220 C 
HETATM   15  C4  UNL     1      26.134   1.966  -3.116  1.00  0.00     0.113 C 
HETATM   16  O1  UNL     1      24.145   3.350  -2.891  1.00  0.00    -0.273 OA
HETATM   17  C2  UNL     1      27.268   1.955  -2.092  1.00  0.00    -0.023 C 
HETATM   18  C1  UNL     1      26.790   1.390  -0.797  1.00  0.00     0.017 C 
HETATM   19  C3  UNL     1      28.476   1.236  -2.643  1.00  0.00     0.017 C 
HETATM   20  C15 UNL     1      27.511   3.437  -1.912  1.00  0.00     0.135 C 
ENDBRANCH  12  13
ENDBRANCH  11  12
ENDBRANCH  10  11
ENDBRANCH   1  10
TORSDOF 4
ENDMDL
