MODEL 2
REMARK VINA RESULT: -7.982197400      4.006      7.559
REMARK  5 active torsions:
REMARK  status: ('A' for Active; 'I' for Inactive)
REMARK    1  A    between atoms: C2_2  and  C3_3 
REMARK    2  A    between atoms: N1_12  and  C11_13 
REMARK    3  A    between atoms: C11_13  and  C12_14 
REMARK    4  A    between atoms: C12_14  and  O2_15 
REMARK    5  A    between atoms: O2_15  and  C13_16 
ROOT
HETATM    1  C13 UNL     1      25.063   6.430  -3.008  1.00  0.00     0.070 A 
HETATM    2  C14 UNL     1      26.206   6.881  -2.324  1.00  0.00     0.040 A 
HETATM    3  C15 UNL     1      27.060   5.834  -1.943  1.00  0.00     0.046 A 
HETATM    4  C16 UNL     1      26.814   4.523  -2.198  1.00  0.00     0.137 A 
HETATM    5  F1  UNL     1      27.664   3.554  -1.788  1.00  0.00    -0.204 F 
HETATM    6  C17 UNL     1      25.656   4.108  -2.895  1.00  0.00     0.085 A 
HETATM    7  C18 UNL     1      25.399   2.758  -3.233  1.00  0.00     0.102 C 
HETATM    8  N2  UNL     1      25.200   1.640  -3.549  1.00  0.00    -0.191 NA
HETATM    9  C19 UNL     1      24.819   5.128  -3.266  1.00  0.00     0.062 A 
ENDROOT
BRANCH   1  10
HETATM   10  O2  UNL     1      24.199   7.462  -3.404  1.00  0.00    -0.349 OA
BRANCH  10  11
HETATM   11  C12 UNL     1      24.158   7.799  -4.758  1.00  0.00     0.195 C 
BRANCH  11  12
HETATM   12  C11 UNL     1      22.777   8.152  -5.214  1.00  0.00     0.152 C 
BRANCH  12  13
HETATM   13  N1  UNL     1      21.754   7.359  -4.582  1.00  0.00    -0.349 N 
HETATM   14  C10 UNL     1      20.777   7.813  -3.615  1.00  0.00     0.221 C 
HETATM   15  C9  UNL     1      19.978   6.584  -3.186  1.00  0.00     0.118 C 
HETATM   16  O1  UNL     1      20.663   8.987  -3.252  1.00  0.00    -0.273 OA
HETATM   17  C2  UNL     1      19.962   5.949  -4.603  1.00  0.00     0.008 C 
HETATM   18  C1  UNL     1      19.418   4.609  -4.601  1.00  0.00     0.022 C 
HETATM   19  C20 UNL     1      21.493   5.951  -4.865  1.00  0.00     0.140 C 
BRANCH  17  20
HETATM   20  C3  UNL     1      19.316   6.969  -5.440  1.00  0.00    -0.048 A 
HETATM   21  C4  UNL     1      19.877   7.285  -6.680  1.00  0.00     0.008 A 
HETATM   22  C5  UNL     1      19.277   8.217  -7.532  1.00  0.00     0.001 A 
HETATM   23  C6  UNL     1      18.114   8.837  -7.143  1.00  0.00     0.000 A 
HETATM   24  C7  UNL     1      17.545   8.538  -5.917  1.00  0.00     0.001 A 
HETATM   25  C8  UNL     1      18.143   7.622  -5.095  1.00  0.00     0.008 A 
ENDBRANCH  17  20
ENDBRANCH  12  13
ENDBRANCH  11  12
ENDBRANCH  10  11
ENDBRANCH   1  10
TORSDOF 5
ENDMDL
