MODEL 3
REMARK VINA RESULT: -7.887527873      3.239      4.129
REMARK  5 active torsions:
REMARK  status: ('A' for Active; 'I' for Inactive)
REMARK    1  A    between atoms: C2_2  and  C3_3 
REMARK    2  A    between atoms: N1_12  and  C11_13 
REMARK    3  A    between atoms: C11_13  and  C12_14 
REMARK    4  A    between atoms: C12_14  and  O2_15 
REMARK    5  A    between atoms: O2_15  and  C13_16 
ROOT
HETATM    1  C13 UNL     1      22.037   7.958  -4.185  1.00  0.00     0.070 A 
HETATM    2  C14 UNL     1      23.345   7.467  -4.024  1.00  0.00     0.040 A 
HETATM    3  C15 UNL     1      24.183   8.366  -3.345  1.00  0.00     0.046 A 
HETATM    4  C16 UNL     1      23.784   9.584  -2.895  1.00  0.00     0.137 A 
HETATM    5  F1  UNL     1      24.642  10.418  -2.265  1.00  0.00    -0.204 F 
HETATM    6  C17 UNL     1      22.458  10.041  -3.072  1.00  0.00     0.085 A 
HETATM    7  C18 UNL     1      21.991  11.276  -2.561  1.00  0.00     0.102 C 
HETATM    8  N2  UNL     1      21.590  12.287  -2.106  1.00  0.00    -0.191 NA
HETATM    9  C19 UNL     1      21.638   9.167  -3.736  1.00  0.00     0.062 A 
ENDROOT
BRANCH   1  10
HETATM   10  O2  UNL     1      21.180   7.072  -4.856  1.00  0.00    -0.349 OA
BRANCH  10  11
HETATM   11  C12 UNL     1      19.983   6.719  -4.230  1.00  0.00     0.195 C 
BRANCH  11  12
HETATM   12  C11 UNL     1      20.168   5.618  -3.233  1.00  0.00     0.152 C 
BRANCH  12  13
HETATM   13  N1  UNL     1      20.558   4.369  -3.835  1.00  0.00    -0.349 N 
HETATM   14  C10 UNL     1      21.890   3.805  -3.879  1.00  0.00     0.221 C 
HETATM   15  C9  UNL     1      21.797   2.519  -4.699  1.00  0.00     0.118 C 
HETATM   16  O1  UNL     1      22.871   4.316  -3.332  1.00  0.00    -0.273 OA
HETATM   17  C2  UNL     1      20.411   2.113  -4.130  1.00  0.00     0.008 C 
HETATM   18  C1  UNL     1      19.848   0.970  -4.814  1.00  0.00     0.022 C 
HETATM   19  C20 UNL     1      19.643   3.421  -4.462  1.00  0.00     0.140 C 
BRANCH  17  20
HETATM   20  C3  UNL     1      20.635   2.025  -2.681  1.00  0.00    -0.048 A 
HETATM   21  C4  UNL     1      19.600   2.378  -1.812  1.00  0.00     0.008 A 
HETATM   22  C5  UNL     1      19.748   2.272  -0.425  1.00  0.00     0.001 A 
HETATM   23  C6  UNL     1      20.935   1.814   0.094  1.00  0.00     0.000 A 
HETATM   24  C7  UNL     1      21.972   1.461  -0.752  1.00  0.00     0.001 A 
HETATM   25  C8  UNL     1      21.811   1.569  -2.107  1.00  0.00     0.008 A 
ENDBRANCH  17  20
ENDBRANCH  12  13
ENDBRANCH  11  12
ENDBRANCH  10  11
ENDBRANCH   1  10
TORSDOF 5
ENDMDL
