MODEL 5
REMARK VINA RESULT: -7.703044240      3.180      4.266
REMARK  5 active torsions:
REMARK  status: ('A' for Active; 'I' for Inactive)
REMARK    1  A    between atoms: C2_2  and  C3_3 
REMARK    2  A    between atoms: N1_12  and  C11_13 
REMARK    3  A    between atoms: C11_13  and  C12_14 
REMARK    4  A    between atoms: C12_14  and  O2_15 
REMARK    5  A    between atoms: O2_15  and  C13_16 
ROOT
HETATM    1  C13 UNL     1      21.982   7.633  -4.459  1.00  0.00     0.070 A 
HETATM    2  C14 UNL     1      21.408   8.913  -4.357  1.00  0.00     0.040 A 
HETATM    3  C15 UNL     1      22.228   9.823  -3.670  1.00  0.00     0.046 A 
HETATM    4  C16 UNL     1      23.442   9.508  -3.151  1.00  0.00     0.137 A 
HETATM    5  F1  UNL     1      24.179  10.422  -2.480  1.00  0.00    -0.204 F 
HETATM    6  C17 UNL     1      23.989   8.211  -3.279  1.00  0.00     0.085 A 
HETATM    7  C18 UNL     1      25.278   7.865  -2.806  1.00  0.00     0.102 C 
HETATM    8  N2  UNL     1      26.364   7.583  -2.446  1.00  0.00    -0.191 NA
HETATM    9  C19 UNL     1      23.191   7.320  -3.947  1.00  0.00     0.062 A 
ENDROOT
BRANCH   1  10
HETATM   10  O2  UNL     1      21.182   6.709  -5.149  1.00  0.00    -0.349 OA
BRANCH  10  11
HETATM   11  C12 UNL     1      20.020   6.255  -4.524  1.00  0.00     0.195 C 
BRANCH  11  12
HETATM   12  C11 UNL     1      20.312   5.304  -3.406  1.00  0.00     0.152 C 
BRANCH  12  13
HETATM   13  N1  UNL     1      20.807   4.030  -3.861  1.00  0.00    -0.349 N 
HETATM   14  C10 UNL     1      22.174   3.559  -3.804  1.00  0.00     0.221 C 
HETATM   15  C9  UNL     1      22.198   2.193  -4.488  1.00  0.00     0.118 C 
HETATM   16  O1  UNL     1      23.098   4.190  -3.284  1.00  0.00    -0.273 OA
HETATM   17  C2  UNL     1      20.821   1.752  -3.922  1.00  0.00     0.008 C 
HETATM   18  C1  UNL     1      20.362   0.507  -4.500  1.00  0.00     0.022 C 
HETATM   19  C20 UNL     1      19.981   2.962  -4.414  1.00  0.00     0.140 C 
BRANCH  17  20
HETATM   20  C3  UNL     1      20.995   1.828  -2.466  1.00  0.00    -0.048 A 
HETATM   21  C4  UNL     1      19.902   2.178  -1.670  1.00  0.00     0.008 A 
HETATM   22  C5  UNL     1      20.004   2.223  -0.276  1.00  0.00     0.001 A 
HETATM   23  C6  UNL     1      21.203   1.922   0.324  1.00  0.00     0.000 A 
HETATM   24  C7  UNL     1      22.297   1.575  -0.450  1.00  0.00     0.001 A 
HETATM   25  C8  UNL     1      22.181   1.533  -1.813  1.00  0.00     0.008 A 
ENDBRANCH  17  20
ENDBRANCH  12  13
ENDBRANCH  11  12
ENDBRANCH  10  11
ENDBRANCH   1  10
TORSDOF 5
ENDMDL
