MODEL 2
REMARK VINA RESULT: -9.101006390      3.883      9.474
REMARK  5 active torsions:
REMARK  status: ('A' for Active; 'I' for Inactive)
REMARK    1  A    between atoms: C2_2  and  C3_3 
REMARK    2  A    between atoms: N1_12  and  C11_13 
REMARK    3  A    between atoms: C11_13  and  C12_14 
REMARK    4  A    between atoms: C12_14  and  O2_15 
REMARK    5  A    between atoms: O2_15  and  C13_16 
ROOT
HETATM    1  C13 UNL     1      24.228   6.636  -2.613  1.00  0.00     0.070 A 
HETATM    2  C14 UNL     1      25.446   6.799  -1.974  1.00  0.00     0.040 A 
HETATM    3  C15 UNL     1      26.260   5.749  -1.588  1.00  0.00     0.046 A 
HETATM    4  C16 UNL     1      25.838   4.467  -1.850  1.00  0.00     0.137 A 
HETATM    5  F1  UNL     1      26.624   3.455  -1.466  1.00  0.00    -0.204 F 
HETATM    6  C17 UNL     1      24.632   4.263  -2.481  1.00  0.00     0.085 A 
HETATM    7  C18 UNL     1      24.180   2.924  -2.780  1.00  0.00     0.102 C 
HETATM    8  N2  UNL     1      23.800   1.857  -3.033  1.00  0.00    -0.191 NA
HETATM    9  C19 UNL     1      23.827   5.301  -2.864  1.00  0.00     0.062 A 
ENDROOT
BRANCH   1  10
HETATM   10  O2  UNL     1      23.387   7.579  -3.021  1.00  0.00    -0.349 OA
BRANCH  10  11
HETATM   11  C12 UNL     1      23.190   8.876  -2.879  1.00  0.00     0.195 C 
BRANCH  11  12
HETATM   12  C11 UNL     1      21.738   9.328  -2.671  1.00  0.00     0.152 C 
BRANCH  12  13
HETATM   13  N1  UNL     1      20.872   8.720  -3.645  1.00  0.00    -0.349 N 
HETATM   14  C10 UNL     1      21.074   8.780  -5.063  1.00  0.00     0.221 C 
HETATM   15  C9  UNL     1      20.609   7.452  -5.630  1.00  0.00     0.118 C 
HETATM   16  O1  UNL     1      21.547   9.747  -5.670  1.00  0.00    -0.273 OA
HETATM   17  C2  UNL     1      19.369   7.277  -4.721  1.00  0.00     0.008 C 
HETATM   18  C1  UNL     1      19.211   5.788  -4.462  1.00  0.00     0.022 C 
HETATM   19  C20 UNL     1      19.650   7.953  -3.440  1.00  0.00     0.140 C 
BRANCH  17  20
HETATM   20  C3  UNL     1      18.247   7.727  -5.540  1.00  0.00    -0.048 A 
HETATM   21  C4  UNL     1      18.320   8.169  -6.826  1.00  0.00     0.008 A 
HETATM   22  C5  UNL     1      17.157   8.549  -7.472  1.00  0.00     0.001 A 
HETATM   23  C6  UNL     1      15.905   8.500  -6.874  1.00  0.00     0.000 A 
HETATM   24  C7  UNL     1      15.857   8.045  -5.570  1.00  0.00     0.001 A 
HETATM   25  C8  UNL     1      16.997   7.660  -4.901  1.00  0.00     0.008 A 
ENDBRANCH  17  20
ENDBRANCH  12  13
ENDBRANCH  11  12
ENDBRANCH  10  11
ENDBRANCH   1  10
TORSDOF 5
ENDMDL
