MODEL 4
REMARK VINA RESULT: -9.046497603      3.312      8.590
REMARK  5 active torsions:
REMARK  status: ('A' for Active; 'I' for Inactive)
REMARK    1  A    between atoms: C2_2  and  C3_3 
REMARK    2  A    between atoms: N1_12  and  C11_13 
REMARK    3  A    between atoms: C11_13  and  C12_14 
REMARK    4  A    between atoms: C12_14  and  O2_15 
REMARK    5  A    between atoms: O2_15  and  C13_16 
ROOT
HETATM    1  C13 UNL     1      27.214   3.517  -2.362  1.00  0.00     0.070 A 
HETATM    2  C14 UNL     1      28.335   2.787  -2.003  1.00  0.00     0.040 A 
HETATM    3  C15 UNL     1      28.539   1.465  -2.358  1.00  0.00     0.046 A 
HETATM    4  C16 UNL     1      27.574   0.836  -3.108  1.00  0.00     0.137 A 
HETATM    5  F1  UNL     1      27.773  -0.444  -3.441  1.00  0.00    -0.204 F 
HETATM    6  C17 UNL     1      26.445   1.526  -3.483  1.00  0.00     0.085 A 
HETATM    7  C18 UNL     1      25.428   0.887  -4.286  1.00  0.00     0.102 C 
HETATM    8  N2  UNL     1      24.602   0.393  -4.933  1.00  0.00    -0.191 NA
HETATM    9  C19 UNL     1      26.243   2.834  -3.132  1.00  0.00     0.062 A 
ENDROOT
BRANCH   1  10
HETATM   10  O2  UNL     1      26.937   4.782  -2.071  1.00  0.00    -0.349 OA
BRANCH  10  11
HETATM   11  C12 UNL     1      25.894   5.543  -1.793  1.00  0.00     0.195 C 
BRANCH  11  12
HETATM   12  C11 UNL     1      25.931   6.979  -2.334  1.00  0.00     0.152 C 
BRANCH  12  13
HETATM   13  N1  UNL     1      24.618   7.405  -2.736  1.00  0.00    -0.349 N 
HETATM   14  C10 UNL     1      23.761   8.246  -1.953  1.00  0.00     0.221 C 
HETATM   15  C9  UNL     1      23.005   9.131  -2.925  1.00  0.00     0.118 C 
HETATM   16  O1  UNL     1      23.686   8.227  -0.720  1.00  0.00    -0.273 OA
HETATM   17  C2  UNL     1      22.766   8.059  -4.016  1.00  0.00     0.008 C 
HETATM   18  C1  UNL     1      22.806   8.770  -5.358  1.00  0.00     0.022 C 
HETATM   19  C20 UNL     1      23.883   7.098  -3.956  1.00  0.00     0.140 C 
BRANCH  17  20
HETATM   20  C3  UNL     1      21.402   7.593  -3.780  1.00  0.00    -0.048 A 
HETATM   21  C4  UNL     1      20.312   8.380  -3.566  1.00  0.00     0.008 A 
HETATM   22  C5  UNL     1      19.079   7.782  -3.370  1.00  0.00     0.001 A 
HETATM   23  C6  UNL     1      18.893   6.406  -3.384  1.00  0.00     0.000 A 
HETATM   24  C7  UNL     1      20.014   5.629  -3.606  1.00  0.00     0.001 A 
HETATM   25  C8  UNL     1      21.253   6.196  -3.803  1.00  0.00     0.008 A 
ENDBRANCH  17  20
ENDBRANCH  12  13
ENDBRANCH  11  12
ENDBRANCH  10  11
ENDBRANCH   1  10
TORSDOF 5
ENDMDL
