MODEL 8
REMARK VINA RESULT: -8.793738107      1.608      2.378
REMARK  5 active torsions:
REMARK  status: ('A' for Active; 'I' for Inactive)
REMARK    1  A    between atoms: C2_2  and  C3_3 
REMARK    2  A    between atoms: N1_12  and  C11_13 
REMARK    3  A    between atoms: C11_13  and  C12_14 
REMARK    4  A    between atoms: C12_14  and  O2_15 
REMARK    5  A    between atoms: O2_15  and  C13_16 
ROOT
HETATM    1  C13 UNL     1      23.931   7.742  -2.829  1.00  0.00     0.070 A 
HETATM    2  C14 UNL     1      23.662   7.347  -4.130  1.00  0.00     0.040 A 
HETATM    3  C15 UNL     1      22.768   7.996  -4.962  1.00  0.00     0.046 A 
HETATM    4  C16 UNL     1      22.104   9.096  -4.474  1.00  0.00     0.137 A 
HETATM    5  F1  UNL     1      21.234   9.715  -5.280  1.00  0.00    -0.204 F 
HETATM    6  C17 UNL     1      22.342   9.519  -3.187  1.00  0.00     0.085 A 
HETATM    7  C18 UNL     1      21.667  10.684  -2.662  1.00  0.00     0.102 C 
HETATM    8  N2  UNL     1      21.138  11.618  -2.223  1.00  0.00    -0.191 NA
HETATM    9  C19 UNL     1      23.227   8.878  -2.363  1.00  0.00     0.062 A 
ENDROOT
BRANCH   1  10
HETATM   10  O2  UNL     1      24.770   7.186  -1.964  1.00  0.00    -0.349 OA
BRANCH  10  11
HETATM   11  C12 UNL     1      25.108   5.988  -1.522  1.00  0.00     0.195 C 
BRANCH  11  12
HETATM   12  C11 UNL     1      26.514   5.495  -1.890  1.00  0.00     0.152 C 
BRANCH  12  13
HETATM   13  N1  UNL     1      26.524   4.068  -2.061  1.00  0.00    -0.349 N 
HETATM   14  C10 UNL     1      27.662   3.229  -1.825  1.00  0.00     0.221 C 
HETATM   15  C9  UNL     1      27.137   1.923  -1.260  1.00  0.00     0.118 C 
HETATM   16  O1  UNL     1      28.835   3.548  -2.049  1.00  0.00    -0.273 OA
HETATM   17  C2  UNL     1      25.881   1.815  -2.157  1.00  0.00     0.008 C 
HETATM   18  C1  UNL     1      24.793   1.154  -1.327  1.00  0.00     0.022 C 
HETATM   19  C20 UNL     1      25.450   3.184  -2.497  1.00  0.00     0.140 C 
BRANCH  17  20
HETATM   20  C3  UNL     1      26.270   0.898  -3.225  1.00  0.00    -0.048 A 
HETATM   21  C4  UNL     1      27.233  -0.062  -3.145  1.00  0.00     0.008 A 
HETATM   22  C5  UNL     1      27.475  -0.864  -4.247  1.00  0.00     0.001 A 
HETATM   23  C6  UNL     1      26.778  -0.742  -5.442  1.00  0.00     0.000 A 
HETATM   24  C7  UNL     1      25.805   0.237  -5.497  1.00  0.00     0.001 A 
HETATM   25  C8  UNL     1      25.542   1.050  -4.417  1.00  0.00     0.008 A 
ENDBRANCH  17  20
ENDBRANCH  12  13
ENDBRANCH  11  12
ENDBRANCH  10  11
ENDBRANCH   1  10
TORSDOF 5
ENDMDL
