MODEL 5
REMARK VINA RESULT: -8.956716298      3.341      9.118
REMARK  5 active torsions:
REMARK  status: ('A' for Active; 'I' for Inactive)
REMARK    1  A    between atoms: C2_2  and  C3_3 
REMARK    2  A    between atoms: N1_12  and  C11_13 
REMARK    3  A    between atoms: C11_13  and  C12_14 
REMARK    4  A    between atoms: C12_14  and  O2_15 
REMARK    5  A    between atoms: O2_15  and  C13_16 
ROOT
HETATM    1  C13 UNL     1      24.989   5.014  -2.117  1.00  0.00     0.070 A 
HETATM    2  C14 UNL     1      24.199   3.968  -2.565  1.00  0.00     0.040 A 
HETATM    3  C15 UNL     1      24.681   2.700  -2.836  1.00  0.00     0.046 A 
HETATM    4  C16 UNL     1      26.022   2.460  -2.652  1.00  0.00     0.137 A 
HETATM    5  F1  UNL     1      26.485   1.235  -2.924  1.00  0.00    -0.204 F 
HETATM    6  C17 UNL     1      26.841   3.474  -2.210  1.00  0.00     0.085 A 
HETATM    7  C18 UNL     1      28.250   3.237  -1.995  1.00  0.00     0.102 C 
HETATM    8  N2  UNL     1      29.382   3.066  -1.813  1.00  0.00    -0.191 NA
HETATM    9  C19 UNL     1      26.364   4.728  -1.942  1.00  0.00     0.062 A 
ENDROOT
BRANCH   1  10
HETATM   10  O2  UNL     1      24.614   6.255  -1.831  1.00  0.00    -0.349 OA
BRANCH  10  11
HETATM   11  C12 UNL     1      24.600   7.452  -2.387  1.00  0.00     0.195 C 
BRANCH  11  12
HETATM   12  C11 UNL     1      23.459   8.389  -1.963  1.00  0.00     0.152 C 
BRANCH  12  13
HETATM   13  N1  UNL     1      22.449   8.454  -2.984  1.00  0.00    -0.349 N 
HETATM   14  C10 UNL     1      21.713   9.637  -3.325  1.00  0.00     0.221 C 
HETATM   15  C9  UNL     1      21.481   9.595  -4.823  1.00  0.00     0.118 C 
HETATM   16  O1  UNL     1      21.358  10.505  -2.520  1.00  0.00    -0.273 OA
HETATM   17  C2  UNL     1      21.201   8.077  -4.932  1.00  0.00     0.008 C 
HETATM   18  C1  UNL     1      21.745   7.617  -6.274  1.00  0.00     0.022 C 
HETATM   19  C20 UNL     1      21.954   7.400  -3.860  1.00  0.00     0.140 C 
BRANCH  17  20
HETATM   20  C3  UNL     1      19.744   7.973  -4.964  1.00  0.00    -0.048 A 
HETATM   21  C4  UNL     1      18.946   7.591  -3.929  1.00  0.00     0.008 A 
HETATM   22  C5  UNL     1      17.575   7.556  -4.116  1.00  0.00     0.001 A 
HETATM   23  C6  UNL     1      16.964   7.898  -5.315  1.00  0.00     0.000 A 
HETATM   24  C7  UNL     1      17.795   8.285  -6.348  1.00  0.00     0.001 A 
HETATM   25  C8  UNL     1      19.162   8.329  -6.192  1.00  0.00     0.008 A 
ENDBRANCH  17  20
ENDBRANCH  12  13
ENDBRANCH  11  12
ENDBRANCH  10  11
ENDBRANCH   1  10
TORSDOF 5
ENDMDL
