MODEL 3
REMARK VINA RESULT: -9.052150859      1.795      2.866
REMARK  5 active torsions:
REMARK  status: ('A' for Active; 'I' for Inactive)
REMARK    1  A    between atoms: C2_2  and  C3_3 
REMARK    2  A    between atoms: N1_12  and  C11_13 
REMARK    3  A    between atoms: C11_13  and  C12_14 
REMARK    4  A    between atoms: C12_14  and  O2_15 
REMARK    5  A    between atoms: O2_15  and  C13_16 
ROOT
HETATM    1  C13 UNL     1      23.953   7.950  -2.979  1.00  0.00     0.070 A 
HETATM    2  C14 UNL     1      23.589   7.520  -4.245  1.00  0.00     0.040 A 
HETATM    3  C15 UNL     1      22.598   8.115  -5.005  1.00  0.00     0.046 A 
HETATM    4  C16 UNL     1      21.933   9.196  -4.477  1.00  0.00     0.137 A 
HETATM    5  F1  UNL     1      20.970   9.762  -5.212  1.00  0.00    -0.204 F 
HETATM    6  C17 UNL     1      22.264   9.652  -3.222  1.00  0.00     0.085 A 
HETATM    7  C18 UNL     1      21.588  10.797  -2.657  1.00  0.00     0.102 C 
HETATM    8  N2  UNL     1      21.060  11.717  -2.187  1.00  0.00    -0.191 NA
HETATM    9  C19 UNL     1      23.244   9.064  -2.470  1.00  0.00     0.062 A 
ENDROOT
BRANCH   1  10
HETATM   10  O2  UNL     1      24.888   7.445  -2.183  1.00  0.00    -0.349 OA
BRANCH  10  11
HETATM   11  C12 UNL     1      25.743   6.439  -2.152  1.00  0.00     0.195 C 
BRANCH  11  12
HETATM   12  C11 UNL     1      25.578   5.439  -0.999  1.00  0.00     0.152 C 
BRANCH  12  13
HETATM   13  N1  UNL     1      25.514   4.093  -1.499  1.00  0.00    -0.349 N 
HETATM   14  C10 UNL     1      26.655   3.260  -1.742  1.00  0.00     0.221 C 
HETATM   15  C9  UNL     1      26.249   1.842  -1.392  1.00  0.00     0.118 C 
HETATM   16  O1  UNL     1      27.749   3.662  -2.154  1.00  0.00    -0.273 OA
HETATM   17  C2  UNL     1      24.814   1.905  -1.967  1.00  0.00     0.008 C 
HETATM   18  C1  UNL     1      23.938   1.032  -1.084  1.00  0.00     0.022 C 
HETATM   19  C20 UNL     1      24.347   3.300  -1.864  1.00  0.00     0.140 C 
BRANCH  17  20
HETATM   20  C3  UNL     1      24.917   1.276  -3.282  1.00  0.00    -0.048 A 
HETATM   21  C4  UNL     1      26.069   1.037  -3.967  1.00  0.00     0.008 A 
HETATM   22  C5  UNL     1      25.999   0.418  -5.203  1.00  0.00     0.001 A 
HETATM   23  C6  UNL     1      24.804   0.019  -5.785  1.00  0.00     0.000 A 
HETATM   24  C7  UNL     1      23.649   0.270  -5.069  1.00  0.00     0.001 A 
HETATM   25  C8  UNL     1      23.687   0.885  -3.838  1.00  0.00     0.008 A 
ENDBRANCH  17  20
ENDBRANCH  12  13
ENDBRANCH  11  12
ENDBRANCH  10  11
ENDBRANCH   1  10
TORSDOF 5
ENDMDL
