MODEL 14
REMARK VINA RESULT: -8.123726731      2.051      2.858
REMARK  5 active torsions:
REMARK  status: ('A' for Active; 'I' for Inactive)
REMARK    1  A    between atoms: C2_2  and  C3_3 
REMARK    2  A    between atoms: N1_12  and  C11_13 
REMARK    3  A    between atoms: C11_13  and  C12_14 
REMARK    4  A    between atoms: C12_14  and  O2_15 
REMARK    5  A    between atoms: O2_15  and  C13_16 
ROOT
HETATM    1  C13 UNL     1      23.819   6.900  -2.808  1.00  0.00     0.070 A 
HETATM    2  C14 UNL     1      24.038   8.146  -2.244  1.00  0.00     0.040 A 
HETATM    3  C15 UNL     1      23.268   9.262  -2.518  1.00  0.00     0.046 A 
HETATM    4  C16 UNL     1      22.224   9.132  -3.403  1.00  0.00     0.137 A 
HETATM    5  F1  UNL     1      21.489  10.216  -3.671  1.00  0.00    -0.204 F 
HETATM    6  C17 UNL     1      21.975   7.911  -3.986  1.00  0.00     0.085 A 
HETATM    7  C18 UNL     1      20.872   7.751  -4.906  1.00  0.00     0.102 C 
HETATM    8  N2  UNL     1      19.990   7.600  -5.643  1.00  0.00    -0.191 NA
HETATM    9  C19 UNL     1      22.737   6.807  -3.715  1.00  0.00     0.062 A 
ENDROOT
BRANCH   1  10
HETATM   10  O2  UNL     1      24.501   5.780  -2.603  1.00  0.00    -0.349 OA
BRANCH  10  11
HETATM   11  C12 UNL     1      25.114   5.143  -1.622  1.00  0.00     0.195 C 
BRANCH  11  12
HETATM   12  C11 UNL     1      26.615   4.885  -1.808  1.00  0.00     0.152 C 
BRANCH  12  13
HETATM   13  N1  UNL     1      26.875   3.479  -1.950  1.00  0.00    -0.349 N 
HETATM   14  C10 UNL     1      28.167   2.872  -1.807  1.00  0.00     0.221 C 
HETATM   15  C9  UNL     1      27.948   1.515  -1.167  1.00  0.00     0.118 C 
HETATM   16  O1  UNL     1      29.235   3.393  -2.149  1.00  0.00    -0.273 OA
HETATM   17  C2  UNL     1      26.658   1.144  -1.938  1.00  0.00     0.008 C 
HETATM   18  C1  UNL     1      25.793   0.327  -0.993  1.00  0.00     0.022 C 
HETATM   19  C20 UNL     1      25.951   2.397  -2.263  1.00  0.00     0.140 C 
BRANCH  17  20
HETATM   20  C3  UNL     1      27.113   0.274  -3.019  1.00  0.00    -0.048 A 
HETATM   21  C4  UNL     1      28.235  -0.498  -3.007  1.00  0.00     0.008 A 
HETATM   22  C5  UNL     1      28.522  -1.281  -4.111  1.00  0.00     0.001 A 
HETATM   23  C6  UNL     1      27.717  -1.325  -5.241  1.00  0.00     0.000 A 
HETATM   24  C7  UNL     1      26.583  -0.535  -5.227  1.00  0.00     0.001 A 
HETATM   25  C8  UNL     1      26.272   0.255  -4.144  1.00  0.00     0.008 A 
ENDBRANCH  17  20
ENDBRANCH  12  13
ENDBRANCH  11  12
ENDBRANCH  10  11
ENDBRANCH   1  10
TORSDOF 5
ENDMDL
