MODEL 1
REMARK VINA RESULT: -6.647597533      0.000      0.000
REMARK  10 active torsions:
REMARK  status: ('A' for Active; 'I' for Inactive)
REMARK    1  A    between atoms: O1_1  and  C1_3 
REMARK    2  A    between atoms: C1_3  and  C2_4 
REMARK    3  A    between atoms: C3_6  and  O3_7 
REMARK    4  A    between atoms: O3_7  and  C4_8 
REMARK    5  A    between atoms: C7_12  and  C8_13 
REMARK    6  A    between atoms: C8_13  and  O5_14 
REMARK    7  A    between atoms: C9_16  and  O6_17 
REMARK    8  A    between atoms: C10_19  and  O7_20 
REMARK    9  A    between atoms: C11_22  and  O8_23 
REMARK   10  A    between atoms: C12_25  and  O9_26 
ROOT
HETATM    1  C2  UNL     1       3.221  24.255   2.619  1.00  0.00     0.179 C 
HETATM    2  O2  UNL     1       4.611  24.169   2.821  1.00  0.00    -0.348 OA
HETATM    3  C3  UNL     1       4.960  22.939   3.371  1.00  0.00     0.292 C 
HETATM    4  C10 UNL     1       4.433  22.782   4.771  1.00  0.00     0.204 C 
HETATM    5  C11 UNL     1       3.550  23.974   5.061  1.00  0.00     0.183 C 
HETATM    6  C12 UNL     1       2.537  24.061   3.924  1.00  0.00     0.180 C 
ENDROOT
BRANCH   3   7
HETATM    7  O3  UNL     1       4.468  21.958   2.512  1.00  0.00    -0.351 OA
BRANCH   7   8
HETATM    8  C4  UNL     1       5.465  21.063   2.253  1.00  0.00     0.158 C 
HETATM    9  C5  UNL     1       6.256  21.380   1.004  1.00  0.00     0.061 C 
HETATM   10  C6  UNL     1       7.380  20.368   0.926  1.00  0.00     0.171 C 
HETATM   11  O4  UNL     1       7.346  19.461   1.970  1.00  0.00    -0.381 OA
HETATM   12  C7  UNL     1       6.172  18.758   2.061  1.00  0.00     0.176 C 
HETATM   13  C9  UNL     1       4.938  19.636   2.072  1.00  0.00     0.178 C 
BRANCH  12  14
HETATM   14  C8  UNL     1       6.091  17.680   1.009  1.00  0.00     0.198 C 
BRANCH  14  15
HETATM   15  O5  UNL     1       4.774  17.702   0.513  1.00  0.00    -0.398 OA
ATOM     16  H5  UNL     1       4.615  16.847   0.130  1.00  0.00     0.209 HD
ENDBRANCH  14  15
ENDBRANCH  12  14
BRANCH  13  17
HETATM   17  O6  UNL     1       4.089  19.356   3.119  1.00  0.00    -0.390 OA
ATOM     18  H6  UNL     1       4.571  18.855   3.767  1.00  0.00     0.210 HD
ENDBRANCH  13  17
ENDBRANCH   7   8
ENDBRANCH   3   7
BRANCH   4  19
HETATM   19  O7  UNL     1       5.448  22.665   5.711  1.00  0.00    -0.388 OA
ATOM     20  H7  UNL     1       5.186  22.977   6.570  1.00  0.00     0.210 HD
ENDBRANCH   4  19
BRANCH   1  21
HETATM   21  C1  UNL     1       2.964  25.582   1.977  1.00  0.00     0.198 C 
BRANCH  21  22
HETATM   22  O1  UNL     1       2.886  26.628   2.882  1.00  0.00    -0.398 OA
ATOM     23  H1  UNL     1       2.057  27.089   2.858  1.00  0.00     0.209 HD
ENDBRANCH  21  22
ENDBRANCH   1  21
BRANCH   5  24
HETATM   24  O8  UNL     1       4.347  25.127   4.965  1.00  0.00    -0.390 OA
ATOM     25  H8  UNL     1       4.224  25.628   5.763  1.00  0.00     0.210 HD
ENDBRANCH   5  24
BRANCH   6  26
HETATM   26  O9  UNL     1       1.884  22.819   3.891  1.00  0.00    -0.390 OA
ATOM     27  H9  UNL     1       2.529  22.155   3.681  1.00  0.00     0.210 HD
ENDBRANCH   6  26
TORSDOF 10
ENDMDL
