MODEL 4
REMARK VINA RESULT: -6.018855516      3.390      5.858
REMARK  10 active torsions:
REMARK  status: ('A' for Active; 'I' for Inactive)
REMARK    1  A    between atoms: O1_1  and  C1_3 
REMARK    2  A    between atoms: C1_3  and  C2_4 
REMARK    3  A    between atoms: C3_6  and  O3_7 
REMARK    4  A    between atoms: O3_7  and  C4_8 
REMARK    5  A    between atoms: C7_12  and  C8_13 
REMARK    6  A    between atoms: C8_13  and  O5_14 
REMARK    7  A    between atoms: C9_16  and  O6_17 
REMARK    8  A    between atoms: C10_19  and  O7_20 
REMARK    9  A    between atoms: C11_22  and  O8_23 
REMARK   10  A    between atoms: C12_25  and  O9_26 
ROOT
HETATM    1  C2  UNL     1       4.857  22.052   8.020  1.00  0.00     0.179 C 
HETATM    2  O2  UNL     1       4.677  21.294   6.848  1.00  0.00    -0.348 OA
HETATM    3  C3  UNL     1       3.403  21.486   6.321  1.00  0.00     0.292 C 
HETATM    4  C10 UNL     1       2.334  20.925   7.220  1.00  0.00     0.204 C 
HETATM    5  C11 UNL     1       3.006  20.471   8.496  1.00  0.00     0.183 C 
HETATM    6  C12 UNL     1       3.824  21.651   9.010  1.00  0.00     0.180 C 
ENDROOT
BRANCH   3   7
HETATM    7  O3  UNL     1       3.252  22.856   6.118  1.00  0.00    -0.351 OA
BRANCH   7   8
HETATM    8  C4  UNL     1       3.656  23.157   4.849  1.00  0.00     0.158 C 
HETATM    9  C5  UNL     1       5.002  23.842   4.788  1.00  0.00     0.061 C 
HETATM   10  C6  UNL     1       5.348  24.002   3.322  1.00  0.00     0.171 C 
HETATM   11  O4  UNL     1       4.357  23.514   2.490  1.00  0.00    -0.381 OA
HETATM   12  C7  UNL     1       3.129  24.095   2.683  1.00  0.00     0.176 C 
HETATM   13  C9  UNL     1       2.673  24.084   4.127  1.00  0.00     0.178 C 
BRANCH  12  14
HETATM   14  C8  UNL     1       3.073  25.477   2.081  1.00  0.00     0.198 C 
BRANCH  14  15
HETATM   15  O5  UNL     1       2.872  26.372   3.150  1.00  0.00    -0.398 OA
ATOM     16  H5  UNL     1       2.097  26.073   3.611  1.00  0.00     0.209 HD
ENDBRANCH  14  15
ENDBRANCH  12  14
BRANCH  13  17
HETATM   17  O6  UNL     1       1.404  23.573   4.286  1.00  0.00    -0.390 OA
ATOM     18  H6  UNL     1       1.001  23.509   3.428  1.00  0.00     0.210 HD
ENDBRANCH  13  17
ENDBRANCH   7   8
ENDBRANCH   3   7
BRANCH   4  19
HETATM   19  O7  UNL     1       1.628  19.890   6.625  1.00  0.00    -0.388 OA
ATOM     20  H7  UNL     1       1.425  19.190   7.234  1.00  0.00     0.210 HD
ENDBRANCH   4  19
BRANCH   1  21
HETATM   21  C1  UNL     1       6.266  21.818   8.467  1.00  0.00     0.198 C 
BRANCH  21  22
HETATM   22  O1  UNL     1       7.176  21.769   7.424  1.00  0.00    -0.398 OA
ATOM     23  H1  UNL     1       7.900  21.174   7.581  1.00  0.00     0.209 HD
ENDBRANCH  21  22
ENDBRANCH   1  21
BRANCH   5  24
HETATM   24  O8  UNL     1       3.933  19.470   8.155  1.00  0.00    -0.390 OA
ATOM     25  H8  UNL     1       4.458  19.291   8.926  1.00  0.00     0.210 HD
ENDBRANCH   5  24
BRANCH   6  26
HETATM   26  O9  UNL     1       2.921  22.717   9.150  1.00  0.00    -0.390 OA
ATOM     27  H9  UNL     1       2.668  22.768  10.064  1.00  0.00     0.210 HD
ENDBRANCH   6  26
TORSDOF 10
ENDMDL
