MODEL 2
REMARK VINA RESULT: -6.396889710      1.021      1.948
REMARK  10 active torsions:
REMARK  status: ('A' for Active; 'I' for Inactive)
REMARK    1  A    between atoms: O1_1  and  C1_3 
REMARK    2  A    between atoms: C1_3  and  C2_4 
REMARK    3  A    between atoms: C3_6  and  O3_7 
REMARK    4  A    between atoms: O3_7  and  C4_8 
REMARK    5  A    between atoms: C7_12  and  C8_13 
REMARK    6  A    between atoms: C8_13  and  O5_14 
REMARK    7  A    between atoms: C9_16  and  O6_17 
REMARK    8  A    between atoms: C10_19  and  O7_20 
REMARK    9  A    between atoms: C11_22  and  O8_23 
REMARK   10  A    between atoms: C12_25  and  O9_26 
ROOT
HETATM    1  C2  UNL     1       3.058  24.342   2.804  1.00  0.00     0.179 C 
HETATM    2  O2  UNL     1       4.355  23.798   2.763  1.00  0.00    -0.348 OA
HETATM    3  C3  UNL     1       4.419  22.607   3.481  1.00  0.00     0.292 C 
HETATM    4  C10 UNL     1       4.223  22.830   4.956  1.00  0.00     0.204 C 
HETATM    5  C11 UNL     1       3.858  24.285   5.151  1.00  0.00     0.183 C 
HETATM    6  C12 UNL     1       2.683  24.575   4.223  1.00  0.00     0.180 C 
ENDROOT
BRANCH   3   7
HETATM    7  O3  UNL     1       3.451  21.760   2.945  1.00  0.00    -0.351 OA
BRANCH   7   8
HETATM    8  C4  UNL     1       4.048  20.587   2.584  1.00  0.00     0.158 C 
HETATM    9  C5  UNL     1       4.300  19.653   3.745  1.00  0.00     0.061 C 
HETATM   10  C6  UNL     1       4.855  18.369   3.164  1.00  0.00     0.171 C 
HETATM   11  O4  UNL     1       4.991  18.428   1.789  1.00  0.00    -0.381 OA
HETATM   12  C7  UNL     1       5.790  19.452   1.349  1.00  0.00     0.176 C 
HETATM   13  C9  UNL     1       5.406  20.805   1.910  1.00  0.00     0.178 C 
BRANCH  12  14
HETATM   14  C8  UNL     1       7.251  19.143   1.565  1.00  0.00     0.198 C 
BRANCH  14  15
HETATM   15  O5  UNL     1       7.930  20.376   1.538  1.00  0.00    -0.398 OA
ATOM     16  H5  UNL     1       8.000  20.665   2.440  1.00  0.00     0.209 HD
ENDBRANCH  14  15
ENDBRANCH  12  14
BRANCH  13  17
HETATM   17  O6  UNL     1       5.254  21.767   0.936  1.00  0.00    -0.390 OA
ATOM     18  H6  UNL     1       4.511  21.525   0.395  1.00  0.00     0.210 HD
ENDBRANCH  13  17
ENDBRANCH   7   8
ENDBRANCH   3   7
BRANCH   4  19
HETATM   19  O7  UNL     1       5.343  22.487   5.700  1.00  0.00    -0.388 OA
ATOM     20  H7  UNL     1       6.098  22.297   5.155  1.00  0.00     0.210 HD
ENDBRANCH   4  19
BRANCH   1  21
HETATM   21  C1  UNL     1       3.087  25.579   1.961  1.00  0.00     0.198 C 
BRANCH  21  22
HETATM   22  O1  UNL     1       2.993  26.750   2.695  1.00  0.00    -0.398 OA
ATOM     23  H1  UNL     1       2.713  27.498   2.181  1.00  0.00     0.209 HD
ENDBRANCH  21  22
ENDBRANCH   1  21
BRANCH   5  24
HETATM   24  O8  UNL     1       4.931  25.059   4.678  1.00  0.00    -0.390 OA
ATOM     25  H8  UNL     1       5.252  24.650   3.882  1.00  0.00     0.210 HD
ENDBRANCH   5  24
BRANCH   6  26
HETATM   26  O9  UNL     1       1.683  23.651   4.564  1.00  0.00    -0.390 OA
ATOM     27  H9  UNL     1       1.873  23.321   5.434  1.00  0.00     0.210 HD
ENDBRANCH   6  26
TORSDOF 10
ENDMDL
