MODEL 3
REMARK VINA RESULT: -6.198464729      1.437      1.889
REMARK  10 active torsions:
REMARK  status: ('A' for Active; 'I' for Inactive)
REMARK    1  A    between atoms: O1_1  and  C1_3 
REMARK    2  A    between atoms: C1_3  and  C2_4 
REMARK    3  A    between atoms: C3_6  and  O3_7 
REMARK    4  A    between atoms: O3_7  and  C4_8 
REMARK    5  A    between atoms: C7_12  and  C8_13 
REMARK    6  A    between atoms: C8_13  and  O5_14 
REMARK    7  A    between atoms: C9_16  and  O6_17 
REMARK    8  A    between atoms: C10_19  and  O7_20 
REMARK    9  A    between atoms: C11_22  and  O8_23 
REMARK   10  A    between atoms: C12_25  and  O9_26 
ROOT
HETATM    1  C2  UNL     1       3.138  24.346   2.695  1.00  0.00     0.179 C 
HETATM    2  O2  UNL     1       4.504  24.009   2.734  1.00  0.00    -0.348 OA
HETATM    3  C3  UNL     1       4.693  22.756   3.311  1.00  0.00     0.292 C 
HETATM    4  C10 UNL     1       4.330  22.751   4.771  1.00  0.00     0.204 C 
HETATM    5  C11 UNL     1       3.721  24.097   5.093  1.00  0.00     0.183 C 
HETATM    6  C12 UNL     1       2.604  24.331   4.082  1.00  0.00     0.180 C 
ENDROOT
BRANCH   3   7
HETATM    7  O3  UNL     1       3.925  21.855   2.577  1.00  0.00    -0.351 OA
BRANCH   7   8
HETATM    8  C4  UNL     1       4.226  20.589   2.988  1.00  0.00     0.158 C 
HETATM    9  C5  UNL     1       5.284  19.913   2.145  1.00  0.00     0.061 C 
HETATM   10  C6  UNL     1       5.578  18.577   2.796  1.00  0.00     0.171 C 
HETATM   11  O4  UNL     1       4.803  18.356   3.920  1.00  0.00    -0.381 OA
HETATM   12  C7  UNL     1       3.452  18.406   3.686  1.00  0.00     0.176 C 
HETATM   13  C9  UNL     1       3.007  19.661   2.964  1.00  0.00     0.178 C 
BRANCH  12  14
HETATM   14  C8  UNL     1       2.965  17.154   2.999  1.00  0.00     0.198 C 
BRANCH  14  15
HETATM   15  O5  UNL     1       1.869  17.535   2.202  1.00  0.00    -0.398 OA
ATOM     16  H5  UNL     1       1.147  17.700   2.797  1.00  0.00     0.209 HD
ENDBRANCH  14  15
ENDBRANCH  12  14
BRANCH  13  17
HETATM   17  O6  UNL     1       1.966  20.303   3.596  1.00  0.00    -0.390 OA
ATOM     18  H6  UNL     1       2.297  21.115   3.963  1.00  0.00     0.210 HD
ENDBRANCH  13  17
ENDBRANCH   7   8
ENDBRANCH   3   7
BRANCH   4  19
HETATM   19  O7  UNL     1       5.418  22.481   5.589  1.00  0.00    -0.388 OA
ATOM     20  H7  UNL     1       5.247  22.682   6.501  1.00  0.00     0.210 HD
ENDBRANCH   4  19
BRANCH   1  21
HETATM   21  C1  UNL     1       3.046  25.674   2.011  1.00  0.00     0.198 C 
BRANCH  21  22
HETATM   22  O1  UNL     1       2.959  26.743   2.888  1.00  0.00    -0.398 OA
ATOM     23  H1  UNL     1       3.273  27.561   2.521  1.00  0.00     0.209 HD
ENDBRANCH  21  22
ENDBRANCH   1  21
BRANCH   5  24
HETATM   24  O8  UNL     1       4.695  25.077   4.835  1.00  0.00    -0.390 OA
ATOM     25  H8  UNL     1       4.633  25.308   3.915  1.00  0.00     0.210 HD
ENDBRANCH   5  24
BRANCH   6  26
HETATM   26  O9  UNL     1       1.738  23.233   4.200  1.00  0.00    -0.390 OA
ATOM     27  H9  UNL     1       1.844  22.692   3.427  1.00  0.00     0.210 HD
ENDBRANCH   6  26
TORSDOF 10
ENDMDL
