MODEL 2
REMARK VINA RESULT: -7.630919931      2.513      6.190
REMARK  11 active torsions:
REMARK  status: ('A' for Active; 'I' for Inactive)
REMARK    1  A    between atoms: O1_1  and  C1_3 
REMARK    2  A    between atoms: C1_3  and  C2_4 
REMARK    3  A    between atoms: C3_6  and  O3_7 
REMARK    4  A    between atoms: O3_7  and  C4_8 
REMARK    5  A    between atoms: C4_8  and  C5_9 
REMARK    6  A    between atoms: C6_11  and  N1_12 
REMARK    7  A    between atoms: N1_12  and  O5_13 
REMARK    8  A    between atoms: C7_15  and  O6_16 
REMARK    9  A    between atoms: C8_18  and  O7_19 
REMARK   10  A    between atoms: C9_21  and  O8_22 
REMARK   11  A    between atoms: C10_24  and  O9_25 
ROOT
HETATM    1  O3  UNL     1      77.818  13.697  15.273  1.00  0.00    -0.356 OA
ENDROOT
BRANCH   1   2
HETATM    2  C3  UNL     1      78.077  14.031  16.599  1.00  0.00     0.291 C 
HETATM    3  O2  UNL     1      79.010  13.197  17.196  1.00  0.00    -0.348 OA
HETATM    4  C2  UNL     1      78.750  13.128  18.532  1.00  0.00     0.179 C 
HETATM    5  C10 UNL     1      77.373  13.628  18.800  1.00  0.00     0.182 C 
HETATM    6  C9  UNL     1      76.819  13.934  17.431  1.00  0.00     0.204 C 
BRANCH   4   7
HETATM    7  C1  UNL     1      79.770  13.840  19.389  1.00  0.00     0.198 C 
BRANCH   7   8
HETATM    8  O1  UNL     1      80.683  12.894  19.834  1.00  0.00    -0.398 OA
ATOM      9  H1  UNL     1      81.503  13.048  19.380  1.00  0.00     0.209 HD
ENDBRANCH   7   8
ENDBRANCH   4   7
BRANCH   5  10
HETATM   10  O9  UNL     1      77.351  14.816  19.527  1.00  0.00    -0.390 OA
ATOM     11  H9  UNL     1      76.484  15.198  19.595  1.00  0.00     0.210 HD
ENDBRANCH   5  10
BRANCH   6  12
HETATM   12  O8  UNL     1      76.030  12.850  17.050  1.00  0.00    -0.388 OA
ATOM     13  H8  UNL     1      75.696  12.375  17.802  1.00  0.00     0.210 HD
ENDBRANCH   6  12
ENDBRANCH   1   2
BRANCH   1  14
HETATM   14  C4  UNL     1      77.023  14.650  14.642  1.00  0.00     0.205 C 
BRANCH  14  15
HETATM   15  C5  UNL     1      75.961  14.005  13.778  1.00  0.00     0.179 C 
HETATM   16  O4  UNL     1      75.786  12.669  14.075  1.00  0.00    -0.355 OA
HETATM   17  C6  UNL     1      74.502  12.373  13.572  1.00  0.00     0.273 C 
HETATM   18  C7  UNL     1      73.706  13.508  14.187  1.00  0.00     0.196 C 
HETATM   19  C8  UNL     1      74.635  14.681  13.891  1.00  0.00     0.181 C 
BRANCH  17  20
HETATM   20  N1  UNL     1      74.043  11.086  14.035  1.00  0.00    -0.069 NA
BRANCH  20  21
HETATM   21  O5  UNL     1      74.896  10.684  15.005  1.00  0.00    -0.294 OA
ATOM     22  H5  UNL     1      74.727  11.225  15.767  1.00  0.00     0.238 HD
ENDBRANCH  20  21
ENDBRANCH  17  20
BRANCH  18  23
HETATM   23  O6  UNL     1      73.652  13.297  15.551  1.00  0.00    -0.389 OA
ATOM     24  H6  UNL     1      72.738  13.291  15.809  1.00  0.00     0.210 HD
ENDBRANCH  18  23
BRANCH  19  25
HETATM   25  O7  UNL     1      74.262  15.307  12.691  1.00  0.00    -0.390 OA
ATOM     26  H7  UNL     1      73.392  15.048  12.412  1.00  0.00     0.210 HD
ENDBRANCH  19  25
ENDBRANCH  14  15
ENDBRANCH   1  14
TORSDOF 11
ENDMDL
