MODEL 7
REMARK VINA RESULT: -7.216085472      2.830      6.194
REMARK  11 active torsions:
REMARK  status: ('A' for Active; 'I' for Inactive)
REMARK    1  A    between atoms: O1_1  and  C1_3 
REMARK    2  A    between atoms: C1_3  and  C2_4 
REMARK    3  A    between atoms: C3_6  and  O3_7 
REMARK    4  A    between atoms: O3_7  and  C4_8 
REMARK    5  A    between atoms: C4_8  and  C5_9 
REMARK    6  A    between atoms: C6_11  and  N1_12 
REMARK    7  A    between atoms: N1_12  and  O5_13 
REMARK    8  A    between atoms: C7_15  and  O6_16 
REMARK    9  A    between atoms: C8_18  and  O7_19 
REMARK   10  A    between atoms: C9_21  and  O8_22 
REMARK   11  A    between atoms: C10_24  and  O9_25 
ROOT
HETATM    1  O3  UNL     1      76.874  15.013  15.197  1.00  0.00    -0.356 OA
ENDROOT
BRANCH   1   2
HETATM    2  C3  UNL     1      78.131  14.740  15.730  1.00  0.00     0.291 C 
HETATM    3  O2  UNL     1      79.038  14.297  14.780  1.00  0.00    -0.348 OA
HETATM    4  C2  UNL     1      79.942  13.473  15.381  1.00  0.00     0.179 C 
HETATM    5  C10 UNL     1      79.418  13.039  16.706  1.00  0.00     0.182 C 
HETATM    6  C9  UNL     1      78.044  13.656  16.780  1.00  0.00     0.204 C 
BRANCH   4   7
HETATM    7  C1  UNL     1      81.323  14.071  15.506  1.00  0.00     0.198 C 
BRANCH   7   8
HETATM    8  O1  UNL     1      82.232  13.024  15.583  1.00  0.00    -0.398 OA
ATOM      9  H1  UNL     1      82.220  12.570  14.748  1.00  0.00     0.209 HD
ENDBRANCH   7   8
ENDBRANCH   4   7
BRANCH   5  10
HETATM   10  O9  UNL     1      80.152  13.542  17.779  1.00  0.00    -0.390 OA
ATOM     11  H9  UNL     1      79.829  13.249  18.623  1.00  0.00     0.210 HD
ENDBRANCH   5  10
BRANCH   6  12
HETATM   12  O8  UNL     1      77.125  12.668  16.428  1.00  0.00    -0.388 OA
ATOM     13  H8  UNL     1      77.494  11.797  16.514  1.00  0.00     0.210 HD
ENDBRANCH   6  12
ENDBRANCH   1   2
BRANCH   1  14
HETATM   14  C4  UNL     1      76.843  14.827  13.818  1.00  0.00     0.205 C 
BRANCH  14  15
HETATM   15  C5  UNL     1      75.655  13.989  13.397  1.00  0.00     0.179 C 
HETATM   16  O4  UNL     1      75.765  12.678  13.815  1.00  0.00    -0.355 OA
HETATM   17  C6  UNL     1      74.440  12.198  13.787  1.00  0.00     0.273 C 
HETATM   18  C7  UNL     1      73.742  13.297  14.564  1.00  0.00     0.196 C 
HETATM   19  C8  UNL     1      74.359  14.527  13.906  1.00  0.00     0.181 C 
BRANCH  17  20
HETATM   20  N1  UNL     1      74.332  10.922  14.452  1.00  0.00    -0.069 NA
BRANCH  20  21
HETATM   21  O5  UNL     1      75.347  10.849  15.343  1.00  0.00    -0.294 OA
ATOM     22  H5  UNL     1      74.966  10.638  16.186  1.00  0.00     0.238 HD
ENDBRANCH  20  21
ENDBRANCH  17  20
BRANCH  18  23
HETATM   23  O6  UNL     1      74.160  13.220  15.878  1.00  0.00    -0.389 OA
ATOM     24  H6  UNL     1      73.913  14.028  16.311  1.00  0.00     0.210 HD
ENDBRANCH  18  23
BRANCH  19  25
HETATM   25  O7  UNL     1      73.537  14.987  12.865  1.00  0.00    -0.390 OA
ATOM     26  H7  UNL     1      73.278  15.892  12.992  1.00  0.00     0.210 HD
ENDBRANCH  19  25
ENDBRANCH  14  15
ENDBRANCH   1  14
TORSDOF 11
ENDMDL
