MODEL 16
REMARK VINA RESULT: -6.765867370      1.889      2.670
REMARK  11 active torsions:
REMARK  status: ('A' for Active; 'I' for Inactive)
REMARK    1  A    between atoms: O1_1  and  C1_3 
REMARK    2  A    between atoms: C1_3  and  C2_4 
REMARK    3  A    between atoms: C3_6  and  O3_7 
REMARK    4  A    between atoms: O3_7  and  C4_8 
REMARK    5  A    between atoms: C4_8  and  C5_9 
REMARK    6  A    between atoms: C6_11  and  N1_12 
REMARK    7  A    between atoms: N1_12  and  O5_13 
REMARK    8  A    between atoms: C7_15  and  O6_16 
REMARK    9  A    between atoms: C8_18  and  O7_19 
REMARK   10  A    between atoms: C9_21  and  O8_22 
REMARK   11  A    between atoms: C10_24  and  O9_25 
ROOT
HETATM    1  O3  UNL     1      75.865  14.884  16.567  1.00  0.00    -0.356 OA
ENDROOT
BRANCH   1   2
HETATM    2  C3  UNL     1      75.070  14.597  15.461  1.00  0.00     0.291 C 
HETATM    3  O2  UNL     1      74.609  13.290  15.450  1.00  0.00    -0.348 OA
HETATM    4  C2  UNL     1      74.435  12.893  14.157  1.00  0.00     0.179 C 
HETATM    5  C10 UNL     1      75.157  13.826  13.247  1.00  0.00     0.182 C 
HETATM    6  C9  UNL     1      75.848  14.790  14.179  1.00  0.00     0.204 C 
BRANCH   4   7
HETATM    7  C1  UNL     1      72.987  12.743  13.755  1.00  0.00     0.198 C 
BRANCH   7   8
HETATM    8  O1  UNL     1      72.658  11.398  13.853  1.00  0.00    -0.398 OA
ATOM      9  H1  UNL     1      73.097  10.941  13.145  1.00  0.00     0.209 HD
ENDBRANCH   7   8
ENDBRANCH   4   7
BRANCH   5  10
HETATM   10  O9  UNL     1      74.303  14.575  12.440  1.00  0.00    -0.390 OA
ATOM     11  H9  UNL     1      74.342  14.327  11.524  1.00  0.00     0.210 HD
ENDBRANCH   5  10
BRANCH   6  12
HETATM   12  O8  UNL     1      77.170  14.368  14.307  1.00  0.00    -0.388 OA
ATOM     13  H8  UNL     1      77.234  13.422  14.368  1.00  0.00     0.210 HD
ENDBRANCH   6  12
ENDBRANCH   1   2
BRANCH   1  14
HETATM   14  C4  UNL     1      75.893  13.829  17.475  1.00  0.00     0.205 C 
BRANCH  14  15
HETATM   15  C5  UNL     1      77.305  13.341  17.716  1.00  0.00     0.179 C 
HETATM   16  O4  UNL     1      77.899  12.866  16.564  1.00  0.00    -0.355 OA
HETATM   17  C6  UNL     1      79.280  12.926  16.842  1.00  0.00     0.273 C 
HETATM   18  C7  UNL     1      79.390  14.351  17.347  1.00  0.00     0.196 C 
HETATM   19  C8  UNL     1      78.191  14.397  18.289  1.00  0.00     0.181 C 
BRANCH  17  20
HETATM   20  N1  UNL     1      80.063  12.720  15.648  1.00  0.00    -0.069 NA
BRANCH  20  21
HETATM   21  O5  UNL     1      81.303  13.199  15.896  1.00  0.00    -0.294 OA
ATOM     22  H5  UNL     1      81.620  13.588  15.089  1.00  0.00     0.238 HD
ENDBRANCH  20  21
ENDBRANCH  17  20
BRANCH  18  23
HETATM   23  O6  UNL     1      79.167  15.198  16.279  1.00  0.00    -0.389 OA
ATOM     24  H6  UNL     1      79.393  16.079  16.553  1.00  0.00     0.210 HD
ENDBRANCH  18  23
BRANCH  19  25
HETATM   25  O7  UNL     1      78.590  14.091  19.600  1.00  0.00    -0.390 OA
ATOM     26  H7  UNL     1      78.854  14.867  20.081  1.00  0.00     0.210 HD
ENDBRANCH  19  25
ENDBRANCH  14  15
ENDBRANCH   1  14
TORSDOF 11
ENDMDL
