MODEL 3
REMARK VINA RESULT: -7.563416038      2.543      6.063
REMARK  11 active torsions:
REMARK  status: ('A' for Active; 'I' for Inactive)
REMARK    1  A    between atoms: O1_1  and  C1_3 
REMARK    2  A    between atoms: C1_3  and  C2_4 
REMARK    3  A    between atoms: C3_6  and  O3_7 
REMARK    4  A    between atoms: O3_7  and  C4_8 
REMARK    5  A    between atoms: C4_8  and  C5_9 
REMARK    6  A    between atoms: C6_11  and  N1_12 
REMARK    7  A    between atoms: N1_12  and  O5_13 
REMARK    8  A    between atoms: C7_15  and  O6_16 
REMARK    9  A    between atoms: C8_18  and  O7_19 
REMARK   10  A    between atoms: C9_21  and  O8_22 
REMARK   11  A    between atoms: C10_24  and  O9_25 
ROOT
HETATM    1  O3  UNL     1      75.814  15.025  15.438  1.00  0.00    -0.356 OA
ENDROOT
BRANCH   1   2
HETATM    2  C3  UNL     1      76.645  14.923  16.550  1.00  0.00     0.291 C 
HETATM    3  O2  UNL     1      77.882  14.370  16.254  1.00  0.00    -0.348 OA
HETATM    4  C2  UNL     1      78.351  13.720  17.356  1.00  0.00     0.179 C 
HETATM    5  C10 UNL     1      77.236  13.500  18.319  1.00  0.00     0.182 C 
HETATM    6  C9  UNL     1      76.021  14.040  17.606  1.00  0.00     0.204 C 
BRANCH   4   7
HETATM    7  C1  UNL     1      79.520  14.410  18.018  1.00  0.00     0.198 C 
BRANCH   7   8
HETATM    8  O1  UNL     1      80.144  13.484  18.844  1.00  0.00    -0.398 OA
ATOM      9  H1  UNL     1      79.929  13.706  19.742  1.00  0.00     0.209 HD
ENDBRANCH   7   8
ENDBRANCH   4   7
BRANCH   5  10
HETATM   10  O9  UNL     1      77.377  14.227  19.499  1.00  0.00    -0.390 OA
ATOM     11  H9  UNL     1      76.810  13.921  20.197  1.00  0.00     0.210 HD
ENDBRANCH   5  10
BRANCH   6  12
HETATM   12  O8  UNL     1      75.352  12.955  17.044  1.00  0.00    -0.388 OA
ATOM     13  H8  UNL     1      75.957  12.296  16.723  1.00  0.00     0.210 HD
ENDBRANCH   6  12
ENDBRANCH   1   2
BRANCH   1  14
HETATM   14  C4  UNL     1      76.475  14.681  14.262  1.00  0.00     0.205 C 
BRANCH  14  15
HETATM   15  C5  UNL     1      75.719  13.623  13.487  1.00  0.00     0.179 C 
HETATM   16  O4  UNL     1      75.661  12.421  14.164  1.00  0.00    -0.355 OA
HETATM   17  C6  UNL     1      74.567  11.752  13.579  1.00  0.00     0.273 C 
HETATM   18  C7  UNL     1      73.515  12.841  13.658  1.00  0.00     0.196 C 
HETATM   19  C8  UNL     1      74.323  14.034  13.159  1.00  0.00     0.181 C 
BRANCH  17  20
HETATM   20  N1  UNL     1      74.193  10.590  14.348  1.00  0.00    -0.069 NA
BRANCH  20  21
HETATM   21  O5  UNL     1      75.054  10.505  15.387  1.00  0.00    -0.294 OA
ATOM     22  H5  UNL     1      74.661  10.970  16.116  1.00  0.00     0.238 HD
ENDBRANCH  20  21
ENDBRANCH  17  20
BRANCH  18  23
HETATM   23  O6  UNL     1      73.195  13.026  14.989  1.00  0.00    -0.389 OA
ATOM     24  H6  UNL     1      72.717  13.843  15.063  1.00  0.00     0.210 HD
ENDBRANCH  18  23
BRANCH  19  25
HETATM   25  O7  UNL     1      74.138  14.204  11.777  1.00  0.00    -0.390 OA
ATOM     26  H7  UNL     1      73.578  14.947  11.584  1.00  0.00     0.210 HD
ENDBRANCH  19  25
ENDBRANCH  14  15
ENDBRANCH   1  14
TORSDOF 11
ENDMDL
