MODEL 4
REMARK VINA RESULT: -7.503413704      3.007      9.188
REMARK  18 active torsions:
REMARK  status: ('A' for Active; 'I' for Inactive)
REMARK    1  A    between atoms: O1_1  and  C1_3 
REMARK    2  A    between atoms: C1_3  and  C2_4 
REMARK    3  A    between atoms: C3_6  and  O3_7 
REMARK    4  A    between atoms: O3_7  and  C4_8 
REMARK    5  A    between atoms: C5_9  and  C6_10 
REMARK    6  A    between atoms: C6_10  and  O4_11 
REMARK    7  A    between atoms: C7_14  and  O6_15 
REMARK    8  A    between atoms: O6_15  and  C8_16 
REMARK    9  A    between atoms: C9_17  and  C10_18 
REMARK   10  A    between atoms: C10_18  and  O7_19 
REMARK   11  A    between atoms: C11_22  and  O9_23 
REMARK   12  A    between atoms: C12_25  and  O10_26 
REMARK   13  A    between atoms: C13_28  and  O11_29 
REMARK   14  A    between atoms: C14_31  and  O12_32 
REMARK   15  A    between atoms: C15_34  and  O13_35 
REMARK   16  A    between atoms: C16_37  and  O14_38 
REMARK   17  A    between atoms: C17_40  and  O15_41 
REMARK   18  A    between atoms: C18_43  and  O16_44 
ROOT
HETATM    1  C4  UNL     1      11.028  12.886  36.030  1.00  0.00     0.187 C 
HETATM    2  C5  UNL     1      11.930  11.700  36.069  1.00  0.00     0.180 C 
HETATM    3  O5  UNL     1      13.275  12.035  36.131  1.00  0.00    -0.348 OA
HETATM    4  C7  UNL     1      13.689  12.796  35.054  1.00  0.00     0.292 C 
HETATM    5  C14 UNL     1      12.837  14.022  34.849  1.00  0.00     0.204 C 
HETATM    6  C15 UNL     1      11.784  14.191  35.923  1.00  0.00     0.183 C 
ENDROOT
BRANCH   1   7
HETATM    7  O3  UNL     1      10.198  12.938  37.143  1.00  0.00    -0.348 OA
BRANCH   7   8
HETATM    8  C3  UNL     1       9.122  12.074  37.079  1.00  0.00     0.292 C 
HETATM    9  O2  UNL     1       9.383  10.840  37.631  1.00  0.00    -0.348 OA
HETATM   10  C2  UNL     1       8.440   9.876  37.483  1.00  0.00     0.179 C 
HETATM   11  C18 UNL     1       7.069  10.463  37.318  1.00  0.00     0.180 C 
HETATM   12  C17 UNL     1       6.955  11.681  38.230  1.00  0.00     0.183 C 
HETATM   13  C16 UNL     1       7.933  12.744  37.748  1.00  0.00     0.204 C 
BRANCH  10  14
HETATM   14  C1  UNL     1       8.746   9.121  36.191  1.00  0.00     0.198 C 
BRANCH  14  15
HETATM   15  O1  UNL     1       8.252   7.821  36.222  1.00  0.00    -0.398 OA
ATOM     16  H1  UNL     1       8.248   7.424  35.358  1.00  0.00     0.209 HD
ENDBRANCH  14  15
ENDBRANCH  10  14
BRANCH  11  17
HETATM   17  O16 UNL     1       6.050   9.549  37.590  1.00  0.00    -0.390 OA
ATOM     18  H16 UNL     1       5.246   9.741  37.121  1.00  0.00     0.210 HD
ENDBRANCH  11  17
BRANCH  12  19
HETATM   19  O15 UNL     1       5.654  12.119  38.252  1.00  0.00    -0.390 OA
ATOM     20  H15 UNL     1       5.024  11.409  38.289  1.00  0.00     0.210 HD
ENDBRANCH  12  19
BRANCH  13  21
HETATM   21  O14 UNL     1       8.287  13.586  38.784  1.00  0.00    -0.388 OA
ATOM     22  H14 UNL     1       8.268  13.168  39.637  1.00  0.00     0.210 HD
ENDBRANCH  13  21
ENDBRANCH   7   8
ENDBRANCH   1   7
BRANCH   2  23
HETATM   23  C6  UNL     1      11.606  10.763  34.952  1.00  0.00     0.198 C 
BRANCH  23  24
HETATM   24  O4  UNL     1      12.346   9.589  35.089  1.00  0.00    -0.398 OA
ATOM     25  H4  UNL     1      11.835   8.940  35.557  1.00  0.00     0.209 HD
ENDBRANCH  23  24
ENDBRANCH   2  23
BRANCH   6  26
HETATM   26  O13 UNL     1      10.982  15.253  35.592  1.00  0.00    -0.390 OA
ATOM     27  H13 UNL     1      11.412  16.093  35.696  1.00  0.00     0.210 HD
ENDBRANCH   6  26
BRANCH   5  28
HETATM   28  O12 UNL     1      13.663  15.170  34.846  1.00  0.00    -0.388 OA
ATOM     29  H12 UNL     1      13.210  15.884  35.281  1.00  0.00     0.210 HD
ENDBRANCH   5  28
BRANCH   4  30
HETATM   30  O6  UNL     1      15.003  13.208  35.240  1.00  0.00    -0.348 OA
BRANCH  30  31
HETATM   31  C8  UNL     1      15.697  12.435  36.130  1.00  0.00     0.187 C 
HETATM   32  C9  UNL     1      16.856  13.226  36.686  1.00  0.00     0.180 C 
HETATM   33  O8  UNL     1      17.269  12.593  37.862  1.00  0.00    -0.349 OA
HETATM   34  C11 UNL     1      17.486  11.241  37.639  1.00  0.00     0.288 C 
HETATM   35  C12 UNL     1      17.520  10.823  36.213  1.00  0.00     0.204 C 
HETATM   36  C13 UNL     1      16.374  11.280  35.366  1.00  0.00     0.183 C 
BRANCH  32  37
HETATM   37  C10 UNL     1      16.557  14.666  36.887  1.00  0.00     0.198 C 
BRANCH  37  38
HETATM   38  O7  UNL     1      15.297  14.784  37.475  1.00  0.00    -0.398 OA
ATOM     39  H7  UNL     1      14.743  14.085  37.148  1.00  0.00     0.209 HD
ENDBRANCH  37  38
ENDBRANCH  32  37
BRANCH  34  40
HETATM   40  O9  UNL     1      18.773  10.975  38.171  1.00  0.00    -0.369 OA
ATOM     41  H9  UNL     1      18.656  10.233  38.752  1.00  0.00     0.212 HD
ENDBRANCH  34  40
BRANCH  35  42
HETATM   42  O10 UNL     1      18.771  11.102  35.672  1.00  0.00    -0.388 OA
ATOM     43  H10 UNL     1      19.449  10.739  36.229  1.00  0.00     0.210 HD
ENDBRANCH  35  42
BRANCH  36  44
HETATM   44  O11 UNL     1      15.469  10.255  35.095  1.00  0.00    -0.390 OA
ATOM     45  H11 UNL     1      14.780  10.223  35.748  1.00  0.00     0.210 HD
ENDBRANCH  36  44
ENDBRANCH  30  31
ENDBRANCH   4  30
TORSDOF 18
ENDMDL
