MODEL 5
REMARK VINA RESULT: -7.484203760      4.245      6.822
REMARK  18 active torsions:
REMARK  status: ('A' for Active; 'I' for Inactive)
REMARK    1  A    between atoms: O1_1  and  C1_3 
REMARK    2  A    between atoms: C1_3  and  C2_4 
REMARK    3  A    between atoms: C3_6  and  O3_7 
REMARK    4  A    between atoms: O3_7  and  C4_8 
REMARK    5  A    between atoms: C5_9  and  C6_10 
REMARK    6  A    between atoms: C6_10  and  O4_11 
REMARK    7  A    between atoms: C7_14  and  O6_15 
REMARK    8  A    between atoms: O6_15  and  C8_16 
REMARK    9  A    between atoms: C9_17  and  C10_18 
REMARK   10  A    between atoms: C10_18  and  O7_19 
REMARK   11  A    between atoms: C11_22  and  O9_23 
REMARK   12  A    between atoms: C12_25  and  O10_26 
REMARK   13  A    between atoms: C13_28  and  O11_29 
REMARK   14  A    between atoms: C14_31  and  O12_32 
REMARK   15  A    between atoms: C15_34  and  O13_35 
REMARK   16  A    between atoms: C16_37  and  O14_38 
REMARK   17  A    between atoms: C17_40  and  O15_41 
REMARK   18  A    between atoms: C18_43  and  O16_44 
ROOT
HETATM    1  C4  UNL     1      14.588  14.992  36.353  1.00  0.00     0.187 C 
HETATM    2  C5  UNL     1      13.917  15.156  35.032  1.00  0.00     0.180 C 
HETATM    3  O5  UNL     1      12.998  16.194  35.009  1.00  0.00    -0.348 OA
HETATM    4  C7  UNL     1      11.985  16.036  35.936  1.00  0.00     0.292 C 
HETATM    5  C14 UNL     1      12.506  15.810  37.332  1.00  0.00     0.204 C 
HETATM    6  C15 UNL     1      14.015  15.902  37.416  1.00  0.00     0.183 C 
ENDROOT
BRANCH   1   7
HETATM    7  O3  UNL     1      15.957  15.211  36.265  1.00  0.00    -0.348 OA
BRANCH   7   8
HETATM    8  C3  UNL     1      16.723  14.171  36.756  1.00  0.00     0.292 C 
HETATM    9  O2  UNL     1      17.101  13.270  35.788  1.00  0.00    -0.348 OA
HETATM   10  C2  UNL     1      17.727  12.138  36.195  1.00  0.00     0.179 C 
HETATM   11  C18 UNL     1      18.446  12.340  37.497  1.00  0.00     0.180 C 
HETATM   12  C17 UNL     1      19.056  13.739  37.497  1.00  0.00     0.183 C 
HETATM   13  C16 UNL     1      17.928  14.763  37.470  1.00  0.00     0.204 C 
BRANCH  10  14
HETATM   14  C1  UNL     1      16.656  11.081  36.452  1.00  0.00     0.198 C 
BRANCH  14  15
HETATM   15  O1  UNL     1      17.155  10.003  37.177  1.00  0.00    -0.398 OA
ATOM     16  H1  UNL     1      16.659   9.853  37.974  1.00  0.00     0.209 HD
ENDBRANCH  14  15
ENDBRANCH  10  14
BRANCH  11  17
HETATM   17  O16 UNL     1      19.427  11.377  37.732  1.00  0.00    -0.390 OA
ATOM     18  H16 UNL     1      20.294  11.659  37.464  1.00  0.00     0.210 HD
ENDBRANCH  11  17
BRANCH  12  19
HETATM   19  O15 UNL     1      19.883  13.880  38.583  1.00  0.00    -0.390 OA
ATOM     20  H15 UNL     1      20.423  13.115  38.741  1.00  0.00     0.210 HD
ENDBRANCH  12  19
BRANCH  13  21
HETATM   21  O14 UNL     1      18.364  15.953  36.920  1.00  0.00    -0.388 OA
ATOM     22  H14 UNL     1      19.129  16.313  37.354  1.00  0.00     0.210 HD
ENDBRANCH  13  21
ENDBRANCH   7   8
ENDBRANCH   1   7
BRANCH   2  23
HETATM   23  C6  UNL     1      13.349  13.854  34.573  1.00  0.00     0.198 C 
BRANCH  23  24
HETATM   24  O4  UNL     1      14.346  12.878  34.567  1.00  0.00    -0.398 OA
ATOM     25  H4  UNL     1      14.014  12.076  34.951  1.00  0.00     0.209 HD
ENDBRANCH  23  24
ENDBRANCH   2  23
BRANCH   6  26
HETATM   26  O13 UNL     1      14.408  15.563  38.685  1.00  0.00    -0.390 OA
ATOM     27  H13 UNL     1      14.667  16.312  39.209  1.00  0.00     0.210 HD
ENDBRANCH   6  26
BRANCH   5  28
HETATM   28  O12 UNL     1      11.949  16.775  38.202  1.00  0.00    -0.388 OA
ATOM     29  H12 UNL     1      11.836  16.392  39.065  1.00  0.00     0.210 HD
ENDBRANCH   5  28
BRANCH   4  30
HETATM   30  O6  UNL     1      11.176  17.165  35.954  1.00  0.00    -0.348 OA
BRANCH  30  31
HETATM   31  C8  UNL     1      11.462  18.059  34.958  1.00  0.00     0.187 C 
HETATM   32  C9  UNL     1      11.250  19.463  35.465  1.00  0.00     0.180 C 
HETATM   33  O8  UNL     1      11.936  20.327  34.607  1.00  0.00    -0.349 OA
HETATM   34  C11 UNL     1      11.588  20.082  33.287  1.00  0.00     0.288 C 
HETATM   35  C12 UNL     1      10.405  19.205  33.087  1.00  0.00     0.204 C 
HETATM   36  C13 UNL     1      10.412  17.911  33.839  1.00  0.00     0.183 C 
BRANCH  32  37
HETATM   37  C10 UNL     1      11.631  19.650  36.889  1.00  0.00     0.198 C 
BRANCH  37  38
HETATM   38  O7  UNL     1      12.975  19.307  37.040  1.00  0.00    -0.398 OA
ATOM     39  H7  UNL     1      13.220  19.432  37.949  1.00  0.00     0.209 HD
ENDBRANCH  37  38
ENDBRANCH  32  37
BRANCH  34  40
HETATM   40  O9  UNL     1      11.250  21.348  32.747  1.00  0.00    -0.369 OA
ATOM     41  H9  UNL     1      10.383  21.239  32.374  1.00  0.00     0.212 HD
ENDBRANCH  34  40
BRANCH  35  42
HETATM   42  O10 UNL     1       9.239  19.946  33.245  1.00  0.00    -0.388 OA
ATOM     43  H10 UNL     1       8.513  19.492  32.835  1.00  0.00     0.210 HD
ENDBRANCH  35  42
BRANCH  36  44
HETATM   44  O11 UNL     1      10.697  16.819  33.020  1.00  0.00    -0.390 OA
ATOM     45  H11 UNL     1       9.919  16.302  32.853  1.00  0.00     0.210 HD
ENDBRANCH  36  44
ENDBRANCH  30  31
ENDBRANCH   4  30
TORSDOF 18
ENDMDL
