MODEL 3
REMARK VINA RESULT: -7.652416447      5.220      7.938
REMARK  18 active torsions:
REMARK  status: ('A' for Active; 'I' for Inactive)
REMARK    1  A    between atoms: O1_1  and  C1_3 
REMARK    2  A    between atoms: C1_3  and  C2_4 
REMARK    3  A    between atoms: C3_6  and  O3_7 
REMARK    4  A    between atoms: O3_7  and  C4_8 
REMARK    5  A    between atoms: C5_9  and  C6_10 
REMARK    6  A    between atoms: C6_10  and  O4_11 
REMARK    7  A    between atoms: C7_14  and  O6_15 
REMARK    8  A    between atoms: O6_15  and  C8_16 
REMARK    9  A    between atoms: C9_17  and  C10_18 
REMARK   10  A    between atoms: C10_18  and  O7_19 
REMARK   11  A    between atoms: C11_22  and  O9_23 
REMARK   12  A    between atoms: C12_25  and  O10_26 
REMARK   13  A    between atoms: C13_28  and  O11_29 
REMARK   14  A    between atoms: C14_31  and  O12_32 
REMARK   15  A    between atoms: C15_34  and  O13_35 
REMARK   16  A    between atoms: C16_37  and  O14_38 
REMARK   17  A    between atoms: C17_40  and  O15_41 
REMARK   18  A    between atoms: C18_43  and  O16_44 
ROOT
HETATM    1  C4  UNL     1      11.310  17.204  35.285  1.00  0.00     0.187 C 
HETATM    2  C5  UNL     1      11.642  15.975  34.509  1.00  0.00     0.180 C 
HETATM    3  O5  UNL     1      11.559  14.812  35.259  1.00  0.00    -0.348 OA
HETATM    4  C7  UNL     1      12.407  14.816  36.352  1.00  0.00     0.292 C 
HETATM    5  C14 UNL     1      12.226  16.033  37.222  1.00  0.00     0.204 C 
HETATM    6  C15 UNL     1      11.094  16.924  36.756  1.00  0.00     0.183 C 
ENDROOT
BRANCH   1   7
HETATM    7  O3  UNL     1      10.184  17.842  34.780  1.00  0.00    -0.348 OA
BRANCH   7   8
HETATM    8  C3  UNL     1      10.418  19.136  34.356  1.00  0.00     0.292 C 
HETATM    9  O2  UNL     1      11.707  19.559  34.588  1.00  0.00    -0.348 OA
HETATM   10  C2  UNL     1      11.992  20.863  34.343  1.00  0.00     0.179 C 
HETATM   11  C18 UNL     1      11.078  21.444  33.303  1.00  0.00     0.180 C 
HETATM   12  C17 UNL     1      10.820  20.379  32.242  1.00  0.00     0.183 C 
HETATM   13  C16 UNL     1      10.057  19.226  32.882  1.00  0.00     0.204 C 
BRANCH  10  14
HETATM   14  C1  UNL     1      11.735  21.644  35.630  1.00  0.00     0.198 C 
BRANCH  14  15
HETATM   15  O1  UNL     1      10.705  22.566  35.479  1.00  0.00    -0.398 OA
ATOM     16  H1  UNL     1      10.168  22.627  36.261  1.00  0.00     0.209 HD
ENDBRANCH  14  15
ENDBRANCH  10  14
BRANCH  11  17
HETATM   17  O16 UNL     1      11.586  22.605  32.721  1.00  0.00    -0.390 OA
ATOM     18  H16 UNL     1      11.331  23.394  33.185  1.00  0.00     0.210 HD
ENDBRANCH  11  17
BRANCH  12  19
HETATM   19  O15 UNL     1      10.154  20.940  31.181  1.00  0.00    -0.390 OA
ATOM     20  H15 UNL     1      10.655  21.618  30.744  1.00  0.00     0.210 HD
ENDBRANCH  12  19
BRANCH  13  21
HETATM   21  O14 UNL     1      10.277  18.052  32.188  1.00  0.00    -0.388 OA
ATOM     22  H14 UNL     1      10.739  18.177  31.367  1.00  0.00     0.210 HD
ENDBRANCH  13  21
ENDBRANCH   7   8
ENDBRANCH   1   7
BRANCH   2  23
HETATM   23  C6  UNL     1      12.955  16.138  33.815  1.00  0.00     0.198 C 
BRANCH  23  24
HETATM   24  O4  UNL     1      12.931  17.284  33.021  1.00  0.00    -0.398 OA
ATOM     25  H4  UNL     1      12.618  18.022  33.530  1.00  0.00     0.209 HD
ENDBRANCH  23  24
ENDBRANCH   2  23
BRANCH   6  26
HETATM   26  O13 UNL     1      11.081  18.060  37.524  1.00  0.00    -0.390 OA
ATOM     27  H13 UNL     1      10.712  17.922  38.388  1.00  0.00     0.210 HD
ENDBRANCH   6  26
BRANCH   5  28
HETATM   28  O12 UNL     1      11.957  15.624  38.549  1.00  0.00    -0.388 OA
ATOM     29  H12 UNL     1      11.108  15.960  38.815  1.00  0.00     0.210 HD
ENDBRANCH   5  28
BRANCH   4  30
HETATM   30  O6  UNL     1      12.183  13.689  37.132  1.00  0.00    -0.348 OA
BRANCH  30  31
HETATM   31  C8  UNL     1      11.668  12.632  36.431  1.00  0.00     0.187 C 
HETATM   32  C9  UNL     1      10.589  11.964  37.247  1.00  0.00     0.180 C 
HETATM   33  O8  UNL     1       9.817  11.195  36.372  1.00  0.00    -0.349 OA
HETATM   34  C11 UNL     1      10.625  10.366  35.607  1.00  0.00     0.288 C 
HETATM   35  C12 UNL     1      12.037  10.255  36.056  1.00  0.00     0.204 C 
HETATM   36  C13 UNL     1      12.754  11.546  36.299  1.00  0.00     0.183 C 
BRANCH  32  37
HETATM   37  C10 UNL     1       9.773  12.910  38.049  1.00  0.00     0.198 C 
BRANCH  37  38
HETATM   38  O7  UNL     1      10.438  13.171  39.247  1.00  0.00    -0.398 OA
ATOM     39  H7  UNL     1      10.481  14.111  39.373  1.00  0.00     0.209 HD
ENDBRANCH  37  38
ENDBRANCH  32  37
BRANCH  34  40
HETATM   40  O9  UNL     1      10.057   9.074  35.729  1.00  0.00    -0.369 OA
ATOM     41  H9  UNL     1       9.177   9.152  35.379  1.00  0.00     0.212 HD
ENDBRANCH  34  40
BRANCH  35  42
HETATM   42  O10 UNL     1      12.125   9.351  37.110  1.00  0.00    -0.388 OA
ATOM     43  H10 UNL     1      12.276   8.477  36.771  1.00  0.00     0.210 HD
ENDBRANCH  35  42
BRANCH  36  44
HETATM   44  O11 UNL     1      13.656  11.855  35.283  1.00  0.00    -0.390 OA
ATOM     45  H11 UNL     1      14.375  11.234  35.260  1.00  0.00     0.210 HD
ENDBRANCH  36  44
ENDBRANCH  30  31
ENDBRANCH   4  30
TORSDOF 18
ENDMDL
