MODEL 9
REMARK VINA RESULT: -8.632126364      1.380      1.766
REMARK  10 active torsions:
REMARK  status: ('A' for Active; 'I' for Inactive)
REMARK    1  A    between atoms: N4_17  and  C9_18 
REMARK    2  A    between atoms: C9_18  and  C10_19 
REMARK    3  A    between atoms: C10_19  and  O3_20 
REMARK    4  A    between atoms: C10_19  and  C11_22 
REMARK    5  A    between atoms: C11_22  and  O4_23 
REMARK    6  A    between atoms: C11_22  and  C12_25 
REMARK    7  A    between atoms: C12_25  and  O5_26 
REMARK    8  A    between atoms: C12_25  and  C13_28 
REMARK    9  A    between atoms: C13_28  and  O6_29 
REMARK   10  A    between atoms: O6_29  and  P1_30 
ROOT
HETATM    1  C1  UNL     1      39.998  37.127   6.075  1.00  0.00     0.049 C 
HETATM    2  C2  UNL     1      40.800  38.320   6.439  1.00  0.00    -0.054 A 
HETATM    3  C3  UNL     1      41.932  38.656   5.729  1.00  0.00     0.039 A 
HETATM    4  C4  UNL     1      42.700  39.766   6.048  1.00  0.00     0.060 A 
HETATM    5  N1  UNL     1      43.792  40.048   5.315  1.00  0.00    -0.347 N 
ATOM      6  H1  UNL     1      44.046  39.441   4.536  1.00  0.00     0.166 HD
HETATM    7  C5  UNL     1      44.548  41.115   5.597  1.00  0.00     0.146 A 
HETATM    8  C6  UNL     1      45.693  41.453   4.866  1.00  0.00     0.280 A 
HETATM    9  O1  UNL     1      46.010  40.716   3.913  1.00  0.00    -0.265 OA
HETATM   10  N2  UNL     1      46.412  42.550   5.209  1.00  0.00    -0.273 N 
ATOM     11  H2  UNL     1      47.248  42.799   4.679  1.00  0.00     0.173 HD
HETATM   12  C7  UNL     1      46.024  43.311   6.248  1.00  0.00     0.328 A 
HETATM   13  O2  UNL     1      46.735  44.316   6.513  1.00  0.00    -0.247 OA
HETATM   14  N3  UNL     1      44.914  43.019   6.988  1.00  0.00    -0.292 N 
ATOM     15  H3  UNL     1      44.660  43.626   7.767  1.00  0.00     0.172 HD
HETATM   16  C8  UNL     1      44.152  41.951   6.711  1.00  0.00     0.145 A 
HETATM   17  N4  UNL     1      43.033  41.625   7.429  1.00  0.00    -0.327 N 
HETATM   18  C14 UNL     1      42.285  40.550   7.131  1.00  0.00     0.063 A 
HETATM   19  C15 UNL     1      41.152  40.221   7.849  1.00  0.00     0.039 A 
HETATM   20  C16 UNL     1      40.408  39.108   7.505  1.00  0.00    -0.054 A 
HETATM   21  C17 UNL     1      39.187  38.739   8.264  1.00  0.00     0.049 C 
ENDROOT
BRANCH  17  22
HETATM   22  C9  UNL     1      42.681  42.494   8.531  1.00  0.00     0.165 C 
BRANCH  22  23
HETATM   23  C10 UNL     1      43.590  42.139   9.715  1.00  0.00     0.167 C 
BRANCH  23  24
HETATM   24  O3  UNL     1      43.868  40.805   9.824  1.00  0.00    -0.391 OA
ATOM     25  H3  UNL     1      43.768  40.460  10.704  1.00  0.00     0.210 HD
ENDBRANCH  23  24
BRANCH  23  26
HETATM   26  C11 UNL     1      43.183  42.744  10.981  1.00  0.00     0.179 C 
BRANCH  26  27
HETATM   27  O4  UNL     1      42.344  41.876  11.687  1.00  0.00    -0.390 OA
ATOM     28  H4  UNL     1      41.649  41.556  11.124  1.00  0.00     0.210 HD
ENDBRANCH  26  27
BRANCH  26  29
HETATM   29  C12 UNL     1      42.691  44.119  11.083  1.00  0.00     0.173 C 
BRANCH  29  30
HETATM   30  O5  UNL     1      43.604  44.758  12.003  1.00  0.00    -0.391 OA
ATOM     31  H5  UNL     1      43.055  45.347  12.508  1.00  0.00     0.210 HD
ENDBRANCH  29  30
BRANCH  29  32
HETATM   32  C13 UNL     1      41.356  44.303  11.798  1.00  0.00     0.217 C 
BRANCH  32  33
HETATM   33  O6  UNL     1      40.534  45.163  11.009  1.00  0.00    -0.280 OA
BRANCH  33  34
HETATM   34  P1  UNL     1      39.465  44.248  10.088  1.00  0.00     0.422 P 
HETATM   35  O7  UNL     1      39.718  44.528   8.644  1.00  0.00    -0.617 OA
HETATM   36  O8  UNL     1      37.855  44.610  10.442  1.00  0.00    -0.617 OA
HETATM   37  O9  UNL     1      39.691  42.583  10.345  1.00  0.00    -0.617 OA
ENDBRANCH  33  34
ENDBRANCH  32  33
ENDBRANCH  29  32
ENDBRANCH  26  29
ENDBRANCH  23  26
ENDBRANCH  22  23
ENDBRANCH  17  22
TORSDOF 10
ENDMDL
