MODEL 7
REMARK VINA RESULT: -8.657359355      1.453      1.749
REMARK  10 active torsions:
REMARK  status: ('A' for Active; 'I' for Inactive)
REMARK    1  A    between atoms: N4_17  and  C9_18 
REMARK    2  A    between atoms: C9_18  and  C10_19 
REMARK    3  A    between atoms: C10_19  and  O3_20 
REMARK    4  A    between atoms: C10_19  and  C11_22 
REMARK    5  A    between atoms: C11_22  and  O4_23 
REMARK    6  A    between atoms: C11_22  and  C12_25 
REMARK    7  A    between atoms: C12_25  and  O5_26 
REMARK    8  A    between atoms: C12_25  and  C13_28 
REMARK    9  A    between atoms: C13_28  and  O6_29 
REMARK   10  A    between atoms: O6_29  and  P1_30 
ROOT
HETATM    1  C1  UNL     1      39.988  37.102   6.071  1.00  0.00     0.049 C 
HETATM    2  C2  UNL     1      40.787  38.295   6.441  1.00  0.00    -0.054 A 
HETATM    3  C3  UNL     1      41.908  38.646   5.722  1.00  0.00     0.039 A 
HETATM    4  C4  UNL     1      42.674  39.757   6.047  1.00  0.00     0.060 A 
HETATM    5  N1  UNL     1      43.755  40.054   5.305  1.00  0.00    -0.347 N 
ATOM      6  H1  UNL     1      44.005  39.459   4.516  1.00  0.00     0.166 HD
HETATM    7  C5  UNL     1      44.508  41.123   5.592  1.00  0.00     0.146 A 
HETATM    8  C6  UNL     1      45.643  41.476   4.852  1.00  0.00     0.280 A 
HETATM    9  O1  UNL     1      45.953  40.754   3.887  1.00  0.00    -0.265 OA
HETATM   10  N2  UNL     1      46.360  42.574   5.201  1.00  0.00    -0.273 N 
ATOM     11  H2  UNL     1      47.188  42.834   4.665  1.00  0.00     0.173 HD
HETATM   12  C7  UNL     1      45.979  43.319   6.254  1.00  0.00     0.328 A 
HETATM   13  O2  UNL     1      46.687  44.324   6.524  1.00  0.00    -0.247 OA
HETATM   14  N3  UNL     1      44.880  43.011   7.003  1.00  0.00    -0.292 N 
ATOM     15  H3  UNL     1      44.630  43.606   7.793  1.00  0.00     0.172 HD
HETATM   16  C8  UNL     1      44.120  41.942   6.721  1.00  0.00     0.145 A 
HETATM   17  N4  UNL     1      43.011  41.600   7.448  1.00  0.00    -0.327 N 
HETATM   18  C14 UNL     1      42.267  40.524   7.145  1.00  0.00     0.063 A 
HETATM   19  C15 UNL     1      41.143  40.179   7.871  1.00  0.00     0.039 A 
HETATM   20  C16 UNL     1      40.402  39.067   7.521  1.00  0.00    -0.054 A 
HETATM   21  C17 UNL     1      39.192  38.681   8.289  1.00  0.00     0.049 C 
ENDROOT
BRANCH  17  22
HETATM   22  C9  UNL     1      42.667  42.452   8.565  1.00  0.00     0.165 C 
BRANCH  22  23
HETATM   23  C10 UNL     1      43.564  42.060   9.747  1.00  0.00     0.167 C 
BRANCH  23  24
HETATM   24  O3  UNL     1      43.500  40.736  10.079  1.00  0.00    -0.391 OA
ATOM     25  H3  UNL     1      43.591  40.565  11.009  1.00  0.00     0.210 HD
ENDBRANCH  23  24
BRANCH  23  26
HETATM   26  C11 UNL     1      43.447  42.946  10.903  1.00  0.00     0.179 C 
BRANCH  26  27
HETATM   27  O4  UNL     1      43.372  42.199  12.082  1.00  0.00    -0.390 OA
ATOM     28  H4  UNL     1      44.198  42.234  12.550  1.00  0.00     0.210 HD
ENDBRANCH  26  27
BRANCH  26  29
HETATM   29  C12 UNL     1      42.509  44.068  10.952  1.00  0.00     0.173 C 
BRANCH  29  30
HETATM   30  O5  UNL     1      43.170  45.052  11.778  1.00  0.00    -0.391 OA
ATOM     31  H5  UNL     1      43.872  45.385  11.230  1.00  0.00     0.210 HD
ENDBRANCH  29  30
BRANCH  29  32
HETATM   32  C13 UNL     1      41.219  43.831  11.731  1.00  0.00     0.217 C 
BRANCH  32  33
HETATM   33  O6  UNL     1      40.223  43.355  10.826  1.00  0.00    -0.280 OA
BRANCH  33  34
HETATM   34  P1  UNL     1      39.600  41.893  11.377  1.00  0.00     0.422 P 
HETATM   35  O7  UNL     1      38.508  41.461  10.455  1.00  0.00    -0.617 OA
HETATM   36  O8  UNL     1      38.977  42.020  12.940  1.00  0.00    -0.617 OA
HETATM   37  O9  UNL     1      40.786  40.677  11.388  1.00  0.00    -0.617 OA
ENDBRANCH  33  34
ENDBRANCH  32  33
ENDBRANCH  29  32
ENDBRANCH  26  29
ENDBRANCH  23  26
ENDBRANCH  22  23
ENDBRANCH  17  22
TORSDOF 10
ENDMDL
