MODEL 1
REMARK VINA RESULT: -9.796496268      0.000      0.000
REMARK  10 active torsions:
REMARK  status: ('A' for Active; 'I' for Inactive)
REMARK    1  A    between atoms: N4_17  and  C9_18 
REMARK    2  A    between atoms: C9_18  and  C10_19 
REMARK    3  A    between atoms: C10_19  and  O3_20 
REMARK    4  A    between atoms: C10_19  and  C11_22 
REMARK    5  A    between atoms: C11_22  and  O4_23 
REMARK    6  A    between atoms: C11_22  and  C12_25 
REMARK    7  A    between atoms: C12_25  and  O5_26 
REMARK    8  A    between atoms: C12_25  and  C13_28 
REMARK    9  A    between atoms: C13_28  and  O6_29 
REMARK   10  A    between atoms: O6_29  and  P1_30 
ROOT
HETATM    1  C1  UNL     1      39.618  37.118   5.962  1.00  0.00     0.049 C 
HETATM    2  C2  UNL     1      40.560  38.194   6.355  1.00  0.00    -0.054 A 
HETATM    3  C3  UNL     1      41.601  38.559   5.528  1.00  0.00     0.039 A 
HETATM    4  C4  UNL     1      42.496  39.562   5.871  1.00  0.00     0.060 A 
HETATM    5  N1  UNL     1      43.490  39.880   5.022  1.00  0.00    -0.347 N 
ATOM      6  H1  UNL     1      43.577  39.378   4.138  1.00  0.00     0.166 HD
HETATM    7  C5  UNL     1      44.364  40.846   5.324  1.00  0.00     0.146 A 
HETATM    8  C6  UNL     1      45.415  41.216   4.476  1.00  0.00     0.280 A 
HETATM    9  O1  UNL     1      45.528  40.608   3.395  1.00  0.00    -0.265 OA
HETATM   10  N2  UNL     1      46.265  42.205   4.847  1.00  0.00    -0.273 N 
ATOM     11  H2  UNL     1      47.032  42.477   4.232  1.00  0.00     0.173 HD
HETATM   12  C7  UNL     1      46.097  42.829   6.027  1.00  0.00     0.328 A 
HETATM   13  O2  UNL     1      46.919  43.738   6.311  1.00  0.00    -0.247 OA
HETATM   14  N3  UNL     1      45.085  42.501   6.885  1.00  0.00    -0.292 N 
ATOM     15  H3  UNL     1      44.998  43.002   7.769  1.00  0.00     0.172 HD
HETATM   16  C8  UNL     1      44.205  41.534   6.589  1.00  0.00     0.145 A 
HETATM   17  N4  UNL     1      43.179  41.176   7.421  1.00  0.00    -0.327 N 
HETATM   18  C14 UNL     1      42.310  40.204   7.101  1.00  0.00     0.063 A 
HETATM   19  C15 UNL     1      41.269  39.844   7.935  1.00  0.00     0.039 A 
HETATM   20  C16 UNL     1      40.394  38.841   7.564  1.00  0.00    -0.054 A 
HETATM   21  C17 UNL     1      39.270  38.441   8.448  1.00  0.00     0.049 C 
ENDROOT
BRANCH  17  22
HETATM   22  C9  UNL     1      43.064  41.895   8.671  1.00  0.00     0.165 C 
BRANCH  22  23
HETATM   23  C10 UNL     1      42.262  43.175   8.403  1.00  0.00     0.167 C 
BRANCH  23  24
HETATM   24  O3  UNL     1      43.035  44.270   8.134  1.00  0.00    -0.391 OA
ATOM     25  H3  UNL     1      42.930  44.980   8.757  1.00  0.00     0.210 HD
ENDBRANCH  23  24
BRANCH  23  26
HETATM   26  C11 UNL     1      41.217  43.442   9.388  1.00  0.00     0.179 C 
BRANCH  26  27
HETATM   27  O4  UNL     1      39.958  43.157   8.852  1.00  0.00    -0.390 OA
ATOM     28  H4  UNL     1      39.662  42.300   9.140  1.00  0.00     0.210 HD
ENDBRANCH  26  27
BRANCH  26  29
HETATM   29  C12 UNL     1      41.164  44.674  10.177  1.00  0.00     0.173 C 
BRANCH  29  30
HETATM   30  O5  UNL     1      42.489  44.794  10.741  1.00  0.00    -0.391 OA
ATOM     31  H5  UNL     1      42.448  45.580  11.273  1.00  0.00     0.210 HD
ENDBRANCH  29  30
BRANCH  29  32
HETATM   32  C13 UNL     1      40.299  44.632  11.432  1.00  0.00     0.217 C 
BRANCH  32  33
HETATM   33  O6  UNL     1      38.931  44.762  11.044  1.00  0.00    -0.280 OA
BRANCH  33  34
HETATM   34  P1  UNL     1      38.000  43.605  11.834  1.00  0.00     0.422 P 
HETATM   35  O7  UNL     1      36.566  44.015  11.761  1.00  0.00    -0.617 OA
HETATM   36  O8  UNL     1      38.440  43.437  13.455  1.00  0.00    -0.617 OA
HETATM   37  O9  UNL     1      38.146  42.081  11.097  1.00  0.00    -0.617 OA
ENDBRANCH  33  34
ENDBRANCH  32  33
ENDBRANCH  29  32
ENDBRANCH  26  29
ENDBRANCH  23  26
ENDBRANCH  22  23
ENDBRANCH  17  22
TORSDOF 10
ENDMDL
