MODEL 5
REMARK VINA RESULT: -8.769687116      2.439      4.778
REMARK  10 active torsions:
REMARK  status: ('A' for Active; 'I' for Inactive)
REMARK    1  A    between atoms: N4_17  and  C9_18 
REMARK    2  A    between atoms: C9_18  and  C10_19 
REMARK    3  A    between atoms: C10_19  and  O3_20 
REMARK    4  A    between atoms: C10_19  and  C11_22 
REMARK    5  A    between atoms: C11_22  and  O4_23 
REMARK    6  A    between atoms: C11_22  and  C12_25 
REMARK    7  A    between atoms: C12_25  and  O5_26 
REMARK    8  A    between atoms: C12_25  and  C13_28 
REMARK    9  A    between atoms: C13_28  and  O6_29 
REMARK   10  A    between atoms: O6_29  and  P1_30 
ROOT
HETATM    1  C1  UNL     1      46.786  40.802   4.950  1.00  0.00     0.049 C 
HETATM    2  C2  UNL     1      45.492  40.935   5.663  1.00  0.00    -0.054 A 
HETATM    3  C3  UNL     1      44.554  39.926   5.622  1.00  0.00     0.039 A 
HETATM    4  C4  UNL     1      43.337  40.025   6.279  1.00  0.00     0.060 A 
HETATM    5  N1  UNL     1      42.462  39.006   6.208  1.00  0.00    -0.347 N 
ATOM      6  H1  UNL     1      42.700  38.174   5.668  1.00  0.00     0.166 HD
HETATM    7  C5  UNL     1      41.283  39.071   6.837  1.00  0.00     0.146 A 
HETATM    8  C6  UNL     1      40.338  38.039   6.795  1.00  0.00     0.280 A 
HETATM    9  O1  UNL     1      40.622  37.021   6.138  1.00  0.00    -0.265 OA
HETATM   10  N2  UNL     1      39.162  38.175   7.457  1.00  0.00    -0.273 N 
ATOM     11  H2  UNL     1      38.471  37.425   7.428  1.00  0.00     0.173 HD
HETATM   12  C7  UNL     1      38.907  39.298   8.152  1.00  0.00     0.328 A 
HETATM   13  O2  UNL     1      37.798  39.359   8.745  1.00  0.00    -0.247 OA
HETATM   14  N3  UNL     1      39.800  40.329   8.221  1.00  0.00    -0.292 N 
ATOM     15  H3  UNL     1      39.562  41.161   8.761  1.00  0.00     0.172 HD
HETATM   16  C8  UNL     1      40.984  40.270   7.593  1.00  0.00     0.145 A 
HETATM   17  N4  UNL     1      41.905  41.282   7.637  1.00  0.00    -0.327 N 
HETATM   18  C14 UNL     1      43.084  41.198   7.000  1.00  0.00     0.063 A 
HETATM   19  C15 UNL     1      44.019  42.214   7.047  1.00  0.00     0.039 A 
HETATM   20  C16 UNL     1      45.223  42.085   6.381  1.00  0.00    -0.054 A 
HETATM   21  C17 UNL     1      46.239  43.165   6.420  1.00  0.00     0.049 C 
ENDROOT
BRANCH  17  22
HETATM   22  C9  UNL     1      41.557  42.456   8.407  1.00  0.00     0.165 C 
BRANCH  22  23
HETATM   23  C10 UNL     1      42.142  42.283   9.815  1.00  0.00     0.167 C 
BRANCH  23  24
HETATM   24  O3  UNL     1      41.470  41.379  10.590  1.00  0.00    -0.391 OA
ATOM     25  H3  UNL     1      41.829  41.276  11.464  1.00  0.00     0.210 HD
ENDBRANCH  23  24
BRANCH  23  26
HETATM   26  C11 UNL     1      42.412  43.541  10.507  1.00  0.00     0.179 C 
BRANCH  26  27
HETATM   27  O4  UNL     1      42.617  43.312  11.871  1.00  0.00    -0.390 OA
ATOM     28  H4  UNL     1      41.788  43.152  12.308  1.00  0.00     0.210 HD
ENDBRANCH  26  27
BRANCH  26  29
HETATM   29  C12 UNL     1      41.602  44.745  10.311  1.00  0.00     0.173 C 
BRANCH  29  30
HETATM   30  O5  UNL     1      42.038  45.643  11.355  1.00  0.00    -0.391 OA
ATOM     31  H5  UNL     1      41.269  45.760  11.901  1.00  0.00     0.210 HD
ENDBRANCH  29  30
BRANCH  29  32
HETATM   32  C13 UNL     1      40.115  44.611  10.623  1.00  0.00     0.217 C 
BRANCH  32  33
HETATM   33  O6  UNL     1      39.968  43.832  11.810  1.00  0.00    -0.280 OA
BRANCH  33  34
HETATM   34  P1  UNL     1      38.491  43.028  11.789  1.00  0.00     0.422 P 
HETATM   35  O7  UNL     1      38.200  42.527  13.165  1.00  0.00    -0.617 OA
HETATM   36  O8  UNL     1      38.497  41.721  10.721  1.00  0.00    -0.617 OA
HETATM   37  O9  UNL     1      37.225  44.066  11.332  1.00  0.00    -0.617 OA
ENDBRANCH  33  34
ENDBRANCH  32  33
ENDBRANCH  29  32
ENDBRANCH  26  29
ENDBRANCH  23  26
ENDBRANCH  22  23
ENDBRANCH  17  22
TORSDOF 10
ENDMDL
