MODEL 2
REMARK VINA RESULT: -9.736402225      0.797      1.228
REMARK  10 active torsions:
REMARK  status: ('A' for Active; 'I' for Inactive)
REMARK    1  A    between atoms: N4_17  and  C9_18 
REMARK    2  A    between atoms: C9_18  and  C10_19 
REMARK    3  A    between atoms: C10_19  and  O3_20 
REMARK    4  A    between atoms: C10_19  and  C11_22 
REMARK    5  A    between atoms: C11_22  and  O4_23 
REMARK    6  A    between atoms: C11_22  and  C12_25 
REMARK    7  A    between atoms: C12_25  and  O5_26 
REMARK    8  A    between atoms: C12_25  and  C13_28 
REMARK    9  A    between atoms: C13_28  and  O6_29 
REMARK   10  A    between atoms: O6_29  and  P1_30 
ROOT
HETATM    1  C1  UNL     1      40.099  37.092   5.561  1.00  0.00     0.049 C 
HETATM    2  C2  UNL     1      40.924  38.225   6.045  1.00  0.00    -0.054 A 
HETATM    3  C3  UNL     1      41.984  38.697   5.301  1.00  0.00     0.039 A 
HETATM    4  C4  UNL     1      42.772  39.754   5.730  1.00  0.00     0.060 A 
HETATM    5  N1  UNL     1      43.790  40.176   4.958  1.00  0.00    -0.347 N 
ATOM      6  H1  UNL     1      43.974  39.712   4.069  1.00  0.00     0.166 HD
HETATM    7  C5  UNL     1      44.564  41.198   5.345  1.00  0.00     0.146 A 
HETATM    8  C6  UNL     1      45.634  41.675   4.579  1.00  0.00     0.280 A 
HETATM    9  O1  UNL     1      45.865  41.113   3.493  1.00  0.00    -0.265 OA
HETATM   10  N2  UNL     1      46.376  42.715   5.035  1.00  0.00    -0.273 N 
ATOM     11  H2  UNL     1      47.158  43.065   4.480  1.00  0.00     0.173 HD
HETATM   12  C7  UNL     1      46.083  43.285   6.217  1.00  0.00     0.328 A 
HETATM   13  O2  UNL     1      46.810  44.246   6.580  1.00  0.00    -0.247 OA
HETATM   14  N3  UNL     1      45.048  42.851   6.996  1.00  0.00    -0.292 N 
ATOM     15  H3  UNL     1      44.863  43.315   7.885  1.00  0.00     0.172 HD
HETATM   16  C8  UNL     1      44.268  41.828   6.614  1.00  0.00     0.145 A 
HETATM   17  N4  UNL     1      43.223  41.365   7.366  1.00  0.00    -0.327 N 
HETATM   18  C14 UNL     1      42.456  40.339   6.962  1.00  0.00     0.063 A 
HETATM   19  C15 UNL     1      41.396  39.872   7.714  1.00  0.00     0.039 A 
HETATM   20  C16 UNL     1      40.629  38.817   7.258  1.00  0.00    -0.054 A 
HETATM   21  C17 UNL     1      39.486  38.302   8.052  1.00  0.00     0.049 C 
ENDROOT
BRANCH  17  22
HETATM   22  C9  UNL     1      42.970  42.031   8.625  1.00  0.00     0.165 C 
BRANCH  22  23
HETATM   23  C10 UNL     1      42.161  43.301   8.328  1.00  0.00     0.167 C 
BRANCH  23  24
HETATM   24  O3  UNL     1      42.739  44.450   8.791  1.00  0.00    -0.391 OA
ATOM     25  H3  UNL     1      43.266  44.906   8.146  1.00  0.00     0.210 HD
ENDBRANCH  23  24
BRANCH  23  26
HETATM   26  C11 UNL     1      40.743  43.198   8.666  1.00  0.00     0.179 C 
BRANCH  26  27
HETATM   27  O4  UNL     1      40.080  44.388   8.354  1.00  0.00    -0.390 OA
ATOM     28  H4  UNL     1      39.267  44.451   8.842  1.00  0.00     0.210 HD
ENDBRANCH  26  27
BRANCH  26  29
HETATM   29  C12 UNL     1      40.269  42.674   9.949  1.00  0.00     0.173 C 
BRANCH  29  30
HETATM   30  O5  UNL     1      38.973  42.110   9.647  1.00  0.00    -0.391 OA
ATOM     31  H5  UNL     1      38.402  42.864   9.562  1.00  0.00     0.210 HD
ENDBRANCH  29  30
BRANCH  29  32
HETATM   32  C13 UNL     1      39.913  43.713  11.007  1.00  0.00     0.217 C 
BRANCH  32  33
HETATM   33  O6  UNL     1      38.589  44.182  10.755  1.00  0.00    -0.280 OA
BRANCH  33  34
HETATM   34  P1  UNL     1      37.744  44.321  12.202  1.00  0.00     0.422 P 
HETATM   35  O7  UNL     1      36.283  44.213  11.915  1.00  0.00    -0.617 OA
HETATM   36  O8  UNL     1      38.042  45.794  12.970  1.00  0.00    -0.617 OA
HETATM   37  O9  UNL     1      38.157  43.078  13.285  1.00  0.00    -0.617 OA
ENDBRANCH  33  34
ENDBRANCH  32  33
ENDBRANCH  29  32
ENDBRANCH  26  29
ENDBRANCH  23  26
ENDBRANCH  22  23
ENDBRANCH  17  22
TORSDOF 10
ENDMDL
