MODEL 6
REMARK VINA RESULT: -8.716478852      2.329      4.880
REMARK  10 active torsions:
REMARK  status: ('A' for Active; 'I' for Inactive)
REMARK    1  A    between atoms: N4_17  and  C9_18 
REMARK    2  A    between atoms: C9_18  and  C10_19 
REMARK    3  A    between atoms: C10_19  and  O3_20 
REMARK    4  A    between atoms: C10_19  and  C11_22 
REMARK    5  A    between atoms: C11_22  and  O4_23 
REMARK    6  A    between atoms: C11_22  and  C12_25 
REMARK    7  A    between atoms: C12_25  and  O5_26 
REMARK    8  A    between atoms: C12_25  and  C13_28 
REMARK    9  A    between atoms: C13_28  and  O6_29 
REMARK   10  A    between atoms: O6_29  and  P1_30 
ROOT
HETATM    1  C1  UNL     1      46.353  41.314   4.168  1.00  0.00     0.049 C 
HETATM    2  C2  UNL     1      45.217  41.226   5.117  1.00  0.00    -0.054 A 
HETATM    3  C3  UNL     1      44.226  40.284   4.950  1.00  0.00     0.039 A 
HETATM    4  C4  UNL     1      43.153  40.180   5.823  1.00  0.00     0.060 A 
HETATM    5  N1  UNL     1      42.218  39.236   5.612  1.00  0.00    -0.347 N 
ATOM      6  H1  UNL     1      42.305  38.610   4.811  1.00  0.00     0.166 HD
HETATM    7  C5  UNL     1      41.175  39.109   6.442  1.00  0.00     0.146 A 
HETATM    8  C6  UNL     1      40.176  38.144   6.267  1.00  0.00     0.280 A 
HETATM    9  O1  UNL     1      40.276  37.377   5.292  1.00  0.00    -0.265 OA
HETATM   10  N2  UNL     1      39.147  38.074   7.148  1.00  0.00    -0.273 N 
ATOM     11  H2  UNL     1      38.416  37.373   7.024  1.00  0.00     0.173 HD
HETATM   12  C7  UNL     1      39.089  38.929   8.184  1.00  0.00     0.328 A 
HETATM   13  O2  UNL     1      38.109  38.810   8.965  1.00  0.00    -0.247 OA
HETATM   14  N3  UNL     1      40.042  39.885   8.393  1.00  0.00    -0.292 N 
ATOM     15  H3  UNL     1      39.955  40.511   9.193  1.00  0.00     0.172 HD
HETATM   16  C8  UNL     1      41.090  40.018   7.566  1.00  0.00     0.145 A 
HETATM   17  N4  UNL     1      42.065  40.963   7.740  1.00  0.00    -0.327 N 
HETATM   18  C14 UNL     1      43.105  41.075   6.898  1.00  0.00     0.063 A 
HETATM   19  C15 UNL     1      44.094  42.023   7.074  1.00  0.00     0.039 A 
HETATM   20  C16 UNL     1      45.151  42.100   6.186  1.00  0.00    -0.054 A 
HETATM   21  C17 UNL     1      46.223  43.112   6.359  1.00  0.00     0.049 C 
ENDROOT
BRANCH  17  22
HETATM   22  C9  UNL     1      41.932  41.844   8.880  1.00  0.00     0.165 C 
BRANCH  22  23
HETATM   23  C10 UNL     1      41.115  43.065   8.434  1.00  0.00     0.167 C 
BRANCH  23  24
HETATM   24  O3  UNL     1      41.792  44.249   8.522  1.00  0.00    -0.391 OA
ATOM     25  H3  UNL     1      42.542  44.224   9.105  1.00  0.00     0.210 HD
ENDBRANCH  23  24
BRANCH  23  26
HETATM   26  C11 UNL     1      39.775  43.129   9.013  1.00  0.00     0.179 C 
BRANCH  26  27
HETATM   27  O4  UNL     1      39.145  44.322   8.650  1.00  0.00    -0.390 OA
ATOM     28  H4  UNL     1      39.757  44.898   8.206  1.00  0.00     0.210 HD
ENDBRANCH  26  27
BRANCH  26  29
HETATM   29  C12 UNL     1      39.500  42.817  10.417  1.00  0.00     0.173 C 
BRANCH  29  30
HETATM   30  O5  UNL     1      38.541  41.738  10.363  1.00  0.00    -0.391 OA
ATOM     31  H5  UNL     1      38.030  41.917   9.582  1.00  0.00     0.210 HD
ENDBRANCH  29  30
BRANCH  29  32
HETATM   32  C13 UNL     1      38.730  43.874  11.201  1.00  0.00     0.217 C 
BRANCH  32  33
HETATM   33  O6  UNL     1      39.508  45.070  11.236  1.00  0.00    -0.280 OA
BRANCH  33  34
HETATM   34  P1  UNL     1      39.760  45.543  12.830  1.00  0.00     0.422 P 
HETATM   35  O7  UNL     1      40.989  46.388  12.890  1.00  0.00    -0.617 OA
HETATM   36  O8  UNL     1      39.956  44.220  13.859  1.00  0.00    -0.617 OA
HETATM   37  O9  UNL     1      38.461  46.468  13.417  1.00  0.00    -0.617 OA
ENDBRANCH  33  34
ENDBRANCH  32  33
ENDBRANCH  29  32
ENDBRANCH  26  29
ENDBRANCH  23  26
ENDBRANCH  22  23
ENDBRANCH  17  22
TORSDOF 10
ENDMDL
