MODEL 4
REMARK VINA RESULT: -9.155108932      2.222      4.780
REMARK  10 active torsions:
REMARK  status: ('A' for Active; 'I' for Inactive)
REMARK    1  A    between atoms: N4_17  and  C9_18 
REMARK    2  A    between atoms: C9_18  and  C10_19 
REMARK    3  A    between atoms: C10_19  and  O3_20 
REMARK    4  A    between atoms: C10_19  and  C11_22 
REMARK    5  A    between atoms: C11_22  and  O4_23 
REMARK    6  A    between atoms: C11_22  and  C12_25 
REMARK    7  A    between atoms: C12_25  and  O5_26 
REMARK    8  A    between atoms: C12_25  and  C13_28 
REMARK    9  A    between atoms: C13_28  and  O6_29 
REMARK   10  A    between atoms: O6_29  and  P1_30 
ROOT
HETATM    1  C1  UNL     1      46.356  41.734   4.119  1.00  0.00     0.049 C 
HETATM    2  C2  UNL     1      45.246  41.517   5.078  1.00  0.00    -0.054 A 
HETATM    3  C3  UNL     1      44.316  40.521   4.872  1.00  0.00     0.039 A 
HETATM    4  C4  UNL     1      43.269  40.297   5.753  1.00  0.00     0.060 A 
HETATM    5  N1  UNL     1      42.394  39.306   5.502  1.00  0.00    -0.347 N 
ATOM      6  H1  UNL     1      42.508  38.734   4.666  1.00  0.00     0.166 HD
HETATM    7  C5  UNL     1      41.378  39.064   6.338  1.00  0.00     0.146 A 
HETATM    8  C6  UNL     1      40.441  38.045   6.124  1.00  0.00     0.280 A 
HETATM    9  O1  UNL     1      40.573  37.343   5.105  1.00  0.00    -0.265 OA
HETATM   10  N2  UNL     1      39.436  37.857   7.014  1.00  0.00    -0.273 N 
ATOM     11  H2  UNL     1      38.751  37.117   6.861  1.00  0.00     0.173 HD
HETATM   12  C7  UNL     1      39.340  38.647   8.099  1.00  0.00     0.328 A 
HETATM   13  O2  UNL     1      38.384  38.419   8.885  1.00  0.00    -0.247 OA
HETATM   14  N3  UNL     1      40.232  39.651   8.347  1.00  0.00    -0.292 N 
ATOM     15  H3  UNL     1      40.119  40.224   9.183  1.00  0.00     0.172 HD
HETATM   16  C8  UNL     1      41.253  39.900   7.514  1.00  0.00     0.145 A 
HETATM   17  N4  UNL     1      42.166  40.897   7.727  1.00  0.00    -0.327 N 
HETATM   18  C14 UNL     1      43.181  41.125   6.878  1.00  0.00     0.063 A 
HETATM   19  C15 UNL     1      44.109  42.126   7.093  1.00  0.00     0.039 A 
HETATM   20  C16 UNL     1      45.141  42.323   6.196  1.00  0.00    -0.054 A 
HETATM   21  C17 UNL     1      46.147  43.393   6.410  1.00  0.00     0.049 C 
ENDROOT
BRANCH  17  22
HETATM   22  C9  UNL     1      41.997  41.702   8.917  1.00  0.00     0.165 C 
BRANCH  22  23
HETATM   23  C10 UNL     1      41.014  42.832   8.582  1.00  0.00     0.167 C 
BRANCH  23  24
HETATM   24  O3  UNL     1      41.591  44.069   8.511  1.00  0.00    -0.391 OA
ATOM     25  H3  UNL     1      40.994  44.760   8.250  1.00  0.00     0.210 HD
ENDBRANCH  23  24
BRANCH  23  26
HETATM   26  C11 UNL     1      39.792  42.817   9.382  1.00  0.00     0.179 C 
BRANCH  26  27
HETATM   27  O4  UNL     1      39.353  44.121   9.625  1.00  0.00    -0.390 OA
ATOM     28  H4  UNL     1      38.497  44.260   9.235  1.00  0.00     0.210 HD
ENDBRANCH  26  27
BRANCH  26  29
HETATM   29  C12 UNL     1      39.642  41.998  10.587  1.00  0.00     0.173 C 
BRANCH  29  30
HETATM   30  O5  UNL     1      38.434  41.240  10.356  1.00  0.00    -0.391 OA
ATOM     31  H5  UNL     1      37.733  41.835  10.598  1.00  0.00     0.210 HD
ENDBRANCH  29  30
BRANCH  29  32
HETATM   32  C13 UNL     1      39.294  42.748  11.869  1.00  0.00     0.217 C 
BRANCH  32  33
HETATM   33  O6  UNL     1      37.882  42.684  12.062  1.00  0.00    -0.280 OA
BRANCH  33  34
HETATM   34  P1  UNL     1      37.305  44.179  12.574  1.00  0.00     0.422 P 
HETATM   35  O7  UNL     1      36.900  44.971  11.375  1.00  0.00    -0.617 OA
HETATM   36  O8  UNL     1      38.472  45.046  13.433  1.00  0.00    -0.617 OA
HETATM   37  O9  UNL     1      35.943  44.011  13.575  1.00  0.00    -0.617 OA
ENDBRANCH  33  34
ENDBRANCH  32  33
ENDBRANCH  29  32
ENDBRANCH  26  29
ENDBRANCH  23  26
ENDBRANCH  22  23
ENDBRANCH  17  22
TORSDOF 10
ENDMDL
