MODEL 3
REMARK VINA RESULT: -9.437701566      1.294      1.973
REMARK  10 active torsions:
REMARK  status: ('A' for Active; 'I' for Inactive)
REMARK    1  A    between atoms: N4_17  and  C9_18 
REMARK    2  A    between atoms: C9_18  and  C10_19 
REMARK    3  A    between atoms: C10_19  and  O3_20 
REMARK    4  A    between atoms: C10_19  and  C11_22 
REMARK    5  A    between atoms: C11_22  and  O4_23 
REMARK    6  A    between atoms: C11_22  and  C12_25 
REMARK    7  A    between atoms: C12_25  and  O5_26 
REMARK    8  A    between atoms: C12_25  and  C13_28 
REMARK    9  A    between atoms: C13_28  and  O6_29 
REMARK   10  A    between atoms: O6_29  and  P1_30 
ROOT
HETATM    1  C1  UNL     1      40.031  37.112   5.759  1.00  0.00     0.049 C 
HETATM    2  C2  UNL     1      40.840  38.271   6.206  1.00  0.00    -0.054 A 
HETATM    3  C3  UNL     1      41.917  38.710   5.467  1.00  0.00     0.039 A 
HETATM    4  C4  UNL     1      42.690  39.791   5.863  1.00  0.00     0.060 A 
HETATM    5  N1  UNL     1      43.726  40.179   5.098  1.00  0.00    -0.347 N 
ATOM      6  H1  UNL     1      43.935  39.672   4.238  1.00  0.00     0.166 HD
HETATM    7  C5  UNL     1      44.486  41.222   5.452  1.00  0.00     0.146 A 
HETATM    8  C6  UNL     1      45.574  41.666   4.691  1.00  0.00     0.280 A 
HETATM    9  O1  UNL     1      45.835  41.052   3.641  1.00  0.00    -0.265 OA
HETATM   10  N2  UNL     1      46.301  42.731   5.113  1.00  0.00    -0.273 N 
ATOM     11  H2  UNL     1      47.095  43.056   4.561  1.00  0.00     0.173 HD
HETATM   12  C7  UNL     1      45.975  43.357   6.257  1.00  0.00     0.328 A 
HETATM   13  O2  UNL     1      46.689  44.339   6.590  1.00  0.00    -0.247 OA
HETATM   14  N3  UNL     1      44.922  42.959   7.030  1.00  0.00    -0.292 N 
ATOM     15  H3  UNL     1      44.713  43.465   7.890  1.00  0.00     0.172 HD
HETATM   16  C8  UNL     1      44.156  41.914   6.680  1.00  0.00     0.145 A 
HETATM   17  N4  UNL     1      43.093  41.484   7.427  1.00  0.00    -0.327 N 
HETATM   18  C14 UNL     1      42.340  40.435   7.056  1.00  0.00     0.063 A 
HETATM   19  C15 UNL     1      41.263  40.002   7.803  1.00  0.00     0.039 A 
HETATM   20  C16 UNL     1      40.512  38.921   7.380  1.00  0.00    -0.054 A 
HETATM   21  C17 UNL     1      39.350  38.441   8.170  1.00  0.00     0.049 C 
ENDROOT
BRANCH  17  22
HETATM   22  C9  UNL     1      42.805  42.211   8.644  1.00  0.00     0.165 C 
BRANCH  22  23
HETATM   23  C10 UNL     1      41.898  43.394   8.279  1.00  0.00     0.167 C 
BRANCH  23  24
HETATM   24  O3  UNL     1      42.420  44.616   8.603  1.00  0.00    -0.391 OA
ATOM     25  H3  UNL     1      42.413  45.241   7.887  1.00  0.00     0.210 HD
ENDBRANCH  23  24
BRANCH  23  26
HETATM   26  C11 UNL     1      40.510  43.235   8.705  1.00  0.00     0.179 C 
BRANCH  26  27
HETATM   27  O4  UNL     1      39.743  44.325   8.284  1.00  0.00    -0.390 OA
ATOM     28  H4  UNL     1      39.074  44.528   8.928  1.00  0.00     0.210 HD
ENDBRANCH  26  27
BRANCH  26  29
HETATM   29  C12 UNL     1      40.137  42.849  10.068  1.00  0.00     0.173 C 
BRANCH  29  30
HETATM   30  O5  UNL     1      39.082  41.878   9.888  1.00  0.00    -0.391 OA
ATOM     31  H5  UNL     1      39.537  41.047   9.822  1.00  0.00     0.210 HD
ENDBRANCH  29  30
BRANCH  29  32
HETATM   32  C13 UNL     1      39.432  43.917  10.899  1.00  0.00     0.217 C 
BRANCH  32  33
HETATM   33  O6  UNL     1      40.196  45.121  10.831  1.00  0.00    -0.280 OA
BRANCH  33  34
HETATM   34  P1  UNL     1      41.295  45.175  12.103  1.00  0.00     0.422 P 
HETATM   35  O7  UNL     1      41.395  46.582  12.589  1.00  0.00    -0.617 OA
HETATM   36  O8  UNL     1      42.829  44.648  11.634  1.00  0.00    -0.617 OA
HETATM   37  O9  UNL     1      40.790  44.206  13.403  1.00  0.00    -0.617 OA
ENDBRANCH  33  34
ENDBRANCH  32  33
ENDBRANCH  29  32
ENDBRANCH  26  29
ENDBRANCH  23  26
ENDBRANCH  22  23
ENDBRANCH  17  22
TORSDOF 10
ENDMDL
