MODEL 3
REMARK VINA RESULT: -6.255247529      1.446      2.928
REMARK  10 active torsions:
REMARK  status: ('A' for Active; 'I' for Inactive)
REMARK    1  A    between atoms: O1_1  and  C1_3 
REMARK    2  A    between atoms: C1_3  and  C2_4 
REMARK    3  A    between atoms: C3_6  and  O3_7 
REMARK    4  A    between atoms: O3_7  and  C4_8 
REMARK    5  A    between atoms: C7_12  and  C8_13 
REMARK    6  A    between atoms: C8_13  and  O5_14 
REMARK    7  A    between atoms: C9_16  and  O6_17 
REMARK    8  A    between atoms: C10_19  and  O7_20 
REMARK    9  A    between atoms: C11_22  and  O8_23 
REMARK   10  A    between atoms: C12_25  and  O9_26 
ROOT
HETATM    1  C2  UNL     1       4.532  21.879   5.398  1.00  0.00     0.179 C 
HETATM    2  O2  UNL     1       4.195  21.194   4.297  1.00  0.00    -0.348 OA
HETATM    3  C3  UNL     1       3.965  21.831   3.137  1.00  0.00     0.292 C 
HETATM    4  C10 UNL     1       4.634  23.139   2.906  1.00  0.00     0.204 C 
HETATM    5  C11 UNL     1       5.266  23.756   4.114  1.00  0.00     0.183 C 
HETATM    6  C12 UNL     1       4.374  23.375   5.304  1.00  0.00     0.180 C 
ENDROOT
BRANCH   3   7
HETATM    7  O3  UNL     1       4.274  20.982   2.073  1.00  0.00    -0.347 OA
BRANCH   7   8
HETATM    8  C4  UNL     1       5.561  20.533   2.071  1.00  0.00     0.180 C 
HETATM    9  C5  UNL     1       6.341  20.954   0.886  1.00  0.00     0.031 C 
HETATM   10  C6  UNL     1       7.531  20.410   0.742  1.00  0.00     0.134 C 
HETATM   11  O4  UNL     1       7.938  19.500   1.708  1.00  0.00    -0.353 OA
HETATM   12  C7  UNL     1       7.072  18.661   2.441  1.00  0.00     0.182 C 
HETATM   13  C9  UNL     1       5.650  19.001   2.084  1.00  0.00     0.182 C 
BRANCH  12  14
HETATM   14  C8  UNL     1       7.413  17.223   2.124  1.00  0.00     0.199 C 
BRANCH  14  15
HETATM   15  O5  UNL     1       8.599  16.912   2.745  1.00  0.00    -0.398 OA
ATOM     16  H5  UNL     1       8.570  17.248   3.633  1.00  0.00     0.209 HD
ENDBRANCH  14  15
ENDBRANCH  12  14
BRANCH  13  17
HETATM   17  O6  UNL     1       4.725  18.449   2.954  1.00  0.00    -0.390 OA
ATOM     18  H6  UNL     1       4.045  19.073   3.179  1.00  0.00     0.210 HD
ENDBRANCH  13  17
ENDBRANCH   7   8
ENDBRANCH   3   7
BRANCH   4  19
HETATM   19  O7  UNL     1       3.728  24.104   2.401  1.00  0.00    -0.388 OA
ATOM     20  H7  UNL     1       3.898  24.966   2.765  1.00  0.00     0.210 HD
ENDBRANCH   4  19
BRANCH   1  21
HETATM   21  C1  UNL     1       3.771  21.413   6.631  1.00  0.00     0.198 C 
BRANCH  21  22
HETATM   22  O1  UNL     1       4.648  21.094   7.679  1.00  0.00    -0.398 OA
ATOM     23  H1  UNL     1       5.478  20.771   7.348  1.00  0.00     0.209 HD
ENDBRANCH  21  22
ENDBRANCH   1  21
BRANCH   5  24
HETATM   24  O8  UNL     1       5.365  25.133   3.978  1.00  0.00    -0.390 OA
ATOM     25  H8  UNL     1       4.514  25.524   3.822  1.00  0.00     0.210 HD
ENDBRANCH   5  24
BRANCH   6  26
HETATM   26  O9  UNL     1       4.761  24.007   6.454  1.00  0.00    -0.390 OA
ATOM     27  H9  UNL     1       5.291  24.776   6.278  1.00  0.00     0.210 HD
ENDBRANCH   6  26
TORSDOF 10
ENDMDL
