MODEL 2
REMARK VINA RESULT: -6.608620631      1.875      7.201
REMARK  10 active torsions:
REMARK  status: ('A' for Active; 'I' for Inactive)
REMARK    1  A    between atoms: O1_1  and  C1_3 
REMARK    2  A    between atoms: C1_3  and  C2_4 
REMARK    3  A    between atoms: C3_6  and  O3_7 
REMARK    4  A    between atoms: O3_7  and  C4_8 
REMARK    5  A    between atoms: C7_12  and  C8_13 
REMARK    6  A    between atoms: C8_13  and  O5_14 
REMARK    7  A    between atoms: C9_16  and  O6_17 
REMARK    8  A    between atoms: C10_19  and  O7_20 
REMARK    9  A    between atoms: C11_22  and  O8_23 
REMARK   10  A    between atoms: C12_25  and  O9_26 
ROOT
HETATM    1  C2  UNL     1       6.816  17.258   1.653  1.00  0.00     0.179 C 
HETATM    2  O2  UNL     1       5.974  18.212   2.073  1.00  0.00    -0.348 OA
HETATM    3  C3  UNL     1       6.248  19.510   1.861  1.00  0.00     0.292 C 
HETATM    4  C10 UNL     1       7.105  19.870   0.700  1.00  0.00     0.204 C 
HETATM    5  C11 UNL     1       7.820  18.724   0.055  1.00  0.00     0.183 C 
HETATM    6  C12 UNL     1       8.164  17.745   1.185  1.00  0.00     0.180 C 
ENDROOT
BRANCH   3   7
HETATM    7  O3  UNL     1       5.052  20.226   1.767  1.00  0.00    -0.347 OA
BRANCH   7   8
HETATM    8  C4  UNL     1       4.706  20.886   2.909  1.00  0.00     0.180 C 
HETATM    9  C5  UNL     1       3.305  20.658   3.331  1.00  0.00     0.031 C 
HETATM   10  C6  UNL     1       2.862  21.402   4.323  1.00  0.00     0.134 C 
HETATM   11  O4  UNL     1       3.743  22.322   4.874  1.00  0.00    -0.353 OA
HETATM   12  C7  UNL     1       4.780  22.968   4.168  1.00  0.00     0.182 C 
HETATM   13  C9  UNL     1       4.838  22.409   2.771  1.00  0.00     0.182 C 
BRANCH  12  14
HETATM   14  C8  UNL     1       4.515  24.456   4.177  1.00  0.00     0.199 C 
BRANCH  14  15
HETATM   15  O5  UNL     1       5.686  25.107   3.867  1.00  0.00    -0.398 OA
ATOM     16  H5  UNL     1       5.621  26.003   4.176  1.00  0.00     0.209 HD
ENDBRANCH  14  15
ENDBRANCH  12  14
BRANCH  13  17
HETATM   17  O6  UNL     1       5.995  22.756   2.095  1.00  0.00    -0.390 OA
ATOM     18  H6  UNL     1       6.016  23.685   1.897  1.00  0.00     0.210 HD
ENDBRANCH  13  17
ENDBRANCH   7   8
ENDBRANCH   3   7
BRANCH   4  19
HETATM   19  O7  UNL     1       8.106  20.803   1.062  1.00  0.00    -0.388 OA
ATOM     20  H7  UNL     1       8.588  21.111   0.303  1.00  0.00     0.210 HD
ENDBRANCH   4  19
BRANCH   1  21
HETATM   21  C1  UNL     1       7.053  16.185   2.704  1.00  0.00     0.198 C 
BRANCH  21  22
HETATM   22  O1  UNL     1       8.294  16.360   3.339  1.00  0.00    -0.398 OA
ATOM     23  H1  UNL     1       8.208  16.892   4.121  1.00  0.00     0.209 HD
ENDBRANCH  21  22
ENDBRANCH   1  21
BRANCH   5  24
HETATM   24  O8  UNL     1       8.962  19.156  -0.605  1.00  0.00    -0.390 OA
ATOM     25  H8  UNL     1       9.581  18.444  -0.717  1.00  0.00     0.210 HD
ENDBRANCH   5  24
BRANCH   6  26
HETATM   26  O9  UNL     1       8.957  16.720   0.747  1.00  0.00    -0.390 OA
ATOM     27  H9  UNL     1       8.827  16.536  -0.176  1.00  0.00     0.210 HD
ENDBRANCH   6  26
TORSDOF 10
ENDMDL
