MODEL 1
REMARK VINA RESULT: -7.039689228      0.000      0.000
REMARK  10 active torsions:
REMARK  status: ('A' for Active; 'I' for Inactive)
REMARK    1  A    between atoms: O1_1  and  C1_3 
REMARK    2  A    between atoms: C1_3  and  C2_4 
REMARK    3  A    between atoms: C3_6  and  O3_7 
REMARK    4  A    between atoms: O3_7  and  C4_8 
REMARK    5  A    between atoms: C7_12  and  C8_13 
REMARK    6  A    between atoms: C8_13  and  O5_14 
REMARK    7  A    between atoms: C9_16  and  O6_17 
REMARK    8  A    between atoms: C10_19  and  O7_20 
REMARK    9  A    between atoms: C11_22  and  O8_23 
REMARK   10  A    between atoms: C12_25  and  O9_26 
ROOT
HETATM    1  C2  UNL     1       3.040  24.343   2.934  1.00  0.00     0.179 C 
HETATM    2  O2  UNL     1       3.689  23.306   2.387  1.00  0.00    -0.348 OA
HETATM    3  C3  UNL     1       4.427  22.481   3.147  1.00  0.00     0.292 C 
HETATM    4  C10 UNL     1       4.066  22.332   4.582  1.00  0.00     0.204 C 
HETATM    5  C11 UNL     1       3.097  23.345   5.105  1.00  0.00     0.183 C 
HETATM    6  C12 UNL     1       3.405  24.653   4.363  1.00  0.00     0.180 C 
ENDROOT
BRANCH   3   7
HETATM    7  O3  UNL     1       4.452  21.212   2.563  1.00  0.00    -0.347 OA
BRANCH   7   8
HETATM    8  C4  UNL     1       5.705  20.721   2.346  1.00  0.00     0.180 C 
HETATM    9  C5  UNL     1       6.278  21.103   1.036  1.00  0.00     0.031 C 
HETATM   10  C6  UNL     1       7.409  20.518   0.697  1.00  0.00     0.134 C 
HETATM   11  O4  UNL     1       7.950  19.607   1.592  1.00  0.00    -0.353 OA
HETATM   12  C7  UNL     1       7.200  18.805   2.479  1.00  0.00     0.182 C 
HETATM   13  C9  UNL     1       5.748  19.187   2.369  1.00  0.00     0.182 C 
BRANCH  12  14
HETATM   14  C8  UNL     1       7.437  17.353   2.132  1.00  0.00     0.199 C 
BRANCH  14  15
HETATM   15  O5  UNL     1       8.603  16.947   2.737  1.00  0.00    -0.398 OA
ATOM     16  H5  UNL     1       8.461  16.087   3.115  1.00  0.00     0.209 HD
ENDBRANCH  14  15
ENDBRANCH  12  14
BRANCH  13  17
HETATM   17  O6  UNL     1       4.973  18.676   3.396  1.00  0.00    -0.390 OA
ATOM     18  H6  UNL     1       4.046  18.742   3.197  1.00  0.00     0.210 HD
ENDBRANCH  13  17
ENDBRANCH   7   8
ENDBRANCH   3   7
BRANCH   4  19
HETATM   19  O7  UNL     1       5.208  22.414   5.416  1.00  0.00    -0.388 OA
ATOM     20  H7  UNL     1       4.966  22.490   6.333  1.00  0.00     0.210 HD
ENDBRANCH   4  19
BRANCH   1  21
HETATM   21  C1  UNL     1       3.201  25.623   2.129  1.00  0.00     0.198 C 
BRANCH  21  22
HETATM   22  O1  UNL     1       1.968  26.269   1.949  1.00  0.00    -0.398 OA
ATOM     23  H1  UNL     1       1.868  26.995   2.554  1.00  0.00     0.209 HD
ENDBRANCH  21  22
ENDBRANCH   1  21
BRANCH   5  24
HETATM   24  O8  UNL     1       3.228  23.501   6.478  1.00  0.00    -0.390 OA
ATOM     25  H8  UNL     1       3.432  24.401   6.702  1.00  0.00     0.210 HD
ENDBRANCH   5  24
BRANCH   6  26
HETATM   26  O9  UNL     1       2.684  25.704   4.862  1.00  0.00    -0.390 OA
ATOM     27  H9  UNL     1       3.244  26.402   5.181  1.00  0.00     0.210 HD
ENDBRANCH   6  26
TORSDOF 10
ENDMDL
