MODEL 3
REMARK VINA RESULT: -7.395549613      1.367      1.794
REMARK  16 active torsions:
REMARK  status: ('A' for Active; 'I' for Inactive)
REMARK    1  A    between atoms: O1_1  and  C1_3 
REMARK    2  A    between atoms: C1_3  and  C2_4 
REMARK    3  A    between atoms: C3_6  and  S1_7 
REMARK    4  A    between atoms: S1_7  and  C4_8 
REMARK    5  A    between atoms: C4_8  and  C5_9 
REMARK    6  A    between atoms: C6_11  and  S2_12 
REMARK    7  A    between atoms: S2_12  and  C7_13 
REMARK    8  A    between atoms: C7_13  and  C8_14 
REMARK    9  A    between atoms: C11_20  and  O4_21 
REMARK   10  A    between atoms: C12_23  and  O5_24 
REMARK   11  A    between atoms: C13_26  and  O6_27 
REMARK   12  A    between atoms: C14_29  and  O7_30 
REMARK   13  A    between atoms: C15_32  and  O8_33 
REMARK   14  A    between atoms: C16_35  and  O9_36 
REMARK   15  A    between atoms: C17_38  and  O10_39 
REMARK   16  A    between atoms: C18_41  and  O11_42 
ROOT
HETATM    1  C5  UNL     1       4.061 -30.191  -8.507  1.00  0.00     0.163 C 
HETATM    2  O3  UNL     1       4.981 -30.430  -9.532  1.00  0.00    -0.364 OA
HETATM    3  C6  UNL     1       4.602 -31.406 -10.442  1.00  0.00     0.214 C 
HETATM    4  C13 UNL     1       3.249 -31.221 -11.005  1.00  0.00     0.188 C 
HETATM    5  C14 UNL     1       2.739 -29.831 -10.579  1.00  0.00     0.181 C 
HETATM    6  C15 UNL     1       2.688 -29.938  -9.046  1.00  0.00     0.179 C 
ENDROOT
BRANCH   1   7
HETATM    7  C4  UNL     1       4.059 -31.270  -7.485  1.00  0.00     0.111 C 
BRANCH   7   8
HETATM    8  S1  UNL     1       3.090 -30.991  -6.032  1.00  0.00    -0.132 SA
BRANCH   8   9
HETATM    9  C3  UNL     1       3.900 -30.808  -4.475  1.00  0.00     0.214 C 
HETATM   10  O2  UNL     1       5.160 -31.412  -4.552  1.00  0.00    -0.363 OA
HETATM   11  C2  UNL     1       6.189 -30.516  -4.786  1.00  0.00     0.178 C 
HETATM   12  C18 UNL     1       6.412 -29.798  -3.450  1.00  0.00     0.180 C 
HETATM   13  C17 UNL     1       5.140 -29.003  -3.218  1.00  0.00     0.181 C 
HETATM   14  C16 UNL     1       4.070 -29.301  -4.227  1.00  0.00     0.188 C 
BRANCH  11  15
HETATM   15  C1  UNL     1       7.433 -31.295  -5.172  1.00  0.00     0.198 C 
BRANCH  15  16
HETATM   16  O1  UNL     1       8.200 -30.574  -6.061  1.00  0.00    -0.398 OA
ATOM     17  H1  UNL     1       8.036 -29.643  -5.966  1.00  0.00     0.209 HD
ENDBRANCH  15  16
ENDBRANCH  11  15
BRANCH  12  18
HETATM   18  O11 UNL     1       7.539 -29.022  -3.545  1.00  0.00    -0.390 OA
ATOM     19  H11 UNL     1       7.292 -28.109  -3.462  1.00  0.00     0.210 HD
ENDBRANCH  12  18
BRANCH  13  20
HETATM   20  O10 UNL     1       4.687 -29.157  -1.917  1.00  0.00    -0.390 OA
ATOM     21  H10 UNL     1       4.057 -28.487  -1.677  1.00  0.00     0.210 HD
ENDBRANCH  13  20
BRANCH  14  22
HETATM   22  O9  UNL     1       2.854 -28.813  -3.697  1.00  0.00    -0.389 OA
ATOM     23  H9  UNL     1       2.157 -29.073  -4.287  1.00  0.00     0.210 HD
ENDBRANCH  14  22
ENDBRANCH   8   9
ENDBRANCH   7   8
ENDBRANCH   1   7
BRANCH   6  24
HETATM   24  O8  UNL     1       2.132 -28.774  -8.593  1.00  0.00    -0.390 OA
ATOM     25  H8  UNL     1       2.259 -28.039  -9.182  1.00  0.00     0.210 HD
ENDBRANCH   6  24
BRANCH   3  26
HETATM   26  S2  UNL     1       5.944 -31.635 -11.603  1.00  0.00    -0.134 SA
BRANCH  26  27
HETATM   27  C7  UNL     1       6.265 -30.300 -12.721  1.00  0.00     0.085 C 
BRANCH  27  28
HETATM   28  C8  UNL     1       5.836 -30.586 -14.114  1.00  0.00     0.052 C 
HETATM   29  C9  UNL     1       4.354 -30.921 -14.205  1.00  0.00     0.240 C 
HETATM   30  N1  UNL     1       4.165 -31.638 -15.451  1.00  0.00    -0.072 N 
HETATM   31  C10 UNL     1       4.934 -31.052 -16.524  1.00  0.00     0.266 C 
ATOM     32  H12 UNL     1       4.371 -32.632 -15.345  1.00  0.00     0.277 HD
ATOM     33  H11 UNL     1       3.177 -31.707 -15.696  1.00  0.00     0.277 HD
HETATM   34  C11 UNL     1       5.265 -29.609 -16.279  1.00  0.00     0.172 C 
HETATM   35  C12 UNL     1       5.993 -29.341 -15.001  1.00  0.00     0.154 C 
BRANCH  34  36
HETATM   36  O4  UNL     1       4.073 -28.887 -16.377  1.00  0.00    -0.391 OA
ATOM     37  H4  UNL     1       4.032 -28.529 -17.256  1.00  0.00     0.210 HD
ENDBRANCH  34  36
BRANCH  35  38
HETATM   38  O5  UNL     1       7.327 -29.068 -15.121  1.00  0.00    -0.393 OA
ATOM     39  H5  UNL     1       7.440 -28.453 -15.835  1.00  0.00     0.210 HD
ENDBRANCH  35  38
ENDBRANCH  27  28
ENDBRANCH  26  27
ENDBRANCH   3  26
BRANCH   5  40
HETATM   40  O7  UNL     1       1.433 -29.737 -11.040  1.00  0.00    -0.390 OA
ATOM     41  H7  UNL     1       1.358 -28.888 -11.460  1.00  0.00     0.210 HD
ENDBRANCH   5  40
BRANCH   4  42
HETATM   42  O6  UNL     1       2.335 -32.124 -10.403  1.00  0.00    -0.389 OA
ATOM     43  H6  UNL     1       1.775 -32.518 -11.063  1.00  0.00     0.210 HD
ENDBRANCH   4  42
TORSDOF 16
ENDMDL
