MODEL 1
REMARK VINA RESULT: -7.440270066      0.000      0.000
REMARK  16 active torsions:
REMARK  status: ('A' for Active; 'I' for Inactive)
REMARK    1  A    between atoms: O1_1  and  C1_3 
REMARK    2  A    between atoms: C1_3  and  C2_4 
REMARK    3  A    between atoms: C3_6  and  S1_7 
REMARK    4  A    between atoms: S1_7  and  C4_8 
REMARK    5  A    between atoms: C4_8  and  C5_9 
REMARK    6  A    between atoms: C6_11  and  S2_12 
REMARK    7  A    between atoms: S2_12  and  C7_13 
REMARK    8  A    between atoms: C7_13  and  C8_14 
REMARK    9  A    between atoms: C11_20  and  O4_21 
REMARK   10  A    between atoms: C12_23  and  O5_24 
REMARK   11  A    between atoms: C13_26  and  O6_27 
REMARK   12  A    between atoms: C14_29  and  O7_30 
REMARK   13  A    between atoms: C15_32  and  O8_33 
REMARK   14  A    between atoms: C16_35  and  O9_36 
REMARK   15  A    between atoms: C17_38  and  O10_39 
REMARK   16  A    between atoms: C18_41  and  O11_42 
ROOT
HETATM    1  C5  UNL     1       4.033 -30.179  -8.848  1.00  0.00     0.163 C 
HETATM    2  O3  UNL     1       4.949 -30.437  -9.873  1.00  0.00    -0.364 OA
HETATM    3  C6  UNL     1       4.585 -31.456 -10.740  1.00  0.00     0.214 C 
HETATM    4  C13 UNL     1       3.222 -31.328 -11.294  1.00  0.00     0.188 C 
HETATM    5  C14 UNL     1       2.681 -29.935 -10.918  1.00  0.00     0.181 C 
HETATM    6  C15 UNL     1       2.649 -29.982  -9.381  1.00  0.00     0.179 C 
ENDROOT
BRANCH   1   7
HETATM    7  C4  UNL     1       4.069 -31.216  -7.785  1.00  0.00     0.111 C 
BRANCH   7   8
HETATM    8  S1  UNL     1       2.719 -31.234  -6.642  1.00  0.00    -0.132 SA
BRANCH   8   9
HETATM    9  C3  UNL     1       3.049 -31.113  -4.912  1.00  0.00     0.214 C 
HETATM   10  O2  UNL     1       3.248 -32.400  -4.403  1.00  0.00    -0.363 OA
HETATM   11  C2  UNL     1       4.583 -32.741  -4.268  1.00  0.00     0.178 C 
HETATM   12  C18 UNL     1       5.072 -31.978  -3.031  1.00  0.00     0.180 C 
HETATM   13  C17 UNL     1       4.998 -30.514  -3.422  1.00  0.00     0.181 C 
HETATM   14  C16 UNL     1       4.341 -30.295  -4.754  1.00  0.00     0.188 C 
BRANCH  11  15
HETATM   15  C1  UNL     1       4.680 -34.236  -4.029  1.00  0.00     0.198 C 
BRANCH  15  16
HETATM   16  O1  UNL     1       3.586 -34.885  -4.559  1.00  0.00    -0.398 OA
ATOM     17  H1  UNL     1       3.033 -34.275  -5.034  1.00  0.00     0.209 HD
ENDBRANCH  15  16
ENDBRANCH  11  15
BRANCH  12  18
HETATM   18  O11 UNL     1       6.338 -32.404  -2.719  1.00  0.00    -0.390 OA
ATOM     19  H11 UNL     1       6.949 -31.694  -2.876  1.00  0.00     0.210 HD
ENDBRANCH  12  18
BRANCH  13  20
HETATM   20  O10 UNL     1       4.409 -29.759  -2.420  1.00  0.00    -0.390 OA
ATOM     21  H10 UNL     1       3.539 -29.462  -2.663  1.00  0.00     0.210 HD
ENDBRANCH  13  20
BRANCH  14  22
HETATM   22  O9  UNL     1       3.995 -28.927  -4.825  1.00  0.00    -0.389 OA
ATOM     23  H9  UNL     1       3.252 -28.847  -5.411  1.00  0.00     0.210 HD
ENDBRANCH  14  22
ENDBRANCH   8   9
ENDBRANCH   7   8
ENDBRANCH   1   7
BRANCH   6  24
HETATM   24  O8  UNL     1       2.069 -28.814  -8.969  1.00  0.00    -0.390 OA
ATOM     25  H8  UNL     1       2.618 -28.051  -9.103  1.00  0.00     0.210 HD
ENDBRANCH   6  24
BRANCH   3  26
HETATM   26  S2  UNL     1       5.920 -31.699 -11.905  1.00  0.00    -0.134 SA
BRANCH  26  27
HETATM   27  C7  UNL     1       6.263 -30.360 -13.011  1.00  0.00     0.085 C 
BRANCH  27  28
HETATM   28  C8  UNL     1       5.859 -30.638 -14.413  1.00  0.00     0.052 C 
HETATM   29  C9  UNL     1       4.381 -30.989 -14.529  1.00  0.00     0.240 C 
HETATM   30  N1  UNL     1       4.219 -31.698 -15.784  1.00  0.00    -0.072 N 
HETATM   31  C10 UNL     1       4.997 -31.093 -16.840  1.00  0.00     0.266 C 
ATOM     32  H12 UNL     1       4.436 -32.689 -15.683  1.00  0.00     0.277 HD
ATOM     33  H11 UNL     1       3.236 -31.775 -16.044  1.00  0.00     0.277 HD
HETATM   34  C11 UNL     1       5.307 -29.648 -16.577  1.00  0.00     0.172 C 
HETATM   35  C12 UNL     1       6.013 -29.383 -15.287  1.00  0.00     0.154 C 
BRANCH  34  36
HETATM   36  O4  UNL     1       4.109 -28.939 -16.687  1.00  0.00    -0.391 OA
ATOM     37  H4  UNL     1       4.319 -28.083 -17.042  1.00  0.00     0.210 HD
ENDBRANCH  34  36
BRANCH  35  38
HETATM   38  O5  UNL     1       7.346 -29.094 -15.384  1.00  0.00    -0.393 OA
ATOM     39  H5  UNL     1       7.450 -28.152 -15.315  1.00  0.00     0.210 HD
ENDBRANCH  35  38
ENDBRANCH  27  28
ENDBRANCH  26  27
ENDBRANCH   3  26
BRANCH   5  40
HETATM   40  O7  UNL     1       1.369 -29.892 -11.368  1.00  0.00    -0.390 OA
ATOM     41  H7  UNL     1       1.343 -29.233 -12.052  1.00  0.00     0.210 HD
ENDBRANCH   5  40
BRANCH   4  42
HETATM   42  O6  UNL     1       2.337 -32.229 -10.647  1.00  0.00    -0.389 OA
ATOM     43  H6  UNL     1       1.448 -32.102 -10.958  1.00  0.00     0.210 HD
ENDBRANCH   4  42
TORSDOF 16
ENDMDL
