MODEL 2
REMARK VINA RESULT: -7.411960785      2.724     10.154
REMARK  16 active torsions:
REMARK  status: ('A' for Active; 'I' for Inactive)
REMARK    1  A    between atoms: O1_1  and  C1_3 
REMARK    2  A    between atoms: C1_3  and  C2_4 
REMARK    3  A    between atoms: C3_6  and  S1_7 
REMARK    4  A    between atoms: S1_7  and  C4_8 
REMARK    5  A    between atoms: C4_8  and  C5_9 
REMARK    6  A    between atoms: C6_11  and  S2_12 
REMARK    7  A    between atoms: S2_12  and  C7_13 
REMARK    8  A    between atoms: C7_13  and  C8_14 
REMARK    9  A    between atoms: C11_20  and  O4_21 
REMARK   10  A    between atoms: C12_23  and  O5_24 
REMARK   11  A    between atoms: C13_26  and  O6_27 
REMARK   12  A    between atoms: C14_29  and  O7_30 
REMARK   13  A    between atoms: C15_32  and  O8_33 
REMARK   14  A    between atoms: C16_35  and  O9_36 
REMARK   15  A    between atoms: C17_38  and  O10_39 
REMARK   16  A    between atoms: C18_41  and  O11_42 
ROOT
HETATM    1  C5  UNL     1       5.376 -31.472 -12.018  1.00  0.00     0.163 C 
HETATM    2  O3  UNL     1       5.457 -31.879 -10.683  1.00  0.00    -0.364 OA
HETATM    3  C6  UNL     1       5.034 -30.936  -9.757  1.00  0.00     0.214 C 
HETATM    4  C13 UNL     1       3.702 -30.363 -10.036  1.00  0.00     0.188 C 
HETATM    5  C14 UNL     1       3.058 -31.179 -11.174  1.00  0.00     0.181 C 
HETATM    6  C15 UNL     1       4.017 -30.943 -12.352  1.00  0.00     0.179 C 
ENDROOT
BRANCH   1   7
HETATM    7  C4  UNL     1       6.446 -30.506 -12.380  1.00  0.00     0.111 C 
BRANCH   7   8
HETATM    8  S1  UNL     1       7.510 -30.959 -13.719  1.00  0.00    -0.132 SA
BRANCH   8   9
HETATM    9  C3  UNL     1       6.801 -31.423 -15.267  1.00  0.00     0.214 C 
HETATM   10  O2  UNL     1       5.535 -30.838 -15.374  1.00  0.00    -0.363 OA
HETATM   11  C2  UNL     1       5.524 -29.676 -16.126  1.00  0.00     0.178 C 
HETATM   12  C18 UNL     1       5.635 -30.137 -17.585  1.00  0.00     0.180 C 
HETATM   13  C17 UNL     1       7.017 -30.755 -17.693  1.00  0.00     0.181 C 
HETATM   14  C16 UNL     1       7.717 -30.866 -16.370  1.00  0.00     0.188 C 
BRANCH  11  15
HETATM   15  C1  UNL     1       4.202 -28.966 -15.905  1.00  0.00     0.198 C 
BRANCH  15  16
HETATM   16  O1  UNL     1       3.247 -29.432 -16.784  1.00  0.00    -0.398 OA
ATOM     17  H1  UNL     1       2.522 -29.825 -16.312  1.00  0.00     0.209 HD
ENDBRANCH  15  16
ENDBRANCH  11  15
BRANCH  12  18
HETATM   18  O11 UNL     1       5.446 -29.057 -18.408  1.00  0.00    -0.390 OA
ATOM     19  H11 UNL     1       5.835 -29.243 -19.254  1.00  0.00     0.210 HD
ENDBRANCH  12  18
BRANCH  13  20
HETATM   20  O10 UNL     1       6.969 -31.970 -18.360  1.00  0.00    -0.390 OA
ATOM     21  H10 UNL     1       6.304 -31.978 -19.038  1.00  0.00     0.210 HD
ENDBRANCH  13  20
BRANCH  14  22
HETATM   22  O9  UNL     1       8.785 -31.774 -16.541  1.00  0.00    -0.389 OA
ATOM     23  H9  UNL     1       8.498 -32.447 -17.147  1.00  0.00     0.210 HD
ENDBRANCH  14  22
ENDBRANCH   8   9
ENDBRANCH   7   8
ENDBRANCH   1   7
BRANCH   6  24
HETATM   24  O8  UNL     1       3.451 -31.545 -13.441  1.00  0.00    -0.390 OA
ATOM     25  H8  UNL     1       2.579 -31.225 -13.640  1.00  0.00     0.210 HD
ENDBRANCH   6  24
BRANCH   3  26
HETATM   26  S2  UNL     1       5.311 -31.601  -8.120  1.00  0.00    -0.134 SA
BRANCH  26  27
HETATM   27  C7  UNL     1       4.085 -31.234  -6.896  1.00  0.00     0.085 C 
BRANCH  27  28
HETATM   28  C8  UNL     1       4.585 -30.353  -5.811  1.00  0.00     0.052 C 
HETATM   29  C9  UNL     1       4.536 -28.880  -6.194  1.00  0.00     0.240 C 
HETATM   30  N1  UNL     1       5.465 -28.190  -5.318  1.00  0.00    -0.072 N 
HETATM   31  C10 UNL     1       5.381 -28.682  -3.963  1.00  0.00     0.266 C 
ATOM     32  H12 UNL     1       6.419 -28.240  -5.675  1.00  0.00     0.277 HD
ATOM     33  H11 UNL     1       5.333 -27.180  -5.357  1.00  0.00     0.277 HD
HETATM   34  C11 UNL     1       4.059 -29.323  -3.659  1.00  0.00     0.172 C 
HETATM   35  C12 UNL     1       3.681 -30.445  -4.570  1.00  0.00     0.154 C 
BRANCH  34  36
HETATM   36  O4  UNL     1       3.101 -28.307  -3.635  1.00  0.00    -0.391 OA
ATOM     37  H4  UNL     1       3.213 -27.794  -4.427  1.00  0.00     0.210 HD
ENDBRANCH  34  36
BRANCH  35  38
HETATM   38  O5  UNL     1       3.802 -31.703  -4.049  1.00  0.00    -0.393 OA
ATOM     39  H5  UNL     1       2.937 -32.001  -3.794  1.00  0.00     0.210 HD
ENDBRANCH  35  38
ENDBRANCH  27  28
ENDBRANCH  26  27
ENDBRANCH   3  26
BRANCH   5  40
HETATM   40  O7  UNL     1       1.857 -30.551 -11.473  1.00  0.00    -0.390 OA
ATOM     41  H7  UNL     1       2.056 -29.895 -12.131  1.00  0.00     0.210 HD
ENDBRANCH   5  40
BRANCH   4  42
HETATM   42  O6  UNL     1       3.827 -29.057 -10.576  1.00  0.00    -0.389 OA
ATOM     43  H6  UNL     1       3.099 -28.866 -11.155  1.00  0.00     0.210 HD
ENDBRANCH   4  42
TORSDOF 16
ENDMDL
