MODEL 3
REMARK VINA RESULT: -9.345511479      1.872      2.375
REMARK  8 active torsions:
REMARK  status: ('A' for Active; 'I' for Inactive)
REMARK    1  A    between atoms: N5_13  and  C6_14 
REMARK    2  A    between atoms: C7_16  and  C8_17 
REMARK    3  A    between atoms: C8_17  and  O2_18 
REMARK    4  A    between atoms: O2_18  and  P1_19 
REMARK    5  A    between atoms: P1_19  and  O5_22 
REMARK    6  A    between atoms: O5_22  and  P2_23 
REMARK    7  A    between atoms: C9_27  and  O9_28 
REMARK    8  A    between atoms: C10_30  and  O10_31 
ROOT
HETATM    1  C6  UNL     1      38.532  25.269  18.326  1.00  0.00     0.262 C 
HETATM    2  O1  UNL     1      39.910  25.246  18.263  1.00  0.00    -0.353 OA
HETATM    3  C7  UNL     1      40.411  24.769  19.438  1.00  0.00     0.180 C 
HETATM    4  C9  UNL     1      39.275  24.098  20.172  1.00  0.00     0.182 C 
HETATM    5  C10 UNL     1      38.153  25.060  19.758  1.00  0.00     0.198 C 
ENDROOT
BRANCH   1   6
HETATM    6  N5  UNL     1      38.008  24.298  17.422  1.00  0.00    -0.297 N 
HETATM    7  C3  UNL     1      38.625  23.695  16.391  1.00  0.00     0.142 A 
HETATM    8  N3  UNL     1      39.859  23.797  15.901  1.00  0.00    -0.336 N 
HETATM    9  C4  UNL     1      37.752  22.833  15.790  1.00  0.00     0.119 A 
HETATM   10  C2  UNL     1      40.251  23.073  14.837  1.00  0.00     0.183 A 
ATOM     11  H3  UNL     1      40.520  24.436  16.342  1.00  0.00     0.168 HD
HETATM   12  N2  UNL     1      39.413  22.226  14.237  1.00  0.00    -0.339 N 
HETATM   13  C1  UNL     1      38.167  22.096  14.699  1.00  0.00     0.148 A 
ATOM     14  H2  UNL     1      39.721  21.682  13.431  1.00  0.00     0.167 HD
HETATM   15  N1  UNL     1      37.227  21.219  14.112  1.00  0.00    -0.080 NA
HETATM   16  N4  UNL     1      36.607  22.915  16.457  1.00  0.00    -0.346 N 
HETATM   17  C5  UNL     1      36.761  23.795  17.436  1.00  0.00     0.188 A 
ATOM     18  H4  UNL     1      35.757  22.392  16.251  1.00  0.00     0.167 HD
ENDBRANCH   1   6
BRANCH   5  19
HETATM   19  O10 UNL     1      38.405  26.257  20.440  1.00  0.00    -0.388 OA
ATOM     20  H10 UNL     1      39.313  26.241  20.718  1.00  0.00     0.210 HD
ENDBRANCH   5  19
BRANCH   3  21
HETATM   21  C8  UNL     1      41.621  23.899  19.311  1.00  0.00     0.216 C 
BRANCH  21  22
HETATM   22  O2  UNL     1      41.674  23.171  18.151  1.00  0.00    -0.287 OA
BRANCH  22  23
HETATM   23  P1  UNL     1      43.316  23.103  17.677  1.00  0.00     0.418 P 
HETATM   24  O3  UNL     1      43.816  24.516  17.532  1.00  0.00    -0.624 OA
HETATM   25  O4  UNL     1      43.484  22.344  16.184  1.00  0.00    -0.624 OA
BRANCH  23  26
HETATM   26  O5  UNL     1      44.186  22.315  18.867  1.00  0.00    -0.173 OA
BRANCH  26  27
HETATM   27  P2  UNL     1      45.766  21.982  18.437  1.00  0.00     0.431 P 
HETATM   28  O6  UNL     1      46.347  23.050  17.531  1.00  0.00    -0.616 OA
HETATM   29  O7  UNL     1      45.913  20.511  17.607  1.00  0.00    -0.616 OA
HETATM   30  O8  UNL     1      46.677  21.860  19.875  1.00  0.00    -0.616 OA
ENDBRANCH  26  27
ENDBRANCH  23  26
ENDBRANCH  22  23
ENDBRANCH  21  22
ENDBRANCH   3  21
BRANCH   4  31
HETATM   31  O9  UNL     1      39.445  24.060  21.535  1.00  0.00    -0.390 OA
ATOM     32  H9  UNL     1      38.725  24.444  22.020  1.00  0.00     0.210 HD
ENDBRANCH   4  31
TORSDOF 8
ENDMDL
