MODEL 1
REMARK VINA RESULT: -9.615694863      0.000      0.000
REMARK  8 active torsions:
REMARK  status: ('A' for Active; 'I' for Inactive)
REMARK    1  A    between atoms: N5_13  and  C6_14 
REMARK    2  A    between atoms: C7_16  and  C8_17 
REMARK    3  A    between atoms: C8_17  and  O2_18 
REMARK    4  A    between atoms: O2_18  and  P1_19 
REMARK    5  A    between atoms: P1_19  and  O5_22 
REMARK    6  A    between atoms: O5_22  and  P2_23 
REMARK    7  A    between atoms: C9_27  and  O9_28 
REMARK    8  A    between atoms: C10_30  and  O10_31 
ROOT
HETATM    1  C6  UNL     1      37.984  22.873  18.621  1.00  0.00     0.262 C 
HETATM    2  O1  UNL     1      38.923  23.803  18.224  1.00  0.00    -0.353 OA
HETATM    3  C7  UNL     1      40.159  23.406  18.642  1.00  0.00     0.180 C 
HETATM    4  C9  UNL     1      40.061  21.946  19.013  1.00  0.00     0.182 C 
HETATM    5  C10 UNL     1      38.648  21.970  19.612  1.00  0.00     0.198 C 
ENDROOT
BRANCH   1   6
HETATM    6  N5  UNL     1      37.464  22.215  17.467  1.00  0.00    -0.297 N 
HETATM    7  C3  UNL     1      36.700  22.723  16.485  1.00  0.00     0.142 A 
HETATM    8  N3  UNL     1      36.205  23.941  16.275  1.00  0.00    -0.336 N 
HETATM    9  C4  UNL     1      36.429  21.742  15.574  1.00  0.00     0.119 A 
HETATM   10  C2  UNL     1      35.450  24.214  15.195  1.00  0.00     0.183 A 
ATOM     11  H3  UNL     1      36.401  24.684  16.947  1.00  0.00     0.168 HD
HETATM   12  N2  UNL     1      35.175  23.267  14.295  1.00  0.00    -0.339 N 
HETATM   13  C1  UNL     1      35.654  22.034  14.470  1.00  0.00     0.148 A 
ATOM     14  H2  UNL     1      34.603  23.485  13.479  1.00  0.00     0.167 HD
HETATM   15  N1  UNL     1      35.401  20.984  13.559  1.00  0.00    -0.080 NA
HETATM   16  N4  UNL     1      37.028  20.639  16.007  1.00  0.00    -0.346 N 
HETATM   17  C5  UNL     1      37.649  20.922  17.143  1.00  0.00     0.188 A 
ATOM     18  H4  UNL     1      37.013  19.730  15.545  1.00  0.00     0.167 HD
ENDBRANCH   1   6
BRANCH   5  19
HETATM   19  O10 UNL     1      38.756  22.675  20.817  1.00  0.00    -0.388 OA
ATOM     20  H10 UNL     1      38.110  22.318  21.415  1.00  0.00     0.210 HD
ENDBRANCH   5  19
BRANCH   3  21
HETATM   21  C8  UNL     1      41.277  23.695  17.691  1.00  0.00     0.216 C 
BRANCH  21  22
HETATM   22  O2  UNL     1      41.930  22.581  17.230  1.00  0.00    -0.287 OA
BRANCH  22  23
HETATM   23  P1  UNL     1      43.603  22.933  17.260  1.00  0.00     0.418 P 
HETATM   24  O3  UNL     1      43.761  24.419  17.444  1.00  0.00    -0.624 OA
HETATM   25  O4  UNL     1      44.335  22.516  15.804  1.00  0.00    -0.624 OA
BRANCH  23  26
HETATM   26  O5  UNL     1      44.298  22.126  18.549  1.00  0.00    -0.173 OA
BRANCH  26  27
HETATM   27  P2  UNL     1      45.938  21.857  18.369  1.00  0.00     0.431 P 
HETATM   28  O6  UNL     1      46.600  22.920  17.513  1.00  0.00    -0.616 OA
HETATM   29  O7  UNL     1      46.270  20.367  17.633  1.00  0.00    -0.616 OA
HETATM   30  O8  UNL     1      46.631  21.832  19.929  1.00  0.00    -0.616 OA
ENDBRANCH  26  27
ENDBRANCH  23  26
ENDBRANCH  22  23
ENDBRANCH  21  22
ENDBRANCH   3  21
BRANCH   4  31
HETATM   31  O9  UNL     1      41.003  21.547  19.931  1.00  0.00    -0.390 OA
ATOM     32  H9  UNL     1      40.970  20.619  20.132  1.00  0.00     0.210 HD
ENDBRANCH   4  31
TORSDOF 8
ENDMDL
