MODEL 4
REMARK VINA RESULT: -9.303081575      2.175      2.886
REMARK  8 active torsions:
REMARK  status: ('A' for Active; 'I' for Inactive)
REMARK    1  A    between atoms: N5_13  and  C6_14 
REMARK    2  A    between atoms: C7_16  and  C8_17 
REMARK    3  A    between atoms: C8_17  and  O2_18 
REMARK    4  A    between atoms: O2_18  and  P1_19 
REMARK    5  A    between atoms: P1_19  and  O5_22 
REMARK    6  A    between atoms: O5_22  and  P2_23 
REMARK    7  A    between atoms: C9_27  and  O9_28 
REMARK    8  A    between atoms: C10_30  and  O10_31 
ROOT
HETATM    1  C6  UNL     1      40.311  24.534  17.981  1.00  0.00     0.262 C 
HETATM    2  O1  UNL     1      41.571  24.392  17.437  1.00  0.00    -0.353 OA
HETATM    3  C7  UNL     1      42.375  23.734  18.320  1.00  0.00     0.180 C 
HETATM    4  C9  UNL     1      41.479  23.088  19.349  1.00  0.00     0.182 C 
HETATM    5  C10 UNL     1      40.416  24.192  19.434  1.00  0.00     0.198 C 
ENDROOT
BRANCH   1   6
HETATM    6  N5  UNL     1      39.391  23.730  17.244  1.00  0.00    -0.297 N 
HETATM    7  C3  UNL     1      39.276  23.598  15.911  1.00  0.00     0.142 A 
HETATM    8  N3  UNL     1      39.943  24.142  14.895  1.00  0.00    -0.336 N 
HETATM    9  C4  UNL     1      38.262  22.725  15.633  1.00  0.00     0.119 A 
HETATM   10  C2  UNL     1      39.636  23.849  13.619  1.00  0.00     0.183 A 
ATOM     11  H3  UNL     1      40.703  24.795  15.090  1.00  0.00     0.168 HD
HETATM   12  N2  UNL     1      38.649  22.999  13.329  1.00  0.00    -0.339 N 
HETATM   13  C1  UNL     1      37.957  22.432  14.320  1.00  0.00     0.148 A 
ATOM     14  H2  UNL     1      38.426  22.784  12.357  1.00  0.00     0.167 HD
HETATM   15  N1  UNL     1      36.900  21.525  14.085  1.00  0.00    -0.080 NA
HETATM   16  N4  UNL     1      37.764  22.330  16.799  1.00  0.00    -0.346 N 
HETATM   17  C5  UNL     1      38.442  22.933  17.765  1.00  0.00     0.188 A 
ATOM     18  H4  UNL     1      36.993  21.675  16.928  1.00  0.00     0.167 HD
ENDBRANCH   1   6
BRANCH   5  19
HETATM   19  O10 UNL     1      41.036  25.271  20.076  1.00  0.00    -0.388 OA
ATOM     20  H10 UNL     1      40.429  25.603  20.727  1.00  0.00     0.210 HD
ENDBRANCH   5  19
BRANCH   3  21
HETATM   21  C8  UNL     1      43.348  22.777  17.708  1.00  0.00     0.216 C 
BRANCH  21  22
HETATM   22  O2  UNL     1      43.896  21.885  18.592  1.00  0.00    -0.287 OA
BRANCH  22  23
HETATM   23  P1  UNL     1      45.586  21.890  18.326  1.00  0.00     0.418 P 
HETATM   24  O3  UNL     1      46.267  21.974  19.667  1.00  0.00    -0.624 OA
HETATM   25  O4  UNL     1      46.053  23.235  17.429  1.00  0.00    -0.624 OA
BRANCH  23  26
HETATM   26  O5  UNL     1      46.013  20.466  17.563  1.00  0.00    -0.173 OA
BRANCH  26  27
HETATM   27  P2  UNL     1      47.174  20.660  16.376  1.00  0.00     0.431 P 
HETATM   28  O6  UNL     1      48.248  21.649  16.786  1.00  0.00    -0.616 OA
HETATM   29  O7  UNL     1      46.519  21.233  14.921  1.00  0.00    -0.616 OA
HETATM   30  O8  UNL     1      47.860  19.127  16.069  1.00  0.00    -0.616 OA
ENDBRANCH  26  27
ENDBRANCH  23  26
ENDBRANCH  22  23
ENDBRANCH  21  22
ENDBRANCH   3  21
BRANCH   4  31
HETATM   31  O9  UNL     1      42.096  22.873  20.559  1.00  0.00    -0.390 OA
ATOM     32  H9  UNL     1      41.899  23.535  21.210  1.00  0.00     0.210 HD
ENDBRANCH   4  31
TORSDOF 8
ENDMDL
