MODEL 3
REMARK VINA RESULT: -6.346580132      3.349      4.217
REMARK  5 active torsions:
REMARK  status: ('A' for Active; 'I' for Inactive)
REMARK    1  A    between atoms: C2_2  and  N1_3 
REMARK    2  A    between atoms: C6_11  and  C7_12 
REMARK    3  A    between atoms: C7_12  and  O2_13 
REMARK    4  A    between atoms: C8_15  and  O3_16 
REMARK    5  A    between atoms: C9_18  and  O4_19 
ROOT
HETATM    1  N1  UNL     1     -12.202   5.400  37.119  1.00  0.00    -0.371 N 
ATOM      2  H1  UNL     1     -11.649   6.019  37.713  1.00  0.00     0.161 HD
HETATM    3  C3  UNL     1     -13.083   4.640  37.650  1.00  0.00     0.139 C 
HETATM    4  N2  UNL     1     -13.918   3.738  36.975  1.00  0.00    -0.360 N 
ATOM      5  H2  UNL     1     -14.173   3.864  35.995  1.00  0.00     0.162 HD
HETATM    6  C4  UNL     1     -14.387   2.642  37.740  1.00  0.00     0.154 C 
HETATM    7  C5  UNL     1     -14.705   3.062  39.135  1.00  0.00     0.216 C 
HETATM    8  O1  UNL     1     -15.977   3.514  39.335  1.00  0.00    -0.363 OA
HETATM    9  C6  UNL     1     -16.972   2.645  38.983  1.00  0.00     0.178 C 
HETATM   10  C8  UNL     1     -16.497   1.486  38.139  1.00  0.00     0.180 C 
HETATM   11  C9  UNL     1     -15.579   2.014  37.090  1.00  0.00     0.175 C 
HETATM   12  S1  UNL     1     -13.543   4.465  39.378  1.00  0.00    -0.060 SA
ENDROOT
BRANCH   1  13
HETATM   13  C2  UNL     1     -11.972   5.398  35.666  1.00  0.00     0.117 C 
HETATM   14  C1  UNL     1     -12.449   6.697  35.051  1.00  0.00     0.026 C 
ENDBRANCH   1  13
BRANCH  11  15
HETATM   15  O4  UNL     1     -15.169   1.022  36.204  1.00  0.00    -0.391 OA
ATOM     16  H4  UNL     1     -15.146   0.181  36.647  1.00  0.00     0.210 HD
ENDBRANCH  11  15
BRANCH  10  17
HETATM   17  O3  UNL     1     -17.631   0.947  37.499  1.00  0.00    -0.390 OA
ATOM     18  H3  UNL     1     -17.525   0.003  37.490  1.00  0.00     0.210 HD
ENDBRANCH  10  17
BRANCH   9  19
HETATM   19  C7  UNL     1     -17.710   2.077  40.190  1.00  0.00     0.198 C 
BRANCH  19  20
HETATM   20  O2  UNL     1     -19.058   1.870  39.888  1.00  0.00    -0.398 OA
ATOM     21  H2  UNL     1     -19.544   2.683  39.954  1.00  0.00     0.209 HD
ENDBRANCH  19  20
ENDBRANCH   9  19
TORSDOF 5
ENDMDL
