MODEL 1
REMARK VINA RESULT: -6.659948343      0.000      0.000
REMARK  5 active torsions:
REMARK  status: ('A' for Active; 'I' for Inactive)
REMARK    1  A    between atoms: C2_2  and  N1_3 
REMARK    2  A    between atoms: C6_11  and  C7_12 
REMARK    3  A    between atoms: C7_12  and  O2_13 
REMARK    4  A    between atoms: C8_15  and  O3_16 
REMARK    5  A    between atoms: C9_18  and  O4_19 
ROOT
HETATM    1  N1  UNL     1     -16.330   7.727  34.994  1.00  0.00    -0.371 N 
ATOM      2  H1  UNL     1     -15.765   8.346  34.411  1.00  0.00     0.161 HD
HETATM    3  C3  UNL     1     -15.766   6.765  35.620  1.00  0.00     0.139 C 
HETATM    4  N2  UNL     1     -16.399   5.832  36.455  1.00  0.00    -0.360 N 
ATOM      5  H2  UNL     1     -17.272   6.042  36.939  1.00  0.00     0.162 HD
HETATM    6  C4  UNL     1     -15.748   4.581  36.585  1.00  0.00     0.154 C 
HETATM    7  C5  UNL     1     -14.267   4.752  36.635  1.00  0.00     0.216 C 
HETATM    8  O1  UNL     1     -13.742   4.951  37.878  1.00  0.00    -0.363 OA
HETATM    9  C6  UNL     1     -14.026   3.982  38.799  1.00  0.00     0.178 C 
HETATM   10  C8  UNL     1     -15.129   3.042  38.373  1.00  0.00     0.180 C 
HETATM   11  C9  UNL     1     -16.239   3.853  37.796  1.00  0.00     0.175 C 
HETATM   12  S1  UNL     1     -14.034   6.286  35.651  1.00  0.00    -0.060 SA
ENDROOT
BRANCH   1  13
HETATM   13  C2  UNL     1     -17.779   7.957  35.099  1.00  0.00     0.117 C 
HETATM   14  C1  UNL     1     -18.400   8.063  33.721  1.00  0.00     0.026 C 
ENDBRANCH   1  13
BRANCH  11  15
HETATM   15  O4  UNL     1     -17.342   3.071  37.465  1.00  0.00    -0.391 OA
ATOM     16  H4  UNL     1     -18.143   3.560  37.615  1.00  0.00     0.210 HD
ENDBRANCH  11  15
BRANCH  10  17
HETATM   17  O3  UNL     1     -15.608   2.408  39.538  1.00  0.00    -0.390 OA
ATOM     18  H3  UNL     1     -16.202   1.722  39.259  1.00  0.00     0.210 HD
ENDBRANCH  10  17
BRANCH   9  19
HETATM   19  C7  UNL     1     -12.807   3.141  39.162  1.00  0.00     0.198 C 
BRANCH  19  20
HETATM   20  O2  UNL     1     -12.745   1.995  38.366  1.00  0.00    -0.398 OA
ATOM     21  H2  UNL     1     -11.945   1.986  37.855  1.00  0.00     0.209 HD
ENDBRANCH  19  20
ENDBRANCH   9  19
TORSDOF 5
ENDMDL
