MODEL 17
REMARK VINA RESULT: -4.733233697      3.574      4.821
REMARK  5 active torsions:
REMARK  status: ('A' for Active; 'I' for Inactive)
REMARK    1  A    between atoms: C2_2  and  N1_3 
REMARK    2  A    between atoms: C6_11  and  C7_12 
REMARK    3  A    between atoms: C7_12  and  O2_13 
REMARK    4  A    between atoms: C8_15  and  O3_16 
REMARK    5  A    between atoms: C9_18  and  O4_19 
ROOT
HETATM    1  N1  UNL     1     -18.947   2.159  38.824  1.00  0.00    -0.371 N 
ATOM      2  H1  UNL     1     -19.749   2.748  38.603  1.00  0.00     0.161 HD
HETATM    3  C3  UNL     1     -17.766   2.583  38.572  1.00  0.00     0.139 C 
HETATM    4  N2  UNL     1     -16.567   1.897  38.815  1.00  0.00    -0.360 N 
ATOM      5  H2  UNL     1     -16.488   1.183  39.539  1.00  0.00     0.162 HD
HETATM    6  C4  UNL     1     -15.473   2.259  37.991  1.00  0.00     0.154 C 
HETATM    7  C5  UNL     1     -15.461   3.729  37.736  1.00  0.00     0.216 C 
HETATM    8  O1  UNL     1     -14.785   4.478  38.655  1.00  0.00    -0.363 OA
HETATM    9  C6  UNL     1     -13.477   4.133  38.847  1.00  0.00     0.178 C 
HETATM   10  C8  UNL     1     -13.108   2.792  38.258  1.00  0.00     0.180 C 
HETATM   11  C9  UNL     1     -14.182   1.817  38.603  1.00  0.00     0.175 C 
HETATM   12  S1  UNL     1     -17.247   4.143  37.847  1.00  0.00    -0.060 SA
ENDROOT
BRANCH   1  13
HETATM   13  C2  UNL     1     -19.166   0.835  39.428  1.00  0.00     0.117 C 
HETATM   14  C1  UNL     1     -19.970   0.962  40.705  1.00  0.00     0.026 C 
ENDBRANCH   1  13
BRANCH  11  15
HETATM   15  O4  UNL     1     -13.874   0.527  38.180  1.00  0.00    -0.391 OA
ATOM     16  H4  UNL     1     -13.880   0.487  37.230  1.00  0.00     0.210 HD
ENDBRANCH  11  15
BRANCH  10  17
HETATM   17  O3  UNL     1     -11.918   2.375  38.888  1.00  0.00    -0.390 OA
ATOM     18  H3  UNL     1     -12.129   1.607  39.406  1.00  0.00     0.210 HD
ENDBRANCH  10  17
BRANCH   9  19
HETATM   19  C7  UNL     1     -12.508   5.172  38.294  1.00  0.00     0.198 C 
BRANCH  19  20
HETATM   20  O2  UNL     1     -12.194   4.891  36.962  1.00  0.00    -0.398 OA
ATOM     21  H2  UNL     1     -11.810   5.651  36.542  1.00  0.00     0.209 HD
ENDBRANCH  19  20
ENDBRANCH   9  19
TORSDOF 5
ENDMDL
