MODEL 2
REMARK VINA RESULT: -6.429159676      2.374      3.471
REMARK  5 active torsions:
REMARK  status: ('A' for Active; 'I' for Inactive)
REMARK    1  A    between atoms: C2_2  and  N1_3 
REMARK    2  A    between atoms: C6_11  and  C7_12 
REMARK    3  A    between atoms: C7_12  and  O2_13 
REMARK    4  A    between atoms: C8_15  and  O3_16 
REMARK    5  A    between atoms: C9_18  and  O4_19 
ROOT
HETATM    1  N1  UNL     1     -13.425   7.580  34.821  1.00  0.00    -0.371 N 
ATOM      2  H1  UNL     1     -14.077   7.969  34.140  1.00  0.00     0.161 HD
HETATM    3  C3  UNL     1     -13.812   6.637  35.594  1.00  0.00     0.139 C 
HETATM    4  N2  UNL     1     -13.041   6.000  36.578  1.00  0.00    -0.360 N 
ATOM      5  H2  UNL     1     -12.024   5.953  36.524  1.00  0.00     0.162 HD
HETATM    6  C4  UNL     1     -13.765   5.424  37.650  1.00  0.00     0.154 C 
HETATM    7  C5  UNL     1     -15.031   4.801  37.165  1.00  0.00     0.216 C 
HETATM    8  O1  UNL     1     -14.930   3.499  36.771  1.00  0.00    -0.363 OA
HETATM    9  C6  UNL     1     -14.439   2.636  37.710  1.00  0.00     0.178 C 
HETATM   10  C8  UNL     1     -13.795   3.324  38.890  1.00  0.00     0.180 C 
HETATM   11  C9  UNL     1     -12.926   4.421  38.377  1.00  0.00     0.175 C 
HETATM   12  S1  UNL     1     -15.414   5.829  35.691  1.00  0.00    -0.060 SA
ENDROOT
BRANCH   1  13
HETATM   13  C2  UNL     1     -12.056   8.112  34.897  1.00  0.00     0.117 C 
HETATM   14  C1  UNL     1     -11.829   9.148  33.816  1.00  0.00     0.026 C 
ENDBRANCH   1  13
BRANCH  11  15
HETATM   15  O4  UNL     1     -12.216   5.049  39.397  1.00  0.00    -0.391 OA
ATOM     16  H4  UNL     1     -12.803   5.579  39.923  1.00  0.00     0.210 HD
ENDBRANCH  11  15
BRANCH  10  17
HETATM   17  O3  UNL     1     -12.971   2.373  39.527  1.00  0.00    -0.390 OA
ATOM     18  H3  UNL     1     -12.225   2.842  39.881  1.00  0.00     0.210 HD
ENDBRANCH  10  17
BRANCH   9  19
HETATM   19  C7  UNL     1     -15.501   1.682  38.245  1.00  0.00     0.198 C 
BRANCH  19  20
HETATM   20  O2  UNL     1     -15.709   1.893  39.610  1.00  0.00    -0.398 OA
ATOM     21  H2  UNL     1     -16.077   1.117  40.016  1.00  0.00     0.209 HD
ENDBRANCH  19  20
ENDBRANCH   9  19
TORSDOF 5
ENDMDL
