MODEL 12
REMARK VINA RESULT: -8.761691620      2.796      3.238
REMARK  11 active torsions:
REMARK  status: ('A' for Active; 'I' for Inactive)
REMARK       I    between atoms: N1_2  and  C2_4 
REMARK    1  A    between atoms: C2_4  and  C3_6 
REMARK    2  A    between atoms: C3_6  and  C4_7 
REMARK    3  A    between atoms: C5_8  and  O2_9 
REMARK    4  A    between atoms: C6_11  and  O3_12 
REMARK    5  A    between atoms: C7_14  and  C8_15 
REMARK    6  A    between atoms: C8_15  and  O4_16 
REMARK    7  A    between atoms: N2_18  and  C9_19 
REMARK    8  A    between atoms: C9_19  and  C10_20 
REMARK    9  A    between atoms: C10_20  and  C11_21 
REMARK   10  A    between atoms: C11_21  and  C12_22 
REMARK   11  A    between atoms: C16_26  and  C17_27 
ROOT
HETATM    1  C4  UNL     1     -15.959   2.927  37.522  1.00  0.00     0.263 C 
HETATM    2  C5  UNL     1     -15.003   1.891  38.014  1.00  0.00     0.182 C 
HETATM    3  C6  UNL     1     -13.765   2.735  38.184  1.00  0.00     0.184 C 
HETATM    4  C7  UNL     1     -14.450   3.916  38.897  1.00  0.00     0.277 C 
HETATM    5  N2  UNL     1     -15.475   4.212  37.920  1.00  0.00     0.105 N 
ENDROOT
BRANCH   5   6
HETATM    6  C9  UNL     1     -15.026   5.017  36.869  1.00  0.00     0.274 C 
BRANCH   6   7
HETATM    7  C10 UNL     1     -15.751   6.347  36.670  1.00  0.00     0.035 C 
BRANCH   7   8
HETATM    8  C11 UNL     1     -15.181   6.947  35.425  1.00  0.00     0.040 C 
BRANCH   8   9
HETATM    9  C12 UNL     1     -16.141   7.121  34.292  1.00  0.00    -0.057 A 
HETATM   10  C13 UNL     1     -17.334   7.743  34.421  1.00  0.00     0.007 A 
HETATM   11  C14 UNL     1     -18.116   7.956  33.257  1.00  0.00     0.001 A 
HETATM   12  C15 UNL     1     -17.627   7.526  32.060  1.00  0.00     0.016 A 
HETATM   13  C16 UNL     1     -16.432   6.891  31.943  1.00  0.00     0.048 A 
HETATM   14  C18 UNL     1     -15.682   6.696  33.046  1.00  0.00     0.023 A 
BRANCH  13  15
HETATM   15  C17 UNL     1     -15.850   6.451  30.637  1.00  0.00     0.417 C 
HETATM   16  F1  UNL     1     -14.685   7.115  30.416  1.00  0.00    -0.166 F 
HETATM   17  F2  UNL     1     -15.670   5.098  30.665  1.00  0.00    -0.166 F 
HETATM   18  F3  UNL     1     -16.771   6.747  29.638  1.00  0.00    -0.166 F 
ENDBRANCH  13  15
ENDBRANCH   8   9
ENDBRANCH   7   8
ENDBRANCH   6   7
ENDBRANCH   5   6
BRANCH   1  19
HETATM   19  C3  UNL     1     -17.379   2.584  37.761  1.00  0.00     0.141 C 
BRANCH  19  20
HETATM   20  C2  UNL     1     -17.894   2.601  39.116  1.00  0.00     0.219 C 
HETATM   21  N1  UNL     1     -19.087   1.783  39.323  1.00  0.00    -0.365 N 
HETATM   22  C1  UNL     1     -19.765   1.697  40.606  1.00  0.00     0.149 C 
ATOM     23  H1  UNL     1     -19.458   1.251  38.536  1.00  0.00     0.161 HD
HETATM   24  O1  UNL     1     -17.496   3.174  40.067  1.00  0.00    -0.274 OA
ENDBRANCH  19  20
ENDBRANCH   1  19
BRANCH   4  25
HETATM   25  C8  UNL     1     -13.457   4.952  39.215  1.00  0.00     0.202 C 
BRANCH  25  26
HETATM   26  O4  UNL     1     -12.714   4.755  40.386  1.00  0.00    -0.399 OA
ATOM     27  H4  UNL     1     -13.211   4.529  41.164  1.00  0.00     0.209 HD
ENDBRANCH  25  26
ENDBRANCH   4  25
BRANCH   2  28
HETATM   28  O2  UNL     1     -15.339   1.378  39.269  1.00  0.00    -0.391 OA
ATOM     29  H2  UNL     1     -16.276   1.349  39.426  1.00  0.00     0.210 HD
ENDBRANCH   2  28
BRANCH   3  30
HETATM   30  O3  UNL     1     -12.768   2.159  38.922  1.00  0.00    -0.391 OA
ATOM     31  H3  UNL     1     -11.967   1.978  38.443  1.00  0.00     0.210 HD
ENDBRANCH   3  30
TORSDOF 11
ENDMDL
