MODEL 10
REMARK VINA RESULT: -8.961870766      5.650      8.590
REMARK  11 active torsions:
REMARK  status: ('A' for Active; 'I' for Inactive)
REMARK       I    between atoms: N1_2  and  C2_4 
REMARK    1  A    between atoms: C2_4  and  C3_6 
REMARK    2  A    between atoms: C3_6  and  C4_7 
REMARK    3  A    between atoms: C5_8  and  O2_9 
REMARK    4  A    between atoms: C6_11  and  O3_12 
REMARK    5  A    between atoms: C7_14  and  C8_15 
REMARK    6  A    between atoms: C8_15  and  O4_16 
REMARK    7  A    between atoms: N2_18  and  C9_19 
REMARK    8  A    between atoms: C9_19  and  C10_20 
REMARK    9  A    between atoms: C10_20  and  C11_21 
REMARK   10  A    between atoms: C11_21  and  C12_22 
REMARK   11  A    between atoms: C16_26  and  C17_27 
ROOT
HETATM    1  C4  UNL     1     -14.076   8.871  33.025  1.00  0.00     0.263 C 
HETATM    2  C5  UNL     1     -13.651  10.097  32.286  1.00  0.00     0.182 C 
HETATM    3  C6  UNL     1     -12.695  10.690  33.290  1.00  0.00     0.184 C 
HETATM    4  C7  UNL     1     -11.948   9.384  33.621  1.00  0.00     0.277 C 
HETATM    5  N2  UNL     1     -13.077   8.563  34.000  1.00  0.00     0.105 N 
ENDROOT
BRANCH   5   6
HETATM    6  C9  UNL     1     -13.480   8.749  35.326  1.00  0.00     0.274 C 
BRANCH   6   7
HETATM    7  C10 UNL     1     -14.099   7.541  36.027  1.00  0.00     0.035 C 
BRANCH   7   8
HETATM    8  C11 UNL     1     -13.006   6.529  36.152  1.00  0.00     0.040 C 
BRANCH   8   9
HETATM    9  C12 UNL     1     -13.132   5.579  37.299  1.00  0.00    -0.057 A 
HETATM   10  C13 UNL     1     -12.695   5.861  38.546  1.00  0.00     0.007 A 
HETATM   11  C14 UNL     1     -12.970   4.936  39.585  1.00  0.00     0.001 A 
HETATM   12  C15 UNL     1     -13.666   3.804  39.279  1.00  0.00     0.016 A 
HETATM   13  C16 UNL     1     -14.090   3.524  38.020  1.00  0.00     0.048 A 
HETATM   14  C18 UNL     1     -13.839   4.407  37.032  1.00  0.00     0.023 A 
BRANCH  13  15
HETATM   15  C17 UNL     1     -14.896   2.315  37.664  1.00  0.00     0.417 C 
HETATM   16  F1  UNL     1     -15.377   1.744  38.799  1.00  0.00    -0.166 F 
HETATM   17  F2  UNL     1     -15.897   2.685  36.812  1.00  0.00    -0.166 F 
HETATM   18  F3  UNL     1     -14.059   1.428  36.995  1.00  0.00    -0.166 F 
ENDBRANCH  13  15
ENDBRANCH   8   9
ENDBRANCH   7   8
ENDBRANCH   6   7
ENDBRANCH   5   6
BRANCH   1  19
HETATM   19  C3  UNL     1     -14.581   7.794  32.143  1.00  0.00     0.141 C 
BRANCH  19  20
HETATM   20  C2  UNL     1     -15.743   8.045  31.313  1.00  0.00     0.219 C 
HETATM   21  N1  UNL     1     -15.454   8.161  29.885  1.00  0.00    -0.365 N 
HETATM   22  C1  UNL     1     -16.483   8.442  28.897  1.00  0.00     0.149 C 
ATOM     23  H1  UNL     1     -14.492   8.039  29.568  1.00  0.00     0.161 HD
HETATM   24  O1  UNL     1     -16.875   8.171  31.616  1.00  0.00    -0.274 OA
ENDBRANCH  19  20
ENDBRANCH   1  19
BRANCH   4  25
HETATM   25  C8  UNL     1     -10.899   9.646  34.616  1.00  0.00     0.202 C 
BRANCH  25  26
HETATM   26  O4  UNL     1      -9.709  10.201  34.126  1.00  0.00    -0.399 OA
ATOM     27  H4  UNL     1      -9.493  11.072  34.440  1.00  0.00     0.209 HD
ENDBRANCH  25  26
ENDBRANCH   4  25
BRANCH   2  28
HETATM   28  O2  UNL     1     -12.925   9.821  31.125  1.00  0.00    -0.391 OA
ATOM     29  H2  UNL     1     -12.214   9.205  31.262  1.00  0.00     0.210 HD
ENDBRANCH   2  28
BRANCH   3  30
HETATM   30  O3  UNL     1     -11.880  11.674  32.803  1.00  0.00    -0.391 OA
ATOM     31  H3  UNL     1     -11.014  11.386  32.540  1.00  0.00     0.210 HD
ENDBRANCH   3  30
TORSDOF 11
ENDMDL
