MODEL 3
REMARK VINA RESULT: -9.470975644      1.942      2.435
REMARK  11 active torsions:
REMARK  status: ('A' for Active; 'I' for Inactive)
REMARK       I    between atoms: N1_2  and  C2_4 
REMARK    1  A    between atoms: C2_4  and  C3_6 
REMARK    2  A    between atoms: C3_6  and  C4_7 
REMARK    3  A    between atoms: C5_8  and  O2_9 
REMARK    4  A    between atoms: C6_11  and  O3_12 
REMARK    5  A    between atoms: C7_14  and  C8_15 
REMARK    6  A    between atoms: C8_15  and  O4_16 
REMARK    7  A    between atoms: N2_18  and  C9_19 
REMARK    8  A    between atoms: C9_19  and  C10_20 
REMARK    9  A    between atoms: C10_20  and  C11_21 
REMARK   10  A    between atoms: C11_21  and  C12_22 
REMARK   11  A    between atoms: C16_26  and  C17_27 
ROOT
HETATM    1  C4  UNL     1     -16.020   2.937  37.556  1.00  0.00     0.263 C 
HETATM    2  C5  UNL     1     -15.040   1.898  37.993  1.00  0.00     0.182 C 
HETATM    3  C6  UNL     1     -13.814   2.755  38.179  1.00  0.00     0.184 C 
HETATM    4  C7  UNL     1     -14.507   3.896  38.948  1.00  0.00     0.277 C 
HETATM    5  N2  UNL     1     -15.552   4.212  37.998  1.00  0.00     0.105 N 
ENDROOT
BRANCH   5   6
HETATM    6  C9  UNL     1     -15.132   5.066  36.974  1.00  0.00     0.274 C 
BRANCH   6   7
HETATM    7  C10 UNL     1     -15.996   6.299  36.715  1.00  0.00     0.035 C 
BRANCH   7   8
HETATM    8  C11 UNL     1     -15.086   7.477  36.845  1.00  0.00     0.040 C 
BRANCH   8   9
HETATM    9  C12 UNL     1     -14.440   7.939  35.578  1.00  0.00    -0.057 A 
HETATM   10  C13 UNL     1     -13.245   8.570  35.544  1.00  0.00     0.007 A 
HETATM   11  C14 UNL     1     -12.669   8.860  34.281  1.00  0.00     0.001 A 
HETATM   12  C15 UNL     1     -13.345   8.486  33.159  1.00  0.00     0.016 A 
HETATM   13  C16 UNL     1     -14.551   7.864  33.204  1.00  0.00     0.048 A 
HETATM   14  C18 UNL     1     -15.097   7.577  34.403  1.00  0.00     0.023 A 
BRANCH  13  15
HETATM   15  C17 UNL     1     -15.292   7.400  31.990  1.00  0.00     0.417 C 
HETATM   16  F1  UNL     1     -14.635   7.809  30.875  1.00  0.00    -0.166 F 
HETATM   17  F2  UNL     1     -15.418   6.040  32.040  1.00  0.00    -0.166 F 
HETATM   18  F3  UNL     1     -16.567   7.957  32.031  1.00  0.00    -0.166 F 
ENDBRANCH  13  15
ENDBRANCH   8   9
ENDBRANCH   7   8
ENDBRANCH   6   7
ENDBRANCH   5   6
BRANCH   1  19
HETATM   19  C3  UNL     1     -17.431   2.560  37.802  1.00  0.00     0.141 C 
BRANCH  19  20
HETATM   20  C2  UNL     1     -17.940   2.565  39.159  1.00  0.00     0.219 C 
HETATM   21  N1  UNL     1     -19.145   1.764  39.359  1.00  0.00    -0.365 N 
HETATM   22  C1  UNL     1     -19.819   1.670  40.644  1.00  0.00     0.149 C 
ATOM     23  H1  UNL     1     -19.529   1.249  38.567  1.00  0.00     0.161 HD
HETATM   24  O1  UNL     1     -17.529   3.117  40.117  1.00  0.00    -0.274 OA
ENDBRANCH  19  20
ENDBRANCH   1  19
BRANCH   4  25
HETATM   25  C8  UNL     1     -13.527   4.935  39.292  1.00  0.00     0.202 C 
BRANCH  25  26
HETATM   26  O4  UNL     1     -12.733   4.685  40.420  1.00  0.00    -0.399 OA
ATOM     27  H4  UNL     1     -13.094   4.959  41.254  1.00  0.00     0.209 HD
ENDBRANCH  25  26
ENDBRANCH   4  25
BRANCH   2  28
HETATM   28  O2  UNL     1     -15.349   1.330  39.231  1.00  0.00    -0.391 OA
ATOM     29  H2  UNL     1     -15.350   1.958  39.945  1.00  0.00     0.210 HD
ENDBRANCH   2  28
BRANCH   3  30
HETATM   30  O3  UNL     1     -12.797   2.168  38.878  1.00  0.00    -0.391 OA
ATOM     31  H3  UNL     1     -12.102   2.757  39.149  1.00  0.00     0.210 HD
ENDBRANCH   3  30
TORSDOF 11
ENDMDL
