MODEL 8
REMARK VINA RESULT: -9.060876864      5.381      7.941
REMARK  11 active torsions:
REMARK  status: ('A' for Active; 'I' for Inactive)
REMARK       I    between atoms: N1_2  and  C2_4 
REMARK    1  A    between atoms: C2_4  and  C3_6 
REMARK    2  A    between atoms: C3_6  and  C4_7 
REMARK    3  A    between atoms: C5_8  and  O2_9 
REMARK    4  A    between atoms: C6_11  and  O3_12 
REMARK    5  A    between atoms: C7_14  and  C8_15 
REMARK    6  A    between atoms: C8_15  and  O4_16 
REMARK    7  A    between atoms: N2_18  and  C9_19 
REMARK    8  A    between atoms: C9_19  and  C10_20 
REMARK    9  A    between atoms: C10_20  and  C11_21 
REMARK   10  A    between atoms: C11_21  and  C12_22 
REMARK   11  A    between atoms: C16_26  and  C17_27 
ROOT
HETATM    1  C4  UNL     1     -14.669   7.951  33.413  1.00  0.00     0.263 C 
HETATM    2  C5  UNL     1     -14.393   8.915  32.306  1.00  0.00     0.182 C 
HETATM    3  C6  UNL     1     -13.289   9.726  32.935  1.00  0.00     0.184 C 
HETATM    4  C7  UNL     1     -12.478   8.535  33.481  1.00  0.00     0.277 C 
HETATM    5  N2  UNL     1     -13.515   7.886  34.253  1.00  0.00     0.105 N 
ENDROOT
BRANCH   5   6
HETATM    6  C9  UNL     1     -13.689   8.439  35.525  1.00  0.00     0.274 C 
BRANCH   6   7
HETATM    7  C10 UNL     1     -14.013   7.463  36.655  1.00  0.00     0.035 C 
BRANCH   7   8
HETATM    8  C11 UNL     1     -13.049   6.330  36.514  1.00  0.00     0.040 C 
BRANCH   8   9
HETATM    9  C12 UNL     1     -13.183   5.236  37.524  1.00  0.00    -0.057 A 
HETATM   10  C13 UNL     1     -12.766   5.355  38.804  1.00  0.00     0.007 A 
HETATM   11  C14 UNL     1     -13.047   4.299  39.709  1.00  0.00     0.001 A 
HETATM   12  C15 UNL     1     -13.729   3.214  39.246  1.00  0.00     0.016 A 
HETATM   13  C16 UNL     1     -14.134   3.099  37.955  1.00  0.00     0.048 A 
HETATM   14  C18 UNL     1     -13.877   4.105  37.095  1.00  0.00     0.023 A 
BRANCH  13  15
HETATM   15  C17 UNL     1     -14.925   1.942  37.432  1.00  0.00     0.417 C 
HETATM   16  F1  UNL     1     -14.131   1.172  36.643  1.00  0.00    -0.166 F 
HETATM   17  F2  UNL     1     -15.434   1.239  38.486  1.00  0.00    -0.166 F 
HETATM   18  F3  UNL     1     -15.988   2.452  36.694  1.00  0.00    -0.166 F 
ENDBRANCH  13  15
ENDBRANCH   8   9
ENDBRANCH   7   8
ENDBRANCH   6   7
ENDBRANCH   5   6
BRANCH   1  19
HETATM   19  C3  UNL     1     -15.303   6.692  32.957  1.00  0.00     0.141 C 
BRANCH  19  20
HETATM   20  C2  UNL     1     -16.675   6.719  32.490  1.00  0.00     0.219 C 
HETATM   21  N1  UNL     1     -16.933   5.887  31.316  1.00  0.00    -0.365 N 
HETATM   22  C1  UNL     1     -18.240   5.808  30.684  1.00  0.00     0.149 C 
ATOM     23  H1  UNL     1     -16.166   5.341  30.924  1.00  0.00     0.161 HD
HETATM   24  O1  UNL     1     -17.605   7.307  32.912  1.00  0.00    -0.274 OA
ENDBRANCH  19  20
ENDBRANCH   1  19
BRANCH   4  25
HETATM   25  C8  UNL     1     -11.280   9.023  34.176  1.00  0.00     0.202 C 
BRANCH  25  26
HETATM   26  O4  UNL     1     -10.081   8.971  33.451  1.00  0.00    -0.399 OA
ATOM     27  H4  UNL     1      -9.906   9.710  32.880  1.00  0.00     0.209 HD
ENDBRANCH  25  26
ENDBRANCH   4  25
BRANCH   2  28
HETATM   28  O2  UNL     1     -13.871   8.310  31.161  1.00  0.00    -0.391 OA
ATOM     29  H2  UNL     1     -13.679   8.926  30.463  1.00  0.00     0.210 HD
ENDBRANCH   2  28
BRANCH   3  30
HETATM   30  O3  UNL     1     -12.582  10.513  32.068  1.00  0.00    -0.391 OA
ATOM     31  H3  UNL     1     -12.874  11.415  32.014  1.00  0.00     0.210 HD
ENDBRANCH   3  30
TORSDOF 11
ENDMDL
