MODEL 9
REMARK VINA RESULT: -9.028968730      3.223      3.740
REMARK  11 active torsions:
REMARK  status: ('A' for Active; 'I' for Inactive)
REMARK       I    between atoms: N1_2  and  C2_4 
REMARK    1  A    between atoms: C2_4  and  C3_6 
REMARK    2  A    between atoms: C3_6  and  C4_7 
REMARK    3  A    between atoms: C5_8  and  O2_9 
REMARK    4  A    between atoms: C6_11  and  O3_12 
REMARK    5  A    between atoms: C7_14  and  C8_15 
REMARK    6  A    between atoms: C8_15  and  O4_16 
REMARK    7  A    between atoms: N2_18  and  C9_19 
REMARK    8  A    between atoms: C9_19  and  C10_20 
REMARK    9  A    between atoms: C10_20  and  C11_21 
REMARK   10  A    between atoms: C11_21  and  C12_22 
REMARK   11  A    between atoms: C16_26  and  C17_27 
ROOT
HETATM    1  C4  UNL     1     -16.017   3.017  37.569  1.00  0.00     0.263 C 
HETATM    2  C5  UNL     1     -15.032   1.969  37.973  1.00  0.00     0.182 C 
HETATM    3  C6  UNL     1     -13.810   2.825  38.184  1.00  0.00     0.184 C 
HETATM    4  C7  UNL     1     -14.507   3.939  38.988  1.00  0.00     0.277 C 
HETATM    5  N2  UNL     1     -15.553   4.280  38.050  1.00  0.00     0.105 N 
ENDROOT
BRANCH   5   6
HETATM    6  C9  UNL     1     -15.137   5.167  37.052  1.00  0.00     0.274 C 
BRANCH   6   7
HETATM    7  C10 UNL     1     -15.795   6.545  37.045  1.00  0.00     0.035 C 
BRANCH   7   8
HETATM    8  C11 UNL     1     -15.106   7.328  35.974  1.00  0.00     0.040 C 
BRANCH   8   9
HETATM    9  C12 UNL     1     -15.704   7.219  34.607  1.00  0.00    -0.057 A 
HETATM   10  C13 UNL     1     -15.111   6.555  33.591  1.00  0.00     0.007 A 
HETATM   11  C14 UNL     1     -15.819   6.414  32.370  1.00  0.00     0.001 A 
HETATM   12  C15 UNL     1     -17.067   6.954  32.278  1.00  0.00     0.016 A 
HETATM   13  C16 UNL     1     -17.649   7.630  33.302  1.00  0.00     0.048 A 
HETATM   14  C18 UNL     1     -16.983   7.757  34.467  1.00  0.00     0.023 A 
BRANCH  13  15
HETATM   15  C17 UNL     1     -19.035   8.191  33.246  1.00  0.00     0.417 C 
HETATM   16  F1  UNL     1     -19.821   7.378  32.492  1.00  0.00    -0.166 F 
HETATM   17  F2  UNL     1     -19.510   8.326  34.519  1.00  0.00    -0.166 F 
HETATM   18  F3  UNL     1     -18.960   9.456  32.672  1.00  0.00    -0.166 F 
ENDBRANCH  13  15
ENDBRANCH   8   9
ENDBRANCH   7   8
ENDBRANCH   6   7
ENDBRANCH   5   6
BRANCH   1  19
HETATM   19  C3  UNL     1     -17.426   2.627  37.803  1.00  0.00     0.141 C 
BRANCH  19  20
HETATM   20  C2  UNL     1     -17.937   2.600  39.159  1.00  0.00     0.219 C 
HETATM   21  N1  UNL     1     -19.147   1.800  39.336  1.00  0.00    -0.365 N 
HETATM   22  C1  UNL     1     -19.824   1.677  40.616  1.00  0.00     0.149 C 
ATOM     23  H1  UNL     1     -19.532   1.309  38.529  1.00  0.00     0.161 HD
HETATM   24  O1  UNL     1     -17.525   3.125  40.132  1.00  0.00    -0.274 OA
ENDBRANCH  19  20
ENDBRANCH   1  19
BRANCH   4  25
HETATM   25  C8  UNL     1     -13.530   4.971  39.364  1.00  0.00     0.202 C 
BRANCH  25  26
HETATM   26  O4  UNL     1     -12.709   4.673  40.461  1.00  0.00    -0.399 OA
ATOM     27  H4  UNL     1     -12.624   3.753  40.681  1.00  0.00     0.209 HD
ENDBRANCH  25  26
ENDBRANCH   4  25
BRANCH   2  28
HETATM   28  O2  UNL     1     -15.338   1.362  39.193  1.00  0.00    -0.391 OA
ATOM     29  H2  UNL     1     -14.676   0.746  39.485  1.00  0.00     0.210 HD
ENDBRANCH   2  28
BRANCH   3  30
HETATM   30  O3  UNL     1     -12.789   2.220  38.865  1.00  0.00    -0.391 OA
ATOM     31  H3  UNL     1     -12.522   1.376  38.522  1.00  0.00     0.210 HD
ENDBRANCH   3  30
TORSDOF 11
ENDMDL
