MODEL 6
REMARK VINA RESULT: -9.213820473      5.315      8.130
REMARK  11 active torsions:
REMARK  status: ('A' for Active; 'I' for Inactive)
REMARK       I    between atoms: N1_2  and  C2_4 
REMARK    1  A    between atoms: C2_4  and  C3_6 
REMARK    2  A    between atoms: C3_6  and  C4_7 
REMARK    3  A    between atoms: C5_8  and  O2_9 
REMARK    4  A    between atoms: C6_11  and  O3_12 
REMARK    5  A    between atoms: C7_14  and  C8_15 
REMARK    6  A    between atoms: C8_15  and  O4_16 
REMARK    7  A    between atoms: N2_18  and  C9_19 
REMARK    8  A    between atoms: C9_19  and  C10_20 
REMARK    9  A    between atoms: C10_20  and  C11_21 
REMARK   10  A    between atoms: C11_21  and  C12_22 
REMARK   11  A    between atoms: C16_26  and  C17_27 
ROOT
HETATM    1  C4  UNL     1     -14.088   8.816  33.037  1.00  0.00     0.263 C 
HETATM    2  C5  UNL     1     -13.674  10.035  32.280  1.00  0.00     0.182 C 
HETATM    3  C6  UNL     1     -12.713  10.644  33.269  1.00  0.00     0.184 C 
HETATM    4  C7  UNL     1     -11.958   9.345  33.610  1.00  0.00     0.277 C 
HETATM    5  N2  UNL     1     -13.081   8.524  34.007  1.00  0.00     0.105 N 
ENDROOT
BRANCH   5   6
HETATM    6  C9  UNL     1     -13.474   8.724  35.334  1.00  0.00     0.274 C 
BRANCH   6   7
HETATM    7  C10 UNL     1     -14.092   7.526  36.051  1.00  0.00     0.035 C 
BRANCH   7   8
HETATM    8  C11 UNL     1     -13.008   6.503  36.159  1.00  0.00     0.040 C 
BRANCH   8   9
HETATM    9  C12 UNL     1     -13.135   5.543  37.299  1.00  0.00    -0.057 A 
HETATM   10  C13 UNL     1     -12.691   5.811  38.546  1.00  0.00     0.007 A 
HETATM   11  C14 UNL     1     -12.967   4.878  39.579  1.00  0.00     0.001 A 
HETATM   12  C15 UNL     1     -13.671   3.755  39.266  1.00  0.00     0.016 A 
HETATM   13  C16 UNL     1     -14.103   3.488  38.006  1.00  0.00     0.048 A 
HETATM   14  C18 UNL     1     -13.851   4.378  37.025  1.00  0.00     0.023 A 
BRANCH  13  15
HETATM   15  C17 UNL     1     -14.918   2.288  37.644  1.00  0.00     0.417 C 
HETATM   16  F1  UNL     1     -15.421   1.725  38.773  1.00  0.00    -0.166 F 
HETATM   17  F2  UNL     1     -15.905   2.666  36.778  1.00  0.00    -0.166 F 
HETATM   18  F3  UNL     1     -14.084   1.389  36.987  1.00  0.00    -0.166 F 
ENDBRANCH  13  15
ENDBRANCH   8   9
ENDBRANCH   7   8
ENDBRANCH   6   7
ENDBRANCH   5   6
BRANCH   1  19
HETATM   19  C3  UNL     1     -14.597   7.727  32.172  1.00  0.00     0.141 C 
BRANCH  19  20
HETATM   20  C2  UNL     1     -15.921   7.188  32.416  1.00  0.00     0.219 C 
HETATM   21  N1  UNL     1     -16.912   8.179  32.829  1.00  0.00    -0.365 N 
HETATM   22  C1  UNL     1     -18.286   7.826  33.147  1.00  0.00     0.149 C 
ATOM     23  H1  UNL     1     -16.630   9.157  32.896  1.00  0.00     0.161 HD
HETATM   24  O1  UNL     1     -16.311   6.079  32.332  1.00  0.00    -0.274 OA
ENDBRANCH  19  20
ENDBRANCH   1  19
BRANCH   4  25
HETATM   25  C8  UNL     1     -10.903   9.622  34.593  1.00  0.00     0.202 C 
BRANCH  25  26
HETATM   26  O4  UNL     1      -9.747  10.243  34.099  1.00  0.00    -0.399 OA
ATOM     27  H4  UNL     1      -9.884  10.964  33.497  1.00  0.00     0.209 HD
ENDBRANCH  25  26
ENDBRANCH   4  25
BRANCH   2  28
HETATM   28  O2  UNL     1     -12.956   9.748  31.117  1.00  0.00    -0.391 OA
ATOM     29  H2  UNL     1     -12.073  10.101  31.121  1.00  0.00     0.210 HD
ENDBRANCH   2  28
BRANCH   3  30
HETATM   30  O3  UNL     1     -11.905  11.625  32.764  1.00  0.00    -0.391 OA
ATOM     31  H3  UNL     1     -10.974  11.483  32.889  1.00  0.00     0.210 HD
ENDBRANCH   3  30
TORSDOF 11
ENDMDL
