MODEL 6
REMARK VINA RESULT: -8.048991822      1.493      9.459
REMARK  12 active torsions:
REMARK  status: ('A' for Active; 'I' for Inactive)
REMARK    1  A    between atoms: C2_2  and  C4_4 
REMARK    2  A    between atoms: C4_4  and  C5_5 
REMARK    3  A    between atoms: C5_5  and  N1_6 
REMARK    4  A    between atoms: C5_5  and  C17_29 
REMARK       I    between atoms: N1_6  and  C6_8 
REMARK    5  A    between atoms: C6_8  and  C7_10 
REMARK    6  A    between atoms: C7_10  and  N2_11 
REMARK    7  A    between atoms: N2_11  and  P1_13 
REMARK    8  A    between atoms: P1_13  and  C8_16 
REMARK    9  A    between atoms: C8_16  and  N3_17 
REMARK       I    between atoms: N3_17  and  C9_19 
REMARK   10  A    between atoms: C9_19  and  O5_21 
REMARK   11  A    between atoms: O5_21  and  C10_22 
REMARK   12  A    between atoms: C10_22  and  C11_23 
ROOT
HETATM    1  P1  UNL     1      58.593  38.850   7.863  1.00  0.00     0.227 P 
HETATM    2  O2  UNL     1      59.849  37.968   7.922  1.00  0.00    -0.650 OA
HETATM    3  O3  UNL     1      57.182  39.358   8.433  1.00  0.00    -0.650 OA
ENDROOT
BRANCH   1   4
HETATM    4  N2  UNL     1      59.182  39.562   9.298  1.00  0.00    -0.318 N 
ATOM      5  H2  UNL     1      59.062  39.176  10.234  1.00  0.00     0.169 HD
BRANCH   4   6
HETATM    6  C7  UNL     1      59.839  40.725   9.009  1.00  0.00     0.166 C 
BRANCH   6   7
HETATM    7  C6  UNL     1      59.495  41.823   9.916  1.00  0.00     0.257 C 
HETATM    8  N1  UNL     1      60.089  42.011  11.163  1.00  0.00    -0.342 N 
ATOM      9  H1  UNL     1      60.805  41.351  11.467  1.00  0.00     0.163 HD
HETATM   10  O1  UNL     1      58.609  42.668   9.572  1.00  0.00    -0.267 OA
BRANCH   8  11
HETATM   11  C5  UNL     1      59.728  43.116  12.056  1.00  0.00     0.186 C 
BRANCH  11  12
HETATM   12  C4  UNL     1      60.069  42.761  13.486  1.00  0.00     0.040 C 
BRANCH  12  13
HETATM   13  C2  UNL     1      60.903  41.499  13.482  1.00  0.00    -0.020 C 
HETATM   14  C1  UNL     1      62.332  41.784  13.901  1.00  0.00     0.009 C 
HETATM   15  C3  UNL     1      60.309  40.538  14.476  1.00  0.00     0.009 C 
ENDBRANCH  12  13
ENDBRANCH  11  12
BRANCH  11  16
HETATM   16  C17 UNL     1      60.438  44.339  11.643  1.00  0.00     0.196 C 
HETATM   17  O6  UNL     1      61.510  44.243  10.997  1.00  0.00    -0.646 OA
HETATM   18  O7  UNL     1      59.971  45.606  11.937  1.00  0.00    -0.646 OA
ENDBRANCH  11  16
ENDBRANCH   8  11
ENDBRANCH   6   7
ENDBRANCH   4   6
ENDBRANCH   1   4
BRANCH   1  19
HETATM   19  C8  UNL     1      58.853  39.838   6.440  1.00  0.00     0.252 C 
BRANCH  19  20
HETATM   20  N3  UNL     1      57.669  40.241   5.776  1.00  0.00    -0.325 N 
HETATM   21  C9  UNL     1      57.291  41.634   5.736  1.00  0.00     0.361 C 
HETATM   22  O4  UNL     1      58.046  42.451   6.306  1.00  0.00    -0.238 OA
ATOM     23  H3  UNL     1      57.080  39.543   5.322  1.00  0.00     0.165 HD
BRANCH  21  24
HETATM   24  O5  UNL     1      56.133  41.977   5.080  1.00  0.00    -0.299 OA
BRANCH  24  25
HETATM   25  C10 UNL     1      55.495  41.057   4.244  1.00  0.00     0.219 C 
BRANCH  25  26
HETATM   26  C11 UNL     1      55.710  41.416   2.831  1.00  0.00    -0.034 A 
HETATM   27  C12 UNL     1      55.672  42.781   2.522  1.00  0.00     0.009 A 
HETATM   28  C13 UNL     1      55.876  43.136   1.207  1.00  0.00     0.001 A 
HETATM   29  C14 UNL     1      56.108  42.183   0.241  1.00  0.00     0.000 A 
HETATM   30  C15 UNL     1      56.145  40.837   0.548  1.00  0.00     0.001 A 
HETATM   31  C16 UNL     1      55.941  40.460   1.867  1.00  0.00     0.009 A 
ENDBRANCH  25  26
ENDBRANCH  24  25
ENDBRANCH  21  24
ENDBRANCH  19  20
ENDBRANCH   1  19
TORSDOF 12
ENDMDL
