MODEL 15
REMARK VINA RESULT: -7.807761863      2.415     10.311
REMARK  12 active torsions:
REMARK  status: ('A' for Active; 'I' for Inactive)
REMARK    1  A    between atoms: C2_2  and  C4_4 
REMARK    2  A    between atoms: C4_4  and  C5_5 
REMARK    3  A    between atoms: C5_5  and  N1_6 
REMARK    4  A    between atoms: C5_5  and  C17_29 
REMARK       I    between atoms: N1_6  and  C6_8 
REMARK    5  A    between atoms: C6_8  and  C7_10 
REMARK    6  A    between atoms: C7_10  and  N2_11 
REMARK    7  A    between atoms: N2_11  and  P1_13 
REMARK    8  A    between atoms: P1_13  and  C8_16 
REMARK    9  A    between atoms: C8_16  and  N3_17 
REMARK       I    between atoms: N3_17  and  C9_19 
REMARK   10  A    between atoms: C9_19  and  O5_21 
REMARK   11  A    between atoms: O5_21  and  C10_22 
REMARK   12  A    between atoms: C10_22  and  C11_23 
ROOT
HETATM    1  P1  UNL     1      59.201  41.493   7.604  1.00  0.00     0.227 P 
HETATM    2  O2  UNL     1      60.257  42.590   7.807  1.00  0.00    -0.650 OA
HETATM    3  O3  UNL     1      58.601  40.028   7.865  1.00  0.00    -0.650 OA
ENDROOT
BRANCH   1   4
HETATM    4  N2  UNL     1      58.864  41.690   9.265  1.00  0.00    -0.318 N 
ATOM      5  H2  UNL     1      58.176  42.337   9.649  1.00  0.00     0.169 HD
BRANCH   4   6
HETATM    6  C7  UNL     1      59.650  40.852  10.006  1.00  0.00     0.166 C 
BRANCH   6   7
HETATM    7  C6  UNL     1      60.034  41.417  11.302  1.00  0.00     0.257 C 
HETATM    8  N1  UNL     1      60.050  42.784  11.575  1.00  0.00    -0.342 N 
ATOM      9  H1  UNL     1      59.780  43.433  10.836  1.00  0.00     0.163 HD
HETATM   10  O1  UNL     1      60.375  40.641  12.250  1.00  0.00    -0.267 OA
BRANCH   8  11
HETATM   11  C5  UNL     1      60.439  43.328  12.879  1.00  0.00     0.186 C 
BRANCH  11  12
HETATM   12  C4  UNL     1      61.900  43.717  12.865  1.00  0.00     0.040 C 
BRANCH  12  13
HETATM   13  C2  UNL     1      62.640  42.842  13.851  1.00  0.00    -0.020 C 
HETATM   14  C1  UNL     1      63.630  41.935  13.146  1.00  0.00     0.009 C 
HETATM   15  C3  UNL     1      63.411  43.732  14.788  1.00  0.00     0.009 C 
ENDBRANCH  12  13
ENDBRANCH  11  12
BRANCH  11  16
HETATM   16  C17 UNL     1      59.596  44.494  13.201  1.00  0.00     0.196 C 
HETATM   17  O6  UNL     1      59.214  44.671  14.384  1.00  0.00    -0.646 OA
HETATM   18  O7  UNL     1      59.203  45.415  12.249  1.00  0.00    -0.646 OA
ENDBRANCH  11  16
ENDBRANCH   8  11
ENDBRANCH   6   7
ENDBRANCH   4   6
ENDBRANCH   1   4
BRANCH   1  19
HETATM   19  C8  UNL     1      58.018  42.253   6.559  1.00  0.00     0.252 C 
BRANCH  19  20
HETATM   20  N3  UNL     1      58.029  41.793   5.220  1.00  0.00    -0.325 N 
HETATM   21  C9  UNL     1      56.813  41.773   4.442  1.00  0.00     0.361 C 
HETATM   22  O4  UNL     1      55.768  42.175   4.999  1.00  0.00    -0.238 OA
ATOM     23  H3  UNL     1      58.903  41.474   4.802  1.00  0.00     0.165 HD
BRANCH  21  24
HETATM   24  O5  UNL     1      56.874  41.318   3.148  1.00  0.00    -0.299 OA
BRANCH  24  25
HETATM   25  C10 UNL     1      55.733  41.320   2.342  1.00  0.00     0.219 C 
BRANCH  25  26
HETATM   26  C11 UNL     1      55.168  39.963   2.250  1.00  0.00    -0.034 A 
HETATM   27  C12 UNL     1      55.643  39.160   1.206  1.00  0.00     0.009 A 
HETATM   28  C13 UNL     1      55.131  37.885   1.107  1.00  0.00     0.001 A 
HETATM   29  C14 UNL     1      54.190  37.425   2.001  1.00  0.00     0.000 A 
HETATM   30  C15 UNL     1      53.723  38.219   3.030  1.00  0.00     0.001 A 
HETATM   31  C16 UNL     1      54.227  39.506   3.146  1.00  0.00     0.009 A 
ENDBRANCH  25  26
ENDBRANCH  24  25
ENDBRANCH  21  24
ENDBRANCH  19  20
ENDBRANCH   1  19
TORSDOF 12
ENDMDL
