MODEL 14
REMARK VINA RESULT: -7.810232046      1.842      9.707
REMARK  12 active torsions:
REMARK  status: ('A' for Active; 'I' for Inactive)
REMARK    1  A    between atoms: C2_2  and  C4_4 
REMARK    2  A    between atoms: C4_4  and  C5_5 
REMARK    3  A    between atoms: C5_5  and  N1_6 
REMARK    4  A    between atoms: C5_5  and  C17_29 
REMARK       I    between atoms: N1_6  and  C6_8 
REMARK    5  A    between atoms: C6_8  and  C7_10 
REMARK    6  A    between atoms: C7_10  and  N2_11 
REMARK    7  A    between atoms: N2_11  and  P1_13 
REMARK    8  A    between atoms: P1_13  and  C8_16 
REMARK    9  A    between atoms: C8_16  and  N3_17 
REMARK       I    between atoms: N3_17  and  C9_19 
REMARK   10  A    between atoms: C9_19  and  O5_21 
REMARK   11  A    between atoms: O5_21  and  C10_22 
REMARK   12  A    between atoms: C10_22  and  C11_23 
ROOT
HETATM    1  P1  UNL     1      58.292  39.326   7.536  1.00  0.00     0.227 P 
HETATM    2  O2  UNL     1      59.500  38.929   6.674  1.00  0.00    -0.650 OA
HETATM    3  O3  UNL     1      57.319  39.135   8.796  1.00  0.00    -0.650 OA
ENDROOT
BRANCH   1   4
HETATM    4  N2  UNL     1      59.438  39.679   8.750  1.00  0.00    -0.318 N 
ATOM      5  H2  UNL     1      59.716  39.042   9.496  1.00  0.00     0.169 HD
BRANCH   4   6
HETATM    6  C7  UNL     1      59.931  40.943   8.576  1.00  0.00     0.166 C 
BRANCH   6   7
HETATM    7  C6  UNL     1      59.526  41.870   9.636  1.00  0.00     0.257 C 
HETATM    8  N1  UNL     1      60.155  41.946  10.879  1.00  0.00    -0.342 N 
ATOM      9  H1  UNL     1      60.941  41.324  11.067  1.00  0.00     0.163 HD
HETATM   10  O1  UNL     1      58.552  42.663   9.439  1.00  0.00    -0.267 OA
BRANCH   8  11
HETATM   11  C5  UNL     1      59.733  42.880  11.926  1.00  0.00     0.186 C 
BRANCH  11  12
HETATM   12  C4  UNL     1      60.177  42.377  13.281  1.00  0.00     0.040 C 
BRANCH  12  13
HETATM   13  C2  UNL     1      60.971  41.106  13.084  1.00  0.00    -0.020 C 
HETATM   14  C1  UNL     1      62.397  41.267  13.573  1.00  0.00     0.009 C 
HETATM   15  C3  UNL     1      60.324  40.015  13.894  1.00  0.00     0.009 C 
ENDBRANCH  12  13
ENDBRANCH  11  12
BRANCH  11  16
HETATM   16  C17 UNL     1      60.300  44.214  11.658  1.00  0.00     0.196 C 
HETATM   17  O6  UNL     1      61.438  44.308  11.139  1.00  0.00    -0.646 OA
HETATM   18  O7  UNL     1      59.625  45.383  11.955  1.00  0.00    -0.646 OA
ENDBRANCH  11  16
ENDBRANCH   8  11
ENDBRANCH   6   7
ENDBRANCH   4   6
ENDBRANCH   1   4
BRANCH   1  19
HETATM   19  C8  UNL     1      57.668  40.752   6.733  1.00  0.00     0.252 C 
BRANCH  19  20
HETATM   20  N3  UNL     1      57.634  40.668   5.320  1.00  0.00    -0.325 N 
HETATM   21  C9  UNL     1      56.733  41.501   4.558  1.00  0.00     0.361 C 
HETATM   22  O4  UNL     1      55.999  42.286   5.196  1.00  0.00    -0.238 OA
ATOM     23  H3  UNL     1      58.250  40.014   4.837  1.00  0.00     0.165 HD
BRANCH  21  24
HETATM   24  O5  UNL     1      56.736  41.383   3.190  1.00  0.00    -0.299 OA
BRANCH  24  25
HETATM   25  C10 UNL     1      55.533  41.362   2.479  1.00  0.00     0.219 C 
BRANCH  25  26
HETATM   26  C11 UNL     1      55.056  39.978   2.320  1.00  0.00    -0.034 A 
HETATM   27  C12 UNL     1      55.600  39.249   1.256  1.00  0.00     0.009 A 
HETATM   28  C13 UNL     1      55.169  37.951   1.095  1.00  0.00     0.001 A 
HETATM   29  C14 UNL     1      54.241  37.398   1.949  1.00  0.00     0.000 A 
HETATM   30  C15 UNL     1      53.705  38.119   2.997  1.00  0.00     0.001 A 
HETATM   31  C16 UNL     1      54.127  39.429   3.175  1.00  0.00     0.009 A 
ENDBRANCH  25  26
ENDBRANCH  24  25
ENDBRANCH  21  24
ENDBRANCH  19  20
ENDBRANCH   1  19
TORSDOF 12
ENDMDL
