MODEL 6
REMARK VINA RESULT: -8.110668242      3.075      5.221
REMARK  14 active torsions:
REMARK  status: ('A' for Active; 'I' for Inactive)
REMARK    1  A    between atoms: C2_2  and  C4_4 
REMARK    2  A    between atoms: C4_4  and  C5_5 
REMARK    3  A    between atoms: C5_5  and  N1_6 
REMARK    4  A    between atoms: C5_5  and  C18_34 
REMARK       I    between atoms: N1_6  and  C6_8 
REMARK    5  A    between atoms: C6_8  and  C7_10 
REMARK    6  A    between atoms: C7_10  and  C8_11 
REMARK    7  A    between atoms: C7_10  and  N3_16 
REMARK    8  A    between atoms: C8_11  and  N2_12 
REMARK    9  A    between atoms: N3_16  and  P1_18 
REMARK   10  A    between atoms: P1_18  and  C9_21 
REMARK   11  A    between atoms: C9_21  and  N4_22 
REMARK       I    between atoms: N4_22  and  C10_24 
REMARK   12  A    between atoms: C10_24  and  O5_26 
REMARK   13  A    between atoms: O5_26  and  C11_27 
REMARK   14  A    between atoms: C11_27  and  C12_28 
ROOT
HETATM    1  C7  UNL     1      12.173  39.566  -6.881  1.00  0.00     0.203 C 
ENDROOT
BRANCH   1   2
HETATM    2  C6  UNL     1      11.443  38.852  -5.787  1.00  0.00     0.242 C 
HETATM    3  N1  UNL     1      10.932  39.522  -4.665  1.00  0.00    -0.345 N 
ATOM      4  H1  UNL     1      11.036  40.530  -4.546  1.00  0.00     0.163 HD
HETATM    5  O1  UNL     1      11.285  37.585  -5.880  1.00  0.00    -0.271 OA
BRANCH   3   6
HETATM    6  C5  UNL     1      10.226  38.675  -3.652  1.00  0.00     0.185 C 
BRANCH   6   7
HETATM    7  C4  UNL     1      10.802  38.929  -2.321  1.00  0.00     0.040 C 
BRANCH   7   8
HETATM    8  C2  UNL     1      10.765  37.899  -1.264  1.00  0.00    -0.020 C 
HETATM    9  C1  UNL     1      10.083  38.626  -0.049  1.00  0.00     0.009 C 
HETATM   10  C3  UNL     1       9.809  36.744  -1.515  1.00  0.00     0.009 C 
ENDBRANCH   7   8
ENDBRANCH   6   7
BRANCH   6  11
HETATM   11  C18 UNL     1       8.803  38.738  -3.885  1.00  0.00     0.196 C 
HETATM   12  O6  UNL     1       8.222  37.913  -4.683  1.00  0.00    -0.646 OA
HETATM   13  O7  UNL     1       7.948  39.648  -3.298  1.00  0.00    -0.646 OA
ENDBRANCH   6  11
ENDBRANCH   3   6
ENDBRANCH   1   2
BRANCH   1  14
HETATM   14  C8  UNL     1      11.319  40.781  -7.236  1.00  0.00     0.264 C 
BRANCH  14  15
HETATM   15  N2  UNL     1      11.318  41.107  -8.620  1.00  0.00    -0.077 N 
ATOM     16  H23 UNL     1      11.007  42.069  -8.760  1.00  0.00     0.274 HD
ATOM     17  H22 UNL     1      12.274  41.181  -8.970  1.00  0.00     0.274 HD
ATOM     18  H21 UNL     1      10.774  40.468  -9.199  1.00  0.00     0.274 HD
ENDBRANCH  14  15
ENDBRANCH   1  14
BRANCH   1  19
HETATM   19  N3  UNL     1      12.119  38.721  -8.040  1.00  0.00    -0.333 N 
ATOM     20  H3  UNL     1      11.251  38.251  -8.301  1.00  0.00     0.164 HD
BRANCH  19  21
HETATM   21  P1  UNL     1      13.504  38.519  -8.955  1.00  0.00     0.224 P 
HETATM   22  O2  UNL     1      14.630  37.325  -8.554  1.00  0.00    -0.651 OA
HETATM   23  O3  UNL     1      13.926  39.638 -10.077  1.00  0.00    -0.651 OA
BRANCH  21  24
HETATM   24  C9  UNL     1      12.788  37.498 -10.044  1.00  0.00     0.252 C 
BRANCH  24  25
HETATM   25  N4  UNL     1      13.245  37.730 -11.421  1.00  0.00    -0.325 N 
HETATM   26  C10 UNL     1      13.209  36.691 -12.387  1.00  0.00     0.361 C 
HETATM   27  O4  UNL     1      12.762  35.585 -11.956  1.00  0.00    -0.238 OA
ATOM     28  H4  UNL     1      13.593  38.651 -11.687  1.00  0.00     0.165 HD
BRANCH  26  29
HETATM   29  O5  UNL     1      13.609  36.795 -13.701  1.00  0.00    -0.299 OA
BRANCH  29  30
HETATM   30  C11 UNL     1      14.845  36.326 -14.198  1.00  0.00     0.219 C 
BRANCH  30  31
HETATM   31  C12 UNL     1      14.805  35.945 -15.619  1.00  0.00    -0.034 A 
HETATM   32  C13 UNL     1      13.631  36.013 -16.317  1.00  0.00     0.009 A 
HETATM   33  C14 UNL     1      13.620  35.650 -17.644  1.00  0.00     0.001 A 
HETATM   34  C15 UNL     1      14.778  35.217 -18.275  1.00  0.00     0.000 A 
HETATM   35  C16 UNL     1      15.962  35.145 -17.586  1.00  0.00     0.001 A 
HETATM   36  C17 UNL     1      15.945  35.521 -16.241  1.00  0.00     0.009 A 
ENDBRANCH  30  31
ENDBRANCH  29  30
ENDBRANCH  26  29
ENDBRANCH  24  25
ENDBRANCH  21  24
ENDBRANCH  19  21
ENDBRANCH   1  19
TORSDOF 14
ENDMDL
