MODEL 9
REMARK VINA RESULT: -8.059852511      4.355      6.490
REMARK  14 active torsions:
REMARK  status: ('A' for Active; 'I' for Inactive)
REMARK    1  A    between atoms: C2_2  and  C4_4 
REMARK    2  A    between atoms: C4_4  and  C5_5 
REMARK    3  A    between atoms: C5_5  and  N1_6 
REMARK    4  A    between atoms: C5_5  and  C18_34 
REMARK       I    between atoms: N1_6  and  C6_8 
REMARK    5  A    between atoms: C6_8  and  C7_10 
REMARK    6  A    between atoms: C7_10  and  C8_11 
REMARK    7  A    between atoms: C7_10  and  N3_16 
REMARK    8  A    between atoms: C8_11  and  N2_12 
REMARK    9  A    between atoms: N3_16  and  P1_18 
REMARK   10  A    between atoms: P1_18  and  C9_21 
REMARK   11  A    between atoms: C9_21  and  N4_22 
REMARK       I    between atoms: N4_22  and  C10_24 
REMARK   12  A    between atoms: C10_24  and  O5_26 
REMARK   13  A    between atoms: O5_26  and  C11_27 
REMARK   14  A    between atoms: C11_27  and  C12_28 
ROOT
HETATM    1  C7  UNL     1      12.425  39.630  -6.976  1.00  0.00     0.203 C 
ENDROOT
BRANCH   1   2
HETATM    2  C6  UNL     1      11.188  39.203  -6.250  1.00  0.00     0.242 C 
HETATM    3  N1  UNL     1      10.961  39.524  -4.903  1.00  0.00    -0.345 N 
ATOM      4  H1  UNL     1      11.632  40.066  -4.358  1.00  0.00     0.163 HD
HETATM    5  O1  UNL     1      10.311  38.518  -6.882  1.00  0.00    -0.271 OA
BRANCH   3   6
HETATM    6  C5  UNL     1       9.679  39.028  -4.309  1.00  0.00     0.185 C 
BRANCH   6   7
HETATM    7  C4  UNL     1       9.982  38.087  -3.218  1.00  0.00     0.040 C 
BRANCH   7   8
HETATM    8  C2  UNL     1       9.959  38.522  -1.807  1.00  0.00    -0.020 C 
HETATM    9  C1  UNL     1       9.680  37.198  -1.008  1.00  0.00     0.009 C 
HETATM   10  C3  UNL     1      11.300  38.954  -1.239  1.00  0.00     0.009 C 
ENDBRANCH   7   8
ENDBRANCH   6   7
BRANCH   6  11
HETATM   11  C18 UNL     1       8.778  40.139  -4.122  1.00  0.00     0.196 C 
HETATM   12  O6  UNL     1       9.030  41.294  -4.630  1.00  0.00    -0.646 OA
HETATM   13  O7  UNL     1       7.596  40.084  -3.414  1.00  0.00    -0.646 OA
ENDBRANCH   6  11
ENDBRANCH   3   6
ENDBRANCH   1   2
BRANCH   1  14
HETATM   14  C8  UNL     1      12.451  41.155  -6.906  1.00  0.00     0.264 C 
BRANCH  14  15
HETATM   15  N2  UNL     1      11.649  41.796  -7.889  1.00  0.00    -0.077 N 
ATOM     16  H23 UNL     1      10.906  42.338  -7.447  1.00  0.00     0.274 HD
ATOM     17  H22 UNL     1      12.169  42.550  -8.339  1.00  0.00     0.274 HD
ATOM     18  H21 UNL     1      11.260  41.164  -8.589  1.00  0.00     0.274 HD
ENDBRANCH  14  15
ENDBRANCH   1  14
BRANCH   1  19
HETATM   19  N3  UNL     1      12.221  39.324  -8.364  1.00  0.00    -0.333 N 
ATOM     20  H3  UNL     1      11.534  39.840  -8.914  1.00  0.00     0.164 HD
BRANCH  19  21
HETATM   21  P1  UNL     1      13.130  38.106  -9.062  1.00  0.00     0.224 P 
HETATM   22  O2  UNL     1      12.445  37.078 -10.214  1.00  0.00    -0.651 OA
HETATM   23  O3  UNL     1      14.601  37.717  -8.451  1.00  0.00    -0.651 OA
BRANCH  21  24
HETATM   24  C9  UNL     1      13.733  39.072 -10.263  1.00  0.00     0.252 C 
BRANCH  24  25
HETATM   25  N4  UNL     1      14.936  39.807  -9.848  1.00  0.00    -0.325 N 
HETATM   26  C10 UNL     1      14.921  41.219  -9.716  1.00  0.00     0.361 C 
HETATM   27  O4  UNL     1      13.806  41.762  -9.986  1.00  0.00    -0.238 OA
ATOM     28  H4  UNL     1      15.795  39.294  -9.651  1.00  0.00     0.165 HD
BRANCH  26  29
HETATM   29  O5  UNL     1      15.984  42.007  -9.335  1.00  0.00    -0.299 OA
BRANCH  29  30
HETATM   30  C11 UNL     1      15.864  43.329  -8.850  1.00  0.00     0.219 C 
BRANCH  30  31
HETATM   31  C12 UNL     1      17.144  44.049  -8.773  1.00  0.00    -0.034 A 
HETATM   32  C13 UNL     1      18.162  43.737  -9.631  1.00  0.00     0.009 A 
HETATM   33  C14 UNL     1      19.351  44.424  -9.536  1.00  0.00     0.001 A 
HETATM   34  C15 UNL     1      19.525  45.421  -8.586  1.00  0.00     0.000 A 
HETATM   35  C16 UNL     1      18.512  45.744  -7.720  1.00  0.00     0.001 A 
HETATM   36  C17 UNL     1      17.316  45.032  -7.839  1.00  0.00     0.009 A 
ENDBRANCH  30  31
ENDBRANCH  29  30
ENDBRANCH  26  29
ENDBRANCH  24  25
ENDBRANCH  21  24
ENDBRANCH  19  21
ENDBRANCH   1  19
TORSDOF 14
ENDMDL
