MODEL 10
REMARK VINA RESULT: -7.975208665      2.718      4.993
REMARK  14 active torsions:
REMARK  status: ('A' for Active; 'I' for Inactive)
REMARK    1  A    between atoms: C2_2  and  C4_4 
REMARK    2  A    between atoms: C4_4  and  C5_5 
REMARK    3  A    between atoms: C5_5  and  N1_6 
REMARK    4  A    between atoms: C5_5  and  C18_34 
REMARK       I    between atoms: N1_6  and  C6_8 
REMARK    5  A    between atoms: C6_8  and  C7_10 
REMARK    6  A    between atoms: C7_10  and  C8_11 
REMARK    7  A    between atoms: C7_10  and  N3_16 
REMARK    8  A    between atoms: C8_11  and  N2_12 
REMARK    9  A    between atoms: N3_16  and  P1_18 
REMARK   10  A    between atoms: P1_18  and  C9_21 
REMARK   11  A    between atoms: C9_21  and  N4_22 
REMARK       I    between atoms: N4_22  and  C10_24 
REMARK   12  A    between atoms: C10_24  and  O5_26 
REMARK   13  A    between atoms: O5_26  and  C11_27 
REMARK   14  A    between atoms: C11_27  and  C12_28 
ROOT
HETATM    1  C7  UNL     1      12.158  39.806  -6.952  1.00  0.00     0.203 C 
ENDROOT
BRANCH   1   2
HETATM    2  C6  UNL     1      11.143  39.256  -6.000  1.00  0.00     0.242 C 
HETATM    3  N1  UNL     1      11.010  39.733  -4.688  1.00  0.00    -0.345 N 
ATOM      4  H1  UNL     1      11.603  40.480  -4.323  1.00  0.00     0.163 HD
HETATM    5  O1  UNL     1      10.372  38.316  -6.401  1.00  0.00    -0.271 OA
BRANCH   3   6
HETATM    6  C5  UNL     1       9.950  39.087  -3.851  1.00  0.00     0.185 C 
BRANCH   6   7
HETATM    7  C4  UNL     1      10.547  38.617  -2.589  1.00  0.00     0.040 C 
BRANCH   7   8
HETATM    8  C2  UNL     1       9.701  38.161  -1.468  1.00  0.00    -0.020 C 
HETATM    9  C1  UNL     1       9.881  36.600  -1.469  1.00  0.00     0.009 C 
HETATM   10  C3  UNL     1      10.203  38.533  -0.083  1.00  0.00     0.009 C 
ENDBRANCH   7   8
ENDBRANCH   6   7
BRANCH   6  11
HETATM   11  C18 UNL     1       8.762  39.906  -3.867  1.00  0.00     0.196 C 
HETATM   12  O6  UNL     1       8.756  41.059  -4.437  1.00  0.00    -0.646 OA
HETATM   13  O7  UNL     1       7.554  39.553  -3.302  1.00  0.00    -0.646 OA
ENDBRANCH   6  11
ENDBRANCH   3   6
ENDBRANCH   1   2
BRANCH   1  14
HETATM   14  C8  UNL     1      11.625  41.165  -7.400  1.00  0.00     0.264 C 
BRANCH  14  15
HETATM   15  N2  UNL     1      11.157  41.193  -8.742  1.00  0.00    -0.077 N 
ATOM     16  H23 UNL     1      11.580  40.439  -9.284  1.00  0.00     0.274 HD
ATOM     17  H22 UNL     1      10.178  40.909  -8.785  1.00  0.00     0.274 HD
ATOM     18  H21 UNL     1      11.291  42.088  -9.213  1.00  0.00     0.274 HD
ENDBRANCH  14  15
ENDBRANCH   1  14
BRANCH   1  19
HETATM   19  N3  UNL     1      12.118  38.984  -8.128  1.00  0.00    -0.333 N 
ATOM     20  H3  UNL     1      11.226  38.661  -8.505  1.00  0.00     0.164 HD
BRANCH  19  21
HETATM   21  P1  UNL     1      13.557  38.564  -8.867  1.00  0.00     0.224 P 
HETATM   22  O2  UNL     1      14.448  37.239  -8.318  1.00  0.00    -0.651 OA
HETATM   23  O3  UNL     1      14.261  39.579  -9.946  1.00  0.00    -0.651 OA
BRANCH  21  24
HETATM   24  C9  UNL     1      12.837  37.620 -10.020  1.00  0.00     0.252 C 
BRANCH  24  25
HETATM   25  N4  UNL     1      13.485  37.736 -11.334  1.00  0.00    -0.325 N 
HETATM   26  C10 UNL     1      13.426  36.676 -12.274  1.00  0.00     0.361 C 
HETATM   27  O4  UNL     1      12.784  35.655 -11.879  1.00  0.00    -0.238 OA
ATOM     28  H4  UNL     1      13.984  38.593 -11.573  1.00  0.00     0.165 HD
BRANCH  26  29
HETATM   29  O5  UNL     1      13.993  36.676 -13.529  1.00  0.00    -0.299 OA
BRANCH  29  30
HETATM   30  C11 UNL     1      14.971  37.598 -13.962  1.00  0.00     0.219 C 
BRANCH  30  31
HETATM   31  C12 UNL     1      14.433  38.684 -14.795  1.00  0.00    -0.034 A 
HETATM   32  C13 UNL     1      14.048  39.865 -14.223  1.00  0.00     0.009 A 
HETATM   33  C14 UNL     1      13.545  40.865 -15.024  1.00  0.00     0.001 A 
HETATM   34  C15 UNL     1      13.425  40.687 -16.395  1.00  0.00     0.000 A 
HETATM   35  C16 UNL     1      13.808  39.508 -16.982  1.00  0.00     0.001 A 
HETATM   36  C17 UNL     1      14.316  38.511 -16.146  1.00  0.00     0.009 A 
ENDBRANCH  30  31
ENDBRANCH  29  30
ENDBRANCH  26  29
ENDBRANCH  24  25
ENDBRANCH  21  24
ENDBRANCH  19  21
ENDBRANCH   1  19
TORSDOF 14
ENDMDL
