MODEL 2
REMARK VINA RESULT: -5.546411921      1.863      2.462
REMARK  5 active torsions:
REMARK  status: ('A' for Active; 'I' for Inactive)
REMARK    1  A    between atoms: O1_1  and  C1_3 
REMARK    2  A    between atoms: C1_3  and  C2_4 
REMARK    3  A    between atoms: C4_8  and  O2_9 
REMARK    4  A    between atoms: C5_11  and  O3_12 
REMARK    5  A    between atoms: C6_14  and  O4_15 
ROOT
HETATM    1  C2  UNL     1      25.290  19.872  47.420  1.00  0.00     0.131 C 
HETATM    2  N1  UNL     1      26.679  19.861  47.173  1.00  0.00    -0.410 N 
ATOM      3  H1  UNL     1      27.176  20.688  46.842  1.00  0.00     0.153 HD
HETATM    4  C3  UNL     1      27.349  18.616  47.416  1.00  0.00     0.148 C 
HETATM    5  C4  UNL     1      26.602  17.415  46.931  1.00  0.00     0.166 C 
HETATM    6  C5  UNL     1      25.179  17.361  47.367  1.00  0.00     0.179 C 
HETATM    7  C6  UNL     1      24.689  18.644  47.979  1.00  0.00     0.173 C 
ENDROOT
BRANCH   1   8
HETATM    8  C1  UNL     1      24.949  21.028  48.365  1.00  0.00     0.191 C 
BRANCH   8   9
HETATM    9  O1  UNL     1      24.787  20.571  49.666  1.00  0.00    -0.399 OA
ATOM     10  H1  UNL     1      24.466  21.265  50.230  1.00  0.00     0.209 HD
ENDBRANCH   8   9
ENDBRANCH   1   8
BRANCH   7  11
HETATM   11  O4  UNL     1      23.298  18.694  47.722  1.00  0.00    -0.391 OA
ATOM     12  H4  UNL     1      22.934  17.846  47.948  1.00  0.00     0.210 HD
ENDBRANCH   7  11
BRANCH   6  13
HETATM   13  O3  UNL     1      24.935  16.343  48.294  1.00  0.00    -0.390 OA
ATOM     14  H3  UNL     1      24.022  16.082  48.323  1.00  0.00     0.210 HD
ENDBRANCH   6  13
BRANCH   5  15
HETATM   15  O2  UNL     1      27.251  16.283  47.459  1.00  0.00    -0.391 OA
ATOM     16  H2  UNL     1      28.178  16.382  47.275  1.00  0.00     0.210 HD
ENDBRANCH   5  15
TORSDOF 5
ENDMDL
