MODEL 5
REMARK VINA RESULT: -11.089751985      1.272      5.066
REMARK  7 active torsions:
REMARK  status: ('A' for Active; 'I' for Inactive)
REMARK    1  A    between atoms: N5_13  and  C6_14 
REMARK    2  A    between atoms: C7_16  and  C8_17 
REMARK    3  A    between atoms: C8_17  and  O2_18 
REMARK    4  A    between atoms: O2_18  and  P1_19 
REMARK    5  A    between atoms: C9_23  and  O6_24 
REMARK    6  A    between atoms: O6_24  and  P2_25 
REMARK    7  A    between atoms: C10_29  and  O10_30 
ROOT
HETATM    1  C6  UNL     1      34.005  33.404  26.065  1.00  0.00     0.262 C 
HETATM    2  O1  UNL     1      35.055  32.880  25.321  1.00  0.00    -0.353 OA
HETATM    3  C7  UNL     1      34.701  31.535  25.234  1.00  0.00     0.181 C 
HETATM    4  C9  UNL     1      33.191  31.456  25.139  1.00  0.00     0.199 C 
HETATM    5  C10 UNL     1      32.840  32.899  25.197  1.00  0.00     0.199 C 
ENDROOT
BRANCH   1   6
HETATM    6  N5  UNL     1      34.015  34.832  26.145  1.00  0.00    -0.297 N 
HETATM    7  C3  UNL     1      33.941  35.518  27.300  1.00  0.00     0.142 A 
HETATM    8  N3  UNL     1      33.845  35.152  28.609  1.00  0.00    -0.336 N 
HETATM    9  C4  UNL     1      33.972  36.871  27.067  1.00  0.00     0.119 A 
HETATM   10  C2  UNL     1      33.786  36.069  29.584  1.00  0.00     0.183 A 
ATOM     11  H3  UNL     1      33.818  34.162  28.852  1.00  0.00     0.168 HD
HETATM   12  N2  UNL     1      33.817  37.378  29.344  1.00  0.00    -0.339 N 
HETATM   13  C1  UNL     1      33.911  37.814  28.079  1.00  0.00     0.148 A 
ATOM     14  H2  UNL     1      33.769  38.043  30.115  1.00  0.00     0.167 HD
HETATM   15  N1  UNL     1      33.945  39.202  27.810  1.00  0.00    -0.080 NA
HETATM   16  N4  UNL     1      34.067  36.999  25.731  1.00  0.00    -0.346 N 
HETATM   17  C5  UNL     1      34.093  35.754  25.186  1.00  0.00     0.188 A 
ATOM     18  H4  UNL     1      34.113  37.878  25.217  1.00  0.00     0.167 HD
ENDBRANCH   1   6
BRANCH   5  19
HETATM   19  O10 UNL     1      31.622  33.237  25.655  1.00  0.00    -0.388 OA
ATOM     20  H10 UNL     1      31.562  34.125  25.985  1.00  0.00     0.210 HD
ENDBRANCH   5  19
BRANCH   3  21
HETATM   21  C8  UNL     1      35.365  30.876  24.037  1.00  0.00     0.217 C 
BRANCH  21  22
HETATM   22  O2  UNL     1      35.953  31.866  23.299  1.00  0.00    -0.280 OA
BRANCH  22  23
HETATM   23  P1  UNL     1      35.738  31.842  21.683  1.00  0.00     0.422 P 
HETATM   24  O3  UNL     1      35.382  30.335  20.955  1.00  0.00    -0.617 OA
HETATM   25  O4  UNL     1      35.660  33.174  20.765  1.00  0.00    -0.617 OA
HETATM   26  O5  UNL     1      37.217  31.519  21.431  1.00  0.00    -0.617 OA
ENDBRANCH  22  23
ENDBRANCH  21  22
ENDBRANCH   3  21
BRANCH   4  27
HETATM   27  O6  UNL     1      32.762  30.663  26.132  1.00  0.00    -0.272 OA
BRANCH  27  28
HETATM   28  P2  UNL     1      31.346  30.782  26.740  1.00  0.00     0.422 P 
HETATM   29  O7  UNL     1      31.851  29.615  27.855  1.00  0.00    -0.617 OA
HETATM   30  O8  UNL     1      30.105  31.059  27.595  1.00  0.00    -0.617 OA
HETATM   31  O9  UNL     1      30.593  30.294  25.412  1.00  0.00    -0.617 OA
ENDBRANCH  27  28
ENDBRANCH   4  27
TORSDOF 7
ENDMDL
