MODEL 2
REMARK VINA RESULT: -11.854399632      0.871      1.775
REMARK  7 active torsions:
REMARK  status: ('A' for Active; 'I' for Inactive)
REMARK    1  A    between atoms: N5_13  and  C6_14 
REMARK    2  A    between atoms: C7_16  and  C8_17 
REMARK    3  A    between atoms: C8_17  and  O2_18 
REMARK    4  A    between atoms: O2_18  and  P1_19 
REMARK    5  A    between atoms: C9_23  and  O6_24 
REMARK    6  A    between atoms: O6_24  and  P2_25 
REMARK    7  A    between atoms: C10_29  and  O10_30 
ROOT
HETATM    1  C6  UNL     1      33.461  33.754  24.667  1.00  0.00     0.262 C 
HETATM    2  O1  UNL     1      32.331  33.020  25.005  1.00  0.00    -0.353 OA
HETATM    3  C7  UNL     1      32.435  31.925  24.150  1.00  0.00     0.181 C 
HETATM    4  C9  UNL     1      33.905  31.595  23.991  1.00  0.00     0.199 C 
HETATM    5  C10 UNL     1      34.513  32.645  24.849  1.00  0.00     0.199 C 
ENDROOT
BRANCH   1   6
HETATM    6  N5  UNL     1      33.711  34.859  25.541  1.00  0.00    -0.297 N 
HETATM    7  C3  UNL     1      33.610  34.792  26.880  1.00  0.00     0.142 A 
HETATM    8  N3  UNL     1      33.283  33.798  27.753  1.00  0.00    -0.336 N 
HETATM    9  C4  UNL     1      33.907  36.005  27.453  1.00  0.00     0.119 A 
HETATM   10  C2  UNL     1      33.260  34.014  29.075  1.00  0.00     0.183 A 
ATOM     11  H3  UNL     1      33.051  32.872  27.393  1.00  0.00     0.168 HD
HETATM   12  N2  UNL     1      33.551  35.194  29.617  1.00  0.00    -0.339 N 
HETATM   13  C1  UNL     1      33.883  36.221  28.820  1.00  0.00     0.148 A 
ATOM     14  H2  UNL     1      33.521  35.316  30.628  1.00  0.00     0.167 HD
HETATM   15  N1  UNL     1      34.195  37.480  29.383  1.00  0.00    -0.080 NA
HETATM   16  N4  UNL     1      34.196  36.822  26.424  1.00  0.00    -0.346 N 
HETATM   17  C5  UNL     1      34.073  36.113  25.271  1.00  0.00     0.188 A 
ATOM     18  H4  UNL     1      34.461  37.803  26.497  1.00  0.00     0.167 HD
ENDBRANCH   1   6
BRANCH   5  19
HETATM   19  O10 UNL     1      35.773  33.030  24.583  1.00  0.00    -0.388 OA
ATOM     20  H10 UNL     1      36.407  32.771  25.241  1.00  0.00     0.210 HD
ENDBRANCH   5  19
BRANCH   3  21
HETATM   21  C8  UNL     1      31.658  30.737  24.694  1.00  0.00     0.217 C 
BRANCH  21  22
HETATM   22  O2  UNL     1      31.663  30.835  26.057  1.00  0.00    -0.280 OA
BRANCH  22  23
HETATM   23  P1  UNL     1      30.366  30.268  26.867  1.00  0.00     0.422 P 
HETATM   24  O3  UNL     1      28.823  30.540  26.180  1.00  0.00    -0.617 OA
HETATM   25  O4  UNL     1      30.466  29.314  28.172  1.00  0.00    -0.617 OA
HETATM   26  O5  UNL     1      30.175  31.596  27.612  1.00  0.00    -0.617 OA
ENDBRANCH  22  23
ENDBRANCH  21  22
ENDBRANCH   3  21
BRANCH   4  27
HETATM   27  O6  UNL     1      34.186  31.612  22.680  1.00  0.00    -0.272 OA
BRANCH  27  28
HETATM   28  P2  UNL     1      35.609  31.364  22.130  1.00  0.00     0.422 P 
HETATM   29  O7  UNL     1      34.946  31.659  20.602  1.00  0.00    -0.617 OA
HETATM   30  O8  UNL     1      37.017  31.455  21.534  1.00  0.00    -0.617 OA
HETATM   31  O9  UNL     1      35.686  29.850  22.649  1.00  0.00    -0.617 OA
ENDBRANCH  27  28
ENDBRANCH   4  27
TORSDOF 7
ENDMDL
