MODEL 9
REMARK VINA RESULT: -10.285545761      1.133      2.058
REMARK  7 active torsions:
REMARK  status: ('A' for Active; 'I' for Inactive)
REMARK    1  A    between atoms: N5_13  and  C6_14 
REMARK    2  A    between atoms: C7_16  and  C8_17 
REMARK    3  A    between atoms: C8_17  and  O2_18 
REMARK    4  A    between atoms: O2_18  and  P1_19 
REMARK    5  A    between atoms: C9_23  and  O6_24 
REMARK    6  A    between atoms: O6_24  and  P2_25 
REMARK    7  A    between atoms: C10_29  and  O10_30 
ROOT
HETATM    1  C6  UNL     1      33.509  33.422  25.303  1.00  0.00     0.262 C 
HETATM    2  O1  UNL     1      32.614  32.720  26.099  1.00  0.00    -0.353 OA
HETATM    3  C7  UNL     1      32.769  31.419  25.624  1.00  0.00     0.181 C 
HETATM    4  C9  UNL     1      34.224  31.232  25.245  1.00  0.00     0.199 C 
HETATM    5  C10 UNL     1      34.765  32.576  25.574  1.00  0.00     0.199 C 
ENDROOT
BRANCH   1   6
HETATM    6  N5  UNL     1      33.698  34.780  25.712  1.00  0.00    -0.297 N 
HETATM    7  C3  UNL     1      33.647  35.191  26.992  1.00  0.00     0.142 A 
HETATM    8  N3  UNL     1      33.431  34.556  28.178  1.00  0.00    -0.336 N 
HETATM    9  C4  UNL     1      33.864  36.545  27.079  1.00  0.00     0.119 A 
HETATM   10  C2  UNL     1      33.434  35.229  29.336  1.00  0.00     0.183 A 
ATOM     11  H3  UNL     1      33.263  33.551  28.184  1.00  0.00     0.168 HD
HETATM   12  N2  UNL     1      33.646  36.541  29.406  1.00  0.00    -0.339 N 
HETATM   13  C1  UNL     1      33.867  37.235  28.279  1.00  0.00     0.148 A 
ATOM     14  H2  UNL     1      33.640  37.015  30.309  1.00  0.00     0.167 HD
HETATM   15  N1  UNL     1      34.094  38.628  28.340  1.00  0.00    -0.080 NA
HETATM   16  N4  UNL     1      34.050  36.956  25.812  1.00  0.00    -0.346 N 
HETATM   17  C5  UNL     1      33.947  35.875  24.994  1.00  0.00     0.188 A 
ATOM     18  H4  UNL     1      34.237  37.914  25.516  1.00  0.00     0.167 HD
ENDBRANCH   1   6
BRANCH   5  19
HETATM   19  O10 UNL     1      35.865  32.993  24.923  1.00  0.00    -0.388 OA
ATOM     20  H10 UNL     1      36.501  32.308  24.752  1.00  0.00     0.210 HD
ENDBRANCH   5  19
BRANCH   3  21
HETATM   21  C8  UNL     1      32.336  30.405  26.670  1.00  0.00     0.217 C 
BRANCH  21  22
HETATM   22  O2  UNL     1      31.236  29.757  26.180  1.00  0.00    -0.280 OA
BRANCH  22  23
HETATM   23  P1  UNL     1      29.866  29.805  27.064  1.00  0.00     0.422 P 
HETATM   24  O3  UNL     1      28.450  30.379  26.295  1.00  0.00    -0.617 OA
HETATM   25  O4  UNL     1      29.730  29.173  28.549  1.00  0.00    -0.617 OA
HETATM   26  O5  UNL     1      30.121  31.256  27.492  1.00  0.00    -0.617 OA
ENDBRANCH  22  23
ENDBRANCH  21  22
ENDBRANCH   3  21
BRANCH   4  27
HETATM   27  O6  UNL     1      34.262  30.833  23.964  1.00  0.00    -0.272 OA
BRANCH  27  28
HETATM   28  P2  UNL     1      35.054  29.590  23.503  1.00  0.00     0.422 P 
HETATM   29  O7  UNL     1      35.858  29.692  24.988  1.00  0.00    -0.617 OA
HETATM   30  O8  UNL     1      35.651  28.196  23.279  1.00  0.00    -0.617 OA
HETATM   31  O9  UNL     1      35.706  30.315  22.231  1.00  0.00    -0.617 OA
ENDBRANCH  27  28
ENDBRANCH   4  27
TORSDOF 7
ENDMDL
