MODEL 4
REMARK VINA RESULT: -11.282406503      1.206      4.643
REMARK  7 active torsions:
REMARK  status: ('A' for Active; 'I' for Inactive)
REMARK    1  A    between atoms: N5_13  and  C6_14 
REMARK    2  A    between atoms: C7_16  and  C8_17 
REMARK    3  A    between atoms: C8_17  and  O2_18 
REMARK    4  A    between atoms: O2_18  and  P1_19 
REMARK    5  A    between atoms: C9_23  and  O6_24 
REMARK    6  A    between atoms: O6_24  and  P2_25 
REMARK    7  A    between atoms: C10_29  and  O10_30 
ROOT
HETATM    1  C6  UNL     1      33.504  33.756  27.258  1.00  0.00     0.262 C 
HETATM    2  O1  UNL     1      34.161  33.533  26.054  1.00  0.00    -0.353 OA
HETATM    3  C7  UNL     1      33.705  32.262  25.711  1.00  0.00     0.181 C 
HETATM    4  C9  UNL     1      32.267  32.141  26.173  1.00  0.00     0.199 C 
HETATM    5  C10 UNL     1      32.066  33.480  26.785  1.00  0.00     0.199 C 
ENDROOT
BRANCH   1   6
HETATM    6  N5  UNL     1      33.644  35.092  27.750  1.00  0.00    -0.297 N 
HETATM    7  C3  UNL     1      33.677  36.181  26.961  1.00  0.00     0.142 A 
HETATM    8  N3  UNL     1      33.599  36.372  25.615  1.00  0.00    -0.336 N 
HETATM    9  C4  UNL     1      33.820  37.323  27.711  1.00  0.00     0.119 A 
HETATM   10  C2  UNL     1      33.661  37.600  25.083  1.00  0.00     0.183 A 
ATOM     11  H3  UNL     1      33.492  35.566  25.000  1.00  0.00     0.168 HD
HETATM   12  N2  UNL     1      33.800  38.698  25.822  1.00  0.00    -0.339 N 
HETATM   13  C1  UNL     1      33.883  38.589  27.156  1.00  0.00     0.148 A 
ATOM     14  H2  UNL     1      33.843  39.615  25.377  1.00  0.00     0.167 HD
HETATM   15  N1  UNL     1      34.029  39.748  27.953  1.00  0.00    -0.080 NA
HETATM   16  N4  UNL     1      33.874  36.904  28.988  1.00  0.00    -0.346 N 
HETATM   17  C5  UNL     1      33.766  35.548  28.997  1.00  0.00     0.188 A 
ATOM     18  H4  UNL     1      33.979  37.499  29.809  1.00  0.00     0.167 HD
ENDBRANCH   1   6
BRANCH   5  19
HETATM   19  O10 UNL     1      31.134  33.604  27.746  1.00  0.00    -0.388 OA
ATOM     20  H10 UNL     1      30.405  34.167  27.513  1.00  0.00     0.210 HD
ENDBRANCH   5  19
BRANCH   3  21
HETATM   21  C8  UNL     1      33.826  32.028  24.215  1.00  0.00     0.217 C 
BRANCH  21  22
HETATM   22  O2  UNL     1      35.152  32.116  23.893  1.00  0.00    -0.280 OA
BRANCH  22  23
HETATM   23  P1  UNL     1      35.730  31.100  22.756  1.00  0.00     0.422 P 
HETATM   24  O3  UNL     1      36.822  31.742  21.605  1.00  0.00    -0.617 OA
HETATM   25  O4  UNL     1      35.479  29.501  22.766  1.00  0.00    -0.617 OA
HETATM   26  O5  UNL     1      34.610  31.467  21.773  1.00  0.00    -0.617 OA
ENDBRANCH  22  23
ENDBRANCH  21  22
ENDBRANCH   3  21
BRANCH   4  27
HETATM   27  O6  UNL     1      32.185  31.065  26.970  1.00  0.00    -0.272 OA
BRANCH  27  28
HETATM   28  P2  UNL     1      30.988  30.089  26.928  1.00  0.00     0.422 P 
HETATM   29  O7  UNL     1      31.239  30.033  25.257  1.00  0.00    -0.617 OA
HETATM   30  O8  UNL     1      30.042  28.888  26.825  1.00  0.00    -0.617 OA
HETATM   31  O9  UNL     1      29.935  31.149  27.507  1.00  0.00    -0.617 OA
ENDBRANCH  27  28
ENDBRANCH   4  27
TORSDOF 7
ENDMDL
