MODEL 6
REMARK VINA RESULT: -10.961908743      0.765      1.036
REMARK  7 active torsions:
REMARK  status: ('A' for Active; 'I' for Inactive)
REMARK    1  A    between atoms: N5_13  and  C6_14 
REMARK    2  A    between atoms: C7_16  and  C8_17 
REMARK    3  A    between atoms: C8_17  and  O2_18 
REMARK    4  A    between atoms: O2_18  and  P1_19 
REMARK    5  A    between atoms: C9_23  and  O6_24 
REMARK    6  A    between atoms: O6_24  and  P2_25 
REMARK    7  A    between atoms: C10_29  and  O10_30 
ROOT
HETATM    1  C6  UNL     1      32.893  33.143  25.809  1.00  0.00     0.262 C 
HETATM    2  O1  UNL     1      31.784  32.335  26.027  1.00  0.00    -0.353 OA
HETATM    3  C7  UNL     1      31.823  31.491  24.918  1.00  0.00     0.181 C 
HETATM    4  C9  UNL     1      33.276  31.229  24.583  1.00  0.00     0.199 C 
HETATM    5  C10 UNL     1      33.947  32.036  25.635  1.00  0.00     0.199 C 
ENDROOT
BRANCH   1   6
HETATM    6  N5  UNL     1      33.208  33.995  26.914  1.00  0.00    -0.297 N 
HETATM    7  C3  UNL     1      33.410  35.320  26.804  1.00  0.00     0.142 A 
HETATM    8  N3  UNL     1      33.389  36.193  25.758  1.00  0.00    -0.336 N 
HETATM    9  C4  UNL     1      33.696  35.874  28.028  1.00  0.00     0.119 A 
HETATM   10  C2  UNL     1      33.634  37.498  25.938  1.00  0.00     0.183 A 
ATOM     11  H3  UNL     1      33.183  35.848  24.821  1.00  0.00     0.168 HD
HETATM   12  N2  UNL     1      33.909  38.022  27.130  1.00  0.00    -0.339 N 
HETATM   13  C1  UNL     1      33.947  37.223  28.208  1.00  0.00     0.148 A 
ATOM     14  H2  UNL     1      34.090  39.021  27.223  1.00  0.00     0.167 HD
HETATM   15  N1  UNL     1      34.238  37.767  29.480  1.00  0.00    -0.080 NA
HETATM   16  N4  UNL     1      33.663  34.848  28.897  1.00  0.00    -0.346 N 
HETATM   17  C5  UNL     1      33.366  33.715  28.207  1.00  0.00     0.188 A 
ATOM     18  H4  UNL     1      33.833  34.909  29.901  1.00  0.00     0.167 HD
ENDBRANCH   1   6
BRANCH   5  19
HETATM   19  O10 UNL     1      35.189  32.489  25.390  1.00  0.00    -0.388 OA
ATOM     20  H10 UNL     1      35.871  31.835  25.495  1.00  0.00     0.210 HD
ENDBRANCH   5  19
BRANCH   3  21
HETATM   21  C8  UNL     1      31.077  30.197  25.197  1.00  0.00     0.217 C 
BRANCH  21  22
HETATM   22  O2  UNL     1      31.203  29.931  26.531  1.00  0.00    -0.280 OA
BRANCH  22  23
HETATM   23  P1  UNL     1      29.895  29.368  27.325  1.00  0.00     0.422 P 
HETATM   24  O3  UNL     1      29.117  27.985  26.685  1.00  0.00    -0.617 OA
HETATM   25  O4  UNL     1      29.407  29.923  28.766  1.00  0.00    -0.617 OA
HETATM   26  O5  UNL     1      28.938  30.201  26.461  1.00  0.00    -0.617 OA
ENDBRANCH  22  23
ENDBRANCH  21  22
ENDBRANCH   3  21
BRANCH   4  27
HETATM   27  O6  UNL     1      33.468  31.578  23.302  1.00  0.00    -0.272 OA
BRANCH  27  28
HETATM   28  P2  UNL     1      34.874  31.794  22.700  1.00  0.00     0.422 P 
HETATM   29  O7  UNL     1      34.484  33.439  22.673  1.00  0.00    -0.617 OA
HETATM   30  O8  UNL     1      36.339  32.139  22.409  1.00  0.00    -0.617 OA
HETATM   31  O9  UNL     1      34.589  30.920  21.387  1.00  0.00    -0.617 OA
ENDBRANCH  27  28
ENDBRANCH   4  27
TORSDOF 7
ENDMDL
