MODEL 3
REMARK VINA RESULT: -11.479030562      1.000      4.832
REMARK  7 active torsions:
REMARK  status: ('A' for Active; 'I' for Inactive)
REMARK    1  A    between atoms: N5_13  and  C6_14 
REMARK    2  A    between atoms: C7_16  and  C8_17 
REMARK    3  A    between atoms: C8_17  and  O2_18 
REMARK    4  A    between atoms: O2_18  and  P1_19 
REMARK    5  A    between atoms: C9_23  and  O6_24 
REMARK    6  A    between atoms: O6_24  and  P2_25 
REMARK    7  A    between atoms: C10_29  and  O10_30 
ROOT
HETATM    1  C6  UNL     1      33.409  33.171  26.272  1.00  0.00     0.262 C 
HETATM    2  O1  UNL     1      34.484  32.479  25.728  1.00  0.00    -0.353 OA
HETATM    3  C7  UNL     1      33.994  31.175  25.687  1.00  0.00     0.181 C 
HETATM    4  C9  UNL     1      32.512  31.243  25.381  1.00  0.00     0.199 C 
HETATM    5  C10 UNL     1      32.323  32.714  25.283  1.00  0.00     0.199 C 
ENDROOT
BRANCH   1   6
HETATM    6  N5  UNL     1      33.570  34.592  26.250  1.00  0.00    -0.297 N 
HETATM    7  C3  UNL     1      33.653  35.354  27.355  1.00  0.00     0.142 A 
HETATM    8  N3  UNL     1      33.619  35.084  28.691  1.00  0.00    -0.336 N 
HETATM    9  C4  UNL     1      33.804  36.679  27.025  1.00  0.00     0.119 A 
HETATM   10  C2  UNL     1      33.727  36.062  29.599  1.00  0.00     0.183 A 
ATOM     11  H3  UNL     1      33.509  34.120  29.004  1.00  0.00     0.168 HD
HETATM   12  N2  UNL     1      33.873  37.342  29.266  1.00  0.00    -0.339 N 
HETATM   13  C1  UNL     1      33.916  37.685  27.969  1.00  0.00     0.148 A 
ATOM     14  H2  UNL     1      33.951  38.056  29.990  1.00  0.00     0.167 HD
HETATM   15  N1  UNL     1      34.071  39.041  27.601  1.00  0.00    -0.080 NA
HETATM   16  N4  UNL     1      33.812  36.710  25.681  1.00  0.00    -0.346 N 
HETATM   17  C5  UNL     1      33.669  35.437  25.224  1.00  0.00     0.188 A 
ATOM     18  H4  UNL     1      33.908  37.545  25.103  1.00  0.00     0.167 HD
ENDBRANCH   1   6
BRANCH   5  19
HETATM   19  O10 UNL     1      31.100  33.213  25.534  1.00  0.00    -0.388 OA
ATOM     20  H10 UNL     1      30.391  32.594  25.405  1.00  0.00     0.210 HD
ENDBRANCH   5  19
BRANCH   3  21
HETATM   21  C8  UNL     1      34.736  30.350  24.650  1.00  0.00     0.217 C 
BRANCH  21  22
HETATM   22  O2  UNL     1      34.298  30.751  23.419  1.00  0.00    -0.280 OA
BRANCH  22  23
HETATM   23  P1  UNL     1      35.225  31.802  22.585  1.00  0.00     0.422 P 
HETATM   24  O3  UNL     1      34.603  33.376  22.331  1.00  0.00    -0.617 OA
HETATM   25  O4  UNL     1      36.757  31.505  22.150  1.00  0.00    -0.617 OA
HETATM   26  O5  UNL     1      34.567  31.419  21.253  1.00  0.00    -0.617 OA
ENDBRANCH  22  23
ENDBRANCH  21  22
ENDBRANCH   3  21
BRANCH   4  27
HETATM   27  O6  UNL     1      31.865  30.588  26.356  1.00  0.00    -0.272 OA
BRANCH  27  28
HETATM   28  P2  UNL     1      30.330  30.409  26.361  1.00  0.00     0.422 P 
HETATM   29  O7  UNL     1      30.310  31.594  27.567  1.00  0.00    -0.617 OA
HETATM   30  O8  UNL     1      28.810  30.535  26.214  1.00  0.00    -0.617 OA
HETATM   31  O9  UNL     1      30.380  28.869  26.804  1.00  0.00    -0.617 OA
ENDBRANCH  27  28
ENDBRANCH   4  27
TORSDOF 7
ENDMDL
