MODEL 1
REMARK VINA RESULT: -12.163057200      0.000      0.000
REMARK  7 active torsions:
REMARK  status: ('A' for Active; 'I' for Inactive)
REMARK    1  A    between atoms: N5_13  and  C6_14 
REMARK    2  A    between atoms: C7_16  and  C8_17 
REMARK    3  A    between atoms: C8_17  and  O2_18 
REMARK    4  A    between atoms: O2_18  and  P1_19 
REMARK    5  A    between atoms: C9_23  and  O6_24 
REMARK    6  A    between atoms: O6_24  and  P2_25 
REMARK    7  A    between atoms: C10_29  and  O10_30 
ROOT
HETATM    1  C6  UNL     1      33.282  33.247  25.631  1.00  0.00     0.262 C 
HETATM    2  O1  UNL     1      32.133  32.475  25.749  1.00  0.00    -0.353 OA
HETATM    3  C7  UNL     1      32.250  31.621  24.653  1.00  0.00     0.181 C 
HETATM    4  C9  UNL     1      33.720  31.312  24.458  1.00  0.00     0.199 C 
HETATM    5  C10 UNL     1      34.314  32.108  25.563  1.00  0.00     0.199 C 
ENDROOT
BRANCH   1   6
HETATM    6  N5  UNL     1      33.518  34.099  26.756  1.00  0.00    -0.297 N 
HETATM    7  C3  UNL     1      33.611  35.438  26.675  1.00  0.00     0.142 A 
HETATM    8  N3  UNL     1      33.527  36.328  25.647  1.00  0.00    -0.336 N 
HETATM    9  C4  UNL     1      33.841  35.987  27.913  1.00  0.00     0.119 A 
HETATM   10  C2  UNL     1      33.662  37.645  25.856  1.00  0.00     0.183 A 
ATOM     11  H3  UNL     1      33.357  35.987  24.702  1.00  0.00     0.168 HD
HETATM   12  N2  UNL     1      33.885  38.164  27.061  1.00  0.00    -0.339 N 
HETATM   13  C1  UNL     1      33.980  37.349  28.122  1.00  0.00     0.148 A 
ATOM     14  H2  UNL     1      33.982  39.172  27.176  1.00  0.00     0.167 HD
HETATM   15  N1  UNL     1      34.215  37.887  29.408  1.00  0.00    -0.080 NA
HETATM   16  N4  UNL     1      33.887  34.944  28.761  1.00  0.00    -0.346 N 
HETATM   17  C5  UNL     1      33.689  33.805  28.045  1.00  0.00     0.188 A 
ATOM     18  H4  UNL     1      34.043  34.998  29.767  1.00  0.00     0.167 HD
ENDBRANCH   1   6
BRANCH   5  19
HETATM   19  O10 UNL     1      35.586  32.522  25.434  1.00  0.00    -0.388 OA
ATOM     20  H10 UNL     1      36.217  31.999  25.914  1.00  0.00     0.210 HD
ENDBRANCH   5  19
BRANCH   3  21
HETATM   21  C8  UNL     1      31.442  30.351  24.868  1.00  0.00     0.217 C 
BRANCH  21  22
HETATM   22  O2  UNL     1      31.459  30.078  26.207  1.00  0.00    -0.280 OA
BRANCH  22  23
HETATM   23  P1  UNL     1      30.027  29.890  26.965  1.00  0.00     0.422 P 
HETATM   24  O3  UNL     1      28.629  30.472  26.168  1.00  0.00    -0.617 OA
HETATM   25  O4  UNL     1      29.833  29.030  28.323  1.00  0.00    -0.617 OA
HETATM   26  O5  UNL     1      30.125  31.273  27.622  1.00  0.00    -0.617 OA
ENDBRANCH  22  23
ENDBRANCH  21  22
ENDBRANCH   3  21
BRANCH   4  27
HETATM   27  O6  UNL     1      34.041  31.645  23.199  1.00  0.00    -0.272 OA
BRANCH  27  28
HETATM   28  P2  UNL     1      35.428  31.344  22.586  1.00  0.00     0.422 P 
HETATM   29  O7  UNL     1      34.645  31.373  21.087  1.00  0.00    -0.617 OA
HETATM   30  O8  UNL     1      36.785  31.370  21.875  1.00  0.00    -0.617 OA
HETATM   31  O9  UNL     1      35.597  29.936  23.333  1.00  0.00    -0.617 OA
ENDBRANCH  27  28
ENDBRANCH   4  27
TORSDOF 7
ENDMDL
