MODEL 3
REMARK VINA RESULT: -8.967485678      3.216      5.458
REMARK  5 active torsions:
REMARK  status: ('A' for Active; 'I' for Inactive)
REMARK    1  A    between atoms: C7_7  and  N1_8 
REMARK    2  A    between atoms: C14_16  and  C15_17 
REMARK    3  A    between atoms: C15_17  and  C16_18 
REMARK    4  A    between atoms: C16_18  and  C17_19 
REMARK    5  A    between atoms: C17_19  and  O2_20 
ROOT
HETATM    1  N1  UNL     1      18.649  72.970  16.626  1.00  0.00    -0.243 N 
HETATM    2  C8  UNL     1      17.605  72.957  15.661  1.00  0.00     0.266 A 
HETATM    3  O1  UNL     1      17.325  71.881  15.038  1.00  0.00    -0.267 OA
HETATM    4  C9  UNL     1      16.843  74.155  15.367  1.00  0.00     0.045 A 
HETATM    5  C10 UNL     1      15.829  74.140  14.419  1.00  0.00     0.018 A 
HETATM    6  C11 UNL     1      15.101  75.260  14.120  1.00  0.00     0.002 A 
HETATM    7  C12 UNL     1      15.424  76.415  14.813  1.00  0.00     0.013 A 
HETATM    8  C13 UNL     1      16.430  76.464  15.766  1.00  0.00    -0.018 A 
HETATM    9  C14 UNL     1      16.725  77.644  16.431  1.00  0.00    -0.047 A 
HETATM   10  C18 UNL     1      17.738  77.686  17.379  1.00  0.00     0.009 A 
HETATM   11  C19 UNL     1      18.451  76.549  17.656  1.00  0.00     0.018 A 
HETATM   12  C20 UNL     1      18.162  75.361  16.994  1.00  0.00     0.045 A 
HETATM   13  C21 UNL     1      17.157  75.321  16.054  1.00  0.00     0.006 A 
HETATM   14  C22 UNL     1      18.938  74.162  17.299  1.00  0.00     0.266 A 
HETATM   15  O3  UNL     1      19.848  74.234  18.163  1.00  0.00    -0.267 OA
ENDROOT
BRANCH   1  16
HETATM   16  C7  UNL     1      19.417  71.805  16.915  1.00  0.00     0.054 A 
HETATM   17  C2  UNL     1      20.604  71.600  16.273  1.00  0.00    -0.032 A 
HETATM   18  C1  UNL     1      21.047  72.642  15.289  1.00  0.00     0.050 C 
HETATM   19  C3  UNL     1      21.401  70.483  16.500  1.00  0.00     0.041 A 
HETATM   20  C4  UNL     1      20.954  69.553  17.417  1.00  0.00     0.066 A 
HETATM   21  C5  UNL     1      19.757  69.744  18.075  1.00  0.00     0.067 A 
HETATM   22  N3  UNL     1      21.482  68.411  17.838  1.00  0.00    -0.302 N 
HETATM   23  C6  UNL     1      18.979  70.876  17.825  1.00  0.00     0.063 A 
HETATM   24  N2  UNL     1      19.558  68.722  18.893  1.00  0.00    -0.302 N 
HETATM   25  C23 UNL     1      18.443  68.490  19.782  1.00  0.00     0.161 C 
HETATM   26  C24 UNL     1      20.626  67.910  18.736  1.00  0.00     0.329 A 
HETATM   27  O4  UNL     1      20.758  66.819  19.382  1.00  0.00    -0.246 OA
HETATM   28  C25 UNL     1      22.735  67.784  17.436  1.00  0.00     0.161 C 
ENDBRANCH   1  16
BRANCH   9  29
HETATM   29  C15 UNL     1      15.933  78.873  16.148  1.00  0.00     0.041 C 
BRANCH  29  30
HETATM   30  C16 UNL     1      15.527  79.602  17.406  1.00  0.00     0.030 C 
BRANCH  30  31
HETATM   31  C17 UNL     1      15.154  81.038  17.119  1.00  0.00     0.164 C 
BRANCH  31  32
HETATM   32  O2  UNL     1      13.887  81.318  17.676  1.00  0.00    -0.401 OA
ATOM     33  H2  UNL     1      13.425  81.935  17.121  1.00  0.00     0.209 HD
ENDBRANCH  31  32
ENDBRANCH  30  31
ENDBRANCH  29  30
ENDBRANCH   9  29
TORSDOF 5
ENDMDL
