MODEL 8
REMARK VINA RESULT: -8.614390549      3.751      8.860
REMARK  5 active torsions:
REMARK  status: ('A' for Active; 'I' for Inactive)
REMARK    1  A    between atoms: C7_7  and  N1_8 
REMARK    2  A    between atoms: C14_16  and  C15_17 
REMARK    3  A    between atoms: C15_17  and  C16_18 
REMARK    4  A    between atoms: C16_18  and  C17_19 
REMARK    5  A    between atoms: C17_19  and  O2_20 
ROOT
HETATM    1  N1  UNL     1      19.205  71.156  17.198  1.00  0.00    -0.243 N 
HETATM    2  C8  UNL     1      20.509  70.808  16.750  1.00  0.00     0.266 A 
HETATM    3  O1  UNL     1      21.075  71.496  15.838  1.00  0.00    -0.267 OA
HETATM    4  C9  UNL     1      21.218  69.676  17.316  1.00  0.00     0.045 A 
HETATM    5  C10 UNL     1      22.487  69.337  16.871  1.00  0.00     0.018 A 
HETATM    6  C11 UNL     1      23.173  68.268  17.385  1.00  0.00     0.002 A 
HETATM    7  C12 UNL     1      22.536  67.539  18.376  1.00  0.00     0.013 A 
HETATM    8  C13 UNL     1      21.269  67.853  18.843  1.00  0.00    -0.018 A 
HETATM    9  C14 UNL     1      20.665  67.092  19.832  1.00  0.00    -0.047 A 
HETATM   10  C18 UNL     1      19.393  67.408  20.290  1.00  0.00     0.009 A 
HETATM   11  C19 UNL     1      18.731  68.482  19.754  1.00  0.00     0.018 A 
HETATM   12  C20 UNL     1      19.329  69.252  18.763  1.00  0.00     0.045 A 
HETATM   13  C21 UNL     1      20.590  68.936  18.310  1.00  0.00     0.006 A 
HETATM   14  C22 UNL     1      18.604  70.388  18.201  1.00  0.00     0.266 A 
HETATM   15  O3  UNL     1      17.454  70.648  18.637  1.00  0.00    -0.267 OA
ENDROOT
BRANCH   1  16
HETATM   16  C7  UNL     1      18.490  72.256  16.641  1.00  0.00     0.054 A 
HETATM   17  C2  UNL     1      18.600  73.492  17.208  1.00  0.00    -0.032 A 
HETATM   18  C1  UNL     1      19.496  73.627  18.404  1.00  0.00     0.050 C 
HETATM   19  C3  UNL     1      17.926  74.607  16.722  1.00  0.00     0.041 A 
HETATM   20  C4  UNL     1      17.115  74.434  15.618  1.00  0.00     0.066 A 
HETATM   21  C5  UNL     1      16.993  73.192  15.032  1.00  0.00     0.067 A 
HETATM   22  N3  UNL     1      16.362  75.291  14.939  1.00  0.00    -0.302 N 
HETATM   23  C6  UNL     1      17.682  72.091  15.543  1.00  0.00     0.063 A 
HETATM   24  N2  UNL     1      16.168  73.292  14.001  1.00  0.00    -0.302 N 
HETATM   25  C23 UNL     1      15.742  72.254  13.091  1.00  0.00     0.161 C 
HETATM   26  C24 UNL     1      15.787  74.588  13.957  1.00  0.00     0.329 A 
HETATM   27  O4  UNL     1      14.984  75.036  13.074  1.00  0.00    -0.246 OA
HETATM   28  C25 UNL     1      16.164  76.715  15.175  1.00  0.00     0.161 C 
ENDBRANCH   1  16
BRANCH   9  29
HETATM   29  C15 UNL     1      21.394  65.941  20.431  1.00  0.00     0.041 C 
BRANCH  29  30
HETATM   30  C16 UNL     1      21.570  66.079  21.924  1.00  0.00     0.030 C 
BRANCH  30  31
HETATM   31  C17 UNL     1      22.627  67.104  22.265  1.00  0.00     0.164 C 
BRANCH  31  32
HETATM   32  O2  UNL     1      22.021  68.221  22.879  1.00  0.00    -0.401 OA
ATOM     33  H2  UNL     1      22.528  68.481  23.639  1.00  0.00     0.209 HD
ENDBRANCH  31  32
ENDBRANCH  30  31
ENDBRANCH  29  30
ENDBRANCH   9  29
TORSDOF 5
ENDMDL
