MODEL 5
REMARK VINA RESULT: -8.919185718      4.250      8.869
REMARK  5 active torsions:
REMARK  status: ('A' for Active; 'I' for Inactive)
REMARK    1  A    between atoms: C7_7  and  N1_8 
REMARK    2  A    between atoms: C14_16  and  C15_17 
REMARK    3  A    between atoms: C15_17  and  C16_18 
REMARK    4  A    between atoms: C16_18  and  C17_19 
REMARK    5  A    between atoms: C17_19  and  O2_20 
ROOT
HETATM    1  N1  UNL     1      19.236  71.150  17.176  1.00  0.00    -0.243 N 
HETATM    2  C8  UNL     1      20.544  70.821  16.726  1.00  0.00     0.266 A 
HETATM    3  O1  UNL     1      21.103  71.524  15.821  1.00  0.00    -0.267 OA
HETATM    4  C9  UNL     1      21.266  69.692  17.281  1.00  0.00     0.045 A 
HETATM    5  C10 UNL     1      22.539  69.371  16.834  1.00  0.00     0.018 A 
HETATM    6  C11 UNL     1      23.236  68.305  17.339  1.00  0.00     0.002 A 
HETATM    7  C12 UNL     1      22.607  67.560  18.322  1.00  0.00     0.013 A 
HETATM    8  C13 UNL     1      21.336  67.854  18.791  1.00  0.00    -0.018 A 
HETATM    9  C14 UNL     1      20.740  67.077  19.773  1.00  0.00    -0.047 A 
HETATM   10  C18 UNL     1      19.465  67.374  20.232  1.00  0.00     0.009 A 
HETATM   11  C19 UNL     1      18.791  68.446  19.707  1.00  0.00     0.018 A 
HETATM   12  C20 UNL     1      19.381  69.232  18.723  1.00  0.00     0.045 A 
HETATM   13  C21 UNL     1      20.646  68.935  18.268  1.00  0.00     0.006 A 
HETATM   14  C22 UNL     1      18.643  70.366  18.171  1.00  0.00     0.266 A 
HETATM   15  O3  UNL     1      17.490  70.608  18.610  1.00  0.00    -0.267 OA
ENDROOT
BRANCH   1  16
HETATM   16  C7  UNL     1      18.509  72.247  16.629  1.00  0.00     0.054 A 
HETATM   17  C2  UNL     1      18.607  73.479  17.207  1.00  0.00    -0.032 A 
HETATM   18  C1  UNL     1      19.504  73.614  18.402  1.00  0.00     0.050 C 
HETATM   19  C3  UNL     1      17.921  74.591  16.731  1.00  0.00     0.041 A 
HETATM   20  C4  UNL     1      17.111  74.419  15.627  1.00  0.00     0.066 A 
HETATM   21  C5  UNL     1      17.000  73.180  15.030  1.00  0.00     0.067 A 
HETATM   22  N3  UNL     1      16.347  75.273  14.956  1.00  0.00    -0.302 N 
HETATM   23  C6  UNL     1      17.701  72.083  15.532  1.00  0.00     0.063 A 
HETATM   24  N2  UNL     1      16.172  73.280  14.001  1.00  0.00    -0.302 N 
HETATM   25  C23 UNL     1      15.755  72.246  13.084  1.00  0.00     0.161 C 
HETATM   26  C24 UNL     1      15.778  74.572  13.969  1.00  0.00     0.329 A 
HETATM   27  O4  UNL     1      14.969  75.020  13.091  1.00  0.00    -0.246 OA
HETATM   28  C25 UNL     1      16.135  76.694  15.204  1.00  0.00     0.161 C 
ENDBRANCH   1  16
BRANCH   9  29
HETATM   29  C15 UNL     1      21.483  65.928  20.360  1.00  0.00     0.041 C 
BRANCH  29  30
HETATM   30  C16 UNL     1      20.568  64.929  21.027  1.00  0.00     0.030 C 
BRANCH  30  31
HETATM   31  C17 UNL     1      21.350  63.821  21.694  1.00  0.00     0.164 C 
BRANCH  31  32
HETATM   32  O2  UNL     1      22.000  63.043  20.711  1.00  0.00    -0.401 OA
ATOM     33  H2  UNL     1      21.935  62.124  20.939  1.00  0.00     0.209 HD
ENDBRANCH  31  32
ENDBRANCH  30  31
ENDBRANCH  29  30
ENDBRANCH   9  29
TORSDOF 5
ENDMDL
