MODEL 2
REMARK VINA RESULT: -9.070838263      0.990      2.035
REMARK  5 active torsions:
REMARK  status: ('A' for Active; 'I' for Inactive)
REMARK    1  A    between atoms: C7_7  and  N1_8 
REMARK    2  A    between atoms: C14_16  and  C15_17 
REMARK    3  A    between atoms: C15_17  and  C16_18 
REMARK    4  A    between atoms: C16_18  and  C17_19 
REMARK    5  A    between atoms: C17_19  and  O2_20 
ROOT
HETATM    1  N1  UNL     1      18.867  73.458  16.796  1.00  0.00    -0.243 N 
HETATM    2  C8  UNL     1      18.266  74.746  16.779  1.00  0.00     0.266 A 
HETATM    3  O1  UNL     1      18.720  75.672  17.527  1.00  0.00    -0.267 OA
HETATM    4  C9  UNL     1      17.136  75.034  15.916  1.00  0.00     0.045 A 
HETATM    5  C10 UNL     1      16.549  76.291  15.907  1.00  0.00     0.018 A 
HETATM    6  C11 UNL     1      15.477  76.583  15.107  1.00  0.00     0.002 A 
HETATM    7  C12 UNL     1      15.005  75.560  14.301  1.00  0.00     0.013 A 
HETATM    8  C13 UNL     1      15.569  74.294  14.286  1.00  0.00    -0.018 A 
HETATM    9  C14 UNL     1      15.061  73.296  13.469  1.00  0.00    -0.047 A 
HETATM   10  C18 UNL     1      15.627  72.029  13.465  1.00  0.00     0.009 A 
HETATM   11  C19 UNL     1      16.698  71.766  14.278  1.00  0.00     0.018 A 
HETATM   12  C20 UNL     1      17.216  72.760  15.100  1.00  0.00     0.045 A 
HETATM   13  C21 UNL     1      16.652  74.016  15.103  1.00  0.00     0.006 A 
HETATM   14  C22 UNL     1      18.354  72.457  15.965  1.00  0.00     0.266 A 
HETATM   15  O3  UNL     1      18.843  71.300  15.936  1.00  0.00    -0.267 OA
ENDROOT
BRANCH   1  16
HETATM   16  C7  UNL     1      19.968  73.156  17.649  1.00  0.00     0.054 A 
HETATM   17  C2  UNL     1      21.227  73.544  17.293  1.00  0.00    -0.032 A 
HETATM   18  C1  UNL     1      21.381  74.293  16.003  1.00  0.00     0.050 C 
HETATM   19  C3  UNL     1      22.347  73.277  18.073  1.00  0.00     0.041 A 
HETATM   20  C4  UNL     1      22.156  72.588  19.254  1.00  0.00     0.066 A 
HETATM   21  C5  UNL     1      20.890  72.188  19.629  1.00  0.00     0.067 A 
HETATM   22  N3  UNL     1      23.011  72.195  20.190  1.00  0.00    -0.302 N 
HETATM   23  C6  UNL     1      19.786  72.471  18.824  1.00  0.00     0.063 A 
HETATM   24  N2  UNL     1      20.975  71.554  20.789  1.00  0.00    -0.302 N 
HETATM   25  C23 UNL     1      19.911  70.962  21.566  1.00  0.00     0.161 C 
HETATM   26  C24 UNL     1      22.285  71.565  21.120  1.00  0.00     0.329 A 
HETATM   27  O4  UNL     1      22.724  71.033  22.192  1.00  0.00    -0.246 OA
HETATM   28  C25 UNL     1      24.455  72.384  20.241  1.00  0.00     0.161 C 
ENDBRANCH   1  16
BRANCH   9  29
HETATM   29  C15 UNL     1      13.913  73.589  12.567  1.00  0.00     0.041 C 
BRANCH  29  30
HETATM   30  C16 UNL     1      13.991  72.830  11.265  1.00  0.00     0.030 C 
BRANCH  30  31
HETATM   31  C17 UNL     1      13.239  71.521  11.340  1.00  0.00     0.164 C 
BRANCH  31  32
HETATM   32  O2  UNL     1      12.028  71.630  10.622  1.00  0.00    -0.401 OA
ATOM     33  H2  UNL     1      11.336  71.186  11.097  1.00  0.00     0.209 HD
ENDBRANCH  31  32
ENDBRANCH  30  31
ENDBRANCH  29  30
ENDBRANCH   9  29
TORSDOF 5
ENDMDL
