MODEL 1
REMARK VINA RESULT: -9.798895092      0.000      0.000
REMARK  5 active torsions:
REMARK  status: ('A' for Active; 'I' for Inactive)
REMARK    1  A    between atoms: C7_7  and  N1_8 
REMARK    2  A    between atoms: C14_16  and  C15_17 
REMARK    3  A    between atoms: C15_17  and  C16_18 
REMARK    4  A    between atoms: C16_18  and  C17_19 
REMARK    5  A    between atoms: C17_19  and  O2_20 
ROOT
HETATM    1  N1  UNL     1      18.786  73.543  17.020  1.00  0.00    -0.243 N 
HETATM    2  C8  UNL     1      18.246  74.852  16.897  1.00  0.00     0.266 A 
HETATM    3  O1  UNL     1      18.697  75.798  17.622  1.00  0.00    -0.267 OA
HETATM    4  C9  UNL     1      17.183  75.138  15.953  1.00  0.00     0.045 A 
HETATM    5  C10 UNL     1      16.655  76.416  15.841  1.00  0.00     0.018 A 
HETATM    6  C11 UNL     1      15.646  76.708  14.961  1.00  0.00     0.002 A 
HETATM    7  C12 UNL     1      15.176  75.662  14.185  1.00  0.00     0.013 A 
HETATM    8  C13 UNL     1      15.682  74.374  14.271  1.00  0.00    -0.018 A 
HETATM    9  C14 UNL     1      15.179  73.355  13.479  1.00  0.00    -0.047 A 
HETATM   10  C18 UNL     1      15.686  72.067  13.577  1.00  0.00     0.009 A 
HETATM   11  C19 UNL     1      16.695  71.805  14.467  1.00  0.00     0.018 A 
HETATM   12  C20 UNL     1      17.207  72.821  15.265  1.00  0.00     0.045 A 
HETATM   13  C21 UNL     1      16.702  74.097  15.167  1.00  0.00     0.006 A 
HETATM   14  C22 UNL     1      18.277  72.519  16.213  1.00  0.00     0.266 A 
HETATM   15  O3  UNL     1      18.715  71.342  16.276  1.00  0.00    -0.267 OA
ENDROOT
BRANCH   1  16
HETATM   16  C7  UNL     1      19.820  73.243  17.954  1.00  0.00     0.054 A 
HETATM   17  C2  UNL     1      19.495  72.841  19.217  1.00  0.00    -0.032 A 
HETATM   18  C1  UNL     1      18.038  72.723  19.553  1.00  0.00     0.050 C 
HETATM   19  C3  UNL     1      20.452  72.539  20.180  1.00  0.00     0.041 A 
HETATM   20  C4  UNL     1      21.780  72.659  19.824  1.00  0.00     0.066 A 
HETATM   21  C5  UNL     1      22.126  73.063  18.551  1.00  0.00     0.067 A 
HETATM   22  N3  UNL     1      22.896  72.445  20.510  1.00  0.00    -0.302 N 
HETATM   23  C6  UNL     1      21.143  73.360  17.606  1.00  0.00     0.063 A 
HETATM   24  N2  UNL     1      23.447  73.096  18.464  1.00  0.00    -0.302 N 
HETATM   25  C23 UNL     1      24.260  73.459  17.326  1.00  0.00     0.161 C 
HETATM   26  C24 UNL     1      23.907  72.714  19.676  1.00  0.00     0.329 A 
HETATM   27  O4  UNL     1      25.151  72.635  19.942  1.00  0.00    -0.246 OA
HETATM   28  C25 UNL     1      23.046  72.007  21.892  1.00  0.00     0.161 C 
ENDBRANCH   1  16
BRANCH   9  29
HETATM   29  C15 UNL     1      14.100  73.645  12.494  1.00  0.00     0.041 C 
BRANCH  29  30
HETATM   30  C16 UNL     1      14.173  72.756  11.276  1.00  0.00     0.030 C 
BRANCH  30  31
HETATM   31  C17 UNL     1      13.298  71.534  11.429  1.00  0.00     0.164 C 
BRANCH  31  32
HETATM   32  O2  UNL     1      12.143  71.677  10.630  1.00  0.00    -0.401 OA
ATOM     33  H2  UNL     1      11.407  71.253  11.055  1.00  0.00     0.209 HD
ENDBRANCH  31  32
ENDBRANCH  30  31
ENDBRANCH  29  30
ENDBRANCH   9  29
TORSDOF 5
ENDMDL
