MODEL 8
REMARK VINA RESULT: -4.867471802      1.788      4.761
REMARK  3 active torsions:
REMARK  status: ('A' for Active; 'I' for Inactive)
REMARK    1  A    between atoms: C2_2  and  O1_3 
REMARK    2  A    between atoms: O1_3  and  C3_4 
REMARK    3  A    between atoms: C3_4  and  C4_6 
ROOT
HETATM    1  C4  UNL     1     -27.296  -8.590   0.397  1.00  0.00     0.053 C 
HETATM    2  C5  UNL     1     -26.857  -7.349   0.291  1.00  0.00     0.034 C 
HETATM    3 CL1  UNL     1     -28.017  -6.043   0.289  1.00  0.00    -0.088 Cl
HETATM    4  C6  UNL     1     -25.425  -6.985   0.172  1.00  0.00     0.155 C 
HETATM    5  C7  UNL     1     -24.555  -8.041   0.746  1.00  0.00     0.224 C 
HETATM    6  O3  UNL     1     -23.445  -7.772   1.300  1.00  0.00    -0.273 OA
HETATM    7  N1  UNL     1     -25.011  -9.383   0.653  1.00  0.00    -0.352 N 
HETATM    8  C8  UNL     1     -24.045 -10.450   0.816  1.00  0.00     0.152 C 
HETATM    9  C9  UNL     1     -26.378  -9.758   0.407  1.00  0.00     0.171 C 
ENDROOT
BRANCH   1  10
HETATM   10  C3  UNL     1     -28.722  -8.879   0.511  1.00  0.00     0.292 C 
HETATM   11  O2  UNL     1     -29.347  -8.782   1.593  1.00  0.00    -0.259 OA
BRANCH  10  12
HETATM   12  O1  UNL     1     -29.426  -9.277  -0.614  1.00  0.00    -0.318 OA
BRANCH  12  13
HETATM   13  C2  UNL     1     -30.251 -10.411  -0.528  1.00  0.00     0.174 C 
HETATM   14  C1  UNL     1     -29.483 -11.694  -0.370  1.00  0.00     0.034 C 
ENDBRANCH  12  13
ENDBRANCH  10  12
ENDBRANCH   1  10
TORSDOF 3
ENDMDL
