MODEL 3
REMARK VINA RESULT: -5.370981278      2.222      3.059
REMARK  3 active torsions:
REMARK  status: ('A' for Active; 'I' for Inactive)
REMARK    1  A    between atoms: C2_2  and  O1_3 
REMARK    2  A    between atoms: O1_3  and  C3_4 
REMARK    3  A    between atoms: C3_4  and  C4_6 
ROOT
HETATM    1  C4  UNL     1     -23.691  -9.850   0.515  1.00  0.00     0.053 C 
HETATM    2  C5  UNL     1     -23.490  -8.580   0.815  1.00  0.00     0.034 C 
HETATM    3 CL1  UNL     1     -21.874  -7.929   0.680  1.00  0.00    -0.088 Cl
HETATM    4  C6  UNL     1     -24.558  -7.656   1.266  1.00  0.00     0.155 C 
HETATM    5  C7  UNL     1     -25.891  -8.114   0.803  1.00  0.00     0.224 C 
HETATM    6  O3  UNL     1     -26.823  -7.299   0.522  1.00  0.00    -0.273 OA
HETATM    7  N1  UNL     1     -26.094  -9.515   0.684  1.00  0.00    -0.352 N 
HETATM    8  C8  UNL     1     -27.455 -10.011   0.642  1.00  0.00     0.152 C 
HETATM    9  C9  UNL     1     -25.033 -10.482   0.602  1.00  0.00     0.171 C 
ENDROOT
BRANCH   1  10
HETATM   10  C3  UNL     1     -22.593 -10.705   0.077  1.00  0.00     0.292 C 
HETATM   11  O2  UNL     1     -21.790 -11.238   0.879  1.00  0.00    -0.259 OA
BRANCH  10  12
HETATM   12  O1  UNL     1     -22.419 -10.948  -1.276  1.00  0.00    -0.318 OA
BRANCH  12  13
HETATM   13  C2  UNL     1     -22.248 -12.273  -1.708  1.00  0.00     0.174 C 
HETATM   14  C1  UNL     1     -23.524 -12.919  -2.168  1.00  0.00     0.034 C 
ENDBRANCH  12  13
ENDBRANCH  10  12
ENDBRANCH   1  10
TORSDOF 3
ENDMDL
