MODEL 1
REMARK VINA RESULT: -5.589035265      0.000      0.000
REMARK  3 active torsions:
REMARK  status: ('A' for Active; 'I' for Inactive)
REMARK    1  A    between atoms: C2_2  and  O1_3 
REMARK    2  A    between atoms: O1_3  and  C3_4 
REMARK    3  A    between atoms: C3_4  and  C4_6 
ROOT
HETATM    1  C4  UNL     1     -26.012  -8.898   0.536  1.00  0.00     0.053 C 
HETATM    2  C5  UNL     1     -26.412  -7.770  -0.021  1.00  0.00     0.034 C 
HETATM    3 CL1  UNL     1     -25.263  -6.467  -0.206  1.00  0.00    -0.088 Cl
HETATM    4  C6  UNL     1     -27.792  -7.530  -0.507  1.00  0.00     0.155 C 
HETATM    5  C7  UNL     1     -28.476  -8.807  -0.828  1.00  0.00     0.224 C 
HETATM    6  O3  UNL     1     -29.340  -8.895  -1.753  1.00  0.00    -0.273 OA
HETATM    7  N1  UNL     1     -28.126  -9.945  -0.053  1.00  0.00    -0.352 N 
HETATM    8  C8  UNL     1     -29.032 -11.077  -0.046  1.00  0.00     0.152 C 
HETATM    9  C9  UNL     1     -26.925 -10.054   0.730  1.00  0.00     0.171 C 
ENDROOT
BRANCH   1  10
HETATM   10  C3  UNL     1     -24.637  -9.067   0.993  1.00  0.00     0.292 C 
HETATM   11  O2  UNL     1     -24.139  -8.372   1.909  1.00  0.00    -0.259 OA
BRANCH  10  12
HETATM   12  O1  UNL     1     -23.837 -10.031   0.399  1.00  0.00    -0.318 OA
BRANCH  12  13
HETATM   13  C2  UNL     1     -22.483 -10.104   0.765  1.00  0.00     0.174 C 
HETATM   14  C1  UNL     1     -21.721 -11.162   0.017  1.00  0.00     0.034 C 
ENDBRANCH  12  13
ENDBRANCH  10  12
ENDBRANCH   1  10
TORSDOF 3
ENDMDL
