MODEL 5
REMARK VINA RESULT: -5.117659009      2.052      4.760
REMARK  3 active torsions:
REMARK  status: ('A' for Active; 'I' for Inactive)
REMARK    1  A    between atoms: C2_2  and  O1_3 
REMARK    2  A    between atoms: O1_3  and  C3_4 
REMARK    3  A    between atoms: C3_4  and  C4_6 
ROOT
HETATM    1  C4  UNL     1     -26.629  -9.462   0.271  1.00  0.00     0.053 C 
HETATM    2  C5  UNL     1     -26.578  -8.161   0.052  1.00  0.00     0.034 C 
HETATM    3 CL1  UNL     1     -28.075  -7.276  -0.113  1.00  0.00    -0.088 Cl
HETATM    4  C6  UNL     1     -25.317  -7.390  -0.067  1.00  0.00     0.155 C 
HETATM    5  C7  UNL     1     -24.203  -8.076   0.633  1.00  0.00     0.224 C 
HETATM    6  O3  UNL     1     -23.258  -7.434   1.185  1.00  0.00    -0.273 OA
HETATM    7  N1  UNL     1     -24.229  -9.496   0.664  1.00  0.00    -0.352 N 
HETATM    8  C8  UNL     1     -22.997 -10.199   0.959  1.00  0.00     0.152 C 
HETATM    9  C9  UNL     1     -25.404 -10.290   0.423  1.00  0.00     0.171 C 
ENDROOT
BRANCH   1  10
HETATM   10  C3  UNL     1     -27.906 -10.160   0.377  1.00  0.00     0.292 C 
HETATM   11  O2  UNL     1     -28.584 -10.172   1.431  1.00  0.00    -0.259 OA
BRANCH  10  12
HETATM   12  O1  UNL     1     -28.401 -10.841  -0.724  1.00  0.00    -0.318 OA
BRANCH  12  13
HETATM   13  C2  UNL     1     -29.488 -10.292  -1.425  1.00  0.00     0.174 C 
HETATM   14  C1  UNL     1     -29.080  -9.545  -2.664  1.00  0.00     0.034 C 
ENDBRANCH  12  13
ENDBRANCH  10  12
ENDBRANCH   1  10
TORSDOF 3
ENDMDL
