MODEL 13
REMARK VINA RESULT: -4.685957582      1.854      4.872
REMARK  3 active torsions:
REMARK  status: ('A' for Active; 'I' for Inactive)
REMARK    1  A    between atoms: C2_2  and  O1_3 
REMARK    2  A    between atoms: O1_3  and  C3_4 
REMARK    3  A    between atoms: C3_4  and  C4_6 
ROOT
HETATM    1  C4  UNL     1     -27.263  -8.526   0.343  1.00  0.00     0.053 C 
HETATM    2  C5  UNL     1     -26.756  -7.310   0.270  1.00  0.00     0.034 C 
HETATM    3 CL1  UNL     1     -27.842  -5.941   0.297  1.00  0.00    -0.088 Cl
HETATM    4  C6  UNL     1     -25.306  -7.022   0.163  1.00  0.00     0.155 C 
HETATM    5  C7  UNL     1     -24.497  -8.139   0.712  1.00  0.00     0.224 C 
HETATM    6  O3  UNL     1     -23.376  -7.945   1.275  1.00  0.00    -0.273 OA
HETATM    7  N1  UNL     1     -25.027  -9.450   0.584  1.00  0.00    -0.352 N 
HETATM    8  C8  UNL     1     -24.121 -10.574   0.722  1.00  0.00     0.152 C 
HETATM    9  C9  UNL     1     -26.411  -9.743   0.326  1.00  0.00     0.171 C 
ENDROOT
BRANCH   1  10
HETATM   10  C3  UNL     1     -28.703  -8.739   0.446  1.00  0.00     0.292 C 
HETATM   11  O2  UNL     1     -29.510  -8.332  -0.423  1.00  0.00    -0.259 OA
BRANCH  10  12
HETATM   12  O1  UNL     1     -29.213  -9.415   1.542  1.00  0.00    -0.318 OA
BRANCH  12  13
HETATM   13  C2  UNL     1     -30.383 -10.177   1.382  1.00  0.00     0.174 C 
HETATM   14  C1  UNL     1     -30.128 -11.547   0.818  1.00  0.00     0.034 C 
ENDBRANCH  12  13
ENDBRANCH  10  12
ENDBRANCH   1  10
TORSDOF 3
ENDMDL
