MODEL 2
REMARK VINA RESULT: -5.408301235      3.662      5.623
REMARK  3 active torsions:
REMARK  status: ('A' for Active; 'I' for Inactive)
REMARK    1  A    between atoms: C2_2  and  O1_3 
REMARK    2  A    between atoms: O1_3  and  C3_4 
REMARK    3  A    between atoms: C3_4  and  C4_6 
ROOT
HETATM    1  C4  UNL     1     -23.107 -11.708  -1.078  1.00  0.00     0.053 C 
HETATM    2  C5  UNL     1     -21.867 -11.366  -0.783  1.00  0.00     0.034 C 
HETATM    3 CL1  UNL     1     -20.560 -12.042  -1.724  1.00  0.00    -0.088 Cl
HETATM    4  C6  UNL     1     -21.503 -10.434   0.311  1.00  0.00     0.155 C 
HETATM    5  C7  UNL     1     -22.628  -9.522   0.633  1.00  0.00     0.224 C 
HETATM    6  O3  UNL     1     -22.438  -8.334   1.040  1.00  0.00    -0.273 OA
HETATM    7  N1  UNL     1     -23.945 -10.028   0.468  1.00  0.00    -0.352 N 
HETATM    8  C8  UNL     1     -25.033  -9.347   1.142  1.00  0.00     0.152 C 
HETATM    9  C9  UNL     1     -24.276 -11.180  -0.327  1.00  0.00     0.171 C 
ENDROOT
BRANCH   1  10
HETATM   10  C3  UNL     1     -23.395 -12.633  -2.169  1.00  0.00     0.292 C 
HETATM   11  O2  UNL     1     -23.201 -13.868  -2.077  1.00  0.00    -0.259 OA
BRANCH  10  12
HETATM   12  O1  UNL     1     -23.905 -12.141  -3.360  1.00  0.00    -0.318 OA
BRANCH  12  13
HETATM   13  C2  UNL     1     -23.088 -12.161  -4.503  1.00  0.00     0.174 C 
HETATM   14  C1  UNL     1     -22.348 -10.872  -4.728  1.00  0.00     0.034 C 
ENDBRANCH  12  13
ENDBRANCH  10  12
ENDBRANCH   1  10
TORSDOF 3
ENDMDL
