MODEL 4
REMARK VINA RESULT: -5.219675568      2.057      4.716
REMARK  3 active torsions:
REMARK  status: ('A' for Active; 'I' for Inactive)
REMARK    1  A    between atoms: C2_2  and  O1_3 
REMARK    2  A    between atoms: O1_3  and  C3_4 
REMARK    3  A    between atoms: C3_4  and  C4_6 
ROOT
HETATM    1  C4  UNL     1     -26.774  -9.455   0.341  1.00  0.00     0.053 C 
HETATM    2  C5  UNL     1     -26.759  -8.159   0.093  1.00  0.00     0.034 C 
HETATM    3 CL1  UNL     1     -28.278  -7.333  -0.160  1.00  0.00    -0.088 Cl
HETATM    4  C6  UNL     1     -25.523  -7.345   0.011  1.00  0.00     0.155 C 
HETATM    5  C7  UNL     1     -24.418  -7.973   0.776  1.00  0.00     0.224 C 
HETATM    6  O3  UNL     1     -23.522  -7.284   1.354  1.00  0.00    -0.273 OA
HETATM    7  N1  UNL     1     -24.394  -9.391   0.842  1.00  0.00    -0.352 N 
HETATM    8  C8  UNL     1     -23.152 -10.042   1.208  1.00  0.00     0.152 C 
HETATM    9  C9  UNL     1     -25.528 -10.233   0.568  1.00  0.00     0.171 C 
ENDROOT
BRANCH   1  10
HETATM   10  C3  UNL     1     -28.028 -10.197   0.408  1.00  0.00     0.292 C 
HETATM   11  O2  UNL     1     -28.601 -10.461   1.492  1.00  0.00    -0.259 OA
BRANCH  10  12
HETATM   12  O1  UNL     1     -28.623 -10.633  -0.765  1.00  0.00    -0.318 OA
BRANCH  12  13
HETATM   13  C2  UNL     1     -29.356 -11.831  -0.746  1.00  0.00     0.174 C 
HETATM   14  C1  UNL     1     -29.061 -12.728  -1.915  1.00  0.00     0.034 C 
ENDBRANCH  12  13
ENDBRANCH  10  12
ENDBRANCH   1  10
TORSDOF 3
ENDMDL
