MODEL 6
REMARK VINA RESULT: -5.055377214      2.237      5.023
REMARK  3 active torsions:
REMARK  status: ('A' for Active; 'I' for Inactive)
REMARK    1  A    between atoms: C2_2  and  O1_3 
REMARK    2  A    between atoms: O1_3  and  C3_4 
REMARK    3  A    between atoms: C3_4  and  C4_6 
ROOT
HETATM    1  C4  UNL     1     -26.782  -9.499   0.310  1.00  0.00     0.053 C 
HETATM    2  C5  UNL     1     -26.785  -8.200   0.071  1.00  0.00     0.034 C 
HETATM    3 CL1  UNL     1     -28.312  -7.399  -0.208  1.00  0.00    -0.088 Cl
HETATM    4  C6  UNL     1     -25.562  -7.365   0.021  1.00  0.00     0.155 C 
HETATM    5  C7  UNL     1     -24.462  -7.979   0.805  1.00  0.00     0.224 C 
HETATM    6  O3  UNL     1     -23.590  -7.279   1.407  1.00  0.00    -0.273 OA
HETATM    7  N1  UNL     1     -24.415  -9.397   0.861  1.00  0.00    -0.352 N 
HETATM    8  C8  UNL     1     -23.170 -10.029   1.249  1.00  0.00     0.152 C 
HETATM    9  C9  UNL     1     -25.528 -10.256   0.558  1.00  0.00     0.171 C 
ENDROOT
BRANCH   1  10
HETATM   10  C3  UNL     1     -28.025 -10.262   0.345  1.00  0.00     0.292 C 
HETATM   11  O2  UNL     1     -28.484 -10.851  -0.662  1.00  0.00    -0.259 OA
BRANCH  10  12
HETATM   12  O1  UNL     1     -28.736 -10.349   1.531  1.00  0.00    -0.318 OA
BRANCH  12  13
HETATM   13  C2  UNL     1     -30.119 -10.107   1.508  1.00  0.00     0.174 C 
HETATM   14  C1  UNL     1     -30.532  -8.937   2.356  1.00  0.00     0.034 C 
ENDBRANCH  12  13
ENDBRANCH  10  12
ENDBRANCH   1  10
TORSDOF 3
ENDMDL
