MODEL 6
REMARK VINA RESULT: -5.362881870      1.571      4.965
REMARK  4 active torsions:
REMARK  status: ('A' for Active; 'I' for Inactive)
REMARK    1  A    between atoms: C2_2  and  C3_3 
REMARK    2  A    between atoms: C3_3  and  C4_5 
REMARK    3  A    between atoms: C6_9  and  C7_10 
REMARK    4  A    between atoms: C7_10  and  O3_12 
ROOT
HETATM    1  C4  UNL     1     -24.252  -9.817   0.573  1.00  0.00     0.027 A 
HETATM    2  C5  UNL     1     -25.239 -10.712   0.958  1.00  0.00     0.103 A 
HETATM    3  N1  UNL     1     -26.382 -10.037   1.155  1.00  0.00    -0.360 N 
ATOM      4  H1  UNL     1     -27.270 -10.449   1.444  1.00  0.00     0.165 HD
HETATM    5  C6  UNL     1     -26.172  -8.729   0.911  1.00  0.00     0.109 A 
HETATM    6  C9  UNL     1     -24.851  -8.597   0.551  1.00  0.00     0.052 A 
ENDROOT
BRANCH   1   7
HETATM    7  C3  UNL     1     -22.868 -10.075   0.253  1.00  0.00     0.160 C 
HETATM    8  O1  UNL     1     -22.015  -9.156   0.261  1.00  0.00    -0.292 OA
BRANCH   7   9
HETATM    9  C2  UNL     1     -22.417 -11.442  -0.095  1.00  0.00     0.079 C 
HETATM   10  C1  UNL     1     -22.757 -11.834  -1.492  1.00  0.00     0.013 C 
ENDBRANCH   7   9
ENDBRANCH   1   7
BRANCH   5  11
HETATM   11  C7  UNL     1     -27.108  -7.626   0.992  1.00  0.00     0.309 C 
HETATM   12  O2  UNL     1     -26.729  -6.536   1.458  1.00  0.00    -0.258 OA
BRANCH  11  13
HETATM   13  O3  UNL     1     -28.404  -7.764   0.566  1.00  0.00    -0.321 OA
HETATM   14  C8  UNL     1     -28.643  -7.984  -0.807  1.00  0.00     0.213 C 
ENDBRANCH  11  13
ENDBRANCH   5  11
TORSDOF 4
ENDMDL
