MODEL 2
REMARK VINA RESULT: -5.766283570      1.500      1.858
REMARK  4 active torsions:
REMARK  status: ('A' for Active; 'I' for Inactive)
REMARK    1  A    between atoms: C2_2  and  C3_3 
REMARK    2  A    between atoms: C3_3  and  C4_5 
REMARK    3  A    between atoms: C6_9  and  C7_10 
REMARK    4  A    between atoms: C7_10  and  O3_12 
ROOT
HETATM    1  C4  UNL     1     -24.626  -9.659   0.532  1.00  0.00     0.027 A 
HETATM    2  C5  UNL     1     -23.316  -9.232   0.689  1.00  0.00     0.103 A 
HETATM    3  N1  UNL     1     -22.504 -10.081   0.039  1.00  0.00    -0.360 N 
ATOM      4  H1  UNL     1     -21.488 -10.005  -0.011  1.00  0.00     0.165 HD
HETATM    5  C6  UNL     1     -23.244 -11.048  -0.537  1.00  0.00     0.109 A 
HETATM    6  C9  UNL     1     -24.557 -10.784  -0.229  1.00  0.00     0.052 A 
ENDROOT
BRANCH   1   7
HETATM    7  C3  UNL     1     -25.840  -9.071   1.047  1.00  0.00     0.160 C 
HETATM    8  O1  UNL     1     -26.843  -9.775   1.313  1.00  0.00    -0.292 OA
BRANCH   7   9
HETATM    9  C2  UNL     1     -25.932  -7.611   1.276  1.00  0.00     0.079 C 
HETATM   10  C1  UNL     1     -26.136  -6.832   0.022  1.00  0.00     0.013 C 
ENDBRANCH   7   9
ENDBRANCH   1   7
BRANCH   5  11
HETATM   11  C7  UNL     1     -22.805 -12.174  -1.336  1.00  0.00     0.309 C 
HETATM   12  O2  UNL     1     -21.599 -12.288  -1.621  1.00  0.00    -0.258 OA
BRANCH  11  13
HETATM   13  O3  UNL     1     -23.696 -13.116  -1.784  1.00  0.00    -0.321 OA
HETATM   14  C8  UNL     1     -24.488 -12.812  -2.912  1.00  0.00     0.213 C 
ENDBRANCH  11  13
ENDBRANCH   5  11
TORSDOF 4
ENDMDL
