MODEL 7
REMARK VINA RESULT: -5.310729285      1.660      5.250
REMARK  4 active torsions:
REMARK  status: ('A' for Active; 'I' for Inactive)
REMARK    1  A    between atoms: C2_2  and  C3_3 
REMARK    2  A    between atoms: C3_3  and  C4_5 
REMARK    3  A    between atoms: C6_9  and  C7_10 
REMARK    4  A    between atoms: C7_10  and  O3_12 
ROOT
HETATM    1  C4  UNL     1     -24.302  -9.803   0.564  1.00  0.00     0.027 A 
HETATM    2  C5  UNL     1     -25.261 -10.714   0.978  1.00  0.00     0.103 A 
HETATM    3  N1  UNL     1     -26.436 -10.077   1.108  1.00  0.00    -0.360 N 
ATOM      4  H1  UNL     1     -27.313 -10.508   1.399  1.00  0.00     0.165 HD
HETATM    5  C6  UNL     1     -26.272  -8.778   0.792  1.00  0.00     0.109 A 
HETATM    6  C9  UNL     1     -24.949  -8.611   0.456  1.00  0.00     0.052 A 
ENDROOT
BRANCH   1   7
HETATM    7  C3  UNL     1     -22.901 -10.020   0.292  1.00  0.00     0.160 C 
HETATM    8  O1  UNL     1     -22.074  -9.079   0.337  1.00  0.00    -0.292 OA
BRANCH   7   9
HETATM    9  C2  UNL     1     -22.400 -11.372  -0.050  1.00  0.00     0.079 C 
HETATM   10  C1  UNL     1     -22.767 -11.802  -1.429  1.00  0.00     0.013 C 
ENDBRANCH   7   9
ENDBRANCH   1   7
BRANCH   5  11
HETATM   11  C7  UNL     1     -27.254  -7.713   0.787  1.00  0.00     0.309 C 
HETATM   12  O2  UNL     1     -28.462  -7.996   0.703  1.00  0.00    -0.258 OA
BRANCH  11  13
HETATM   13  O3  UNL     1     -26.874  -6.397   0.873  1.00  0.00    -0.321 OA
HETATM   14  C8  UNL     1     -27.179  -5.683   2.050  1.00  0.00     0.213 C 
ENDBRANCH  11  13
ENDBRANCH   5  11
TORSDOF 4
ENDMDL
