MODEL 9
REMARK VINA RESULT: -4.636427757      3.220      5.515
REMARK  3 active torsions:
REMARK  status: ('A' for Active; 'I' for Inactive)
REMARK    1  A    between atoms: C2_2  and  O1_3 
REMARK    2  A    between atoms: O1_3  and  C3_4 
REMARK    3  A    between atoms: C3_4  and  C4_6 
ROOT
HETATM    1  C4  UNL     1      36.478 -39.709  28.757  1.00  0.00     0.053 C 
HETATM    2  C5  UNL     1      36.293 -40.439  27.673  1.00  0.00     0.034 C 
HETATM    3 CL1  UNL     1      37.609 -41.427  27.087  1.00  0.00    -0.088 Cl
HETATM    4  C6  UNL     1      35.024 -40.476  26.906  1.00  0.00     0.155 C 
HETATM    5  C7  UNL     1      33.871 -40.100  27.761  1.00  0.00     0.224 C 
HETATM    6  O3  UNL     1      32.714 -40.590  27.585  1.00  0.00    -0.273 OA
HETATM    7  N1  UNL     1      34.109 -39.158  28.797  1.00  0.00    -0.352 N 
HETATM    8  C8  UNL     1      32.972 -38.466  29.372  1.00  0.00     0.152 C 
HETATM    9  C9  UNL     1      35.411 -38.842  29.321  1.00  0.00     0.171 C 
ENDROOT
BRANCH   1  10
HETATM   10  C3  UNL     1      37.754 -39.718  29.464  1.00  0.00     0.292 C 
HETATM   11  O2  UNL     1      38.602 -38.804  29.339  1.00  0.00    -0.259 OA
BRANCH  10  12
HETATM   12  O1  UNL     1      38.053 -40.773  30.311  1.00  0.00    -0.318 OA
BRANCH  12  13
HETATM   13  C2  UNL     1      39.266 -41.459  30.133  1.00  0.00     0.174 C 
HETATM   14  C1  UNL     1      39.100 -42.950  30.046  1.00  0.00     0.034 C 
ENDBRANCH  12  13
ENDBRANCH  10  12
ENDBRANCH   1  10
TORSDOF 3
ENDMDL
