MODEL 10
REMARK VINA RESULT: -4.599085387      2.554      4.649
REMARK  3 active torsions:
REMARK  status: ('A' for Active; 'I' for Inactive)
REMARK    1  A    between atoms: C2_2  and  O1_3 
REMARK    2  A    between atoms: O1_3  and  C3_4 
REMARK    3  A    between atoms: C3_4  and  C4_6 
ROOT
HETATM    1  C4  UNL     1      35.556 -39.459  28.792  1.00  0.00     0.053 C 
HETATM    2  C5  UNL     1      35.023 -40.318  27.942  1.00  0.00     0.034 C 
HETATM    3 CL1  UNL     1      35.900 -41.779  27.560  1.00  0.00    -0.088 Cl
HETATM    4  C6  UNL     1      33.712 -40.121  27.280  1.00  0.00     0.155 C 
HETATM    5  C7  UNL     1      32.844 -39.212  28.070  1.00  0.00     0.224 C 
HETATM    6  O3  UNL     1      31.581 -39.334  28.088  1.00  0.00    -0.273 OA
HETATM    7  N1  UNL     1      33.483 -38.187  28.816  1.00  0.00    -0.352 N 
HETATM    8  C8  UNL     1      32.688 -37.058  29.254  1.00  0.00     0.152 C 
HETATM    9  C9  UNL     1      34.877 -38.193  29.171  1.00  0.00     0.171 C 
ENDROOT
BRANCH   1  10
HETATM   10  C3  UNL     1      36.853 -39.716  29.409  1.00  0.00     0.292 C 
HETATM   11  O2  UNL     1      36.997 -40.494  30.381  1.00  0.00    -0.259 OA
BRANCH  10  12
HETATM   12  O1  UNL     1      37.980 -39.080  28.911  1.00  0.00    -0.318 OA
BRANCH  12  13
HETATM   13  C2  UNL     1      39.229 -39.378  29.479  1.00  0.00     0.174 C 
HETATM   14  C1  UNL     1      40.014 -38.155  29.865  1.00  0.00     0.034 C 
ENDBRANCH  12  13
ENDBRANCH  10  12
ENDBRANCH   1  10
TORSDOF 3
ENDMDL
