MODEL 4
REMARK VINA RESULT: -5.023847987      2.305      3.032
REMARK  3 active torsions:
REMARK  status: ('A' for Active; 'I' for Inactive)
REMARK    1  A    between atoms: C2_2  and  O1_3 
REMARK    2  A    between atoms: O1_3  and  C3_4 
REMARK    3  A    between atoms: C3_4  and  C4_6 
ROOT
HETATM    1  C4  UNL     1      35.457 -39.893  28.667  1.00  0.00     0.053 C 
HETATM    2  C5  UNL     1      35.673 -40.609  27.579  1.00  0.00     0.034 C 
HETATM    3 CL1  UNL     1      34.401 -40.735  26.387  1.00  0.00    -0.088 Cl
HETATM    4  C6  UNL     1      36.939 -41.326  27.297  1.00  0.00     0.155 C 
HETATM    5  C7  UNL     1      38.076 -40.710  28.025  1.00  0.00     0.224 C 
HETATM    6  O3  UNL     1      39.255 -40.703  27.554  1.00  0.00    -0.273 OA
HETATM    7  N1  UNL     1      37.798 -40.119  29.287  1.00  0.00    -0.352 N 
HETATM    8  C8  UNL     1      38.903 -39.884  30.194  1.00  0.00     0.152 C 
HETATM    9  C9  UNL     1      36.485 -39.734  29.729  1.00  0.00     0.171 C 
ENDROOT
BRANCH   1  10
HETATM   10  C3  UNL     1      34.185 -39.212  28.882  1.00  0.00     0.292 C 
HETATM   11  O2  UNL     1      33.081 -39.799  28.793  1.00  0.00    -0.259 OA
BRANCH  10  12
HETATM   12  O1  UNL     1      34.180 -37.863  29.198  1.00  0.00    -0.318 OA
BRANCH  12  13
HETATM   13  C2  UNL     1      32.971 -37.154  29.116  1.00  0.00     0.174 C 
HETATM   14  C1  UNL     1      33.155 -35.700  28.781  1.00  0.00     0.034 C 
ENDBRANCH  12  13
ENDBRANCH  10  12
ENDBRANCH   1  10
TORSDOF 3
ENDMDL
