MODEL 7
REMARK VINA RESULT: -4.750385010      3.014      5.428
REMARK  3 active torsions:
REMARK  status: ('A' for Active; 'I' for Inactive)
REMARK    1  A    between atoms: C2_2  and  O1_3 
REMARK    2  A    between atoms: O1_3  and  C3_4 
REMARK    3  A    between atoms: C3_4  and  C4_6 
ROOT
HETATM    1  C4  UNL     1      36.777 -40.579  28.500  1.00  0.00     0.053 C 
HETATM    2  C5  UNL     1      36.131 -41.302  27.604  1.00  0.00     0.034 C 
HETATM    3 CL1  UNL     1      36.871 -42.770  27.014  1.00  0.00    -0.088 Cl
HETATM    4  C6  UNL     1      34.800 -40.947  27.056  1.00  0.00     0.155 C 
HETATM    5  C7  UNL     1      34.052 -40.072  27.993  1.00  0.00     0.224 C 
HETATM    6  O3  UNL     1      32.786 -40.109  28.084  1.00  0.00    -0.273 OA
HETATM    7  N1  UNL     1      34.810 -39.180  28.797  1.00  0.00    -0.352 N 
HETATM    8  C8  UNL     1      34.128 -38.052  29.402  1.00  0.00     0.152 C 
HETATM    9  C9  UNL     1      36.218 -39.318  29.054  1.00  0.00     0.171 C 
ENDROOT
BRANCH   1  10
HETATM   10  C3  UNL     1      38.086 -40.987  28.998  1.00  0.00     0.292 C 
HETATM   11  O2  UNL     1      38.237 -41.937  29.802  1.00  0.00    -0.259 OA
BRANCH  10  12
HETATM   12  O1  UNL     1      39.216 -40.308  28.573  1.00  0.00    -0.318 OA
BRANCH  12  13
HETATM   13  C2  UNL     1      39.626 -40.446  27.237  1.00  0.00     0.174 C 
HETATM   14  C1  UNL     1      39.293 -39.253  26.386  1.00  0.00     0.034 C 
ENDBRANCH  12  13
ENDBRANCH  10  12
ENDBRANCH   1  10
TORSDOF 3
ENDMDL
