MODEL 1
REMARK VINA RESULT: -5.262402930      0.000      0.000
REMARK  3 active torsions:
REMARK  status: ('A' for Active; 'I' for Inactive)
REMARK    1  A    between atoms: C2_2  and  O1_3 
REMARK    2  A    between atoms: O1_3  and  C3_4 
REMARK    3  A    between atoms: C3_4  and  C4_6 
ROOT
HETATM    1  C4  UNL     1      33.205 -38.170  28.833  1.00  0.00     0.053 C 
HETATM    2  C5  UNL     1      32.680 -39.174  28.156  1.00  0.00     0.034 C 
HETATM    3 CL1  UNL     1      31.065 -39.002  27.512  1.00  0.00    -0.088 Cl
HETATM    4  C6  UNL     1      33.377 -40.457  27.903  1.00  0.00     0.155 C 
HETATM    5  C7  UNL     1      34.850 -40.288  27.968  1.00  0.00     0.224 C 
HETATM    6  O3  UNL     1      35.640 -40.981  27.257  1.00  0.00    -0.273 OA
HETATM    7  N1  UNL     1      35.354 -39.309  28.866  1.00  0.00    -0.352 N 
HETATM    8  C8  UNL     1      36.746 -39.391  29.261  1.00  0.00     0.152 C 
HETATM    9  C9  UNL     1      34.571 -38.234  29.414  1.00  0.00     0.171 C 
ENDROOT
BRANCH   1  10
HETATM   10  C3  UNL     1      32.462 -36.933  29.046  1.00  0.00     0.292 C 
HETATM   11  O2  UNL     1      31.484 -36.858  29.827  1.00  0.00    -0.259 OA
BRANCH  10  12
HETATM   12  O1  UNL     1      32.841 -35.787  28.365  1.00  0.00    -0.318 OA
BRANCH  12  13
HETATM   13  C2  UNL     1      33.428 -34.735  29.088  1.00  0.00     0.174 C 
HETATM   14  C1  UNL     1      34.874 -34.512  28.744  1.00  0.00     0.034 C 
ENDBRANCH  12  13
ENDBRANCH  10  12
ENDBRANCH   1  10
TORSDOF 3
ENDMDL
