MODEL 3
REMARK VINA RESULT: -5.046743223      3.172      4.880
REMARK  3 active torsions:
REMARK  status: ('A' for Active; 'I' for Inactive)
REMARK    1  A    between atoms: C2_2  and  O1_3 
REMARK    2  A    between atoms: O1_3  and  C3_4 
REMARK    3  A    between atoms: C3_4  and  C4_6 
ROOT
HETATM    1  C4  UNL     1      36.411 -39.720  28.827  1.00  0.00     0.053 C 
HETATM    2  C5  UNL     1      36.234 -40.519  27.792  1.00  0.00     0.034 C 
HETATM    3 CL1  UNL     1      37.528 -41.600  27.332  1.00  0.00    -0.088 Cl
HETATM    4  C6  UNL     1      34.994 -40.562  26.980  1.00  0.00     0.155 C 
HETATM    5  C7  UNL     1      33.828 -40.077  27.759  1.00  0.00     0.224 C 
HETATM    6  O3  UNL     1      32.658 -40.532  27.574  1.00  0.00    -0.273 OA
HETATM    7  N1  UNL     1      34.068 -39.072  28.734  1.00  0.00    -0.352 N 
HETATM    8  C8  UNL     1      32.942 -38.295  29.212  1.00  0.00     0.152 C 
HETATM    9  C9  UNL     1      35.362 -38.771  29.285  1.00  0.00     0.171 C 
ENDROOT
BRANCH   1  10
HETATM   10  C3  UNL     1      37.659 -39.729  29.583  1.00  0.00     0.292 C 
HETATM   11  O2  UNL     1      37.931 -40.615  30.427  1.00  0.00    -0.259 OA
BRANCH  10  12
HETATM   12  O1  UNL     1      38.589 -38.724  29.371  1.00  0.00    -0.318 OA
BRANCH  12  13
HETATM   13  C2  UNL     1      39.573 -38.912  28.388  1.00  0.00     0.174 C 
HETATM   14  C1  UNL     1      39.227 -38.278  27.070  1.00  0.00     0.034 C 
ENDBRANCH  12  13
ENDBRANCH  10  12
ENDBRANCH   1  10
TORSDOF 3
ENDMDL
