MODEL 2
REMARK VINA RESULT: -5.115134023      2.422      3.315
REMARK  3 active torsions:
REMARK  status: ('A' for Active; 'I' for Inactive)
REMARK    1  A    between atoms: C2_2  and  O1_3 
REMARK    2  A    between atoms: O1_3  and  C3_4 
REMARK    3  A    between atoms: C3_4  and  C4_6 
ROOT
HETATM    1  C4  UNL     1      33.497 -35.950  28.876  1.00  0.00     0.053 C 
HETATM    2  C5  UNL     1      32.181 -35.905  28.783  1.00  0.00     0.034 C 
HETATM    3 CL1  UNL     1      31.407 -34.360  28.524  1.00  0.00    -0.088 Cl
HETATM    4  C6  UNL     1      31.302 -37.094  28.887  1.00  0.00     0.155 C 
HETATM    5  C7  UNL     1      32.036 -38.334  28.531  1.00  0.00     0.224 C 
HETATM    6  O3  UNL     1      31.462 -39.322  27.977  1.00  0.00    -0.273 OA
HETATM    7  N1  UNL     1      33.422 -38.381  28.836  1.00  0.00    -0.352 N 
HETATM    8  C8  UNL     1      34.071 -39.675  28.890  1.00  0.00     0.152 C 
HETATM    9  C9  UNL     1      34.233 -37.222  29.096  1.00  0.00     0.171 C 
ENDROOT
BRANCH   1  10
HETATM   10  C3  UNL     1      34.303 -34.739  28.766  1.00  0.00     0.292 C 
HETATM   11  O2  UNL     1      34.398 -33.903  29.695  1.00  0.00    -0.259 OA
BRANCH  10  12
HETATM   12  O1  UNL     1      34.997 -34.489  27.592  1.00  0.00    -0.318 OA
BRANCH  12  13
HETATM   13  C2  UNL     1      34.525 -33.487  26.729  1.00  0.00     0.174 C 
HETATM   14  C1  UNL     1      33.671 -34.017  25.612  1.00  0.00     0.034 C 
ENDBRANCH  12  13
ENDBRANCH  10  12
ENDBRANCH   1  10
TORSDOF 3
ENDMDL
