MODEL 4
REMARK VINA RESULT: -5.575890348      0.927      5.462
REMARK  4 active torsions:
REMARK  status: ('A' for Active; 'I' for Inactive)
REMARK    1  A    between atoms: C2_2  and  C3_3 
REMARK    2  A    between atoms: C3_3  and  C4_5 
REMARK    3  A    between atoms: C6_9  and  C7_10 
REMARK    4  A    between atoms: C7_10  and  O3_12 
ROOT
HETATM    1  C4  UNL     1    -109.696  44.133  28.848  1.00  0.00     0.027 A 
HETATM    2  C5  UNL     1    -108.652  44.462  29.699  1.00  0.00     0.103 A 
HETATM    3  N1  UNL     1    -107.636  43.609  29.486  1.00  0.00    -0.360 N 
ATOM      4  H1  UNL     1    -106.742  43.622  29.976  1.00  0.00     0.165 HD
HETATM    5  C6  UNL     1    -107.987  42.735  28.524  1.00  0.00     0.109 A 
HETATM    6  C9  UNL     1    -109.263  43.061  28.132  1.00  0.00     0.052 A 
ENDROOT
BRANCH   1   7
HETATM    7  C3  UNL     1    -110.989  44.762  28.714  1.00  0.00     0.160 C 
HETATM    8  O1  UNL     1    -111.886  44.260  27.997  1.00  0.00    -0.292 OA
BRANCH   7   9
HETATM    9  C2  UNL     1    -111.290  46.026  29.424  1.00  0.00     0.079 C 
HETATM   10  C1  UNL     1    -110.828  47.237  28.689  1.00  0.00     0.013 C 
ENDBRANCH   7   9
ENDBRANCH   1   7
BRANCH   5  11
HETATM   11  C7  UNL     1    -107.219  41.640  27.967  1.00  0.00     0.309 C 
HETATM   12  O2  UNL     1    -106.026  41.502  28.294  1.00  0.00    -0.258 OA
BRANCH  11  13
HETATM   13  O3  UNL     1    -107.783  40.755  27.084  1.00  0.00    -0.321 OA
HETATM   14  C8  UNL     1    -107.594  39.374  27.301  1.00  0.00     0.213 C 
ENDBRANCH  11  13
ENDBRANCH   5  11
TORSDOF 4
ENDMDL
