MODEL 3
REMARK VINA RESULT: -5.618724339      1.265      5.309
REMARK  4 active torsions:
REMARK  status: ('A' for Active; 'I' for Inactive)
REMARK    1  A    between atoms: C2_2  and  C3_3 
REMARK    2  A    between atoms: C3_3  and  C4_5 
REMARK    3  A    between atoms: C6_9  and  C7_10 
REMARK    4  A    between atoms: C7_10  and  O3_12 
ROOT
HETATM    1  C4  UNL     1    -109.830  44.334  28.858  1.00  0.00     0.027 A 
HETATM    2  C5  UNL     1    -108.812  44.586  29.765  1.00  0.00     0.103 A 
HETATM    3  N1  UNL     1    -107.805  43.729  29.534  1.00  0.00    -0.360 N 
ATOM      4  H1  UNL     1    -106.929  43.693  30.055  1.00  0.00     0.165 HD
HETATM    5  C6  UNL     1    -108.135  42.925  28.505  1.00  0.00     0.109 A 
HETATM    6  C9  UNL     1    -109.390  43.302  28.089  1.00  0.00     0.052 A 
ENDROOT
BRANCH   1   7
HETATM    7  C3  UNL     1    -111.106  44.996  28.718  1.00  0.00     0.160 C 
HETATM    8  O1  UNL     1    -112.015  44.514  28.003  1.00  0.00    -0.292 OA
BRANCH   7   9
HETATM    9  C2  UNL     1    -111.375  46.270  29.422  1.00  0.00     0.079 C 
HETATM   10  C1  UNL     1    -110.768  47.453  28.748  1.00  0.00     0.013 C 
ENDBRANCH   7   9
ENDBRANCH   1   7
BRANCH   5  11
HETATM   11  C7  UNL     1    -107.366  41.854  27.905  1.00  0.00     0.309 C 
HETATM   12  O2  UNL     1    -107.526  40.688  28.307  1.00  0.00    -0.258 OA
BRANCH  11  13
HETATM   13  O3  UNL     1    -106.463  42.105  26.902  1.00  0.00    -0.321 OA
HETATM   14  C8  UNL     1    -105.323  42.880  27.200  1.00  0.00     0.213 C 
ENDBRANCH  11  13
ENDBRANCH   5  11
TORSDOF 4
ENDMDL
