MODEL 5
REMARK VINA RESULT: -5.482950338      1.161      5.458
REMARK  4 active torsions:
REMARK  status: ('A' for Active; 'I' for Inactive)
REMARK    1  A    between atoms: C2_2  and  C3_3 
REMARK    2  A    between atoms: C3_3  and  C4_5 
REMARK    3  A    between atoms: C6_9  and  C7_10 
REMARK    4  A    between atoms: C7_10  and  O3_12 
ROOT
HETATM    1  C4  UNL     1    -109.749  44.225  28.855  1.00  0.00     0.027 A 
HETATM    2  C5  UNL     1    -108.724  44.524  29.739  1.00  0.00     0.103 A 
HETATM    3  N1  UNL     1    -107.694  43.696  29.503  1.00  0.00    -0.360 N 
ATOM      4  H1  UNL     1    -106.808  43.696  30.009  1.00  0.00     0.165 HD
HETATM    5  C6  UNL     1    -108.016  42.866  28.493  1.00  0.00     0.109 A 
HETATM    6  C9  UNL     1    -109.290  43.195  28.094  1.00  0.00     0.052 A 
ENDROOT
BRANCH   1   7
HETATM    7  C3  UNL     1    -111.048  44.842  28.729  1.00  0.00     0.160 C 
HETATM    8  O1  UNL     1    -111.964  44.304  28.064  1.00  0.00    -0.292 OA
BRANCH   7   9
HETATM    9  C2  UNL     1    -111.333  46.139  29.386  1.00  0.00     0.079 C 
HETATM   10  C1  UNL     1    -110.691  47.297  28.703  1.00  0.00     0.013 C 
ENDBRANCH   7   9
ENDBRANCH   1   7
BRANCH   5  11
HETATM   11  C7  UNL     1    -107.223  41.810  27.896  1.00  0.00     0.309 C 
HETATM   12  O2  UNL     1    -107.512  41.399  26.757  1.00  0.00    -0.258 OA
BRANCH  11  13
HETATM   13  O3  UNL     1    -106.161  41.256  28.564  1.00  0.00    -0.321 OA
HETATM   14  C8  UNL     1    -105.550  40.105  28.023  1.00  0.00     0.213 C 
ENDBRANCH  11  13
ENDBRANCH   5  11
TORSDOF 4
ENDMDL
