MODEL 11
REMARK VINA RESULT: -8.258968598      2.587      8.204
REMARK  5 active torsions:
REMARK  status: ('A' for Active; 'I' for Inactive)
REMARK    1  A    between atoms: C1_2  and  C2_3 
REMARK       I    between atoms: C1_2  and  N1_5 
REMARK    2  A    between atoms: N1_5  and  C3_7 
REMARK    3  A    between atoms: C7_11  and  N2_12 
REMARK    4  A    between atoms: N2_12  and  C8_14 
REMARK    5  A    between atoms: C10_16  and  O2_17 
ROOT
HETATM    1  C3  UNL     1      -0.400  44.322 -11.365  1.00  0.00     0.036 A 
HETATM    2  C4  UNL     1      -0.181  45.517 -11.982  1.00  0.00     0.030 A 
HETATM    3  C5  UNL     1       0.690  46.471 -11.494  1.00  0.00     0.020 A 
HETATM    4  C6  UNL     1       1.390  46.226 -10.321  1.00  0.00     0.035 A 
HETATM    5  C7  UNL     1       2.274  47.160  -9.802  1.00  0.00     0.119 A 
HETATM    6  N3  UNL     1       2.897  46.832  -8.673  1.00  0.00    -0.338 N 
ATOM      7  H3  UNL     1       3.551  47.508  -8.277  1.00  0.00     0.168 HD
HETATM    8  C14 UNL     1       2.727  45.682  -8.023  1.00  0.00     0.182 A 
HETATM    9  N4  UNL     1       1.873  44.784  -8.530  1.00  0.00    -0.351 N 
ATOM     10  H4  UNL     1       1.734  43.899  -8.042  1.00  0.00     0.166 HD
HETATM   11  C15 UNL     1       1.186  45.024  -9.679  1.00  0.00     0.049 A 
HETATM   12  C16 UNL     1       0.323  44.100 -10.179  1.00  0.00     0.060 A 
ENDROOT
BRANCH   5  13
HETATM   13  N2  UNL     1       2.488  48.397 -10.457  1.00  0.00    -0.340 N 
ATOM     14  H2  UNL     1       3.084  48.371 -11.284  1.00  0.00     0.167 HD
BRANCH  13  15
HETATM   15  C8  UNL     1       1.977  49.651 -10.101  1.00  0.00     0.058 A 
HETATM   16  C9  UNL     1       0.734  50.074 -10.454  1.00  0.00     0.067 A 
HETATM   17  C10 UNL     1       0.293  51.346 -10.060  1.00  0.00     0.068 A 
HETATM   18  C11 UNL     1       1.065  52.210  -9.321  1.00  0.00     0.038 A 
HETATM   19  C12 UNL     1       2.324  51.772  -8.968  1.00  0.00     0.029 A 
HETATM   20  C13 UNL     1       2.777  50.526  -9.345  1.00  0.00     0.060 A 
HETATM   21 CL2  UNL     1       4.388  50.055  -8.852  1.00  0.00    -0.082 Cl
BRANCH  17  22
HETATM   22  O2  UNL     1      -0.992  51.707 -10.460  1.00  0.00    -0.361 OA
ATOM     23  H2  UNL     1      -1.544  52.105  -9.797  1.00  0.00     0.217 HD
ENDBRANCH  17  22
ENDBRANCH  13  15
ENDBRANCH   5  13
BRANCH   1  24
HETATM   24  N1  UNL     1      -1.283  43.300 -11.798  1.00  0.00    -0.326 N 
HETATM   25  C1  UNL     1      -2.652  43.452 -12.097  1.00  0.00     0.235 C 
HETATM   26  O1  UNL     1      -3.187  44.573 -11.982  1.00  0.00    -0.272 OA
ATOM     27  H1  UNL     1      -0.890  42.365 -11.905  1.00  0.00     0.169 HD
BRANCH  25  28
HETATM   28  C2  UNL     1      -3.477  42.260 -12.556  1.00  0.00     0.217 C 
HETATM   29 CL1  UNL     1      -2.791  41.545 -14.004  1.00  0.00    -0.121 Cl
ENDBRANCH  25  28
ENDBRANCH   1  24
TORSDOF 5
ENDMDL
