MODEL 9
REMARK VINA RESULT: -8.555036768      3.343      5.350
REMARK  5 active torsions:
REMARK  status: ('A' for Active; 'I' for Inactive)
REMARK    1  A    between atoms: C1_2  and  C2_3 
REMARK       I    between atoms: C1_2  and  N1_5 
REMARK    2  A    between atoms: N1_5  and  C3_7 
REMARK    3  A    between atoms: C7_11  and  N2_12 
REMARK    4  A    between atoms: N2_12  and  C8_14 
REMARK    5  A    between atoms: C10_16  and  O2_17 
ROOT
HETATM    1  C3  UNL     1       2.199  44.704 -11.246  1.00  0.00     0.036 A 
HETATM    2  C4  UNL     1       1.089  43.975 -11.549  1.00  0.00     0.030 A 
HETATM    3  C5  UNL     1      -0.156  44.542 -11.748  1.00  0.00     0.020 A 
HETATM    4  C6  UNL     1      -0.310  45.917 -11.641  1.00  0.00     0.035 A 
HETATM    5  C7  UNL     1      -1.542  46.520 -11.836  1.00  0.00     0.119 A 
HETATM    6  N3  UNL     1      -1.588  47.845 -11.712  1.00  0.00    -0.338 N 
ATOM      7  H3  UNL     1      -2.488  48.304 -11.851  1.00  0.00     0.168 HD
HETATM    8  C14 UNL     1      -0.540  48.611 -11.418  1.00  0.00     0.182 A 
HETATM    9  N4  UNL     1       0.648  48.023 -11.232  1.00  0.00    -0.351 N 
ATOM     10  H4  UNL     1       1.459  48.599 -11.007  1.00  0.00     0.166 HD
HETATM   11  C15 UNL     1       0.800  46.675 -11.337  1.00  0.00     0.049 A 
HETATM   12  C16 UNL     1       2.015  46.095 -11.144  1.00  0.00     0.060 A 
ENDROOT
BRANCH   5  13
HETATM   13  N2  UNL     1      -2.686  45.746 -12.149  1.00  0.00    -0.340 N 
ATOM     14  H2  UNL     1      -3.589  46.205 -12.024  1.00  0.00     0.167 HD
BRANCH  13  15
HETATM   15  C8  UNL     1      -2.724  44.426 -12.612  1.00  0.00     0.058 A 
HETATM   16  C9  UNL     1      -2.938  43.358 -11.797  1.00  0.00     0.067 A 
HETATM   17  C10 UNL     1      -2.961  42.064 -12.335  1.00  0.00     0.068 A 
HETATM   18  C11 UNL     1      -2.773  41.805 -13.673  1.00  0.00     0.038 A 
HETATM   19  C12 UNL     1      -2.557  42.894 -14.491  1.00  0.00     0.029 A 
HETATM   20  C13 UNL     1      -2.530  44.175 -13.982  1.00  0.00     0.060 A 
HETATM   21 CL2  UNL     1      -2.249  45.494 -15.096  1.00  0.00    -0.082 Cl
BRANCH  17  22
HETATM   22  O2  UNL     1      -3.187  41.023 -11.436  1.00  0.00    -0.361 OA
ATOM     23  H2  UNL     1      -2.463  40.424 -11.294  1.00  0.00     0.217 HD
ENDBRANCH  17  22
ENDBRANCH  13  15
ENDBRANCH   5  13
BRANCH   1  24
HETATM   24  N1  UNL     1       3.504  44.196 -11.018  1.00  0.00    -0.326 N 
HETATM   25  C1  UNL     1       3.971  43.602  -9.829  1.00  0.00     0.235 C 
HETATM   26  O1  UNL     1       3.204  43.493  -8.852  1.00  0.00    -0.272 OA
ATOM     27  H1  UNL     1       4.167  44.266 -11.790  1.00  0.00     0.169 HD
BRANCH  25  28
HETATM   28  C2  UNL     1       5.402  43.097  -9.731  1.00  0.00     0.217 C 
HETATM   29 CL1  UNL     1       5.674  41.769 -10.845  1.00  0.00    -0.121 Cl
ENDBRANCH  25  28
ENDBRANCH   1  24
TORSDOF 5
ENDMDL
