MODEL 2
REMARK VINA RESULT: -9.718123926      1.848      2.469
REMARK  5 active torsions:
REMARK  status: ('A' for Active; 'I' for Inactive)
REMARK    1  A    between atoms: C1_2  and  C2_3 
REMARK       I    between atoms: C1_2  and  N1_5 
REMARK    2  A    between atoms: N1_5  and  C3_7 
REMARK    3  A    between atoms: C7_11  and  N2_12 
REMARK    4  A    between atoms: N2_12  and  C8_14 
REMARK    5  A    between atoms: C10_16  and  O2_17 
ROOT
HETATM    1  C3  UNL     1       1.232  49.718 -10.389  1.00  0.00     0.036 A 
HETATM    2  C4  UNL     1       1.717  48.621 -11.035  1.00  0.00     0.030 A 
HETATM    3  C5  UNL     1       0.907  47.621 -11.537  1.00  0.00     0.020 A 
HETATM    4  C6  UNL     1      -0.471  47.713 -11.391  1.00  0.00     0.035 A 
HETATM    5  C7  UNL     1      -1.313  46.730 -11.883  1.00  0.00     0.119 A 
HETATM    6  N3  UNL     1      -2.619  46.909 -11.693  1.00  0.00    -0.338 N 
ATOM      7  H3  UNL     1      -3.253  46.193 -12.049  1.00  0.00     0.168 HD
HETATM    8  C14 UNL     1      -3.153  47.957 -11.071  1.00  0.00     0.182 A 
HETATM    9  N4  UNL     1      -2.334  48.905 -10.599  1.00  0.00    -0.351 N 
ATOM     10  H4  UNL     1      -2.731  49.714 -10.121  1.00  0.00     0.166 HD
HETATM   11  C15 UNL     1      -0.984  48.815 -10.742  1.00  0.00     0.049 A 
HETATM   12  C16 UNL     1      -0.167  49.787 -10.255  1.00  0.00     0.060 A 
ENDROOT
BRANCH   5  13
HETATM   13  N2  UNL     1      -0.791  45.595 -12.552  1.00  0.00    -0.340 N 
ATOM     14  H2  UNL     1       0.182  45.657 -12.850  1.00  0.00     0.167 HD
BRANCH  13  15
HETATM   15  C8  UNL     1      -1.455  44.400 -12.851  1.00  0.00     0.058 A 
HETATM   16  C9  UNL     1      -1.474  43.330 -12.013  1.00  0.00     0.067 A 
HETATM   17  C10 UNL     1      -2.161  42.165 -12.384  1.00  0.00     0.068 A 
HETATM   18  C11 UNL     1      -2.834  42.041 -13.576  1.00  0.00     0.038 A 
HETATM   19  C12 UNL     1      -2.809  43.131 -14.420  1.00  0.00     0.029 A 
HETATM   20  C13 UNL     1      -2.139  44.285 -14.074  1.00  0.00     0.060 A 
HETATM   21 CL2  UNL     1      -2.162  45.617 -15.208  1.00  0.00    -0.082 Cl
BRANCH  17  22
HETATM   22  O2  UNL     1      -2.135  41.113 -11.471  1.00  0.00    -0.361 OA
ATOM     23  H2  UNL     1      -2.082  40.238 -11.837  1.00  0.00     0.217 HD
ENDBRANCH  17  22
ENDBRANCH  13  15
ENDBRANCH   5  13
BRANCH   1  24
HETATM   24  N1  UNL     1       1.997  50.778  -9.839  1.00  0.00    -0.326 N 
HETATM   25  C1  UNL     1       2.845  50.699  -8.717  1.00  0.00     0.235 C 
HETATM   26  O1  UNL     1       2.967  49.615  -8.111  1.00  0.00    -0.272 OA
ATOM     27  H1  UNL     1       1.928  51.685 -10.300  1.00  0.00     0.169 HD
BRANCH  25  28
HETATM   28  C2  UNL     1       3.610  51.924  -8.240  1.00  0.00     0.217 C 
HETATM   29 CL1  UNL     1       2.523  53.099  -7.521  1.00  0.00    -0.121 Cl
ENDBRANCH  25  28
ENDBRANCH   1  24
TORSDOF 5
ENDMDL
