MODEL 10
REMARK VINA RESULT: -8.264161175      3.358      8.155
REMARK  5 active torsions:
REMARK  status: ('A' for Active; 'I' for Inactive)
REMARK    1  A    between atoms: C1_2  and  C2_3 
REMARK       I    between atoms: C1_2  and  N1_5 
REMARK    2  A    between atoms: N1_5  and  C3_7 
REMARK    3  A    between atoms: C7_11  and  N2_12 
REMARK    4  A    between atoms: N2_12  and  C8_14 
REMARK    5  A    between atoms: C10_16  and  O2_17 
ROOT
HETATM    1  C3  UNL     1      -1.290  46.521 -11.762  1.00  0.00     0.036 A 
HETATM    2  C4  UNL     1       0.060  46.351 -11.700  1.00  0.00     0.030 A 
HETATM    3  C5  UNL     1       0.930  47.349 -11.306  1.00  0.00     0.020 A 
HETATM    4  C6  UNL     1       0.432  48.594 -10.949  1.00  0.00     0.035 A 
HETATM    5  C7  UNL     1       1.274  49.618 -10.548  1.00  0.00     0.119 A 
HETATM    6  N3  UNL     1       0.701  50.776 -10.226  1.00  0.00    -0.338 N 
ATOM      7  H3  UNL     1       1.307  51.540  -9.929  1.00  0.00     0.168 HD
HETATM    8  C14 UNL     1      -0.610  51.004 -10.266  1.00  0.00     0.182 A 
HETATM    9  N4  UNL     1      -1.419  50.010 -10.653  1.00  0.00    -0.351 N 
ATOM     10  H4  UNL     1      -2.426  50.173 -10.687  1.00  0.00     0.166 HD
HETATM   11  C15 UNL     1      -0.931  48.790 -11.003  1.00  0.00     0.049 A 
HETATM   12  C16 UNL     1      -1.768  47.792 -11.395  1.00  0.00     0.060 A 
ENDROOT
BRANCH   5  13
HETATM   13  N2  UNL     1       2.676  49.423 -10.491  1.00  0.00    -0.340 N 
ATOM     14  H2  UNL     1       3.177  49.491 -11.377  1.00  0.00     0.167 HD
BRANCH  13  15
HETATM   15  C8  UNL     1       3.454  49.149  -9.360  1.00  0.00     0.058 A 
HETATM   16  C9  UNL     1       3.439  49.923  -8.242  1.00  0.00     0.067 A 
HETATM   17  C10 UNL     1       4.249  49.584  -7.148  1.00  0.00     0.068 A 
HETATM   18  C11 UNL     1       5.078  48.487  -7.142  1.00  0.00     0.038 A 
HETATM   19  C12 UNL     1       5.087  47.709  -8.281  1.00  0.00     0.029 A 
HETATM   20  C13 UNL     1       4.299  48.025  -9.367  1.00  0.00     0.060 A 
HETATM   21 CL2  UNL     1       4.375  46.980 -10.767  1.00  0.00    -0.082 Cl
BRANCH  17  22
HETATM   22  O2  UNL     1       4.177  50.425  -6.040  1.00  0.00    -0.361 OA
ATOM     23  H2  UNL     1       3.505  50.222  -5.400  1.00  0.00     0.217 HD
ENDBRANCH  17  22
ENDBRANCH  13  15
ENDBRANCH   5  13
BRANCH   1  24
HETATM   24  N1  UNL     1      -2.244  45.551 -12.165  1.00  0.00    -0.326 N 
HETATM   25  C1  UNL     1      -2.165  44.163 -11.940  1.00  0.00     0.235 C 
HETATM   26  O1  UNL     1      -1.182  43.690 -11.337  1.00  0.00    -0.272 OA
ATOM     27  H1  UNL     1      -3.066  45.892 -12.664  1.00  0.00     0.169 HD
BRANCH  25  28
HETATM   28  C2  UNL     1      -3.271  43.240 -12.429  1.00  0.00     0.217 C 
HETATM   29 CL1  UNL     1      -2.644  42.061 -13.568  1.00  0.00    -0.121 Cl
ENDBRANCH  25  28
ENDBRANCH   1  24
TORSDOF 5
ENDMDL
