MODEL 2
REMARK VINA RESULT: -7.194302623      1.176      1.824
REMARK  5 active torsions:
REMARK  status: ('A' for Active; 'I' for Inactive)
REMARK    1  A    between atoms: N1_1  and  S1_4 
REMARK    2  A    between atoms: S1_4  and  C1_7 
REMARK    3  A    between atoms: C4_10  and  S2_11 
REMARK    4  A    between atoms: S2_11  and  C5_12 
REMARK    5  A    between atoms: C5_12  and  C6_13 
ROOT
HETATM    1  C1  UNL     1      -5.113   2.817  16.028  1.00  0.00     0.199 C 
HETATM    2  C2  UNL     1      -6.244   3.250  15.212  1.00  0.00     0.062 C 
HETATM    3  C3  UNL     1      -5.841   3.740  13.913  1.00  0.00     0.001 C 
HETATM    4  C4  UNL     1      -4.604   4.053  13.704  1.00  0.00     0.034 C 
HETATM    5  S3  UNL     1      -3.709   3.649  15.244  1.00  0.00    -0.101 SA
ENDROOT
BRANCH   4   6
HETATM    6  S2  UNL     1      -3.784   4.672  12.269  1.00  0.00    -0.119 SA
BRANCH   6   7
HETATM    7  C5  UNL     1      -4.194   3.721  10.812  1.00  0.00     0.118 C 
BRANCH   7   8
HETATM    8  C6  UNL     1      -3.845   2.296  10.963  1.00  0.00    -0.049 A 
HETATM    9  C7  UNL     1      -4.907   1.390  11.048  1.00  0.00     0.009 A 
HETATM   10  C8  UNL     1      -4.628   0.064  11.166  1.00  0.00     0.024 A 
HETATM   11  C9  UNL     1      -3.325  -0.359  11.200  1.00  0.00     0.034 A 
HETATM   12 CL1  UNL     1      -2.971  -2.069  11.353  1.00  0.00    -0.084 Cl
HETATM   13  C10 UNL     1      -2.292   0.524  11.117  1.00  0.00     0.024 A 
HETATM   14  C11 UNL     1      -2.547   1.881  10.995  1.00  0.00     0.009 A 
ENDBRANCH   7   8
ENDBRANCH   6   7
ENDBRANCH   4   6
BRANCH   1  15
HETATM   15  S1  UNL     1      -4.837   1.055  16.029  1.00  0.00     0.238 S 
HETATM   16  O1  UNL     1      -5.200   0.490  14.684  1.00  0.00    -0.205 OA
HETATM   17  O2  UNL     1      -3.379   0.791  16.344  1.00  0.00    -0.205 OA
BRANCH  15  18
HETATM   18  N1  UNL     1      -5.819   0.343  17.231  1.00  0.00    -0.327 N 
ATOM     19  H12 UNL     1      -5.959  -0.662  17.342  1.00  0.00     0.168 HD
ATOM     20  H11 UNL     1      -6.235   1.075  17.808  1.00  0.00     0.168 HD
ENDBRANCH  15  18
ENDBRANCH   1  15
TORSDOF 5
ENDMDL
