MODEL 3
REMARK VINA RESULT: -7.165869878      1.196      1.450
REMARK  5 active torsions:
REMARK  status: ('A' for Active; 'I' for Inactive)
REMARK    1  A    between atoms: N1_1  and  S1_4 
REMARK    2  A    between atoms: S1_4  and  C1_7 
REMARK    3  A    between atoms: C4_10  and  S2_11 
REMARK    4  A    between atoms: S2_11  and  C5_12 
REMARK    5  A    between atoms: C5_12  and  C6_13 
ROOT
HETATM    1  C1  UNL     1      -5.150   2.832  16.015  1.00  0.00     0.199 C 
HETATM    2  C2  UNL     1      -6.266   3.251  15.171  1.00  0.00     0.062 C 
HETATM    3  C3  UNL     1      -5.839   3.743  13.882  1.00  0.00     0.001 C 
HETATM    4  C4  UNL     1      -4.600   4.070  13.702  1.00  0.00     0.034 C 
HETATM    5  S3  UNL     1      -3.737   3.678  15.262  1.00  0.00    -0.101 SA
ENDROOT
BRANCH   4   6
HETATM    6  S2  UNL     1      -3.754   4.696  12.285  1.00  0.00    -0.119 SA
BRANCH   6   7
HETATM    7  C5  UNL     1      -4.195   3.801  10.802  1.00  0.00     0.118 C 
BRANCH   7   8
HETATM    8  C6  UNL     1      -3.940   2.354  10.931  1.00  0.00    -0.049 A 
HETATM    9  C7  UNL     1      -2.603   1.951  11.004  1.00  0.00     0.009 A 
HETATM   10  C8  UNL     1      -2.325   0.628  11.146  1.00  0.00     0.024 A 
HETATM   11  C9  UNL     1      -3.348  -0.281  11.213  1.00  0.00     0.034 A 
HETATM   12 CL1  UNL     1      -2.984  -1.987  11.396  1.00  0.00    -0.084 Cl
HETATM   13  C10 UNL     1      -4.649   0.112  11.143  1.00  0.00     0.024 A 
HETATM   14  C11 UNL     1      -4.962   1.454  10.999  1.00  0.00     0.009 A 
ENDBRANCH   7   8
ENDBRANCH   6   7
ENDBRANCH   4   6
BRANCH   1  15
HETATM   15  S1  UNL     1      -4.854   1.073  16.025  1.00  0.00     0.238 S 
HETATM   16  O1  UNL     1      -5.198   0.498  14.679  1.00  0.00    -0.205 OA
HETATM   17  O2  UNL     1      -3.396   0.826  16.356  1.00  0.00    -0.205 OA
BRANCH  15  18
HETATM   18  N1  UNL     1      -5.840   0.354  17.220  1.00  0.00    -0.327 N 
ATOM     19  H12 UNL     1      -5.657  -0.553  17.651  1.00  0.00     0.168 HD
ATOM     20  H11 UNL     1      -6.626   0.970  17.429  1.00  0.00     0.168 HD
ENDBRANCH  15  18
ENDBRANCH   1  15
TORSDOF 5
ENDMDL
