MODEL 1
REMARK VINA RESULT: -8.747708420      0.000      0.000
REMARK  12 active torsions:
REMARK  status: ('A' for Active; 'I' for Inactive)
REMARK    1  A    between atoms: C2_2  and  C3_3 
REMARK    2  A    between atoms: C3_3  and  O2_5 
REMARK    3  A    between atoms: O2_5  and  C4_6 
REMARK    4  A    between atoms: C4_6  and  C5_7 
REMARK    5  A    between atoms: C5_7  and  C6_8 
REMARK    6  A    between atoms: C6_8  and  C7_9 
REMARK    7  A    between atoms: C8_11  and  N1_12 
REMARK    8  A    between atoms: C9_13  and  N2_14 
REMARK    9  A    between atoms: N2_14  and  C10_16 
REMARK   10  A    between atoms: C10_16  and  C11_17 
REMARK   11  A    between atoms: C21_35  and  O4_36 
REMARK   12  A    between atoms: C22_38  and  O5_39 
ROOT
HETATM    1  N1  UNL     1      -7.228  26.985 -15.115  1.00  0.00    -0.136 N 
HETATM    2  C9  UNL     1      -5.973  27.444 -14.991  1.00  0.00     0.685 A 
HETATM    3  N3  UNL     1      -5.174  26.685 -15.758  1.00  0.00    -0.184 N 
ATOM      4  H3  UNL     1      -4.166  26.811 -15.853  1.00  0.00     0.184 HD
HETATM    5  C17 UNL     1      -5.892  25.731 -16.385  1.00  0.00     0.135 A 
HETATM    6  C18 UNL     1      -5.575  24.718 -17.263  1.00  0.00     0.148 A 
HETATM    7  N4  UNL     1      -4.239  24.507 -17.693  1.00  0.00    -0.080 NA
HETATM    8  N5  UNL     1      -6.553  23.921 -17.712  1.00  0.00    -0.339 N 
ATOM      9  H5  UNL     1      -6.331  23.166 -18.361  1.00  0.00     0.167 HD
HETATM   10  C19 UNL     1      -7.821  24.107 -17.316  1.00  0.00     0.183 A 
HETATM   11  N6  UNL     1      -8.138  25.091 -16.462  1.00  0.00    -0.336 N 
ATOM     12  H6  UNL     1      -9.110  25.209 -16.179  1.00  0.00     0.168 HD
HETATM   13  C20 UNL     1      -7.200  25.935 -15.965  1.00  0.00     0.158 A 
ENDROOT
BRANCH   1  14
HETATM   14  C8  UNL     1      -8.391  27.523 -14.456  1.00  0.00     0.279 C 
HETATM   15  O3  UNL     1      -8.335  28.884 -14.274  1.00  0.00    -0.355 OA
HETATM   16  C7  UNL     1      -9.217  29.120 -13.221  1.00  0.00     0.155 C 
HETATM   17  C22 UNL     1      -8.740  28.108 -12.201  1.00  0.00     0.180 C 
HETATM   18  C21 UNL     1      -8.544  26.884 -13.089  1.00  0.00     0.199 C 
BRANCH  16  19
HETATM   19  C6  UNL     1      -9.124  30.530 -12.699  1.00  0.00     0.037 C 
BRANCH  19  20
HETATM   20  C5  UNL     1      -8.365  31.441 -13.613  1.00  0.00     0.029 C 
BRANCH  20  21
HETATM   21  C4  UNL     1      -8.589  32.890 -13.243  1.00  0.00     0.179 C 
BRANCH  21  22
HETATM   22  O2  UNL     1      -9.155  33.574 -14.356  1.00  0.00    -0.318 OA
BRANCH  22  23
HETATM   23  C3  UNL     1      -9.568  34.888 -14.286  1.00  0.00     0.282 C 
HETATM   24  O1  UNL     1      -8.872  35.775 -14.813  1.00  0.00    -0.260 OA
BRANCH  23  25
HETATM   25  C2  UNL     1     -10.810  35.279 -13.607  1.00  0.00     0.072 C 
HETATM   26  C1  UNL     1     -10.958  36.521 -13.136  1.00  0.00     0.017 C 
ENDBRANCH  23  25
ENDBRANCH  22  23
ENDBRANCH  21  22
ENDBRANCH  20  21
ENDBRANCH  19  20
ENDBRANCH  16  19
BRANCH  17  27
HETATM   27  O5  UNL     1      -9.665  27.885 -11.199  1.00  0.00    -0.390 OA
ATOM     28  H5  UNL     1      -9.322  27.346 -10.496  1.00  0.00     0.210 HD
ENDBRANCH  17  27
BRANCH  18  29
HETATM   29  O4  UNL     1      -9.751  26.172 -13.077  1.00  0.00    -0.388 OA
ATOM     30  H4  UNL     1      -9.583  25.304 -13.424  1.00  0.00     0.210 HD
ENDBRANCH  18  29
ENDBRANCH   1  14
BRANCH   2  31
HETATM   31  N2  UNL     1      -5.553  28.555 -14.179  1.00  0.00    -0.221 N 
ATOM     32  H2  UNL     1      -6.189  29.338 -14.027  1.00  0.00     0.178 HD
BRANCH  31  33
HETATM   33  C10 UNL     1      -4.254  28.572 -13.582  1.00  0.00     0.176 C 
BRANCH  33  34
HETATM   34  C11 UNL     1      -4.346  29.142 -12.220  1.00  0.00    -0.040 A 
HETATM   35  C12 UNL     1      -5.476  29.796 -11.823  1.00  0.00     0.010 A 
HETATM   36  C13 UNL     1      -5.621  30.350 -10.562  1.00  0.00     0.024 A 
HETATM   37  C14 UNL     1      -4.578  30.232  -9.675  1.00  0.00     0.034 A 
HETATM   38 CL1  UNL     1      -4.706  30.914  -8.066  1.00  0.00    -0.084 Cl
HETATM   39  C15 UNL     1      -3.406  29.571 -10.042  1.00  0.00     0.024 A 
HETATM   40  C16 UNL     1      -3.312  29.030 -11.327  1.00  0.00     0.010 A 
ENDBRANCH  33  34
ENDBRANCH  31  33
ENDBRANCH   2  31
TORSDOF 12
ENDMDL
