MODEL 2
REMARK VINA RESULT: -8.691757368      1.532      1.875
REMARK  12 active torsions:
REMARK  status: ('A' for Active; 'I' for Inactive)
REMARK    1  A    between atoms: C2_2  and  C3_3 
REMARK    2  A    between atoms: C3_3  and  O2_5 
REMARK    3  A    between atoms: O2_5  and  C4_6 
REMARK    4  A    between atoms: C4_6  and  C5_7 
REMARK    5  A    between atoms: C5_7  and  C6_8 
REMARK    6  A    between atoms: C6_8  and  C7_9 
REMARK    7  A    between atoms: C8_11  and  N1_12 
REMARK    8  A    between atoms: C9_13  and  N2_14 
REMARK    9  A    between atoms: N2_14  and  C10_16 
REMARK   10  A    between atoms: C10_16  and  C11_17 
REMARK   11  A    between atoms: C21_35  and  O4_36 
REMARK   12  A    between atoms: C22_38  and  O5_39 
ROOT
HETATM    1  N1  UNL     1      -6.765  28.090 -14.972  1.00  0.00    -0.136 N 
HETATM    2  C9  UNL     1      -5.496  27.950 -14.558  1.00  0.00     0.685 A 
HETATM    3  N3  UNL     1      -4.938  26.949 -15.256  1.00  0.00    -0.184 N 
ATOM      4  H3  UNL     1      -3.977  26.627 -15.145  1.00  0.00     0.184 HD
HETATM    5  C17 UNL     1      -5.828  26.428 -16.125  1.00  0.00     0.135 A 
HETATM    6  C18 UNL     1      -5.776  25.412 -17.054  1.00  0.00     0.148 A 
HETATM    7  N4  UNL     1      -4.591  24.656 -17.253  1.00  0.00    -0.080 NA
HETATM    8  N5  UNL     1      -6.869  25.140 -17.777  1.00  0.00    -0.339 N 
ATOM      9  H5  UNL     1      -6.844  24.388 -18.467  1.00  0.00     0.167 HD
HETATM   10  C19 UNL     1      -7.997  25.845 -17.602  1.00  0.00     0.183 A 
HETATM   11  N6  UNL     1      -8.055  26.835 -16.700  1.00  0.00    -0.336 N 
ATOM     12  H6  UNL     1      -8.927  27.354 -16.590  1.00  0.00     0.168 HD
HETATM   13  C20 UNL     1      -6.989  27.166 -15.932  1.00  0.00     0.158 A 
ENDROOT
BRANCH   1  14
HETATM   14  C8  UNL     1      -7.712  29.056 -14.475  1.00  0.00     0.279 C 
HETATM   15  O3  UNL     1      -7.144  30.269 -14.164  1.00  0.00    -0.355 OA
HETATM   16  C7  UNL     1      -8.038  30.838 -13.261  1.00  0.00     0.155 C 
HETATM   17  C22 UNL     1      -8.220  29.709 -12.269  1.00  0.00     0.180 C 
HETATM   18  C21 UNL     1      -8.371  28.524 -13.217  1.00  0.00     0.199 C 
BRANCH  16  19
HETATM   19  C6  UNL     1      -7.483  32.076 -12.606  1.00  0.00     0.037 C 
BRANCH  19  20
HETATM   20  C5  UNL     1      -8.535  33.100 -12.311  1.00  0.00     0.029 C 
BRANCH  20  21
HETATM   21  C4  UNL     1      -9.679  33.003 -13.296  1.00  0.00     0.179 C 
BRANCH  21  22
HETATM   22  O2  UNL     1      -9.374  33.789 -14.444  1.00  0.00    -0.318 OA
BRANCH  22  23
HETATM   23  C3  UNL     1      -9.613  35.145 -14.497  1.00  0.00     0.282 C 
HETATM   24  O1  UNL     1      -8.704  35.911 -14.868  1.00  0.00    -0.260 OA
BRANCH  23  25
HETATM   25  C2  UNL     1     -10.912  35.723 -14.129  1.00  0.00     0.072 C 
HETATM   26  C1  UNL     1     -10.996  36.619 -13.142  1.00  0.00     0.017 C 
ENDBRANCH  23  25
ENDBRANCH  22  23
ENDBRANCH  21  22
ENDBRANCH  20  21
ENDBRANCH  19  20
ENDBRANCH  16  19
BRANCH  17  27
HETATM   27  O5  UNL     1      -9.330  29.880 -11.465  1.00  0.00    -0.390 OA
ATOM     28  H5  UNL     1      -9.655  29.061 -11.109  1.00  0.00     0.210 HD
ENDBRANCH  17  27
BRANCH  18  29
HETATM   29  O4  UNL     1      -9.742  28.378 -13.475  1.00  0.00    -0.388 OA
ATOM     30  H4  UNL     1      -9.975  27.471 -13.319  1.00  0.00     0.210 HD
ENDBRANCH  18  29
ENDBRANCH   1  14
BRANCH   2  31
HETATM   31  N2  UNL     1      -4.845  28.736 -13.543  1.00  0.00    -0.221 N 
ATOM     32  H2  UNL     1      -5.403  29.314 -12.916  1.00  0.00     0.178 HD
BRANCH  31  33
HETATM   33  C10 UNL     1      -3.422  28.713 -13.407  1.00  0.00     0.176 C 
BRANCH  33  34
HETATM   34  C11 UNL     1      -3.005  29.742 -12.427  1.00  0.00    -0.040 A 
HETATM   35  C12 UNL     1      -1.834  29.604 -11.742  1.00  0.00     0.010 A 
HETATM   36  C13 UNL     1      -1.391  30.533 -10.814  1.00  0.00     0.024 A 
HETATM   37  C14 UNL     1      -2.171  31.640 -10.579  1.00  0.00     0.034 A 
HETATM   38 CL1  UNL     1      -1.661  32.847  -9.416  1.00  0.00    -0.084 Cl
HETATM   39  C15 UNL     1      -3.376  31.818 -11.259  1.00  0.00     0.024 A 
HETATM   40  C16 UNL     1      -3.775  30.851 -12.185  1.00  0.00     0.010 A 
ENDBRANCH  33  34
ENDBRANCH  31  33
ENDBRANCH   2  31
TORSDOF 12
ENDMDL
