MODEL 3
REMARK VINA RESULT: -8.630321839      3.573      6.305
REMARK  12 active torsions:
REMARK  status: ('A' for Active; 'I' for Inactive)
REMARK    1  A    between atoms: C2_2  and  C3_3 
REMARK    2  A    between atoms: C3_3  and  O2_5 
REMARK    3  A    between atoms: O2_5  and  C4_6 
REMARK    4  A    between atoms: C4_6  and  C5_7 
REMARK    5  A    between atoms: C5_7  and  C6_8 
REMARK    6  A    between atoms: C6_8  and  C7_9 
REMARK    7  A    between atoms: C8_11  and  N1_12 
REMARK    8  A    between atoms: C9_13  and  N2_14 
REMARK    9  A    between atoms: N2_14  and  C10_16 
REMARK   10  A    between atoms: C10_16  and  C11_17 
REMARK   11  A    between atoms: C21_35  and  O4_36 
REMARK   12  A    between atoms: C22_38  and  O5_39 
ROOT
HETATM    1  N1  UNL     1      -7.999  27.831 -12.848  1.00  0.00    -0.136 N 
HETATM    2  C9  UNL     1      -8.596  26.749 -13.372  1.00  0.00     0.685 A 
HETATM    3  N3  UNL     1      -9.158  26.056 -12.370  1.00  0.00    -0.184 N 
ATOM      4  H3  UNL     1      -9.678  25.186 -12.484  1.00  0.00     0.184 HD
HETATM    5  C17 UNL     1      -8.937  26.671 -11.191  1.00  0.00     0.135 A 
HETATM    6  C18 UNL     1      -9.284  26.393  -9.887  1.00  0.00     0.148 A 
HETATM    7  N4  UNL     1     -10.040  25.238  -9.556  1.00  0.00    -0.080 NA
HETATM    8  N5  UNL     1      -8.894  27.233  -8.920  1.00  0.00    -0.339 N 
ATOM      9  H5  UNL     1      -9.143  27.037  -7.950  1.00  0.00     0.167 HD
HETATM   10  C19 UNL     1      -8.180  28.329  -9.215  1.00  0.00     0.183 A 
HETATM   11  N6  UNL     1      -7.839  28.608 -10.482  1.00  0.00    -0.336 N 
ATOM     12  H6  UNL     1      -7.295  29.449 -10.676  1.00  0.00     0.168 HD
HETATM   13  C20 UNL     1      -8.196  27.802 -11.512  1.00  0.00     0.158 A 
ENDROOT
BRANCH   1  14
HETATM   14  C8  UNL     1      -7.280  28.838 -13.586  1.00  0.00     0.279 C 
HETATM   15  O3  UNL     1      -7.241  30.057 -12.953  1.00  0.00    -0.355 OA
HETATM   16  C7  UNL     1      -7.002  30.964 -13.983  1.00  0.00     0.155 C 
HETATM   17  C22 UNL     1      -8.063  30.564 -14.986  1.00  0.00     0.180 C 
HETATM   18  C21 UNL     1      -7.935  29.045 -14.938  1.00  0.00     0.199 C 
BRANCH  16  19
HETATM   19  C6  UNL     1      -7.162  32.394 -13.537  1.00  0.00     0.037 C 
BRANCH  19  20
HETATM   20  C5  UNL     1      -8.232  32.567 -12.505  1.00  0.00     0.029 C 
BRANCH  20  21
HETATM   21  C4  UNL     1      -9.541  32.975 -13.143  1.00  0.00     0.179 C 
BRANCH  21  22
HETATM   22  O2  UNL     1      -9.271  33.715 -14.330  1.00  0.00    -0.318 OA
BRANCH  22  23
HETATM   23  C3  UNL     1      -9.542  35.062 -14.441  1.00  0.00     0.282 C 
HETATM   24  O1  UNL     1      -8.645  35.835 -14.826  1.00  0.00    -0.260 OA
BRANCH  23  25
HETATM   25  C2  UNL     1     -10.861  35.620 -14.119  1.00  0.00     0.072 C 
HETATM   26  C1  UNL     1     -10.998  36.497 -13.120  1.00  0.00     0.017 C 
ENDBRANCH  23  25
ENDBRANCH  22  23
ENDBRANCH  21  22
ENDBRANCH  20  21
ENDBRANCH  19  20
ENDBRANCH  16  19
BRANCH  17  27
HETATM   27  O5  UNL     1      -7.820  31.070 -16.248  1.00  0.00    -0.390 OA
ATOM     28  H5  UNL     1      -8.112  31.970 -16.345  1.00  0.00     0.210 HD
ENDBRANCH  17  27
BRANCH  18  29
HETATM   29  O4  UNL     1      -7.011  28.680 -15.927  1.00  0.00    -0.388 OA
ATOM     30  H4  UNL     1      -7.496  28.342 -16.671  1.00  0.00     0.210 HD
ENDBRANCH  18  29
ENDBRANCH   1  14
BRANCH   2  31
HETATM   31  N2  UNL     1      -8.629  26.392 -14.766  1.00  0.00    -0.221 N 
ATOM     32  H2  UNL     1      -8.600  27.124 -15.476  1.00  0.00     0.178 HD
BRANCH  31  33
HETATM   33  C10 UNL     1      -8.702  25.022 -15.166  1.00  0.00     0.176 C 
BRANCH  33  34
HETATM   34  C11 UNL     1      -7.899  24.824 -16.394  1.00  0.00    -0.040 A 
HETATM   35  C12 UNL     1      -6.578  25.162 -16.413  1.00  0.00     0.010 A 
HETATM   36  C13 UNL     1      -5.776  25.000 -17.532  1.00  0.00     0.024 A 
HETATM   37  C14 UNL     1      -6.343  24.475 -18.668  1.00  0.00     0.034 A 
HETATM   38 CL1  UNL     1      -5.377  24.249 -20.112  1.00  0.00    -0.084 Cl
HETATM   39  C15 UNL     1      -7.691  24.116 -18.689  1.00  0.00     0.024 A 
HETATM   40  C16 UNL     1      -8.454  24.300 -17.533  1.00  0.00     0.010 A 
ENDBRANCH  33  34
ENDBRANCH  31  33
ENDBRANCH   2  31
TORSDOF 12
ENDMDL
