MODEL 7
REMARK VINA RESULT: -7.780050956      3.503      6.729
REMARK  10 active torsions:
REMARK  status: ('A' for Active; 'I' for Inactive)
REMARK    1  A    between atoms: O1_2  and  C2_3 
REMARK    2  A    between atoms: C2_3  and  C3_4 
REMARK    3  A    between atoms: C3_4  and  C4_5 
REMARK    4  A    between atoms: C4_5  and  C5_6 
REMARK    5  A    between atoms: C6_8  and  N1_9 
REMARK    6  A    between atoms: C7_10  and  N2_11 
REMARK    7  A    between atoms: N2_11  and  C8_13 
REMARK    8  A    between atoms: C8_13  and  C9_14 
REMARK    9  A    between atoms: C19_32  and  O3_33 
REMARK   10  A    between atoms: C20_35  and  O4_36 
ROOT
HETATM    1  N1  UNL     1     -17.688 -10.157   5.718  1.00  0.00    -0.136 N 
HETATM    2  C7  UNL     1     -18.377 -10.077   6.860  1.00  0.00     0.685 A 
HETATM    3  N3  UNL     1     -19.698 -10.098   6.612  1.00  0.00    -0.184 N 
ATOM      4  H3  UNL     1     -20.443 -10.050   7.307  1.00  0.00     0.184 HD
HETATM    5  C15 UNL     1     -19.857 -10.192   5.279  1.00  0.00     0.135 A 
HETATM    6  C16 UNL     1     -21.006 -10.248   4.517  1.00  0.00     0.148 A 
HETATM    7  N4  UNL     1     -22.316 -10.211   5.072  1.00  0.00    -0.080 NA
HETATM    8  N5  UNL     1     -20.849 -10.341   3.184  1.00  0.00    -0.339 N 
ATOM      9  H5  UNL     1     -21.670 -10.385   2.580  1.00  0.00     0.167 HD
HETATM   10  C17 UNL     1     -19.601 -10.377   2.633  1.00  0.00     0.183 A 
HETATM   11  N6  UNL     1     -18.497 -10.321   3.401  1.00  0.00    -0.336 N 
ATOM     12  H6  UNL     1     -17.575 -10.351   2.965  1.00  0.00     0.168 HD
HETATM   13  C18 UNL     1     -18.598 -10.228   4.730  1.00  0.00     0.158 A 
ENDROOT
BRANCH   1  14
HETATM   14  C6  UNL     1     -16.271 -10.166   5.540  1.00  0.00     0.279 C 
HETATM   15  O2  UNL     1     -15.571 -10.566   6.658  1.00  0.00    -0.355 OA
HETATM   16  C5  UNL     1     -14.241 -10.384   6.224  1.00  0.00     0.155 C 
HETATM   17  C20 UNL     1     -14.197  -9.071   5.511  1.00  0.00     0.180 C 
HETATM   18  C19 UNL     1     -15.687  -8.799   5.268  1.00  0.00     0.199 C 
BRANCH  16  19
HETATM   19  C4  UNL     1     -13.275 -10.453   7.381  1.00  0.00     0.037 C 
BRANCH  19  20
HETATM   20  C3  UNL     1     -14.086 -10.253   8.645  1.00  0.00     0.029 C 
BRANCH  20  21
HETATM   21  C2  UNL     1     -13.558  -9.110   9.477  1.00  0.00     0.167 C 
BRANCH  21  22
HETATM   22  O1  UNL     1     -13.173  -8.028   8.717  1.00  0.00    -0.396 OA
HETATM   23  C1  UNL     1     -14.223  -7.113   8.708  1.00  0.00     0.201 C 
ENDBRANCH  21  22
ENDBRANCH  20  21
ENDBRANCH  19  20
ENDBRANCH  16  19
BRANCH  17  24
HETATM   24  O4  UNL     1     -13.634  -9.288   4.241  1.00  0.00    -0.390 OA
ATOM     25  H4  UNL     1     -14.158  -8.816   3.605  1.00  0.00     0.210 HD
ENDBRANCH  17  24
BRANCH  18  26
HETATM   26  O3  UNL     1     -15.939  -8.379   3.986  1.00  0.00    -0.388 OA
ATOM     27  H3  UNL     1     -15.237  -7.838   3.644  1.00  0.00     0.210 HD
ENDBRANCH  18  26
ENDBRANCH   1  14
BRANCH   2  28
HETATM   28  N2  UNL     1     -17.756  -9.988   8.145  1.00  0.00    -0.221 N 
ATOM     29  H2  UNL     1     -17.435 -10.829   8.624  1.00  0.00     0.178 HD
BRANCH  28  30
HETATM   30  C8  UNL     1     -17.591  -8.690   8.756  1.00  0.00     0.176 C 
BRANCH  30  31
HETATM   31  C9  UNL     1     -17.886  -8.695  10.209  1.00  0.00    -0.040 A 
HETATM   32  C10 UNL     1     -16.896  -8.267  11.065  1.00  0.00     0.010 A 
HETATM   33  C11 UNL     1     -17.165  -8.267  12.411  1.00  0.00     0.024 A 
HETATM   34  C12 UNL     1     -18.393  -8.683  12.909  1.00  0.00     0.034 A 
HETATM   35 CL1  UNL     1     -18.632  -8.643  14.642  1.00  0.00    -0.084 Cl
HETATM   36  C13 UNL     1     -19.377  -9.107  12.058  1.00  0.00     0.024 A 
HETATM   37  C14 UNL     1     -19.103  -9.107  10.703  1.00  0.00     0.010 A 
ENDBRANCH  30  31
ENDBRANCH  28  30
ENDBRANCH   2  28
TORSDOF 10
ENDMDL
