MODEL 6
REMARK VINA RESULT: -7.814332706      2.630      5.368
REMARK  10 active torsions:
REMARK  status: ('A' for Active; 'I' for Inactive)
REMARK    1  A    between atoms: O1_2  and  C2_3 
REMARK    2  A    between atoms: C2_3  and  C3_4 
REMARK    3  A    between atoms: C3_4  and  C4_5 
REMARK    4  A    between atoms: C4_5  and  C5_6 
REMARK    5  A    between atoms: C6_8  and  N1_9 
REMARK    6  A    between atoms: C7_10  and  N2_11 
REMARK    7  A    between atoms: N2_11  and  C8_13 
REMARK    8  A    between atoms: C8_13  and  C9_14 
REMARK    9  A    between atoms: C19_32  and  O3_33 
REMARK   10  A    between atoms: C20_35  and  O4_36 
ROOT
HETATM    1  N1  UNL     1     -17.467  -8.837  10.480  1.00  0.00    -0.136 N 
HETATM    2  C7  UNL     1     -16.632  -8.237  11.333  1.00  0.00     0.685 A 
HETATM    3  N3  UNL     1     -17.206  -8.115  12.542  1.00  0.00    -0.184 N 
ATOM      4  H3  UNL     1     -16.785  -7.694  13.370  1.00  0.00     0.184 HD
HETATM    5  C15 UNL     1     -18.439  -8.649  12.459  1.00  0.00     0.135 A 
HETATM    6  C16 UNL     1     -19.427  -8.772  13.416  1.00  0.00     0.148 A 
HETATM    7  N4  UNL     1     -19.281  -8.313  14.754  1.00  0.00    -0.080 NA
HETATM    8  N5  UNL     1     -20.575  -9.360  13.033  1.00  0.00    -0.339 N 
ATOM      9  H5  UNL     1     -21.333  -9.472  13.706  1.00  0.00     0.167 HD
HETATM   10  C17 UNL     1     -20.733  -9.806  11.753  1.00  0.00     0.183 A 
HETATM   11  N6  UNL     1     -19.752  -9.673  10.841  1.00  0.00    -0.336 N 
ATOM     12  H6  UNL     1     -19.895 -10.016   9.891  1.00  0.00     0.168 HD
HETATM   13  C18 UNL     1     -18.593  -9.096  11.169  1.00  0.00     0.158 A 
ENDROOT
BRANCH   1  14
HETATM   14  C6  UNL     1     -17.247  -9.155   9.105  1.00  0.00     0.279 C 
HETATM   15  O2  UNL     1     -18.404  -9.244   8.362  1.00  0.00    -0.355 OA
HETATM   16  C5  UNL     1     -17.892  -9.653   7.112  1.00  0.00     0.155 C 
HETATM   17  C20 UNL     1     -16.874 -10.711   7.391  1.00  0.00     0.180 C 
HETATM   18  C19 UNL     1     -16.623 -10.515   8.892  1.00  0.00     0.199 C 
BRANCH  16  19
HETATM   19  C4  UNL     1     -18.995 -10.131   6.200  1.00  0.00     0.037 C 
BRANCH  19  20
HETATM   20  C3  UNL     1     -18.495  -9.968   4.780  1.00  0.00     0.029 C 
BRANCH  20  21
HETATM   21  C2  UNL     1     -18.598 -11.254   3.996  1.00  0.00     0.167 C 
BRANCH  21  22
HETATM   22  O1  UNL     1     -18.221 -11.110   2.679  1.00  0.00    -0.396 OA
HETATM   23  C1  UNL     1     -19.376 -11.086   1.901  1.00  0.00     0.201 C 
ENDBRANCH  21  22
ENDBRANCH  20  21
ENDBRANCH  19  20
ENDBRANCH  16  19
BRANCH  17  24
HETATM   24  O4  UNL     1     -15.679 -10.340   6.750  1.00  0.00    -0.390 OA
ATOM     25  H4  UNL     1     -14.974 -10.851   7.130  1.00  0.00     0.210 HD
ENDBRANCH  17  24
BRANCH  18  26
HETATM   26  O3  UNL     1     -15.287 -10.520   9.204  1.00  0.00    -0.388 OA
ATOM     27  H3  UNL     1     -14.837 -11.268   8.826  1.00  0.00     0.210 HD
ENDBRANCH  18  26
ENDBRANCH   1  14
BRANCH   2  28
HETATM   28  N2  UNL     1     -15.318  -7.805  10.970  1.00  0.00    -0.221 N 
ATOM     29  H2  UNL     1     -14.497  -8.233  11.397  1.00  0.00     0.178 HD
BRANCH  28  30
HETATM   30  C8  UNL     1     -15.171  -6.753   9.992  1.00  0.00     0.176 C 
BRANCH  30  31
HETATM   31  C9  UNL     1     -14.337  -7.156   8.834  1.00  0.00    -0.040 A 
HETATM   32  C10 UNL     1     -13.163  -7.827   9.092  1.00  0.00     0.010 A 
HETATM   33  C11 UNL     1     -12.389  -8.205   8.023  1.00  0.00     0.024 A 
HETATM   34  C12 UNL     1     -12.765  -7.926   6.715  1.00  0.00     0.034 A 
HETATM   35 CL1  UNL     1     -11.706  -8.452   5.427  1.00  0.00    -0.084 Cl
HETATM   36  C13 UNL     1     -13.933  -7.259   6.459  1.00  0.00     0.024 A 
HETATM   37  C14 UNL     1     -14.709  -6.880   7.538  1.00  0.00     0.010 A 
ENDBRANCH  30  31
ENDBRANCH  28  30
ENDBRANCH   2  28
TORSDOF 10
ENDMDL
