MODEL 5
REMARK VINA RESULT: -7.834709033      3.407      5.992
REMARK  10 active torsions:
REMARK  status: ('A' for Active; 'I' for Inactive)
REMARK    1  A    between atoms: O1_2  and  C2_3 
REMARK    2  A    between atoms: C2_3  and  C3_4 
REMARK    3  A    between atoms: C3_4  and  C4_5 
REMARK    4  A    between atoms: C4_5  and  C5_6 
REMARK    5  A    between atoms: C6_8  and  N1_9 
REMARK    6  A    between atoms: C7_10  and  N2_11 
REMARK    7  A    between atoms: N2_11  and  C8_13 
REMARK    8  A    between atoms: C8_13  and  C9_14 
REMARK    9  A    between atoms: C19_32  and  O3_33 
REMARK   10  A    between atoms: C20_35  and  O4_36 
ROOT
HETATM    1  N1  UNL     1     -16.211  -8.814   9.983  1.00  0.00    -0.136 N 
HETATM    2  C7  UNL     1     -15.271  -8.137  10.648  1.00  0.00     0.685 A 
HETATM    3  N3  UNL     1     -15.747  -7.716  11.832  1.00  0.00    -0.184 N 
ATOM      4  H3  UNL     1     -15.234  -7.178  12.532  1.00  0.00     0.184 HD
HETATM    5  C15 UNL     1     -17.023  -8.134  11.927  1.00  0.00     0.135 A 
HETATM    6  C16 UNL     1     -17.947  -7.963  12.937  1.00  0.00     0.148 A 
HETATM    7  N4  UNL     1     -17.670  -7.258  14.141  1.00  0.00    -0.080 NA
HETATM    8  N5  UNL     1     -19.165  -8.503  12.745  1.00  0.00    -0.339 N 
ATOM      9  H5  UNL     1     -19.881  -8.402  13.465  1.00  0.00     0.167 HD
HETATM   10  C17 UNL     1     -19.450  -9.183  11.597  1.00  0.00     0.183 A 
HETATM   11  N6  UNL     1     -18.527  -9.334  10.628  1.00  0.00    -0.336 N 
ATOM     12  H6  UNL     1     -18.765  -9.848   9.779  1.00  0.00     0.168 HD
HETATM   13  C18 UNL     1     -17.303  -8.817  10.768  1.00  0.00     0.158 A 
ENDROOT
BRANCH   1  14
HETATM   14  C6  UNL     1     -16.116  -9.425   8.696  1.00  0.00     0.279 C 
HETATM   15  O2  UNL     1     -14.822  -9.653   8.281  1.00  0.00    -0.355 OA
HETATM   16  C5  UNL     1     -15.039 -10.155   6.980  1.00  0.00     0.155 C 
HETATM   17  C20 UNL     1     -16.085  -9.289   6.355  1.00  0.00     0.180 C 
HETATM   18  C19 UNL     1     -16.665  -8.569   7.578  1.00  0.00     0.199 C 
BRANCH  16  19
HETATM   19  C4  UNL     1     -13.756 -10.187   6.186  1.00  0.00     0.037 C 
BRANCH  19  20
HETATM   20  C3  UNL     1     -12.652  -9.724   7.114  1.00  0.00     0.029 C 
BRANCH  20  21
HETATM   21  C2  UNL     1     -12.081  -8.392   6.689  1.00  0.00     0.167 C 
BRANCH  21  22
HETATM   22  O1  UNL     1     -12.437  -7.364   7.533  1.00  0.00    -0.396 OA
HETATM   23  C1  UNL     1     -13.383  -6.578   6.878  1.00  0.00     0.201 C 
ENDBRANCH  21  22
ENDBRANCH  20  21
ENDBRANCH  19  20
ENDBRANCH  16  19
BRANCH  17  24
HETATM   24  O4  UNL     1     -17.109 -10.126   5.879  1.00  0.00    -0.390 OA
ATOM     25  H4  UNL     1     -16.719 -10.957   5.638  1.00  0.00     0.210 HD
ENDBRANCH  17  24
BRANCH  18  26
HETATM   26  O3  UNL     1     -18.037  -8.551   7.572  1.00  0.00    -0.388 OA
ATOM     27  H3  UNL     1     -18.387  -7.883   8.151  1.00  0.00     0.210 HD
ENDBRANCH  18  26
ENDBRANCH   1  14
BRANCH   2  28
HETATM   28  N2  UNL     1     -13.954  -7.917  10.136  1.00  0.00    -0.221 N 
ATOM     29  H2  UNL     1     -13.805  -7.775   9.137  1.00  0.00     0.178 HD
BRANCH  28  30
HETATM   30  C8  UNL     1     -12.838  -7.899  11.053  1.00  0.00     0.176 C 
BRANCH  30  31
HETATM   31  C9  UNL     1     -11.781  -8.874  10.692  1.00  0.00    -0.040 A 
HETATM   32  C10 UNL     1     -10.521  -8.385  10.429  1.00  0.00     0.010 A 
HETATM   33  C11 UNL     1      -9.538  -9.284  10.098  1.00  0.00     0.024 A 
HETATM   34  C12 UNL     1      -9.791 -10.648  10.027  1.00  0.00     0.034 A 
HETATM   35 CL1  UNL     1      -8.466 -11.707   9.596  1.00  0.00    -0.084 Cl
HETATM   36  C13 UNL     1     -11.043 -11.133  10.290  1.00  0.00     0.024 A 
HETATM   37  C14 UNL     1     -12.031 -10.226  10.622  1.00  0.00     0.010 A 
ENDBRANCH  30  31
ENDBRANCH  28  30
ENDBRANCH   2  28
TORSDOF 10
ENDMDL
