MODEL 12
REMARK VINA RESULT: -7.685623721      2.044      2.514
REMARK  10 active torsions:
REMARK  status: ('A' for Active; 'I' for Inactive)
REMARK    1  A    between atoms: O1_2  and  C2_3 
REMARK    2  A    between atoms: C2_3  and  C3_4 
REMARK    3  A    between atoms: C3_4  and  C4_5 
REMARK    4  A    between atoms: C4_5  and  C5_6 
REMARK    5  A    between atoms: C6_8  and  N1_9 
REMARK    6  A    between atoms: C7_10  and  N2_11 
REMARK    7  A    between atoms: N2_11  and  C8_13 
REMARK    8  A    between atoms: C8_13  and  C9_14 
REMARK    9  A    between atoms: C19_32  and  O3_33 
REMARK   10  A    between atoms: C20_35  and  O4_36 
ROOT
HETATM    1  N1  UNL     1     -17.312  -8.528  10.554  1.00  0.00    -0.136 N 
HETATM    2  C7  UNL     1     -18.255  -9.162   9.852  1.00  0.00     0.685 A 
HETATM    3  N3  UNL     1     -19.318  -9.429  10.629  1.00  0.00    -0.184 N 
ATOM      4  H3  UNL     1     -20.173  -9.904  10.341  1.00  0.00     0.184 HD
HETATM    5  C15 UNL     1     -19.048  -8.954  11.860  1.00  0.00     0.135 A 
HETATM    6  C16 UNL     1     -19.806  -8.974  13.013  1.00  0.00     0.148 A 
HETATM    7  N4  UNL     1     -21.105  -9.549  13.086  1.00  0.00    -0.080 NA
HETATM    8  N5  UNL     1     -19.263  -8.412  14.108  1.00  0.00    -0.339 N 
ATOM      9  H5  UNL     1     -19.787  -8.403  14.984  1.00  0.00     0.167 HD
HETATM   10  C17 UNL     1     -18.019  -7.854  14.058  1.00  0.00     0.183 A 
HETATM   11  N6  UNL     1     -17.302  -7.850  12.918  1.00  0.00    -0.336 N 
ATOM     12  H6  UNL     1     -16.374  -7.426  12.907  1.00  0.00     0.168 HD
HETATM   13  C18 UNL     1     -17.794  -8.394  11.803  1.00  0.00     0.158 A 
ENDROOT
BRANCH   1  14
HETATM   14  C6  UNL     1     -16.035  -8.070  10.107  1.00  0.00     0.279 C 
HETATM   15  O2  UNL     1     -16.032  -7.609   8.808  1.00  0.00    -0.355 OA
HETATM   16  C5  UNL     1     -14.661  -7.328   8.625  1.00  0.00     0.155 C 
HETATM   17  C20 UNL     1     -13.905  -8.474   9.214  1.00  0.00     0.180 C 
HETATM   18  C19 UNL     1     -14.985  -9.155  10.065  1.00  0.00     0.199 C 
BRANCH  16  19
HETATM   19  C4  UNL     1     -14.341  -7.104   7.167  1.00  0.00     0.037 C 
BRANCH  19  20
HETATM   20  C3  UNL     1     -14.360  -8.463   6.498  1.00  0.00     0.029 C 
BRANCH  20  21
HETATM   21  C2  UNL     1     -15.376  -8.528   5.383  1.00  0.00     0.167 C 
BRANCH  21  22
HETATM   22  O1  UNL     1     -14.856  -9.040   4.215  1.00  0.00    -0.396 OA
HETATM   23  C1  UNL     1     -13.533  -9.403   4.455  1.00  0.00     0.201 C 
ENDBRANCH  21  22
ENDBRANCH  20  21
ENDBRANCH  19  20
ENDBRANCH  16  19
BRANCH  17  24
HETATM   24  O4  UNL     1     -12.970  -7.952  10.124  1.00  0.00    -0.390 OA
ATOM     25  H4  UNL     1     -13.258  -8.178  11.000  1.00  0.00     0.210 HD
ENDBRANCH  17  24
BRANCH  18  26
HETATM   26  O3  UNL     1     -14.533  -9.480  11.319  1.00  0.00    -0.388 OA
ATOM     27  H3  UNL     1     -14.100 -10.327  11.333  1.00  0.00     0.210 HD
ENDBRANCH  18  26
ENDBRANCH   1  14
BRANCH   2  28
HETATM   28  N2  UNL     1     -18.113  -9.490   8.467  1.00  0.00    -0.221 N 
ATOM     29  H2  UNL     1     -17.812  -8.783   7.797  1.00  0.00     0.178 HD
BRANCH  28  30
HETATM   30  C8  UNL     1     -18.404 -10.835   8.031  1.00  0.00     0.176 C 
BRANCH  30  31
HETATM   31  C9  UNL     1     -17.385 -11.370   7.095  1.00  0.00    -0.040 A 
HETATM   32  C10 UNL     1     -16.130 -11.632   7.595  1.00  0.00     0.010 A 
HETATM   33  C11 UNL     1     -15.185 -12.130   6.733  1.00  0.00     0.024 A 
HETATM   34  C12 UNL     1     -15.471 -12.367   5.394  1.00  0.00     0.034 A 
HETATM   35 CL1  UNL     1     -14.194 -13.003   4.383  1.00  0.00    -0.084 Cl
HETATM   36  C13 UNL     1     -16.720 -12.106   4.898  1.00  0.00     0.024 A 
HETATM   37  C14 UNL     1     -17.669 -11.605   5.768  1.00  0.00     0.010 A 
ENDBRANCH  30  31
ENDBRANCH  28  30
ENDBRANCH   2  28
TORSDOF 10
ENDMDL
