MODEL 7
REMARK VINA RESULT: -6.431211532      4.084      7.781
REMARK  2 active torsions:
REMARK  status: ('A' for Active; 'I' for Inactive)
REMARK    1  A    between atoms: N3_7  and  C4_9 
REMARK    2  A    between atoms: C6_11  and  C7_12 
ROOT
HETATM    1  C4  UNL     1     -15.628  -5.924  13.390  1.00  0.00     0.110 C 
HETATM    2  C5  UNL     1     -14.416  -4.993  13.364  1.00  0.00     0.038 C 
HETATM    3  C6  UNL     1     -13.924  -4.924  14.789  1.00  0.00     0.049 C 
HETATM    4  C13 UNL     1     -13.426  -6.322  15.159  1.00  0.00     0.281 C 
HETATM    5  N4  UNL     1     -14.585  -7.188  15.110  1.00  0.00     0.086 N 
HETATM    6  C14 UNL     1     -14.390  -8.447  15.749  1.00  0.00     0.310 C 
HETATM    7  C15 UNL     1     -15.050  -7.306  13.738  1.00  0.00     0.296 C 
ENDROOT
BRANCH   1   8
HETATM    8  N3  UNL     1     -16.341  -5.945  12.160  1.00  0.00    -0.384 N 
HETATM    9  C3  UNL     1     -17.629  -5.892  12.152  1.00  0.00     0.046 C 
HETATM   10  C2  UNL     1     -18.379  -5.812  13.389  1.00  0.00     0.133 C 
HETATM   11  C16 UNL     1     -18.404  -5.911  10.870  1.00  0.00     0.202 C 
HETATM   12  N2  UNL     1     -19.587  -5.365  13.411  1.00  0.00    -0.306 N 
HETATM   13  N1  UNL     1     -20.248  -4.928  12.233  1.00  0.00    -0.265 N 
ATOM     14  H2  UNL     1     -20.084  -5.323  14.301  1.00  0.00     0.186 HD
HETATM   15  C1  UNL     1     -21.611  -4.427  12.283  1.00  0.00     0.181 C 
HETATM   16  C17 UNL     1     -19.543  -4.993  11.005  1.00  0.00     0.258 C 
HETATM   17  O1  UNL     1     -19.886  -4.278  10.043  1.00  0.00    -0.270 OA
HETATM   18 BR1  UNL     1     -19.074  -7.727  10.664  1.00  0.00    -0.074 Br
ATOM     19  H3  UNL     1     -15.830  -6.001  11.279  1.00  0.00     0.160 HD
ENDBRANCH   1   8
BRANCH   3  20
HETATM   20  C7  UNL     1     -12.909  -3.897  15.005  1.00  0.00    -0.052 A 
HETATM   21  C8  UNL     1     -13.139  -2.547  14.851  1.00  0.00     0.007 A 
HETATM   22  C9  UNL     1     -12.171  -1.585  15.057  1.00  0.00     0.001 A 
HETATM   23  C10 UNL     1     -10.897  -2.013  15.442  1.00  0.00     0.000 A 
HETATM   24  C11 UNL     1     -10.629  -3.352  15.605  1.00  0.00     0.001 A 
HETATM   25  C12 UNL     1     -11.640  -4.271  15.384  1.00  0.00     0.007 A 
ENDBRANCH   3  20
TORSDOF 2
ENDMDL
