MODEL 2
REMARK VINA RESULT: -6.912496181      3.282      5.483
REMARK  2 active torsions:
REMARK  status: ('A' for Active; 'I' for Inactive)
REMARK    1  A    between atoms: N3_7  and  C4_9 
REMARK    2  A    between atoms: C6_11  and  C7_12 
ROOT
HETATM    1  C4  UNL     1     -18.006  -5.890  11.885  1.00  0.00     0.110 C 
HETATM    2  C5  UNL     1     -18.243  -6.617  10.561  1.00  0.00     0.038 C 
HETATM    3  C6  UNL     1     -19.691  -7.043  10.583  1.00  0.00     0.049 C 
HETATM    4  C13 UNL     1     -20.533  -5.767  10.567  1.00  0.00     0.281 C 
HETATM    5  N4  UNL     1     -20.236  -5.073  11.803  1.00  0.00     0.086 N 
HETATM    6  C14 UNL     1     -21.169  -4.045  12.125  1.00  0.00     0.310 C 
HETATM    7  C15 UNL     1     -18.857  -4.613  11.785  1.00  0.00     0.296 C 
ENDROOT
BRANCH   1   8
HETATM    8  N3  UNL     1     -16.636  -5.595  12.121  1.00  0.00    -0.384 N 
HETATM    9  C3  UNL     1     -16.009  -6.148  13.102  1.00  0.00     0.046 C 
HETATM   10  C2  UNL     1     -16.680  -7.080  13.984  1.00  0.00     0.133 C 
HETATM   11  C16 UNL     1     -14.565  -5.855  13.371  1.00  0.00     0.202 C 
HETATM   12  N2  UNL     1     -16.018  -7.928  14.692  1.00  0.00    -0.306 N 
HETATM   13  N1  UNL     1     -14.601  -7.998  14.648  1.00  0.00    -0.265 N 
ATOM     14  H2  UNL     1     -16.526  -8.568  15.303  1.00  0.00     0.186 HD
HETATM   15  C1  UNL     1     -13.874  -8.964  15.454  1.00  0.00     0.181 C 
HETATM   16  C17 UNL     1     -13.911  -7.101  13.794  1.00  0.00     0.258 C 
HETATM   17  O1  UNL     1     -12.756  -7.363  13.404  1.00  0.00    -0.270 OA
HETATM   18 BR1  UNL     1     -14.532  -4.588  14.849  1.00  0.00    -0.074 Br
ATOM     19  H3  UNL     1     -16.146  -4.941  11.510  1.00  0.00     0.160 HD
ENDBRANCH   1   8
BRANCH   3  20
HETATM   20  C7  UNL     1     -20.045  -7.956   9.500  1.00  0.00    -0.052 A 
HETATM   21  C8  UNL     1     -20.950  -7.652   8.506  1.00  0.00     0.007 A 
HETATM   22  C9  UNL     1     -21.277  -8.524   7.487  1.00  0.00     0.001 A 
HETATM   23  C10 UNL     1     -20.652  -9.775   7.473  1.00  0.00     0.000 A 
HETATM   24  C11 UNL     1     -19.743 -10.114   8.447  1.00  0.00     0.001 A 
HETATM   25  C12 UNL     1     -19.455  -9.199   9.445  1.00  0.00     0.007 A 
ENDBRANCH   3  20
TORSDOF 2
ENDMDL
