MODEL 1
REMARK VINA RESULT: -7.151009966      0.000      0.000
REMARK  2 active torsions:
REMARK  status: ('A' for Active; 'I' for Inactive)
REMARK    1  A    between atoms: N3_7  and  C4_9 
REMARK    2  A    between atoms: C6_11  and  C7_12 
ROOT
HETATM    1  C4  UNL     1     -14.226  -6.122  14.119  1.00  0.00     0.110 C 
HETATM    2  C5  UNL     1     -15.596  -5.461  13.969  1.00  0.00     0.038 C 
HETATM    3  C6  UNL     1     -16.417  -6.408  13.127  1.00  0.00     0.049 C 
HETATM    4  C13 UNL     1     -16.607  -7.685  13.946  1.00  0.00     0.281 C 
HETATM    5  N4  UNL     1     -15.284  -8.249  14.123  1.00  0.00     0.086 N 
HETATM    6  C14 UNL     1     -15.291  -9.605  14.563  1.00  0.00     0.310 C 
HETATM    7  C15 UNL     1     -14.490  -7.375  14.970  1.00  0.00     0.296 C 
ENDROOT
BRANCH   1   8
HETATM    8  N3  UNL     1     -13.259  -5.270  14.718  1.00  0.00    -0.384 N 
HETATM    9  C3  UNL     1     -12.022  -5.626  14.775  1.00  0.00     0.046 C 
HETATM   10  C2  UNL     1     -11.586  -6.896  14.233  1.00  0.00     0.133 C 
HETATM   11  C16 UNL     1     -10.983  -4.746  15.400  1.00  0.00     0.202 C 
HETATM   12  N2  UNL     1     -10.355  -7.102  13.915  1.00  0.00    -0.306 N 
HETATM   13  N1  UNL     1      -9.361  -6.103  14.077  1.00  0.00    -0.265 N 
ATOM     14  H2  UNL     1     -10.086  -8.011  13.536  1.00  0.00     0.186 HD
HETATM   15  C1  UNL     1      -7.978  -6.357  13.710  1.00  0.00     0.181 C 
HETATM   16  C17 UNL     1      -9.752  -4.847  14.605  1.00  0.00     0.258 C 
HETATM   17  O1  UNL     1      -9.057  -3.832  14.399  1.00  0.00    -0.270 OA
HETATM   18 BR1  UNL     1     -10.652  -5.471  17.176  1.00  0.00    -0.074 Br
ATOM     19  H3  UNL     1     -13.546  -4.371  15.106  1.00  0.00     0.160 HD
ENDBRANCH   1   8
BRANCH   3  20
HETATM   20  C7  UNL     1     -17.686  -5.839  12.681  1.00  0.00    -0.052 A 
HETATM   21  C8  UNL     1     -18.616  -5.282  13.531  1.00  0.00     0.007 A 
HETATM   22  C9  UNL     1     -19.813  -4.748  13.098  1.00  0.00     0.001 A 
HETATM   23  C10 UNL     1     -20.084  -4.780  11.727  1.00  0.00     0.000 A 
HETATM   24  C11 UNL     1     -19.180  -5.328  10.848  1.00  0.00     0.001 A 
HETATM   25  C12 UNL     1     -17.996  -5.849  11.340  1.00  0.00     0.007 A 
ENDBRANCH   3  20
TORSDOF 2
ENDMDL
