MODEL 3
REMARK VINA RESULT: -6.696159029      2.768      4.543
REMARK  2 active torsions:
REMARK  status: ('A' for Active; 'I' for Inactive)
REMARK    1  A    between atoms: N3_7  and  C4_9 
REMARK    2  A    between atoms: C6_11  and  C7_12 
ROOT
HETATM    1  C4  UNL     1     -17.579  -6.548  12.944  1.00  0.00     0.110 C 
HETATM    2  C5  UNL     1     -18.651  -5.742  13.677  1.00  0.00     0.038 C 
HETATM    3  C6  UNL     1     -19.092  -4.671  12.709  1.00  0.00     0.049 C 
HETATM    4  C13 UNL     1     -19.769  -5.381  11.536  1.00  0.00     0.281 C 
HETATM    5  N4  UNL     1     -18.742  -6.184  10.904  1.00  0.00     0.086 N 
HETATM    6  C14 UNL     1     -19.093  -6.647   9.602  1.00  0.00     0.310 C 
HETATM    7  C15 UNL     1     -18.334  -7.251  11.804  1.00  0.00     0.296 C 
ENDROOT
BRANCH   1   8
HETATM    8  N3  UNL     1     -16.909  -7.477  13.785  1.00  0.00    -0.384 N 
HETATM    9  C3  UNL     1     -15.640  -7.377  13.985  1.00  0.00     0.046 C 
HETATM   10  C2  UNL     1     -14.868  -6.322  13.362  1.00  0.00     0.133 C 
HETATM   11  C16 UNL     1     -14.909  -8.343  14.867  1.00  0.00     0.202 C 
HETATM   12  N2  UNL     1     -13.727  -5.956  13.837  1.00  0.00    -0.306 N 
HETATM   13  N1  UNL     1     -13.165  -6.562  14.990  1.00  0.00    -0.265 N 
ATOM     14  H2  UNL     1     -13.213  -5.209  13.370  1.00  0.00     0.186 HD
HETATM   15  C1  UNL     1     -11.878  -6.132  15.509  1.00  0.00     0.181 C 
HETATM   16  C17 UNL     1     -13.894  -7.599  15.626  1.00  0.00     0.258 C 
HETATM   17  O1  UNL     1     -13.677  -7.882  16.821  1.00  0.00    -0.270 OA
HETATM   18 BR1  UNL     1     -14.017  -9.600  13.678  1.00  0.00    -0.074 Br
ATOM     19  H3  UNL     1     -17.435  -8.228  14.233  1.00  0.00     0.160 HD
ENDBRANCH   1   8
BRANCH   3  20
HETATM   20  C7  UNL     1     -19.949  -3.656  13.314  1.00  0.00    -0.052 A 
HETATM   21  C8  UNL     1     -19.615  -2.948  14.448  1.00  0.00     0.007 A 
HETATM   22  C9  UNL     1     -20.435  -1.991  15.012  1.00  0.00     0.001 A 
HETATM   23  C10 UNL     1     -21.662  -1.734  14.392  1.00  0.00     0.000 A 
HETATM   24  C11 UNL     1     -22.029  -2.421  13.258  1.00  0.00     0.001 A 
HETATM   25  C12 UNL     1     -21.166  -3.370  12.738  1.00  0.00     0.007 A 
ENDBRANCH   3  20
TORSDOF 2
ENDMDL
