MODEL 4
REMARK VINA RESULT: -7.024833858      3.993      7.839
REMARK  9 active torsions:
REMARK  status: ('A' for Active; 'I' for Inactive)
REMARK    1  A    between atoms: C2_2  and  O1_3 
REMARK    2  A    between atoms: O1_3  and  C3_4 
REMARK    3  A    between atoms: C6_7  and  C7_8 
REMARK    4  A    between atoms: C10_12  and  N1_13 
REMARK    5  A    between atoms: N1_13  and  C11_15 
REMARK    6  A    between atoms: C13_17  and  C14_18 
REMARK    7  A    between atoms: C14_18  and  O4_20 
REMARK    8  A    between atoms: C17_23  and  C18_24 
REMARK    9  A    between atoms: C18_24  and  O6_26 
ROOT
HETATM    1  C11 UNL     1       9.375 -17.566   3.168  1.00  0.00     0.034 A 
HETATM    2  C12 UNL     1       9.505 -18.145   1.899  1.00  0.00     0.047 A 
HETATM    3  C13 UNL     1       8.420 -18.718   1.280  1.00  0.00     0.042 A 
HETATM    4  C16 UNL     1       7.229 -18.705   1.935  1.00  0.00     0.035 A 
HETATM    5  C17 UNL     1       7.028 -18.157   3.178  1.00  0.00     0.042 A 
HETATM    6  C20 UNL     1       8.149 -17.578   3.787  1.00  0.00     0.047 A 
ENDROOT
BRANCH   1   7
HETATM    7  N1  UNL     1      10.527 -16.972   3.705  1.00  0.00    -0.354 N 
ATOM      8  H1  UNL     1      11.293 -17.586   3.981  1.00  0.00     0.166 HD
BRANCH   7   9
HETATM    9  C10 UNL     1      10.700 -15.590   3.890  1.00  0.00     0.067 A 
HETATM   10  C3  UNL     1      10.871 -15.102   5.189  1.00  0.00     0.095 A 
HETATM   11  C4  UNL     1      11.001 -13.757   5.377  1.00  0.00     0.040 A 
HETATM   12  C5  UNL     1      10.967 -12.871   4.299  1.00  0.00     0.018 A 
HETATM   13  C6  UNL     1      10.799 -13.340   3.023  1.00  0.00     0.012 A 
HETATM   14  C9  UNL     1      10.664 -14.710   2.823  1.00  0.00     0.047 A 
BRANCH  10  15
HETATM   15  O1  UNL     1      10.903 -15.985   6.237  1.00  0.00    -0.349 OA
BRANCH  15  16
HETATM   16  C2  UNL     1      10.189 -15.853   7.443  1.00  0.00     0.171 C 
HETATM   17  C1  UNL     1       8.751 -16.185   7.221  1.00  0.00     0.034 C 
ENDBRANCH  15  16
ENDBRANCH  10  15
BRANCH  13  18
HETATM   18  C7  UNL     1      10.766 -12.401   1.917  1.00  0.00     0.155 C 
HETATM   19  C8  UNL     1      10.588 -10.968   2.176  1.00  0.00     0.096 C 
HETATM   20  O2  UNL     1      10.889 -12.825   0.744  1.00  0.00    -0.293 OA
ENDBRANCH  13  18
ENDBRANCH   7   9
ENDBRANCH   1   7
BRANCH   3  21
HETATM   21  C14 UNL     1       8.581 -19.321  -0.054  1.00  0.00     0.293 C 
HETATM   22  O3  UNL     1       9.206 -20.385  -0.191  1.00  0.00    -0.259 OA
BRANCH  21  23
HETATM   23  O4  UNL     1       8.042 -18.713  -1.171  1.00  0.00    -0.323 OA
HETATM   24  C15 UNL     1       7.110 -19.346  -2.024  1.00  0.00     0.213 C 
ENDBRANCH  21  23
ENDBRANCH   3  21
BRANCH   5  25
HETATM   25  C18 UNL     1       5.747 -18.150   3.867  1.00  0.00     0.293 C 
HETATM   26  O5  UNL     1       5.141 -17.060   3.995  1.00  0.00    -0.259 OA
BRANCH  25  27
HETATM   27  O6  UNL     1       5.152 -19.269   4.391  1.00  0.00    -0.323 OA
HETATM   28  C19 UNL     1       3.773 -19.479   4.510  1.00  0.00     0.213 C 
ENDBRANCH  25  27
ENDBRANCH   5  25
TORSDOF 9
ENDMDL
