MODEL 17
REMARK VINA RESULT: -6.631795160      2.160      2.983
REMARK  9 active torsions:
REMARK  status: ('A' for Active; 'I' for Inactive)
REMARK    1  A    between atoms: C2_2  and  O1_3 
REMARK    2  A    between atoms: O1_3  and  C3_4 
REMARK    3  A    between atoms: C6_7  and  C7_8 
REMARK    4  A    between atoms: C10_12  and  N1_13 
REMARK    5  A    between atoms: N1_13  and  C11_15 
REMARK    6  A    between atoms: C13_17  and  C14_18 
REMARK    7  A    between atoms: C14_18  and  O4_20 
REMARK    8  A    between atoms: C17_23  and  C18_24 
REMARK    9  A    between atoms: C18_24  and  O6_26 
ROOT
HETATM    1  C11 UNL     1      10.782 -14.343   7.460  1.00  0.00     0.034 A 
HETATM    2  C12 UNL     1       9.424 -14.688   7.435  1.00  0.00     0.047 A 
HETATM    3  C13 UNL     1       8.604 -14.369   8.491  1.00  0.00     0.042 A 
HETATM    4  C16 UNL     1       9.150 -13.714   9.549  1.00  0.00     0.035 A 
HETATM    5  C17 UNL     1      10.470 -13.345   9.642  1.00  0.00     0.042 A 
HETATM    6  C20 UNL     1      11.284 -13.681   8.553  1.00  0.00     0.047 A 
ENDROOT
BRANCH   1   7
HETATM    7  N1  UNL     1      11.533 -14.677   6.322  1.00  0.00    -0.354 N 
ATOM      8  H1  UNL     1      12.440 -15.118   6.466  1.00  0.00     0.166 HD
BRANCH   7   9
HETATM    9  C10 UNL     1      11.122 -14.444   4.999  1.00  0.00     0.067 A 
HETATM   10  C3  UNL     1      10.805 -15.540   4.192  1.00  0.00     0.095 A 
HETATM   11  C4  UNL     1      10.441 -15.321   2.895  1.00  0.00     0.040 A 
HETATM   12  C5  UNL     1      10.383 -14.028   2.370  1.00  0.00     0.018 A 
HETATM   13  C6  UNL     1      10.693 -12.949   3.154  1.00  0.00     0.012 A 
HETATM   14  C9  UNL     1      11.065 -13.164   4.476  1.00  0.00     0.047 A 
BRANCH  10  15
HETATM   15  O1  UNL     1      10.867 -16.803   4.722  1.00  0.00    -0.349 OA
BRANCH  15  16
HETATM   16  C2  UNL     1       9.943 -17.837   4.485  1.00  0.00     0.171 C 
HETATM   17  C1  UNL     1       8.685 -17.579   5.247  1.00  0.00     0.034 C 
ENDBRANCH  15  16
ENDBRANCH  10  15
BRANCH  13  18
HETATM   18  C7  UNL     1      10.625 -11.614   2.588  1.00  0.00     0.155 C 
HETATM   19  C8  UNL     1      10.991 -11.393   1.185  1.00  0.00     0.096 C 
HETATM   20  O2  UNL     1      10.253 -10.658   3.307  1.00  0.00    -0.293 OA
ENDBRANCH  13  18
ENDBRANCH   7   9
ENDBRANCH   1   7
BRANCH   3  21
HETATM   21  C14 UNL     1       7.181 -14.742   8.442  1.00  0.00     0.293 C 
HETATM   22  O3  UNL     1       6.812 -15.727   7.780  1.00  0.00    -0.259 OA
BRANCH  21  23
HETATM   23  O4  UNL     1       6.235 -14.006   9.129  1.00  0.00    -0.323 OA
HETATM   24  C15 UNL     1       5.715 -14.392  10.384  1.00  0.00     0.213 C 
ENDBRANCH  21  23
ENDBRANCH   3  21
BRANCH   5  25
HETATM   25  C18 UNL     1      11.040 -12.644  10.782  1.00  0.00     0.293 C 
HETATM   26  O5  UNL     1      12.254 -12.334  10.749  1.00  0.00    -0.259 OA
BRANCH  25  27
HETATM   27  O6  UNL     1      10.330 -12.295  11.902  1.00  0.00    -0.323 OA
HETATM   28  C19 UNL     1      10.845 -11.628  13.020  1.00  0.00     0.213 C 
ENDBRANCH  25  27
ENDBRANCH   5  25
TORSDOF 9
ENDMDL
