MODEL 2
REMARK VINA RESULT: -7.111475704      1.870      7.298
REMARK  9 active torsions:
REMARK  status: ('A' for Active; 'I' for Inactive)
REMARK    1  A    between atoms: C2_2  and  O1_3 
REMARK    2  A    between atoms: O1_3  and  C3_4 
REMARK    3  A    between atoms: C6_7  and  C7_8 
REMARK    4  A    between atoms: C10_12  and  N1_13 
REMARK    5  A    between atoms: N1_13  and  C11_15 
REMARK    6  A    between atoms: C13_17  and  C14_18 
REMARK    7  A    between atoms: C14_18  and  O4_20 
REMARK    8  A    between atoms: C17_23  and  C18_24 
REMARK    9  A    between atoms: C18_24  and  O6_26 
ROOT
HETATM    1  C11 UNL     1      11.220 -14.328   5.426  1.00  0.00     0.034 A 
HETATM    2  C12 UNL     1      11.170 -13.244   4.539  1.00  0.00     0.047 A 
HETATM    3  C13 UNL     1      10.757 -13.425   3.241  1.00  0.00     0.042 A 
HETATM    4  C16 UNL     1      10.404 -14.677   2.850  1.00  0.00     0.035 A 
HETATM    5  C17 UNL     1      10.429 -15.784   3.663  1.00  0.00     0.042 A 
HETATM    6  C20 UNL     1      10.852 -15.574   4.982  1.00  0.00     0.047 A 
ENDROOT
BRANCH   1   7
HETATM    7  N1  UNL     1      11.618 -14.042   6.741  1.00  0.00    -0.354 N 
ATOM      8  H1  UNL     1      12.615 -13.935   6.923  1.00  0.00     0.166 HD
BRANCH   7   9
HETATM    9  C10 UNL     1      10.738 -13.893   7.826  1.00  0.00     0.067 A 
HETATM   10  C3  UNL     1      11.225 -13.347   9.017  1.00  0.00     0.095 A 
HETATM   11  C4  UNL     1      10.384 -13.235  10.085  1.00  0.00     0.040 A 
HETATM   12  C5  UNL     1       9.055 -13.655  10.004  1.00  0.00     0.018 A 
HETATM   13  C6  UNL     1       8.569 -14.191   8.841  1.00  0.00     0.012 A 
HETATM   14  C9  UNL     1       9.420 -14.310   7.748  1.00  0.00     0.047 A 
BRANCH  10  15
HETATM   15  O1  UNL     1      12.533 -12.940   9.080  1.00  0.00    -0.349 OA
BRANCH  15  16
HETATM   16  C2  UNL     1      13.511 -13.454   9.953  1.00  0.00     0.171 C 
HETATM   17  C1  UNL     1      14.864 -13.307   9.341  1.00  0.00     0.034 C 
ENDBRANCH  15  16
ENDBRANCH  10  15
BRANCH  13  18
HETATM   18  C7  UNL     1       7.183 -14.621   8.779  1.00  0.00     0.155 C 
HETATM   19  C8  UNL     1       6.180 -13.990   9.643  1.00  0.00     0.096 C 
HETATM   20  O2  UNL     1       6.856 -15.532   7.984  1.00  0.00    -0.293 OA
ENDBRANCH  13  18
ENDBRANCH   7   9
ENDBRANCH   1   7
BRANCH   3  21
HETATM   21  C14 UNL     1      10.713 -12.271   2.328  1.00  0.00     0.293 C 
HETATM   22  O3  UNL     1      10.548 -12.441   1.108  1.00  0.00    -0.259 OA
BRANCH  21  23
HETATM   23  O4  UNL     1      10.854 -10.985   2.810  1.00  0.00    -0.323 OA
HETATM   24  C15 UNL     1      11.313  -9.907   2.020  1.00  0.00     0.213 C 
ENDBRANCH  21  23
ENDBRANCH   3  21
BRANCH   5  25
HETATM   25  C18 UNL     1      10.047 -17.121   3.231  1.00  0.00     0.293 C 
HETATM   26  O5  UNL     1      10.128 -17.401   2.012  1.00  0.00    -0.259 OA
BRANCH  25  27
HETATM   27  O6  UNL     1       9.602 -18.103   4.078  1.00  0.00    -0.323 OA
HETATM   28  C19 UNL     1       8.268 -18.314   4.450  1.00  0.00     0.213 C 
ENDBRANCH  25  27
ENDBRANCH   5  25
TORSDOF 9
ENDMDL
