MODEL 10
REMARK VINA RESULT: -6.864098457      2.035      3.940
REMARK  9 active torsions:
REMARK  status: ('A' for Active; 'I' for Inactive)
REMARK    1  A    between atoms: C2_2  and  O1_3 
REMARK    2  A    between atoms: O1_3  and  C3_4 
REMARK    3  A    between atoms: C6_7  and  C7_8 
REMARK    4  A    between atoms: C10_12  and  N1_13 
REMARK    5  A    between atoms: N1_13  and  C11_15 
REMARK    6  A    between atoms: C13_17  and  C14_18 
REMARK    7  A    between atoms: C14_18  and  O4_20 
REMARK    8  A    between atoms: C17_23  and  C18_24 
REMARK    9  A    between atoms: C18_24  and  O6_26 
ROOT
HETATM    1  C11 UNL     1      10.744 -14.099   7.396  1.00  0.00     0.034 A 
HETATM    2  C12 UNL     1      11.299 -13.504   8.536  1.00  0.00     0.047 A 
HETATM    3  C13 UNL     1      10.539 -13.322   9.667  1.00  0.00     0.042 A 
HETATM    4  C16 UNL     1       9.244 -13.735   9.641  1.00  0.00     0.035 A 
HETATM    5  C17 UNL     1       8.636 -14.325   8.560  1.00  0.00     0.042 A 
HETATM    6  C20 UNL     1       9.432 -14.500   7.421  1.00  0.00     0.047 A 
ENDROOT
BRANCH   1   7
HETATM    7  N1  UNL     1      11.606 -14.278   6.302  1.00  0.00    -0.354 N 
ATOM      8  H1  UNL     1      12.597 -14.416   6.497  1.00  0.00     0.166 HD
BRANCH   7   9
HETATM    9  C10 UNL     1      11.198 -14.281   4.958  1.00  0.00     0.067 A 
HETATM   10  C3  UNL     1      10.918 -15.505   4.344  1.00  0.00     0.095 A 
HETATM   11  C4  UNL     1      10.558 -15.516   3.028  1.00  0.00     0.040 A 
HETATM   12  C5  UNL     1      10.467 -14.331   2.294  1.00  0.00     0.018 A 
HETATM   13  C6  UNL     1      10.740 -13.128   2.888  1.00  0.00     0.012 A 
HETATM   14  C9  UNL     1      11.109 -13.108   4.229  1.00  0.00     0.047 A 
BRANCH  10  15
HETATM   15  O1  UNL     1      11.012 -16.660   5.077  1.00  0.00    -0.349 OA
BRANCH  15  16
HETATM   16  C2  UNL     1      10.251 -17.826   4.872  1.00  0.00     0.171 C 
HETATM   17  C1  UNL     1       8.986 -17.752   5.662  1.00  0.00     0.034 C 
ENDBRANCH  15  16
ENDBRANCH  10  15
BRANCH  13  18
HETATM   18  C7  UNL     1      10.639 -11.908   2.107  1.00  0.00     0.155 C 
HETATM   19  C8  UNL     1      10.793 -10.605   2.761  1.00  0.00     0.096 C 
HETATM   20  O2  UNL     1      10.419 -11.981   0.876  1.00  0.00    -0.293 OA
ENDBRANCH  13  18
ENDBRANCH   7   9
ENDBRANCH   1   7
BRANCH   3  21
HETATM   21  C14 UNL     1      11.143 -12.693  10.853  1.00  0.00     0.293 C 
HETATM   22  O3  UNL     1      12.340 -12.360  10.847  1.00  0.00    -0.259 OA
BRANCH  21  23
HETATM   23  O4  UNL     1      10.392 -12.464  11.989  1.00  0.00    -0.323 OA
HETATM   24  C15 UNL     1      10.785 -11.572  13.012  1.00  0.00     0.213 C 
ENDBRANCH  21  23
ENDBRANCH   3  21
BRANCH   5  25
HETATM   25  C18 UNL     1       7.248 -14.763   8.547  1.00  0.00     0.293 C 
HETATM   26  O5  UNL     1       6.961 -15.828   7.952  1.00  0.00    -0.259 OA
BRANCH  25  27
HETATM   27  O6  UNL     1       6.222 -14.079   9.149  1.00  0.00    -0.323 OA
HETATM   28  C19 UNL     1       5.678 -14.367  10.406  1.00  0.00     0.213 C 
ENDBRANCH  25  27
ENDBRANCH   5  25
TORSDOF 9
ENDMDL
