MODEL 3
REMARK VINA RESULT: -7.088857769      1.869      6.877
REMARK  9 active torsions:
REMARK  status: ('A' for Active; 'I' for Inactive)
REMARK    1  A    between atoms: C2_2  and  O1_3 
REMARK    2  A    between atoms: O1_3  and  C3_4 
REMARK    3  A    between atoms: C6_7  and  C7_8 
REMARK    4  A    between atoms: C10_12  and  N1_13 
REMARK    5  A    between atoms: N1_13  and  C11_15 
REMARK    6  A    between atoms: C13_17  and  C14_18 
REMARK    7  A    between atoms: C14_18  and  O4_20 
REMARK    8  A    between atoms: C17_23  and  C18_24 
REMARK    9  A    between atoms: C18_24  and  O6_26 
ROOT
HETATM    1  C11 UNL     1      11.088 -14.381   5.482  1.00  0.00     0.034 A 
HETATM    2  C12 UNL     1      10.699 -15.653   5.042  1.00  0.00     0.047 A 
HETATM    3  C13 UNL     1      10.314 -15.851   3.738  1.00  0.00     0.042 A 
HETATM    4  C16 UNL     1      10.322 -14.782   2.899  1.00  0.00     0.035 A 
HETATM    5  C17 UNL     1      10.690 -13.509   3.260  1.00  0.00     0.042 A 
HETATM    6  C20 UNL     1      11.080 -13.334   4.594  1.00  0.00     0.047 A 
ENDROOT
BRANCH   1   7
HETATM    7  N1  UNL     1      11.501 -14.281   6.820  1.00  0.00    -0.354 N 
ATOM      8  H1  UNL     1      12.490 -14.429   7.023  1.00  0.00     0.166 HD
BRANCH   7   9
HETATM    9  C10 UNL     1      10.649 -13.993   7.898  1.00  0.00     0.067 A 
HETATM   10  C3  UNL     1      11.182 -13.358   9.024  1.00  0.00     0.095 A 
HETATM   11  C4  UNL     1      10.367 -13.108  10.089  1.00  0.00     0.040 A 
HETATM   12  C5  UNL     1       9.020 -13.477  10.070  1.00  0.00     0.018 A 
HETATM   13  C6  UNL     1       8.490 -14.101   8.971  1.00  0.00     0.012 A 
HETATM   14  C9  UNL     1       9.315 -14.358   7.881  1.00  0.00     0.047 A 
BRANCH  10  15
HETATM   15  O1  UNL     1      12.506 -13.002   9.028  1.00  0.00    -0.349 OA
BRANCH  15  16
HETATM   16  C2  UNL     1      13.470 -13.440   9.956  1.00  0.00     0.171 C 
HETATM   17  C1  UNL     1      14.834 -13.335   9.359  1.00  0.00     0.034 C 
ENDBRANCH  15  16
ENDBRANCH  10  15
BRANCH  13  18
HETATM   18  C7  UNL     1       7.087 -14.475   8.971  1.00  0.00     0.155 C 
HETATM   19  C8  UNL     1       6.172 -13.886   9.955  1.00  0.00     0.096 C 
HETATM   20  O2  UNL     1       6.670 -15.302   8.128  1.00  0.00    -0.293 OA
ENDBRANCH  13  18
ENDBRANCH   7   9
ENDBRANCH   1   7
BRANCH   3  21
HETATM   21  C14 UNL     1       9.909 -17.197   3.298  1.00  0.00     0.293 C 
HETATM   22  O3  UNL     1      10.041 -17.536   2.110  1.00  0.00    -0.259 OA
BRANCH  21  23
HETATM   23  O4  UNL     1       9.377 -18.101   4.196  1.00  0.00    -0.323 OA
HETATM   24  C15 UNL     1       7.991 -18.231   4.437  1.00  0.00     0.213 C 
ENDBRANCH  21  23
ENDBRANCH   3  21
BRANCH   5  25
HETATM   25  C18 UNL     1      10.694 -12.374   2.350  1.00  0.00     0.293 C 
HETATM   26  O5  UNL     1      10.580 -12.590   1.121  1.00  0.00    -0.259 OA
BRANCH  25  27
HETATM   27  O6  UNL     1      10.815 -11.068   2.754  1.00  0.00    -0.323 OA
HETATM   28  C19 UNL     1      11.250 -10.005   1.954  1.00  0.00     0.213 C 
ENDBRANCH  25  27
ENDBRANCH   5  25
TORSDOF 9
ENDMDL
