MODEL 19
REMARK VINA RESULT: -6.679975692      3.193      4.771
REMARK  6 active torsions:
REMARK  status: ('A' for Active; 'I' for Inactive)
REMARK    1  A    between atoms: C2_2  and  O1_3 
REMARK    2  A    between atoms: O1_3  and  C3_4 
REMARK    3  A    between atoms: C6_7  and  C7_8 
REMARK    4  A    between atoms: C10_12  and  N1_13 
REMARK    5  A    between atoms: N1_13  and  C11_15 
REMARK    6  A    between atoms: N2_21  and  S1_22 
ROOT
HETATM    1  N1  UNL     1      -0.363  -2.257  -2.497  1.00  0.00    -0.354 N 
ATOM      2  H1  UNL     1       0.190  -1.426  -2.286  1.00  0.00     0.166 HD
ENDROOT
BRANCH   1   3
HETATM    3  C10 UNL     1      -1.500  -2.063  -3.290  1.00  0.00     0.067 A 
HETATM    4  C3  UNL     1      -1.337  -1.900  -4.662  1.00  0.00     0.095 A 
HETATM    5  C4  UNL     1      -2.396  -1.671  -5.510  1.00  0.00     0.040 A 
HETATM    6  C5  UNL     1      -3.676  -1.596  -5.013  1.00  0.00     0.018 A 
HETATM    7  C6  UNL     1      -3.854  -1.755  -3.661  1.00  0.00     0.012 A 
HETATM    8  C9  UNL     1      -2.768  -1.986  -2.806  1.00  0.00     0.047 A 
BRANCH   4   9
HETATM    9  O1  UNL     1      -0.069  -1.968  -5.197  1.00  0.00    -0.349 OA
BRANCH   9  10
HETATM   10  C2  UNL     1       0.425  -1.184  -6.249  1.00  0.00     0.171 C 
HETATM   11  C1  UNL     1       1.877  -0.855  -6.139  1.00  0.00     0.034 C 
ENDBRANCH   9  10
ENDBRANCH   4   9
BRANCH   7  12
HETATM   12  C7  UNL     1      -5.202  -1.677  -3.126  1.00  0.00     0.155 C 
HETATM   13  C8  UNL     1      -6.343  -1.438  -4.030  1.00  0.00     0.096 C 
HETATM   14  O2  UNL     1      -5.376  -1.815  -1.894  1.00  0.00    -0.293 OA
ENDBRANCH   7  12
ENDBRANCH   1   3
BRANCH   1  15
HETATM   15  C11 UNL     1       0.102  -3.477  -1.959  1.00  0.00     0.034 A 
HETATM   16  C12 UNL     1      -0.260  -4.718  -2.448  1.00  0.00     0.030 A 
HETATM   17  C13 UNL     1       0.212  -5.851  -1.838  1.00  0.00     0.016 A 
HETATM   18  C14 UNL     1       1.038  -5.739  -0.751  1.00  0.00    -0.007 A 
HETATM   19  C15 UNL     1       1.665  -6.686   0.063  1.00  0.00     0.032 A 
HETATM   20  C18 UNL     1       1.423  -4.515  -0.234  1.00  0.00     0.062 A 
HETATM   21  C16 UNL     1       2.383  -5.996   1.014  1.00  0.00     0.110 A 
HETATM   22  N2  UNL     1       2.240  -4.674   0.836  1.00  0.00    -0.251 N 
HETATM   23  C19 UNL     1       0.944  -3.392  -0.854  1.00  0.00     0.061 A 
BRANCH  22  24
HETATM   24  S1  UNL     1       2.933  -3.378   1.759  1.00  0.00     0.233 S 
HETATM   25  C17 UNL     1       3.956  -2.390   0.732  1.00  0.00     0.186 C 
HETATM   26  O3  UNL     1       1.847  -2.523   2.344  1.00  0.00    -0.206 OA
HETATM   27  O4  UNL     1       3.688  -3.981   2.904  1.00  0.00    -0.206 OA
ENDBRANCH  22  24
ENDBRANCH   1  15
TORSDOF 6
ENDMDL
