MODEL 3
REMARK VINA RESULT: -7.649088152      1.120      3.588
REMARK  6 active torsions:
REMARK  status: ('A' for Active; 'I' for Inactive)
REMARK    1  A    between atoms: C2_2  and  O1_3 
REMARK    2  A    between atoms: O1_3  and  C3_4 
REMARK    3  A    between atoms: C6_7  and  C7_8 
REMARK    4  A    between atoms: C10_12  and  N1_13 
REMARK    5  A    between atoms: N1_13  and  C11_15 
REMARK    6  A    between atoms: N2_21  and  S1_22 
ROOT
HETATM    1  N1  UNL     1      -3.809  -0.941  -1.109  1.00  0.00    -0.354 N 
ATOM      2  H1  UNL     1      -4.332  -1.402  -0.365  1.00  0.00     0.166 HD
ENDROOT
BRANCH   1   3
HETATM    3  C10 UNL     1      -4.146  -1.297  -2.421  1.00  0.00     0.067 A 
HETATM    4  C3  UNL     1      -5.452  -1.695  -2.689  1.00  0.00     0.095 A 
HETATM    5  C4  UNL     1      -5.861  -2.093  -3.941  1.00  0.00     0.040 A 
HETATM    6  C5  UNL     1      -4.968  -2.107  -4.987  1.00  0.00     0.018 A 
HETATM    7  C6  UNL     1      -3.676  -1.717  -4.739  1.00  0.00     0.012 A 
HETATM    8  C9  UNL     1      -3.269  -1.315  -3.459  1.00  0.00     0.047 A 
BRANCH   4   9
HETATM    9  O1  UNL     1      -6.374  -1.694  -1.665  1.00  0.00    -0.349 OA
BRANCH   9  10
HETATM   10  C2  UNL     1      -7.557  -2.446  -1.622  1.00  0.00     0.171 C 
HETATM   11  C1  UNL     1      -8.732  -1.707  -1.071  1.00  0.00     0.034 C 
ENDBRANCH   9  10
ENDBRANCH   4   9
BRANCH   7  12
HETATM   12  C7  UNL     1      -2.725  -1.729  -5.838  1.00  0.00     0.155 C 
HETATM   13  C8  UNL     1      -1.330  -1.308  -5.612  1.00  0.00     0.096 C 
HETATM   14  O2  UNL     1      -3.110  -2.100  -6.970  1.00  0.00    -0.293 OA
ENDBRANCH   7  12
ENDBRANCH   1   3
BRANCH   1  15
HETATM   15  C11 UNL     1      -2.824  -0.014  -0.704  1.00  0.00     0.034 A 
HETATM   16  C12 UNL     1      -3.087   1.317  -0.436  1.00  0.00     0.030 A 
HETATM   17  C13 UNL     1      -2.060   2.153  -0.085  1.00  0.00     0.016 A 
HETATM   18  C14 UNL     1      -0.785   1.660  -0.002  1.00  0.00    -0.007 A 
HETATM   19  C15 UNL     1       0.439   2.251   0.324  1.00  0.00     0.032 A 
HETATM   20  C18 UNL     1      -0.483   0.335  -0.262  1.00  0.00     0.062 A 
HETATM   21  C16 UNL     1       1.401   1.268   0.244  1.00  0.00     0.110 A 
HETATM   22  N2  UNL     1       0.844   0.100  -0.111  1.00  0.00    -0.251 N 
HETATM   23  C19 UNL     1      -1.519  -0.489  -0.612  1.00  0.00     0.061 A 
BRANCH  22  24
HETATM   24  S1  UNL     1       1.614  -1.437  -0.348  1.00  0.00     0.233 S 
HETATM   25  C17 UNL     1       0.964  -2.614   0.778  1.00  0.00     0.186 C 
HETATM   26  O3  UNL     1       1.386  -1.917  -1.752  1.00  0.00    -0.206 OA
HETATM   27  O4  UNL     1       3.091  -1.242  -0.180  1.00  0.00    -0.206 OA
ENDBRANCH  22  24
ENDBRANCH   1  15
TORSDOF 6
ENDMDL
