MODEL 7
REMARK VINA RESULT: -7.462190997      2.947      7.459
REMARK  6 active torsions:
REMARK  status: ('A' for Active; 'I' for Inactive)
REMARK    1  A    between atoms: C2_2  and  O1_3 
REMARK    2  A    between atoms: O1_3  and  C3_4 
REMARK    3  A    between atoms: C6_7  and  C7_8 
REMARK    4  A    between atoms: C10_12  and  N1_13 
REMARK    5  A    between atoms: N1_13  and  C11_15 
REMARK    6  A    between atoms: N2_21  and  S1_22 
ROOT
HETATM    1  N1  UNL     1      -0.418  -1.498  -1.897  1.00  0.00    -0.354 N 
ATOM      2  H1  UNL     1       0.226  -0.901  -2.415  1.00  0.00     0.166 HD
ENDROOT
BRANCH   1   3
HETATM    3  C10 UNL     1       0.146  -2.307  -0.904  1.00  0.00     0.067 A 
HETATM    4  C3  UNL     1       0.446  -1.737   0.330  1.00  0.00     0.095 A 
HETATM    5  C4  UNL     1       1.031  -2.450   1.350  1.00  0.00     0.040 A 
HETATM    6  C5  UNL     1       1.344  -3.778   1.176  1.00  0.00     0.018 A 
HETATM    7  C6  UNL     1       1.054  -4.355  -0.035  1.00  0.00     0.012 A 
HETATM    8  C9  UNL     1       0.459  -3.619  -1.069  1.00  0.00     0.047 A 
BRANCH   4   9
HETATM    9  O1  UNL     1       0.148  -0.409   0.542  1.00  0.00    -0.349 OA
BRANCH   9  10
HETATM   10  C2  UNL     1       1.059   0.657   0.498  1.00  0.00     0.171 C 
HETATM   11  C1  UNL     1       0.448   1.971   0.140  1.00  0.00     0.034 C 
ENDBRANCH   9  10
ENDBRANCH   4   9
BRANCH   7  12
HETATM   12  C7  UNL     1       1.380  -5.757  -0.230  1.00  0.00     0.155 C 
HETATM   13  C8  UNL     1       1.720  -6.604   0.929  1.00  0.00     0.096 C 
HETATM   14  O2  UNL     1       1.368  -6.229  -1.390  1.00  0.00    -0.293 OA
ENDBRANCH   7  12
ENDBRANCH   1   3
BRANCH   1  15
HETATM   15  C11 UNL     1      -1.780  -1.420  -2.260  1.00  0.00     0.034 A 
HETATM   16  C12 UNL     1      -2.787  -1.052  -1.387  1.00  0.00     0.030 A 
HETATM   17  C13 UNL     1      -4.088  -1.040  -1.818  1.00  0.00     0.016 A 
HETATM   18  C14 UNL     1      -4.374  -1.391  -3.110  1.00  0.00    -0.007 A 
HETATM   19  C15 UNL     1      -5.572  -1.473  -3.826  1.00  0.00     0.032 A 
HETATM   20  C18 UNL     1      -3.394  -1.763  -4.014  1.00  0.00     0.062 A 
HETATM   21  C16 UNL     1      -5.258  -1.884  -5.102  1.00  0.00     0.110 A 
HETATM   22  N2  UNL     1      -3.934  -2.061  -5.221  1.00  0.00    -0.251 N 
HETATM   23  C19 UNL     1      -2.100  -1.771  -3.569  1.00  0.00     0.061 A 
BRANCH  22  24
HETATM   24  S1  UNL     1      -3.032  -2.570  -6.614  1.00  0.00     0.233 S 
HETATM   25  C17 UNL     1      -2.406  -4.189  -6.365  1.00  0.00     0.186 C 
HETATM   26  O3  UNL     1      -3.912  -2.561  -7.830  1.00  0.00    -0.206 OA
HETATM   27  O4  UNL     1      -1.943  -1.567  -6.848  1.00  0.00    -0.206 OA
ENDBRANCH  22  24
ENDBRANCH   1  15
TORSDOF 6
ENDMDL
