MODEL 6
REMARK VINA RESULT: -7.495687630      2.511      3.566
REMARK  6 active torsions:
REMARK  status: ('A' for Active; 'I' for Inactive)
REMARK    1  A    between atoms: C2_2  and  O1_3 
REMARK    2  A    between atoms: O1_3  and  C3_4 
REMARK    3  A    between atoms: C6_7  and  C7_8 
REMARK    4  A    between atoms: C10_12  and  N1_13 
REMARK    5  A    between atoms: N1_13  and  C11_15 
REMARK    6  A    between atoms: N2_21  and  S1_22 
ROOT
HETATM    1  N1  UNL     1      -2.063  -1.514  -2.735  1.00  0.00    -0.354 N 
ATOM      2  H1  UNL     1      -1.695  -0.563  -2.763  1.00  0.00     0.166 HD
ENDROOT
BRANCH   1   3
HETATM    3  C10 UNL     1      -3.412  -1.670  -3.074  1.00  0.00     0.067 A 
HETATM    4  C3  UNL     1      -3.776  -1.591  -4.415  1.00  0.00     0.095 A 
HETATM    5  C4  UNL     1      -5.082  -1.699  -4.832  1.00  0.00     0.040 A 
HETATM    6  C5  UNL     1      -6.088  -1.894  -3.914  1.00  0.00     0.018 A 
HETATM    7  C6  UNL     1      -5.745  -1.975  -2.588  1.00  0.00     0.012 A 
HETATM    8  C9  UNL     1      -4.411  -1.861  -2.173  1.00  0.00     0.047 A 
BRANCH   4   9
HETATM    9  O1  UNL     1      -2.796  -1.394  -5.362  1.00  0.00    -0.349 OA
BRANCH   9  10
HETATM   10  C2  UNL     1      -2.681  -2.077  -6.582  1.00  0.00     0.171 C 
HETATM   11  C1  UNL     1      -2.400  -3.537  -6.443  1.00  0.00     0.034 C 
ENDBRANCH   9  10
ENDBRANCH   4   9
BRANCH   7  12
HETATM   12  C7  UNL     1      -6.800  -2.180  -1.611  1.00  0.00     0.155 C 
HETATM   13  C8  UNL     1      -8.214  -2.074  -2.017  1.00  0.00     0.096 C 
HETATM   14  O2  UNL     1      -6.489  -2.448  -0.428  1.00  0.00    -0.293 OA
ENDBRANCH   7  12
ENDBRANCH   1   3
BRANCH   1  15
HETATM   15  C11 UNL     1      -1.156  -2.528  -2.359  1.00  0.00     0.034 A 
HETATM   16  C12 UNL     1      -1.058  -3.747  -3.005  1.00  0.00     0.030 A 
HETATM   17  C13 UNL     1      -0.173  -4.688  -2.547  1.00  0.00     0.016 A 
HETATM   18  C14 UNL     1       0.604  -4.409  -1.454  1.00  0.00    -0.007 A 
HETATM   19  C15 UNL     1       1.575  -5.146  -0.770  1.00  0.00     0.032 A 
HETATM   20  C18 UNL     1       0.536  -3.201  -0.783  1.00  0.00     0.062 A 
HETATM   21  C16 UNL     1       2.033  -4.358   0.263  1.00  0.00     0.110 A 
HETATM   22  N2  UNL     1       1.405  -3.173   0.258  1.00  0.00    -0.251 N 
HETATM   23  C19 UNL     1      -0.353  -2.271  -1.252  1.00  0.00     0.061 A 
BRANCH  22  24
HETATM   24  S1  UNL     1       1.614  -1.833   1.341  1.00  0.00     0.233 S 
HETATM   25  C17 UNL     1       2.749  -0.682   0.659  1.00  0.00     0.186 C 
HETATM   26  O3  UNL     1       0.299  -1.150   1.577  1.00  0.00    -0.206 OA
HETATM   27  O4  UNL     1       2.076  -2.376   2.659  1.00  0.00    -0.206 OA
ENDBRANCH  22  24
ENDBRANCH   1  15
TORSDOF 6
ENDMDL
