MODEL 5
REMARK VINA RESULT: -7.611327805      4.593      7.638
REMARK  6 active torsions:
REMARK  status: ('A' for Active; 'I' for Inactive)
REMARK    1  A    between atoms: C2_2  and  O1_3 
REMARK    2  A    between atoms: O1_3  and  C3_4 
REMARK    3  A    between atoms: C6_7  and  C7_8 
REMARK    4  A    between atoms: C10_12  and  N1_13 
REMARK    5  A    between atoms: N1_13  and  C11_15 
REMARK    6  A    between atoms: N2_21  and  S1_22 
ROOT
HETATM    1  N1  UNL     1      -2.295  -2.385  -5.786  1.00  0.00    -0.354 N 
ATOM      2  H1  UNL     1      -1.339  -2.032  -5.773  1.00  0.00     0.166 HD
ENDROOT
BRANCH   1   3
HETATM    3  C10 UNL     1      -3.063  -2.147  -4.640  1.00  0.00     0.067 A 
HETATM    4  C3  UNL     1      -2.406  -1.910  -3.435  1.00  0.00     0.095 A 
HETATM    5  C4  UNL     1      -3.082  -1.701  -2.255  1.00  0.00     0.040 A 
HETATM    6  C5  UNL     1      -4.457  -1.717  -2.233  1.00  0.00     0.018 A 
HETATM    7  C6  UNL     1      -5.119  -1.949  -3.413  1.00  0.00     0.012 A 
HETATM    8  C9  UNL     1      -4.421  -2.163  -4.609  1.00  0.00     0.047 A 
BRANCH   4   9
HETATM    9  O1  UNL     1      -1.029  -1.887  -3.418  1.00  0.00    -0.349 OA
BRANCH   9  10
HETATM   10  C2  UNL     1      -0.200  -2.747  -2.684  1.00  0.00     0.171 C 
HETATM   11  C1  UNL     1      -0.377  -4.194  -3.007  1.00  0.00     0.034 C 
ENDBRANCH   9  10
ENDBRANCH   4   9
BRANCH   7  12
HETATM   12  C7  UNL     1      -6.571  -1.969  -3.399  1.00  0.00     0.155 C 
HETATM   13  C8  UNL     1      -7.296  -2.142  -2.127  1.00  0.00     0.096 C 
HETATM   14  O2  UNL     1      -7.191  -1.838  -4.480  1.00  0.00    -0.293 OA
ENDBRANCH   7  12
ENDBRANCH   1   3
BRANCH   1  15
HETATM   15  C11 UNL     1      -2.701  -3.061  -6.957  1.00  0.00     0.034 A 
HETATM   16  C12 UNL     1      -3.653  -2.573  -7.833  1.00  0.00     0.030 A 
HETATM   17  C13 UNL     1      -4.012  -3.316  -8.927  1.00  0.00     0.016 A 
HETATM   18  C14 UNL     1      -3.422  -4.533  -9.140  1.00  0.00    -0.007 A 
HETATM   19  C15 UNL     1      -3.574  -5.498 -10.140  1.00  0.00     0.032 A 
HETATM   20  C18 UNL     1      -2.465  -5.054  -8.287  1.00  0.00     0.062 A 
HETATM   21  C16 UNL     1      -2.716  -6.533  -9.843  1.00  0.00     0.110 A 
HETATM   22  N2  UNL     1      -2.038  -6.267  -8.717  1.00  0.00    -0.251 N 
HETATM   23  C19 UNL     1      -2.117  -4.301  -7.198  1.00  0.00     0.061 A 
BRANCH  22  24
HETATM   24  S1  UNL     1      -0.844  -7.241  -7.918  1.00  0.00     0.233 S 
HETATM   25  C17 UNL     1      -0.748  -8.818  -8.679  1.00  0.00     0.186 C 
HETATM   26  O3  UNL     1       0.499  -6.573  -7.991  1.00  0.00    -0.206 OA
HETATM   27  O4  UNL     1      -1.217  -7.329  -6.469  1.00  0.00    -0.206 OA
ENDBRANCH  22  24
ENDBRANCH   1  15
TORSDOF 6
ENDMDL
