MODEL 18
REMARK VINA RESULT: -3.163749100      3.744      4.668
REMARK  0 active torsions:
REMARK  status: ('A' for Active; 'I' for Inactive)
ROOT
HETATM    1  N1  UNL     1      -1.421 -11.925 -16.733  1.00  0.00    -0.083 NA
HETATM    2  C1  UNL     1      -0.446 -11.427 -15.827  1.00  0.00     0.116 A 
HETATM    3  C2  UNL     1       0.409 -10.389 -16.143  1.00  0.00     0.045 A 
HETATM    4  C3  UNL     1       1.352  -9.921 -15.245  1.00  0.00     0.005 A 
HETATM    5  C4  UNL     1       1.463 -10.486 -13.992  1.00  0.00     0.017 A 
HETATM    6  C5  UNL     1       0.597 -11.523 -13.701  1.00  0.00     0.089 A 
HETATM    7  N2  UNL     1      -0.312 -11.962 -14.590  1.00  0.00    -0.355 N 
ATOM      8  H2  UNL     1      -0.926 -12.732 -14.322  1.00  0.00     0.166 HD
ENDROOT
TORSDOF 0
ENDMDL
