MODEL 1
REMARK VINA RESULT: -4.604513347      0.000      0.000
REMARK  0 active torsions:
REMARK  status: ('A' for Active; 'I' for Inactive)
ROOT
HETATM    1  N1  UNL     1      -1.489 -16.327 -18.267  1.00  0.00    -0.083 NA
HETATM    2  C1  UNL     1      -1.597 -15.321 -17.270  1.00  0.00     0.116 A 
HETATM    3  C2  UNL     1      -0.979 -15.418 -16.039  1.00  0.00     0.045 A 
HETATM    4  C3  UNL     1      -1.098 -14.426 -15.082  1.00  0.00     0.005 A 
HETATM    5  C4  UNL     1      -1.848 -13.297 -15.337  1.00  0.00     0.017 A 
HETATM    6  C5  UNL     1      -2.457 -13.225 -16.575  1.00  0.00     0.089 A 
HETATM    7  N2  UNL     1      -2.327 -14.202 -17.491  1.00  0.00    -0.355 N 
ATOM      8  H2  UNL     1      -2.800 -14.096 -18.389  1.00  0.00     0.166 HD
ENDROOT
TORSDOF 0
ENDMDL
