MODEL 3
REMARK VINA RESULT: -4.406850700      1.312      1.617
REMARK  0 active torsions:
REMARK  status: ('A' for Active; 'I' for Inactive)
ROOT
HETATM    1  N1  UNL     1       0.476 -16.814 -16.350  1.00  0.00    -0.083 NA
HETATM    2  C1  UNL     1      -0.471 -15.756 -16.296  1.00  0.00     0.116 A 
HETATM    3  C2  UNL     1      -0.539 -14.865 -15.243  1.00  0.00     0.045 A 
HETATM    4  C3  UNL     1      -1.471 -13.842 -15.212  1.00  0.00     0.005 A 
HETATM    5  C4  UNL     1      -2.367 -13.683 -16.247  1.00  0.00     0.017 A 
HETATM    6  C5  UNL     1      -2.278 -14.587 -17.288  1.00  0.00     0.089 A 
HETATM    7  N2  UNL     1      -1.365 -15.575 -17.298  1.00  0.00    -0.355 N 
ATOM      8  H2  UNL     1      -1.345 -16.215 -18.092  1.00  0.00     0.166 HD
ENDROOT
TORSDOF 0
ENDMDL
