MODEL 2
REMARK VINA RESULT: -4.582445155      1.054      1.817
REMARK  0 active torsions:
REMARK  status: ('A' for Active; 'I' for Inactive)
ROOT
HETATM    1  N1  UNL     1      -1.659 -16.139 -18.432  1.00  0.00    -0.083 NA
HETATM    2  C1  UNL     1      -1.563 -15.356 -17.251  1.00  0.00     0.116 A 
HETATM    3  C2  UNL     1      -2.250 -14.170 -17.080  1.00  0.00     0.045 A 
HETATM    4  C3  UNL     1      -2.141 -13.424 -15.920  1.00  0.00     0.005 A 
HETATM    5  C4  UNL     1      -1.332 -13.852 -14.889  1.00  0.00     0.017 A 
HETATM    6  C5  UNL     1      -0.655 -15.040 -15.085  1.00  0.00     0.089 A 
HETATM    7  N2  UNL     1      -0.775 -15.750 -16.221  1.00  0.00    -0.355 N 
ATOM      8  H2  UNL     1      -0.252 -16.621 -16.312  1.00  0.00     0.166 HD
ENDROOT
TORSDOF 0
ENDMDL
