MODEL 11
REMARK VINA RESULT: -3.472360369      3.398      4.534
REMARK  0 active torsions:
REMARK  status: ('A' for Active; 'I' for Inactive)
ROOT
HETATM    1  N1  UNL     1      -0.185 -11.536 -12.070  1.00  0.00    -0.083 NA
HETATM    2  C1  UNL     1      -0.548 -11.874 -13.401  1.00  0.00     0.116 A 
HETATM    3  C2  UNL     1      -0.154 -11.131 -14.496  1.00  0.00     0.045 A 
HETATM    4  C3  UNL     1      -0.521 -11.479 -15.785  1.00  0.00     0.005 A 
HETATM    5  C4  UNL     1      -1.299 -12.594 -16.012  1.00  0.00     0.017 A 
HETATM    6  C5  UNL     1      -1.680 -13.320 -14.899  1.00  0.00     0.089 A 
HETATM    7  N2  UNL     1      -1.313 -12.963 -13.656  1.00  0.00    -0.355 N 
ATOM      8  H2  UNL     1      -1.624 -13.536 -12.871  1.00  0.00     0.166 HD
ENDROOT
TORSDOF 0
ENDMDL
