MODEL 15
REMARK VINA RESULT: -3.280062437      4.659      5.592
REMARK  0 active torsions:
REMARK  status: ('A' for Active; 'I' for Inactive)
ROOT
HETATM    1  N1  UNL     1       2.810 -10.286 -13.457  1.00  0.00    -0.083 NA
HETATM    2  C1  UNL     1       1.694 -10.682 -14.242  1.00  0.00     0.116 A 
HETATM    3  C2  UNL     1       1.263  -9.969 -15.343  1.00  0.00     0.045 A 
HETATM    4  C3  UNL     1       0.172 -10.373 -16.093  1.00  0.00     0.005 A 
HETATM    5  C4  UNL     1      -0.521 -11.516 -15.755  1.00  0.00     0.017 A 
HETATM    6  C5  UNL     1      -0.070 -12.211 -14.649  1.00  0.00     0.089 A 
HETATM    7  N2  UNL     1       0.992 -11.799 -13.934  1.00  0.00    -0.355 N 
ATOM      8  H2  UNL     1       1.282 -12.351 -13.126  1.00  0.00     0.166 HD
ENDROOT
TORSDOF 0
ENDMDL
