MODEL 19
REMARK VINA RESULT: -3.789493857      3.482      4.509
REMARK  0 active torsions:
REMARK  status: ('A' for Active; 'I' for Inactive)
ROOT
HETATM    1  N1  UNL     1       1.565 -10.907 -13.587  1.00  0.00    -0.067 NA
HETATM    2  C1  UNL     1       0.208 -11.188 -13.260  1.00  0.00     0.199 C 
HETATM    3  N2  UNL     1      -0.133 -11.223 -11.880  1.00  0.00    -0.067 NA
HETATM    4  N3  UNL     1      -0.647 -11.397 -14.176  1.00  0.00    -0.358 N 
HETATM    5  C2  UNL     1      -0.253 -11.351 -15.569  1.00  0.00     0.125 C 
HETATM    6  C3  UNL     1      -0.853 -12.576 -16.210  1.00  0.00     0.020 C 
HETATM    7  C4  UNL     1      -2.344 -12.352 -16.261  1.00  0.00     0.003 C 
HETATM    8  C5  UNL     1      -2.929 -11.860 -14.981  1.00  0.00     0.020 C 
HETATM    9  C6  UNL     1      -2.002 -11.677 -13.849  1.00  0.00     0.125 C 
ENDROOT
TORSDOF 0
ENDMDL
