MODEL 1
REMARK VINA RESULT: -4.975745640      0.000      0.000
REMARK  0 active torsions:
REMARK  status: ('A' for Active; 'I' for Inactive)
ROOT
HETATM    1  N1  UNL     1       0.397 -16.515 -16.281  1.00  0.00    -0.067 NA
HETATM    2  C1  UNL     1      -0.759 -15.827 -16.750  1.00  0.00     0.199 C 
HETATM    3  N2  UNL     1      -1.383 -16.334 -17.923  1.00  0.00    -0.067 NA
HETATM    4  N3  UNL     1      -1.198 -14.806 -16.135  1.00  0.00    -0.358 N 
HETATM    5  C2  UNL     1      -0.528 -14.326 -14.944  1.00  0.00     0.125 C 
HETATM    6  C3  UNL     1      -0.391 -12.835 -15.117  1.00  0.00     0.020 C 
HETATM    7  C4  UNL     1      -1.779 -12.256 -14.995  1.00  0.00     0.003 C 
HETATM    8  C5  UNL     1      -2.810 -12.974 -15.797  1.00  0.00     0.020 C 
HETATM    9  C6  UNL     1      -2.351 -14.120 -16.603  1.00  0.00     0.125 C 
ENDROOT
TORSDOF 0
ENDMDL
