MODEL 2
REMARK VINA RESULT: -4.925213656      1.107      2.239
REMARK  0 active torsions:
REMARK  status: ('A' for Active; 'I' for Inactive)
ROOT
HETATM    1  N1  UNL     1      -2.287 -14.884 -18.981  1.00  0.00    -0.067 NA
HETATM    2  C1  UNL     1      -1.561 -15.335 -17.841  1.00  0.00     0.199 C 
HETATM    3  N2  UNL     1      -1.082 -16.674 -17.866  1.00  0.00    -0.067 NA
HETATM    4  N3  UNL     1      -1.360 -14.560 -16.855  1.00  0.00    -0.358 N 
HETATM    5  C2  UNL     1      -1.868 -13.204 -16.875  1.00  0.00     0.125 C 
HETATM    6  C3  UNL     1      -2.527 -12.988 -15.537  1.00  0.00     0.020 C 
HETATM    7  C4  UNL     1      -1.419 -12.931 -14.513  1.00  0.00     0.003 C 
HETATM    8  C5  UNL     1      -0.414 -14.025 -14.644  1.00  0.00     0.020 C 
HETATM    9  C6  UNL     1      -0.635 -15.010 -15.718  1.00  0.00     0.125 C 
ENDROOT
TORSDOF 0
ENDMDL
