MODEL 20
REMARK VINA RESULT: -3.787821172      3.331      4.594
REMARK  0 active torsions:
REMARK  status: ('A' for Active; 'I' for Inactive)
ROOT
HETATM    1  N1  UNL     1      -0.030 -11.295 -11.774  1.00  0.00    -0.067 NA
HETATM    2  C1  UNL     1      -1.232 -11.261 -12.538  1.00  0.00     0.199 C 
HETATM    3  N2  UNL     1      -2.386 -10.721 -11.907  1.00  0.00    -0.067 NA
HETATM    4  N3  UNL     1      -1.252 -11.700 -13.730  1.00  0.00    -0.358 N 
HETATM    5  C2  UNL     1      -0.051 -12.242 -14.330  1.00  0.00     0.125 C 
HETATM    6  C3  UNL     1      -0.461 -13.537 -14.984  1.00  0.00     0.020 C 
HETATM    7  C4  UNL     1      -1.312 -13.170 -16.175  1.00  0.00     0.003 C 
HETATM    8  C5  UNL     1      -2.364 -12.155 -15.881  1.00  0.00     0.020 C 
HETATM    9  C6  UNL     1      -2.451 -11.666 -14.492  1.00  0.00     0.125 C 
ENDROOT
TORSDOF 0
ENDMDL
