MODEL 3
REMARK VINA RESULT: -4.905105753      0.968      1.111
REMARK  0 active torsions:
REMARK  status: ('A' for Active; 'I' for Inactive)
ROOT
HETATM    1  N1  UNL     1      -0.798 -16.575 -17.408  1.00  0.00    -0.067 NA
HETATM    2  C1  UNL     1      -1.558 -15.377 -17.537  1.00  0.00     0.199 C 
HETATM    3  N2  UNL     1      -2.060 -15.065 -18.831  1.00  0.00    -0.067 NA
HETATM    4  N3  UNL     1      -1.767 -14.633 -16.529  1.00  0.00    -0.358 N 
HETATM    5  C2  UNL     1      -1.235 -14.992 -15.231  1.00  0.00     0.125 C 
HETATM    6  C3  UNL     1      -0.603 -13.740 -14.681  1.00  0.00     0.020 C 
HETATM    7  C4  UNL     1      -1.732 -12.796 -14.346  1.00  0.00     0.003 C 
HETATM    8  C5  UNL     1      -2.754 -12.664 -15.424  1.00  0.00     0.020 C 
HETATM    9  C6  UNL     1      -2.526 -13.438 -16.659  1.00  0.00     0.125 C 
ENDROOT
TORSDOF 0
ENDMDL
