MODEL 4
REMARK VINA RESULT: -8.490352236      2.912     10.621
REMARK  15 active torsions:
REMARK  status: ('A' for Active; 'I' for Inactive)
REMARK    1  A    between atoms: C2_2  and  C4_4 
REMARK    2  A    between atoms: C4_4  and  C5_5 
REMARK    3  A    between atoms: C5_5  and  N1_6 
REMARK    4  A    between atoms: C5_5  and  C15_24 
REMARK    5  A    between atoms: N1_6  and  P1_8 
REMARK    6  A    between atoms: P1_8  and  C6_11 
REMARK    7  A    between atoms: C6_11  and  N2_12 
REMARK       I    between atoms: N2_12  and  C7_14 
REMARK    8  A    between atoms: C7_14  and  O4_16 
REMARK    9  A    between atoms: O4_16  and  C8_17 
REMARK   10  A    between atoms: C8_17  and  C9_18 
REMARK       I    between atoms: C15_24  and  N3_26 
REMARK   11  A    between atoms: N3_26  and  C16_28 
REMARK   12  A    between atoms: C16_28  and  C17_29 
REMARK   13  A    between atoms: C16_28  and  C19_35 
REMARK   14  A    between atoms: C17_29  and  C18_30 
REMARK   15  A    between atoms: C18_30  and  N4_31 
ROOT
HETATM    1  C5  UNL     1      13.245  40.753  -9.811  1.00  0.00     0.178 C 
ENDROOT
BRANCH   1   2
HETATM    2  C4  UNL     1      14.144  41.840 -10.181  1.00  0.00     0.038 C 
BRANCH   2   3
HETATM    3  C2  UNL     1      15.430  41.700  -9.388  1.00  0.00    -0.020 C 
HETATM    4  C1  UNL     1      15.652  43.030  -8.654  1.00  0.00     0.009 C 
HETATM    5  C3  UNL     1      16.531  41.731 -10.492  1.00  0.00     0.009 C 
ENDBRANCH   2   3
ENDBRANCH   1   2
BRANCH   1   6
HETATM    6  N1  UNL     1      13.121  40.392  -8.400  1.00  0.00    -0.332 N 
ATOM      7  H1  UNL     1      13.833  39.793  -7.981  1.00  0.00     0.164 HD
BRANCH   6   8
HETATM    8  P1  UNL     1      11.911  40.902  -7.489  1.00  0.00     0.246 P 
HETATM    9  O1  UNL     1      11.117  41.292  -8.929  1.00  0.00    -0.648 OA
HETATM   10  O2  UNL     1      12.905  41.997  -6.784  1.00  0.00    -0.648 OA
BRANCH   8  11
HETATM   11  C6  UNL     1      11.521  39.407  -6.709  1.00  0.00     0.190 C 
BRANCH  11  12
HETATM   12  N2  UNL     1      11.449  39.312  -5.293  1.00  0.00    -0.305 N 
HETATM   13  C7  UNL     1      10.388  38.596  -4.662  1.00  0.00     0.365 C 
HETATM   14  O3  UNL     1       9.483  38.027  -5.360  1.00  0.00    -0.238 OA
ATOM     15  H2  UNL     1      12.164  39.760  -4.721  1.00  0.00     0.170 HD
BRANCH  13  16
HETATM   16  O4  UNL     1      10.284  38.481  -3.296  1.00  0.00    -0.299 OA
BRANCH  16  17
HETATM   17  C8  UNL     1       9.831  37.330  -2.619  1.00  0.00     0.219 C 
BRANCH  17  18
HETATM   18  C9  UNL     1       9.509  37.672  -1.213  1.00  0.00    -0.034 A 
HETATM   19  C10 UNL     1       8.482  37.010  -0.574  1.00  0.00     0.009 A 
HETATM   20  C11 UNL     1       8.139  37.282   0.744  1.00  0.00     0.001 A 
HETATM   21  C12 UNL     1       8.823  38.233   1.453  1.00  0.00     0.000 A 
HETATM   22  C13 UNL     1       9.853  38.903   0.827  1.00  0.00     0.001 A 
HETATM   23  C14 UNL     1      10.187  38.625  -0.482  1.00  0.00     0.009 A 
ENDBRANCH  17  18
ENDBRANCH  16  17
ENDBRANCH  13  16
ENDBRANCH  11  12
ENDBRANCH   8  11
ENDBRANCH   6   8
ENDBRANCH   1   6
BRANCH   1  24
HETATM   24  C15 UNL     1      13.777  39.460 -10.371  1.00  0.00     0.241 C 
HETATM   25  O5  UNL     1      13.872  38.502  -9.526  1.00  0.00    -0.271 OA
HETATM   26  N3  UNL     1      14.174  39.201 -11.672  1.00  0.00    -0.345 N 
ATOM     27  H3  UNL     1      14.135  39.935 -12.379  1.00  0.00     0.163 HD
BRANCH  26  28
HETATM   28  C16 UNL     1      14.658  37.844 -12.025  1.00  0.00     0.187 C 
BRANCH  28  29
HETATM   29  C17 UNL     1      13.652  37.190 -12.950  1.00  0.00     0.063 C 
BRANCH  29  30
HETATM   30  C18 UNL     1      13.207  35.840 -12.500  1.00  0.00     0.232 C 
BRANCH  30  31
HETATM   31  N4  UNL     1      14.310  34.989 -12.099  1.00  0.00    -0.079 N 
ATOM     32  H43 UNL     1      15.157  35.219 -12.620  1.00  0.00     0.274 HD
ATOM     33  H42 UNL     1      14.627  35.221 -11.157  1.00  0.00     0.274 HD
ATOM     34  H41 UNL     1      14.092  33.995 -12.177  1.00  0.00     0.274 HD
ENDBRANCH  30  31
ENDBRANCH  29  30
ENDBRANCH  28  29
BRANCH  28  35
HETATM   35  C19 UNL     1      15.983  37.951 -12.687  1.00  0.00     0.196 C 
HETATM   36  O6  UNL     1      16.472  39.092 -12.921  1.00  0.00    -0.646 OA
HETATM   37  O7  UNL     1      16.718  36.845 -13.065  1.00  0.00    -0.646 OA
ENDBRANCH  28  35
ENDBRANCH  26  28
ENDBRANCH   1  24
TORSDOF 15
ENDMDL
