MODEL 13
REMARK VINA RESULT: -7.886403769      1.887      2.559
REMARK  15 active torsions:
REMARK  status: ('A' for Active; 'I' for Inactive)
REMARK    1  A    between atoms: C2_2  and  C4_4 
REMARK    2  A    between atoms: C4_4  and  C5_5 
REMARK    3  A    between atoms: C5_5  and  N1_6 
REMARK    4  A    between atoms: C5_5  and  C15_24 
REMARK    5  A    between atoms: N1_6  and  P1_8 
REMARK    6  A    between atoms: P1_8  and  C6_11 
REMARK    7  A    between atoms: C6_11  and  N2_12 
REMARK       I    between atoms: N2_12  and  C7_14 
REMARK    8  A    between atoms: C7_14  and  O4_16 
REMARK    9  A    between atoms: O4_16  and  C8_17 
REMARK   10  A    between atoms: C8_17  and  C9_18 
REMARK       I    between atoms: C15_24  and  N3_26 
REMARK   11  A    between atoms: N3_26  and  C16_28 
REMARK   12  A    between atoms: C16_28  and  C17_29 
REMARK   13  A    between atoms: C16_28  and  C19_35 
REMARK   14  A    between atoms: C17_29  and  C18_30 
REMARK   15  A    between atoms: C18_30  and  N4_31 
ROOT
HETATM    1  C5  UNL     1       9.694  38.770  -2.964  1.00  0.00     0.178 C 
ENDROOT
BRANCH   1   2
HETATM    2  C4  UNL     1      10.162  38.307  -1.662  1.00  0.00     0.038 C 
BRANCH   2   3
HETATM    3  C2  UNL     1       9.040  37.545  -0.983  1.00  0.00    -0.020 C 
HETATM    4  C1  UNL     1       9.103  37.891   0.511  1.00  0.00     0.009 C 
HETATM    5  C3  UNL     1       9.546  36.070  -1.015  1.00  0.00     0.009 C 
ENDBRANCH   2   3
ENDBRANCH   1   2
BRANCH   1   6
HETATM    6  N1  UNL     1      10.682  39.123  -3.982  1.00  0.00    -0.332 N 
ATOM      7  H1  UNL     1      11.544  39.584  -3.692  1.00  0.00     0.164 HD
BRANCH   6   8
HETATM    8  P1  UNL     1      10.460  38.811  -5.534  1.00  0.00     0.246 P 
HETATM    9  O1  UNL     1      10.445  40.485  -5.770  1.00  0.00    -0.648 OA
HETATM   10  O2  UNL     1       9.066  38.027  -5.175  1.00  0.00    -0.648 OA
BRANCH   8  11
HETATM   11  C6  UNL     1      11.926  37.947  -5.842  1.00  0.00     0.190 C 
BRANCH  11  12
HETATM   12  N2  UNL     1      12.975  38.524  -6.607  1.00  0.00    -0.305 N 
HETATM   13  C7  UNL     1      12.923  38.526  -8.033  1.00  0.00     0.365 C 
HETATM   14  O3  UNL     1      11.931  38.010  -8.648  1.00  0.00    -0.238 OA
ATOM     15  H2  UNL     1      13.775  38.941  -6.132  1.00  0.00     0.170 HD
BRANCH  13  16
HETATM   16  O4  UNL     1      13.918  39.074  -8.808  1.00  0.00    -0.299 OA
BRANCH  16  17
HETATM   17  C8  UNL     1      13.755  39.493 -10.144  1.00  0.00     0.219 C 
BRANCH  17  18
HETATM   18  C9  UNL     1      15.065  39.909 -10.700  1.00  0.00    -0.034 A 
HETATM   19  C10 UNL     1      15.481  39.394 -11.911  1.00  0.00     0.009 A 
HETATM   20  C11 UNL     1      16.694  39.751 -12.484  1.00  0.00     0.001 A 
HETATM   21  C12 UNL     1      17.523  40.638 -11.850  1.00  0.00     0.000 A 
HETATM   22  C13 UNL     1      17.121  41.160 -10.640  1.00  0.00     0.001 A 
HETATM   23  C14 UNL     1      15.913  40.800 -10.078  1.00  0.00     0.009 A 
ENDBRANCH  17  18
ENDBRANCH  16  17
ENDBRANCH  13  16
ENDBRANCH  11  12
ENDBRANCH   8  11
ENDBRANCH   6   8
ENDBRANCH   1   6
BRANCH   1  24
HETATM   24  C15 UNL     1       8.999  40.096  -2.797  1.00  0.00     0.241 C 
HETATM   25  O5  UNL     1       9.265  40.714  -1.706  1.00  0.00    -0.271 OA
HETATM   26  N3  UNL     1       8.114  40.704  -3.671  1.00  0.00    -0.345 N 
ATOM     27  H3  UNL     1       7.855  40.245  -4.544  1.00  0.00     0.163 HD
BRANCH  26  28
HETATM   28  C16 UNL     1       7.547  42.030  -3.323  1.00  0.00     0.187 C 
BRANCH  28  29
HETATM   29  C17 UNL     1       8.468  43.110  -3.850  1.00  0.00     0.063 C 
BRANCH  29  30
HETATM   30  C18 UNL     1       8.802  44.161  -2.847  1.00  0.00     0.232 C 
BRANCH  30  31
HETATM   31  N4  UNL     1       8.920  43.636  -1.500  1.00  0.00    -0.079 N 
ATOM     32  H43 UNL     1       8.078  43.125  -1.233  1.00  0.00     0.274 HD
ATOM     33  H42 UNL     1       9.596  42.873  -1.464  1.00  0.00     0.274 HD
ATOM     34  H41 UNL     1       9.144  44.356  -0.813  1.00  0.00     0.274 HD
ENDBRANCH  30  31
ENDBRANCH  29  30
ENDBRANCH  28  29
BRANCH  28  35
HETATM   35  C19 UNL     1       6.194  42.158  -3.921  1.00  0.00     0.196 C 
HETATM   36  O6  UNL     1       5.217  41.564  -3.385  1.00  0.00    -0.646 OA
HETATM   37  O7  UNL     1       5.949  42.909  -5.054  1.00  0.00    -0.646 OA
ENDBRANCH  28  35
ENDBRANCH  26  28
ENDBRANCH   1  24
TORSDOF 15
ENDMDL
