MODEL 8
REMARK VINA RESULT: -8.272755133      2.929     10.706
REMARK  15 active torsions:
REMARK  status: ('A' for Active; 'I' for Inactive)
REMARK    1  A    between atoms: C2_2  and  C4_4 
REMARK    2  A    between atoms: C4_4  and  C5_5 
REMARK    3  A    between atoms: C5_5  and  N1_6 
REMARK    4  A    between atoms: C5_5  and  C15_24 
REMARK    5  A    between atoms: N1_6  and  P1_8 
REMARK    6  A    between atoms: P1_8  and  C6_11 
REMARK    7  A    between atoms: C6_11  and  N2_12 
REMARK       I    between atoms: N2_12  and  C7_14 
REMARK    8  A    between atoms: C7_14  and  O4_16 
REMARK    9  A    between atoms: O4_16  and  C8_17 
REMARK   10  A    between atoms: C8_17  and  C9_18 
REMARK       I    between atoms: C15_24  and  N3_26 
REMARK   11  A    between atoms: N3_26  and  C16_28 
REMARK   12  A    between atoms: C16_28  and  C17_29 
REMARK   13  A    between atoms: C16_28  and  C19_35 
REMARK   14  A    between atoms: C17_29  and  C18_30 
REMARK   15  A    between atoms: C18_30  and  N4_31 
ROOT
HETATM    1  C5  UNL     1      13.739  39.811 -10.644  1.00  0.00     0.178 C 
ENDROOT
BRANCH   1   2
HETATM    2  C4  UNL     1      14.459  41.073 -10.768  1.00  0.00     0.038 C 
BRANCH   2   3
HETATM    3  C2  UNL     1      15.620  41.069  -9.792  1.00  0.00    -0.020 C 
HETATM    4  C1  UNL     1      15.659  42.456  -9.134  1.00  0.00     0.009 C 
HETATM    5  C3  UNL     1      16.868  41.099 -10.727  1.00  0.00     0.009 C 
ENDBRANCH   2   3
ENDBRANCH   1   2
BRANCH   1   6
HETATM    6  N1  UNL     1      14.175  38.848  -9.635  1.00  0.00    -0.332 N 
ATOM      7  H1  UNL     1      15.158  38.574  -9.609  1.00  0.00     0.164 HD
BRANCH   6   8
HETATM    8  P1  UNL     1      13.169  38.207  -8.571  1.00  0.00     0.246 P 
HETATM    9  O1  UNL     1      14.476  37.278  -8.037  1.00  0.00    -0.648 OA
HETATM   10  O2  UNL     1      12.227  37.660  -9.796  1.00  0.00    -0.648 OA
BRANCH   8  11
HETATM   11  C6  UNL     1      12.763  39.642  -7.695  1.00  0.00     0.190 C 
BRANCH  11  12
HETATM   12  N2  UNL     1      12.410  39.591  -6.319  1.00  0.00    -0.305 N 
HETATM   13  C7  UNL     1      11.186  38.988  -5.901  1.00  0.00     0.365 C 
HETATM   14  O3  UNL     1      10.385  38.483  -6.757  1.00  0.00    -0.238 OA
ATOM     15  H2  UNL     1      13.039  39.990  -5.623  1.00  0.00     0.170 HD
BRANCH  13  16
HETATM   16  O4  UNL     1      10.810  38.920  -4.581  1.00  0.00    -0.299 OA
BRANCH  16  17
HETATM   17  C8  UNL     1       9.499  38.661  -4.133  1.00  0.00     0.219 C 
BRANCH  17  18
HETATM   18  C9  UNL     1       9.509  38.417  -2.670  1.00  0.00    -0.034 A 
HETATM   19  C10 UNL     1       9.743  39.469  -1.810  1.00  0.00     0.009 A 
HETATM   20  C11 UNL     1       9.759  39.302  -0.432  1.00  0.00     0.001 A 
HETATM   21  C12 UNL     1       9.539  38.067   0.117  1.00  0.00     0.000 A 
HETATM   22  C13 UNL     1       9.302  37.006  -0.731  1.00  0.00     0.001 A 
HETATM   23  C14 UNL     1       9.289  37.181  -2.099  1.00  0.00     0.009 A 
ENDBRANCH  17  18
ENDBRANCH  16  17
ENDBRANCH  13  16
ENDBRANCH  11  12
ENDBRANCH   8  11
ENDBRANCH   6   8
ENDBRANCH   1   6
BRANCH   1  24
HETATM   24  C15 UNL     1      13.946  38.998 -11.895  1.00  0.00     0.241 C 
HETATM   25  O5  UNL     1      14.112  39.683 -12.966  1.00  0.00    -0.271 OA
HETATM   26  N3  UNL     1      13.967  37.619 -12.015  1.00  0.00    -0.345 N 
ATOM     27  H3  UNL     1      13.820  37.028 -11.196  1.00  0.00     0.163 HD
BRANCH  26  28
HETATM   28  C16 UNL     1      14.203  37.010 -13.347  1.00  0.00     0.187 C 
BRANCH  28  29
HETATM   29  C17 UNL     1      15.648  36.568 -13.434  1.00  0.00     0.063 C 
BRANCH  29  30
HETATM   30  C18 UNL     1      16.380  37.124 -14.609  1.00  0.00     0.232 C 
BRANCH  30  31
HETATM   31  N4  UNL     1      15.696  38.249 -15.216  1.00  0.00    -0.079 N 
ATOM     32  H43 UNL     1      15.695  38.171 -16.233  1.00  0.00     0.274 HD
ATOM     33  H42 UNL     1      14.692  38.203 -15.044  1.00  0.00     0.274 HD
ATOM     34  H41 UNL     1      16.076  39.149 -14.919  1.00  0.00     0.274 HD
ENDBRANCH  30  31
ENDBRANCH  29  30
ENDBRANCH  28  29
BRANCH  28  35
HETATM   35  C19 UNL     1      13.290  35.853 -13.527  1.00  0.00     0.196 C 
HETATM   36  O6  UNL     1      12.941  35.172 -12.522  1.00  0.00    -0.646 OA
HETATM   37  O7  UNL     1      12.797  35.478 -14.762  1.00  0.00    -0.646 OA
ENDBRANCH  28  35
ENDBRANCH  26  28
ENDBRANCH   1  24
TORSDOF 15
ENDMDL
