MODEL 9
REMARK VINA RESULT: -8.203974067      2.971     10.464
REMARK  15 active torsions:
REMARK  status: ('A' for Active; 'I' for Inactive)
REMARK    1  A    between atoms: C2_2  and  C4_4 
REMARK    2  A    between atoms: C4_4  and  C5_5 
REMARK    3  A    between atoms: C5_5  and  N1_6 
REMARK    4  A    between atoms: C5_5  and  C15_24 
REMARK    5  A    between atoms: N1_6  and  P1_8 
REMARK    6  A    between atoms: P1_8  and  C6_11 
REMARK    7  A    between atoms: C6_11  and  N2_12 
REMARK       I    between atoms: N2_12  and  C7_14 
REMARK    8  A    between atoms: C7_14  and  O4_16 
REMARK    9  A    between atoms: O4_16  and  C8_17 
REMARK   10  A    between atoms: C8_17  and  C9_18 
REMARK       I    between atoms: C15_24  and  N3_26 
REMARK   11  A    between atoms: N3_26  and  C16_28 
REMARK   12  A    between atoms: C16_28  and  C17_29 
REMARK   13  A    between atoms: C16_28  and  C19_35 
REMARK   14  A    between atoms: C17_29  and  C18_30 
REMARK   15  A    between atoms: C18_30  and  N4_31 
ROOT
HETATM    1  C5  UNL     1      14.208  41.362  -9.560  1.00  0.00     0.178 C 
ENDROOT
BRANCH   1   2
HETATM    2  C4  UNL     1      15.622  41.701  -9.450  1.00  0.00     0.038 C 
BRANCH   2   3
HETATM    3  C2  UNL     1      15.744  43.144  -9.001  1.00  0.00    -0.020 C 
HETATM    4  C1  UNL     1      14.831  43.977  -9.911  1.00  0.00     0.009 C 
HETATM    5  C3  UNL     1      17.170  43.546  -9.489  1.00  0.00     0.009 C 
ENDBRANCH   2   3
ENDBRANCH   1   2
BRANCH   1   6
HETATM    6  N1  UNL     1      13.544  40.734  -8.418  1.00  0.00    -0.332 N 
ATOM      7  H1  UNL     1      13.818  39.790  -8.148  1.00  0.00     0.164 HD
BRANCH   6   8
HETATM    8  P1  UNL     1      12.403  41.475  -7.579  1.00  0.00     0.246 P 
HETATM    9  O1  UNL     1      11.861  42.105  -9.050  1.00  0.00    -0.648 OA
HETATM   10  O2  UNL     1      13.553  42.272  -6.725  1.00  0.00    -0.648 OA
BRANCH   8  11
HETATM   11  C6  UNL     1      11.606  40.082  -6.932  1.00  0.00     0.190 C 
BRANCH  11  12
HETATM   12  N2  UNL     1      11.457  39.903  -5.530  1.00  0.00    -0.305 N 
HETATM   13  C7  UNL     1      10.554  38.928  -5.011  1.00  0.00     0.365 C 
HETATM   14  O3  UNL     1       9.862  38.198  -5.797  1.00  0.00    -0.238 OA
ATOM     15  H2  UNL     1      12.002  40.477  -4.888  1.00  0.00     0.170 HD
BRANCH  13  16
HETATM   16  O4  UNL     1      10.382  38.725  -3.662  1.00  0.00    -0.299 OA
BRANCH  16  17
HETATM   17  C8  UNL     1       9.558  37.729  -3.099  1.00  0.00     0.219 C 
BRANCH  17  18
HETATM   18  C9  UNL     1       9.425  37.956  -1.640  1.00  0.00    -0.034 A 
HETATM   19  C10 UNL     1       8.603  37.134  -0.899  1.00  0.00     0.009 A 
HETATM   20  C11 UNL     1       8.444  37.294   0.471  1.00  0.00     0.001 A 
HETATM   21  C12 UNL     1       9.112  38.291   1.132  1.00  0.00     0.000 A 
HETATM   22  C13 UNL     1       9.937  39.120   0.404  1.00  0.00     0.001 A 
HETATM   23  C14 UNL     1      10.089  38.953  -0.957  1.00  0.00     0.009 A 
ENDBRANCH  17  18
ENDBRANCH  16  17
ENDBRANCH  13  16
ENDBRANCH  11  12
ENDBRANCH   8  11
ENDBRANCH   6   8
ENDBRANCH   1   6
BRANCH   1  24
HETATM   24  C15 UNL     1      14.037  40.280 -10.595  1.00  0.00     0.241 C 
HETATM   25  O5  UNL     1      13.528  40.668 -11.705  1.00  0.00    -0.271 OA
HETATM   26  N3  UNL     1      14.355  38.938 -10.476  1.00  0.00    -0.345 N 
ATOM     27  H3  UNL     1      14.745  38.575  -9.606  1.00  0.00     0.163 HD
BRANCH  26  28
HETATM   28  C16 UNL     1      14.121  38.033 -11.628  1.00  0.00     0.187 C 
BRANCH  28  29
HETATM   29  C17 UNL     1      15.448  37.462 -12.080  1.00  0.00     0.063 C 
BRANCH  29  30
HETATM   30  C18 UNL     1      15.614  37.420 -13.562  1.00  0.00     0.232 C 
BRANCH  30  31
HETATM   31  N4  UNL     1      15.184  36.162 -14.140  1.00  0.00    -0.079 N 
ATOM     32  H43 UNL     1      14.845  35.526 -13.419  1.00  0.00     0.274 HD
ATOM     33  H42 UNL     1      14.323  36.281 -14.675  1.00  0.00     0.274 HD
ATOM     34  H41 UNL     1      15.908  35.720 -14.707  1.00  0.00     0.274 HD
ENDBRANCH  30  31
ENDBRANCH  29  30
ENDBRANCH  28  29
BRANCH  28  35
HETATM   35  C19 UNL     1      13.196  36.946 -11.219  1.00  0.00     0.196 C 
HETATM   36  O6  UNL     1      12.600  37.019 -10.108  1.00  0.00    -0.646 OA
HETATM   37  O7  UNL     1      12.953  35.839 -12.009  1.00  0.00    -0.646 OA
ENDBRANCH  28  35
ENDBRANCH  26  28
ENDBRANCH   1  24
TORSDOF 15
ENDMDL
