MODEL 5
REMARK VINA RESULT: -10.550535384      1.530      2.078
REMARK  11 active torsions:
REMARK  status: ('A' for Active; 'I' for Inactive)
REMARK    1  A    between atoms: C1_2  and  C2_3 
REMARK       I    between atoms: C1_2  and  N2_17 
REMARK    2  A    between atoms: C2_3  and  C3_4 
REMARK       I    between atoms: C3_4  and  N1_6 
REMARK    3  A    between atoms: N1_6  and  C4_8 
REMARK    4  A    between atoms: C8_12  and  C9_13 
REMARK    5  A    between atoms: N2_17  and  C11_19 
REMARK    6  A    between atoms: C11_19  and  C12_20 
REMARK    7  A    between atoms: C12_20  and  C13_21 
REMARK    8  A    between atoms: C13_21  and  N3_22 
REMARK    9  A    between atoms: N3_22  and  C14_25 
REMARK   10  A    between atoms: C14_25  and  C15_26 
REMARK   11  A    between atoms: C18_29  and  C19_30 
ROOT
HETATM    1  C11 UNL     1       6.335 131.576 354.731  1.00  0.00     0.124 C 
ENDROOT
BRANCH   1   2
HETATM    2  N2  UNL     1       7.326 130.775 355.404  1.00  0.00    -0.361 N 
HETATM    3  C1  UNL     1       6.989 129.982 356.526  1.00  0.00     0.226 C 
HETATM    4  O1  UNL     1       5.838 129.934 356.975  1.00  0.00    -0.273 OA
ATOM      5  H2  UNL     1       8.288 130.780 355.065  1.00  0.00     0.162 HD
BRANCH   3   6
HETATM    6  C2  UNL     1       8.074 129.183 357.176  1.00  0.00     0.205 C 
BRANCH   6   7
HETATM    7  C3  UNL     1       8.617 129.943 358.362  1.00  0.00     0.230 C 
HETATM    8  O2  UNL     1       8.517 131.184 358.352  1.00  0.00    -0.273 OA
HETATM    9  N1  UNL     1       9.219 129.294 359.444  1.00  0.00    -0.327 N 
ATOM     10  H1  UNL     1       9.269 128.277 359.385  1.00  0.00     0.169 HD
BRANCH   9  11
HETATM   11  C4  UNL     1       9.765 129.874 360.608  1.00  0.00     0.035 A 
HETATM   12  C5  UNL     1       8.926 130.175 361.689  1.00  0.00     0.029 A 
HETATM   13  C6  UNL     1       9.400 130.741 362.846  1.00  0.00     0.003 A 
HETATM   14  C7  UNL     1      10.729 131.045 363.014  1.00  0.00     0.018 A 
HETATM   15  C8  UNL     1      11.578 130.765 361.979  1.00  0.00     0.043 A 
HETATM   16  C10 UNL     1      11.085 130.185 360.792  1.00  0.00     0.048 A 
BRANCH  15  17
HETATM   17  C9  UNL     1      12.996 131.069 362.106  1.00  0.00     0.209 C 
HETATM   18  O3  UNL     1      13.431 131.747 363.084  1.00  0.00    -0.644 OA
HETATM   19  O4  UNL     1      13.858 130.600 361.132  1.00  0.00    -0.644 OA
ENDBRANCH  15  17
ENDBRANCH   9  11
ENDBRANCH   6   7
ENDBRANCH   3   6
ENDBRANCH   1   2
BRANCH   1  20
HETATM   20  C12 UNL     1       6.502 133.016 355.133  1.00  0.00     0.047 C 
BRANCH  20  21
HETATM   21  C13 UNL     1       5.452 133.453 356.126  1.00  0.00     0.234 C 
BRANCH  21  22
HETATM   22  N3  UNL     1       4.604 134.493 355.631  1.00  0.00    -0.071 N 
ATOM     23  H32 UNL     1       3.627 134.201 355.654  1.00  0.00     0.277 HD
ATOM     24  H31 UNL     1       4.567 135.270 356.291  1.00  0.00     0.277 HD
BRANCH  22  25
HETATM   25  C14 UNL     1       4.962 134.963 354.312  1.00  0.00     0.270 C 
BRANCH  25  26
HETATM   26  C15 UNL     1       4.613 136.405 354.257  1.00  0.00    -0.031 A 
HETATM   27  C16 UNL     1       3.809 136.970 355.216  1.00  0.00     0.010 A 
HETATM   28  C17 UNL     1       3.512 138.295 355.130  1.00  0.00     0.014 A 
HETATM   29  C18 UNL     1       4.002 139.075 354.100  1.00  0.00    -0.004 A 
HETATM   30  C25 UNL     1       4.800 138.518 353.145  1.00  0.00     0.045 A 
HETATM   31 CL1  UNL     1       5.440 139.455 351.819  1.00  0.00    -0.083 Cl
HETATM   32  C26 UNL     1       5.111 137.163 353.225  1.00  0.00     0.033 A 
BRANCH  29  33
HETATM   33  C19 UNL     1       3.687 140.498 354.010  1.00  0.00    -0.024 A 
HETATM   34  C20 UNL     1       4.499 141.465 354.554  1.00  0.00     0.012 A 
HETATM   35  C21 UNL     1       4.146 142.805 354.430  1.00  0.00     0.001 A 
HETATM   36  C22 UNL     1       3.000 143.189 353.773  1.00  0.00     0.000 A 
HETATM   37  C23 UNL     1       2.187 142.224 353.228  1.00  0.00     0.001 A 
HETATM   38  C24 UNL     1       2.522 140.892 353.343  1.00  0.00     0.012 A 
ENDBRANCH  29  33
ENDBRANCH  25  26
ENDBRANCH  22  25
ENDBRANCH  21  22
ENDBRANCH  20  21
ENDBRANCH   1  20
TORSDOF 11
ENDMDL
