MODEL 8
REMARK VINA RESULT: -10.182434468      4.440     11.431
REMARK  11 active torsions:
REMARK  status: ('A' for Active; 'I' for Inactive)
REMARK    1  A    between atoms: C1_2  and  C2_3 
REMARK       I    between atoms: C1_2  and  N2_17 
REMARK    2  A    between atoms: C2_3  and  C3_4 
REMARK       I    between atoms: C3_4  and  N1_6 
REMARK    3  A    between atoms: N1_6  and  C4_8 
REMARK    4  A    between atoms: C8_12  and  C9_13 
REMARK    5  A    between atoms: N2_17  and  C11_19 
REMARK    6  A    between atoms: C11_19  and  C12_20 
REMARK    7  A    between atoms: C12_20  and  C13_21 
REMARK    8  A    between atoms: C13_21  and  N3_22 
REMARK    9  A    between atoms: N3_22  and  C14_25 
REMARK   10  A    between atoms: C14_25  and  C15_26 
REMARK   11  A    between atoms: C18_29  and  C19_30 
ROOT
HETATM    1  C11 UNL     1       3.664 128.393 358.124  1.00  0.00     0.124 C 
ENDROOT
BRANCH   1   2
HETATM    2  N2  UNL     1       4.610 128.561 357.050  1.00  0.00    -0.361 N 
HETATM    3  C1  UNL     1       5.458 129.691 356.990  1.00  0.00     0.226 C 
HETATM    4  O1  UNL     1       5.434 130.578 357.851  1.00  0.00    -0.273 OA
ATOM      5  H2  UNL     1       4.668 127.852 356.319  1.00  0.00     0.162 HD
BRANCH   3   6
HETATM    6  C2  UNL     1       6.408 129.800 355.840  1.00  0.00     0.205 C 
BRANCH   6   7
HETATM    7  C3  UNL     1       6.427 131.222 355.333  1.00  0.00     0.230 C 
HETATM    8  O2  UNL     1       7.534 131.773 355.193  1.00  0.00    -0.273 OA
HETATM    9  N1  UNL     1       5.252 131.915 355.029  1.00  0.00    -0.327 N 
ATOM     10  H1  UNL     1       4.381 131.403 355.169  1.00  0.00     0.169 HD
BRANCH   9  11
HETATM   11  C4  UNL     1       5.123 133.236 354.551  1.00  0.00     0.035 A 
HETATM   12  C5  UNL     1       5.625 133.564 353.286  1.00  0.00     0.029 A 
HETATM   13  C6  UNL     1       5.530 134.833 352.769  1.00  0.00     0.003 A 
HETATM   14  C7  UNL     1       4.934 135.857 353.464  1.00  0.00     0.018 A 
HETATM   15  C8  UNL     1       4.431 135.572 354.704  1.00  0.00     0.043 A 
HETATM   16  C10 UNL     1       4.534 134.267 355.230  1.00  0.00     0.048 A 
BRANCH  15  17
HETATM   17  C9  UNL     1       3.791 136.623 355.481  1.00  0.00     0.209 C 
HETATM   18  O3  UNL     1       3.098 136.344 356.504  1.00  0.00    -0.644 OA
HETATM   19  O4  UNL     1       3.957 137.934 355.076  1.00  0.00    -0.644 OA
ENDBRANCH  15  17
ENDBRANCH   9  11
ENDBRANCH   6   7
ENDBRANCH   3   6
ENDBRANCH   1   2
BRANCH   1  20
HETATM   20  C12 UNL     1       4.319 127.642 359.251  1.00  0.00     0.047 C 
BRANCH  20  21
HETATM   21  C13 UNL     1       4.410 128.474 360.508  1.00  0.00     0.234 C 
BRANCH  21  22
HETATM   22  N3  UNL     1       5.586 129.288 360.563  1.00  0.00    -0.071 N 
ATOM     23  H32 UNL     1       5.492 130.097 359.949  1.00  0.00     0.277 HD
ATOM     24  H31 UNL     1       5.652 129.762 361.463  1.00  0.00     0.277 HD
BRANCH  22  25
HETATM   25  C14 UNL     1       6.808 128.571 360.276  1.00  0.00     0.270 C 
BRANCH  25  26
HETATM   26  C15 UNL     1       7.897 129.259 361.015  1.00  0.00    -0.031 A 
HETATM   27  C16 UNL     1       9.146 129.392 360.462  1.00  0.00     0.010 A 
HETATM   28  C17 UNL     1      10.116 130.028 361.172  1.00  0.00     0.014 A 
HETATM   29  C18 UNL     1       9.867 130.538 362.431  1.00  0.00    -0.004 A 
HETATM   30  C25 UNL     1       8.628 130.407 362.985  1.00  0.00     0.045 A 
HETATM   31 CL1  UNL     1       8.260 131.025 364.576  1.00  0.00    -0.083 Cl
HETATM   32  C26 UNL     1       7.627 129.758 362.266  1.00  0.00     0.033 A 
BRANCH  29  33
HETATM   33  C19 UNL     1      10.908 131.225 363.192  1.00  0.00    -0.024 A 
HETATM   34  C20 UNL     1      12.241 131.108 362.882  1.00  0.00     0.012 A 
HETATM   35  C21 UNL     1      13.184 131.793 363.642  1.00  0.00     0.001 A 
HETATM   36  C22 UNL     1      12.813 132.589 364.701  1.00  0.00     0.000 A 
HETATM   37  C23 UNL     1      11.480 132.708 365.012  1.00  0.00     0.001 A 
HETATM   38  C24 UNL     1      10.534 132.036 364.269  1.00  0.00     0.012 A 
ENDBRANCH  29  33
ENDBRANCH  25  26
ENDBRANCH  22  25
ENDBRANCH  21  22
ENDBRANCH  20  21
ENDBRANCH   1  20
TORSDOF 11
ENDMDL
