MODEL 1
REMARK VINA RESULT: -11.466421223      0.000      0.000
REMARK  11 active torsions:
REMARK  status: ('A' for Active; 'I' for Inactive)
REMARK    1  A    between atoms: C1_2  and  C2_3 
REMARK       I    between atoms: C1_2  and  N2_17 
REMARK    2  A    between atoms: C2_3  and  C3_4 
REMARK       I    between atoms: C3_4  and  N1_6 
REMARK    3  A    between atoms: N1_6  and  C4_8 
REMARK    4  A    between atoms: C8_12  and  C9_13 
REMARK    5  A    between atoms: N2_17  and  C11_19 
REMARK    6  A    between atoms: C11_19  and  C12_20 
REMARK    7  A    between atoms: C12_20  and  C13_21 
REMARK    8  A    between atoms: C13_21  and  N3_22 
REMARK    9  A    between atoms: N3_22  and  C14_25 
REMARK   10  A    between atoms: C14_25  and  C15_26 
REMARK   11  A    between atoms: C18_29  and  C19_30 
ROOT
HETATM    1  C11 UNL     1       6.144 131.188 357.645  1.00  0.00     0.124 C 
ENDROOT
BRANCH   1   2
HETATM    2  N2  UNL     1       6.307 130.848 359.036  1.00  0.00    -0.361 N 
HETATM    3  C1  UNL     1       6.668 129.540 359.433  1.00  0.00     0.226 C 
HETATM    4  O1  UNL     1       6.865 128.635 358.614  1.00  0.00    -0.273 OA
ATOM      5  H2  UNL     1       6.159 131.564 359.747  1.00  0.00     0.162 HD
BRANCH   3   6
HETATM    6  C2  UNL     1       6.811 129.261 360.896  1.00  0.00     0.205 C 
BRANCH   6   7
HETATM    7  C3  UNL     1       7.969 130.054 361.450  1.00  0.00     0.230 C 
HETATM    8  O2  UNL     1       8.670 130.697 360.646  1.00  0.00    -0.273 OA
HETATM    9  N1  UNL     1       8.264 130.078 362.816  1.00  0.00    -0.327 N 
ATOM     10  H1  UNL     1       7.650 129.527 363.416  1.00  0.00     0.169 HD
BRANCH   9  11
HETATM   11  C4  UNL     1       9.306 130.770 363.467  1.00  0.00     0.035 A 
HETATM   12  C5  UNL     1       9.038 131.465 364.653  1.00  0.00     0.029 A 
HETATM   13  C6  UNL     1      10.012 132.158 365.330  1.00  0.00     0.003 A 
HETATM   14  C7  UNL     1      11.309 132.211 364.881  1.00  0.00     0.018 A 
HETATM   15  C8  UNL     1      11.607 131.544 363.726  1.00  0.00     0.043 A 
HETATM   16  C10 UNL     1      10.603 130.835 363.035  1.00  0.00     0.048 A 
BRANCH  15  17
HETATM   17  C9  UNL     1      12.967 131.570 363.208  1.00  0.00     0.209 C 
HETATM   18  O3  UNL     1      13.278 130.926 362.163  1.00  0.00    -0.644 OA
HETATM   19  O4  UNL     1      13.915 132.314 363.887  1.00  0.00    -0.644 OA
ENDBRANCH  15  17
ENDBRANCH   9  11
ENDBRANCH   6   7
ENDBRANCH   3   6
ENDBRANCH   1   2
BRANCH   1  20
HETATM   20  C12 UNL     1       6.144 132.685 357.495  1.00  0.00     0.047 C 
BRANCH  20  21
HETATM   21  C13 UNL     1       6.016 133.110 356.052  1.00  0.00     0.234 C 
BRANCH  21  22
HETATM   22  N3  UNL     1       5.083 134.177 355.857  1.00  0.00    -0.071 N 
ATOM     23  H32 UNL     1       4.198 133.969 356.318  1.00  0.00     0.277 HD
ATOM     24  H31 UNL     1       5.364 135.000 356.388  1.00  0.00     0.277 HD
BRANCH  22  25
HETATM   25  C14 UNL     1       4.866 134.517 354.469  1.00  0.00     0.270 C 
BRANCH  25  26
HETATM   26  C15 UNL     1       4.553 135.968 354.423  1.00  0.00    -0.031 A 
HETATM   27  C16 UNL     1       3.760 136.545 355.383  1.00  0.00     0.010 A 
HETATM   28  C17 UNL     1       3.496 137.878 355.305  1.00  0.00     0.014 A 
HETATM   29  C18 UNL     1       4.010 138.653 354.283  1.00  0.00    -0.004 A 
HETATM   30  C25 UNL     1       4.798 138.083 353.327  1.00  0.00     0.045 A 
HETATM   31 CL1  UNL     1       5.466 139.013 352.010  1.00  0.00    -0.083 Cl
HETATM   32  C26 UNL     1       5.074 136.720 353.398  1.00  0.00     0.033 A 
BRANCH  29  33
HETATM   33  C19 UNL     1       3.731 140.084 354.202  1.00  0.00    -0.024 A 
HETATM   34  C20 UNL     1       4.528 141.023 354.813  1.00  0.00     0.012 A 
HETATM   35  C21 UNL     1       4.212 142.373 354.694  1.00  0.00     0.001 A 
HETATM   36  C22 UNL     1       3.117 142.794 353.977  1.00  0.00     0.000 A 
HETATM   37  C23 UNL     1       2.318 141.857 353.365  1.00  0.00     0.001 A 
HETATM   38  C24 UNL     1       2.618 140.517 353.473  1.00  0.00     0.012 A 
ENDBRANCH  29  33
ENDBRANCH  25  26
ENDBRANCH  22  25
ENDBRANCH  21  22
ENDBRANCH  20  21
ENDBRANCH   1  20
TORSDOF 11
ENDMDL
