MODEL 6
REMARK VINA RESULT: -10.386743413      3.310      5.395
REMARK  11 active torsions:
REMARK  status: ('A' for Active; 'I' for Inactive)
REMARK    1  A    between atoms: C1_2  and  C2_3 
REMARK       I    between atoms: C1_2  and  N2_17 
REMARK    2  A    between atoms: C2_3  and  C3_4 
REMARK       I    between atoms: C3_4  and  N1_6 
REMARK    3  A    between atoms: N1_6  and  C4_8 
REMARK    4  A    between atoms: C8_12  and  C9_13 
REMARK    5  A    between atoms: N2_17  and  C11_19 
REMARK    6  A    between atoms: C11_19  and  C12_20 
REMARK    7  A    between atoms: C12_20  and  C13_21 
REMARK    8  A    between atoms: C13_21  and  N3_22 
REMARK    9  A    between atoms: N3_22  and  C14_25 
REMARK   10  A    between atoms: C14_25  and  C15_26 
REMARK   11  A    between atoms: C18_29  and  C19_30 
ROOT
HETATM    1  C11 UNL     1       7.643 131.732 355.781  1.00  0.00     0.124 C 
ENDROOT
BRANCH   1   2
HETATM    2  N2  UNL     1       7.427 131.537 357.192  1.00  0.00    -0.361 N 
HETATM    3  C1  UNL     1       8.384 130.876 357.995  1.00  0.00     0.226 C 
HETATM    4  O1  UNL     1       9.445 130.442 357.532  1.00  0.00    -0.273 OA
ATOM      5  H2  UNL     1       6.567 131.883 357.620  1.00  0.00     0.162 HD
BRANCH   3   6
HETATM    6  C2  UNL     1       8.086 130.704 359.451  1.00  0.00     0.205 C 
BRANCH   6   7
HETATM    7  C3  UNL     1       6.626 130.362 359.630  1.00  0.00     0.230 C 
HETATM    8  O2  UNL     1       5.792 131.269 359.455  1.00  0.00    -0.273 OA
HETATM    9  N1  UNL     1       6.205 129.076 359.982  1.00  0.00    -0.327 N 
ATOM     10  H1  UNL     1       6.942 128.383 360.111  1.00  0.00     0.169 HD
BRANCH   9  11
HETATM   11  C4  UNL     1       4.885 128.620 360.180  1.00  0.00     0.035 A 
HETATM   12  C5  UNL     1       4.166 128.096 359.098  1.00  0.00     0.029 A 
HETATM   13  C6  UNL     1       2.878 127.638 359.230  1.00  0.00     0.003 A 
HETATM   14  C7  UNL     1       2.218 127.667 360.435  1.00  0.00     0.018 A 
HETATM   15  C8  UNL     1       2.890 128.171 361.513  1.00  0.00     0.043 A 
HETATM   16  C10 UNL     1       4.212 128.641 361.371  1.00  0.00     0.048 A 
BRANCH  15  17
HETATM   17  C9  UNL     1       2.234 128.224 362.812  1.00  0.00     0.209 C 
HETATM   18  O3  UNL     1       1.021 128.572 362.914  1.00  0.00    -0.644 OA
HETATM   19  O4  UNL     1       2.969 127.885 363.933  1.00  0.00    -0.644 OA
ENDBRANCH  15  17
ENDBRANCH   9  11
ENDBRANCH   6   7
ENDBRANCH   3   6
ENDBRANCH   1   2
BRANCH   1  20
HETATM   20  C12 UNL     1       6.328 132.032 355.113  1.00  0.00     0.047 C 
BRANCH  20  21
HETATM   21  C13 UNL     1       5.542 133.085 355.856  1.00  0.00     0.234 C 
BRANCH  21  22
HETATM   22  N3  UNL     1       5.741 134.406 355.344  1.00  0.00    -0.071 N 
ATOM     23  H32 UNL     1       5.524 135.104 356.056  1.00  0.00     0.277 HD
ATOM     24  H31 UNL     1       6.735 134.595 355.216  1.00  0.00     0.277 HD
BRANCH  22  25
HETATM   25  C14 UNL     1       5.011 134.678 354.127  1.00  0.00     0.270 C 
BRANCH  25  26
HETATM   26  C15 UNL     1       4.652 136.119 354.151  1.00  0.00    -0.031 A 
HETATM   27  C16 UNL     1       3.856 136.628 355.146  1.00  0.00     0.010 A 
HETATM   28  C17 UNL     1       3.550 137.953 355.131  1.00  0.00     0.014 A 
HETATM   29  C18 UNL     1       4.023 138.789 354.138  1.00  0.00    -0.004 A 
HETATM   30  C25 UNL     1       4.814 138.287 353.147  1.00  0.00     0.045 A 
HETATM   31 CL1  UNL     1       5.435 139.296 351.864  1.00  0.00    -0.083 Cl
HETATM   32  C26 UNL     1       5.134 136.932 353.153  1.00  0.00     0.033 A 
BRANCH  29  33
HETATM   33  C19 UNL     1       3.699 140.213 354.125  1.00  0.00    -0.024 A 
HETATM   34  C20 UNL     1       2.544 140.697 353.560  1.00  0.00     0.012 A 
HETATM   35  C21 UNL     1       2.290 142.065 353.585  1.00  0.00     0.001 A 
HETATM   36  C22 UNL     1       3.171 142.950 354.164  1.00  0.00     0.000 A 
HETATM   37  C23 UNL     1       4.327 142.467 354.731  1.00  0.00     0.001 A 
HETATM   38  C24 UNL     1       4.593 141.115 354.714  1.00  0.00     0.012 A 
ENDBRANCH  29  33
ENDBRANCH  25  26
ENDBRANCH  22  25
ENDBRANCH  21  22
ENDBRANCH  20  21
ENDBRANCH   1  20
TORSDOF 11
ENDMDL
