MODEL 9
REMARK VINA RESULT: -10.101093539      4.197     11.665
REMARK  11 active torsions:
REMARK  status: ('A' for Active; 'I' for Inactive)
REMARK    1  A    between atoms: C1_2  and  C2_3 
REMARK       I    between atoms: C1_2  and  N2_17 
REMARK    2  A    between atoms: C2_3  and  C3_4 
REMARK       I    between atoms: C3_4  and  N1_6 
REMARK    3  A    between atoms: N1_6  and  C4_8 
REMARK    4  A    between atoms: C8_12  and  C9_13 
REMARK    5  A    between atoms: N2_17  and  C11_19 
REMARK    6  A    between atoms: C11_19  and  C12_20 
REMARK    7  A    between atoms: C12_20  and  C13_21 
REMARK    8  A    between atoms: C13_21  and  N3_22 
REMARK    9  A    between atoms: N3_22  and  C14_25 
REMARK   10  A    between atoms: C14_25  and  C15_26 
REMARK   11  A    between atoms: C18_29  and  C19_30 
ROOT
HETATM    1  C11 UNL     1       4.914 129.463 356.285  1.00  0.00     0.124 C 
ENDROOT
BRANCH   1   2
HETATM    2  N2  UNL     1       5.685 130.523 355.686  1.00  0.00    -0.361 N 
HETATM    3  C1  UNL     1       5.732 130.693 354.283  1.00  0.00     0.226 C 
HETATM    4  O1  UNL     1       5.115 129.953 353.510  1.00  0.00    -0.273 OA
ATOM      5  H2  UNL     1       6.207 131.162 356.286  1.00  0.00     0.162 HD
BRANCH   3   6
HETATM    6  C2  UNL     1       6.561 131.812 353.736  1.00  0.00     0.205 C 
BRANCH   6   7
HETATM    7  C3  UNL     1       6.125 133.115 354.360  1.00  0.00     0.230 C 
HETATM    8  O2  UNL     1       6.617 133.426 355.460  1.00  0.00    -0.273 OA
HETATM    9  N1  UNL     1       5.198 133.959 353.741  1.00  0.00    -0.327 N 
ATOM     10  H1  UNL     1       4.834 133.641 352.842  1.00  0.00     0.169 HD
BRANCH   9  11
HETATM   11  C4  UNL     1       4.704 135.196 354.205  1.00  0.00     0.035 A 
HETATM   12  C5  UNL     1       3.767 135.218 355.246  1.00  0.00     0.029 A 
HETATM   13  C6  UNL     1       3.250 136.391 355.738  1.00  0.00     0.003 A 
HETATM   14  C7  UNL     1       3.622 137.614 355.238  1.00  0.00     0.018 A 
HETATM   15  C8  UNL     1       4.536 137.631 354.220  1.00  0.00     0.043 A 
HETATM   16  C10 UNL     1       5.063 136.423 353.718  1.00  0.00     0.048 A 
BRANCH  15  17
HETATM   17  C9  UNL     1       4.963 138.903 353.655  1.00  0.00     0.209 C 
HETATM   18  O3  UNL     1       5.117 139.922 354.389  1.00  0.00    -0.644 OA
HETATM   19  O4  UNL     1       5.195 138.970 352.293  1.00  0.00    -0.644 OA
ENDBRANCH  15  17
ENDBRANCH   9  11
ENDBRANCH   6   7
ENDBRANCH   3   6
ENDBRANCH   1   2
BRANCH   1  20
HETATM   20  C12 UNL     1       5.115 129.481 357.775  1.00  0.00     0.047 C 
BRANCH  20  21
HETATM   21  C13 UNL     1       5.616 128.155 358.295  1.00  0.00     0.234 C 
BRANCH  21  22
HETATM   22  N3  UNL     1       6.622 128.286 359.305  1.00  0.00    -0.071 N 
ATOM     23  H32 UNL     1       7.133 127.411 359.418  1.00  0.00     0.277 HD
ATOM     24  H31 UNL     1       7.379 128.887 358.980  1.00  0.00     0.277 HD
BRANCH  22  25
HETATM   25  C14 UNL     1       6.117 128.748 360.578  1.00  0.00     0.270 C 
BRANCH  25  26
HETATM   26  C15 UNL     1       7.259 129.366 361.297  1.00  0.00    -0.031 A 
HETATM   27  C16 UNL     1       7.158 129.692 362.627  1.00  0.00     0.010 A 
HETATM   28  C17 UNL     1       8.227 130.258 363.250  1.00  0.00     0.014 A 
HETATM   29  C18 UNL     1       9.404 130.508 362.571  1.00  0.00    -0.004 A 
HETATM   30  C25 UNL     1       9.509 130.186 361.250  1.00  0.00     0.045 A 
HETATM   31 CL1  UNL     1      10.969 130.487 360.342  1.00  0.00    -0.083 Cl
HETATM   32  C26 UNL     1       8.420 129.606 360.603  1.00  0.00     0.033 A 
BRANCH  29  33
HETATM   33  C19 UNL     1      10.553 131.110 363.241  1.00  0.00    -0.024 A 
HETATM   34  C20 UNL     1      10.415 131.976 364.299  1.00  0.00     0.012 A 
HETATM   35  C21 UNL     1      11.551 132.512 364.899  1.00  0.00     0.001 A 
HETATM   36  C22 UNL     1      12.815 132.196 364.457  1.00  0.00     0.000 A 
HETATM   37  C23 UNL     1      12.955 131.329 363.398  1.00  0.00     0.001 A 
HETATM   38  C24 UNL     1      11.841 130.790 362.794  1.00  0.00     0.012 A 
ENDBRANCH  29  33
ENDBRANCH  25  26
ENDBRANCH  22  25
ENDBRANCH  21  22
ENDBRANCH  20  21
ENDBRANCH   1  20
TORSDOF 11
ENDMDL
