MODEL 2
REMARK VINA RESULT: -10.840980335      1.360      1.870
REMARK  11 active torsions:
REMARK  status: ('A' for Active; 'I' for Inactive)
REMARK    1  A    between atoms: C1_2  and  C2_3 
REMARK       I    between atoms: C1_2  and  N2_17 
REMARK    2  A    between atoms: C2_3  and  C3_4 
REMARK       I    between atoms: C3_4  and  N1_6 
REMARK    3  A    between atoms: N1_6  and  C4_8 
REMARK    4  A    between atoms: C8_12  and  C9_13 
REMARK    5  A    between atoms: N2_17  and  C11_19 
REMARK    6  A    between atoms: C11_19  and  C12_20 
REMARK    7  A    between atoms: C12_20  and  C13_21 
REMARK    8  A    between atoms: C13_21  and  N3_22 
REMARK    9  A    between atoms: N3_22  and  C14_25 
REMARK   10  A    between atoms: C14_25  and  C15_26 
REMARK   11  A    between atoms: C18_29  and  C19_30 
ROOT
HETATM    1  C11 UNL     1       5.946 130.996 356.655  1.00  0.00     0.124 C 
ENDROOT
BRANCH   1   2
HETATM    2  N2  UNL     1       6.279 130.371 357.910  1.00  0.00    -0.361 N 
HETATM    3  C1  UNL     1       7.293 129.389 357.994  1.00  0.00     0.226 C 
HETATM    4  O1  UNL     1       7.940 129.026 357.006  1.00  0.00    -0.273 OA
ATOM      5  H2  UNL     1       5.773 130.643 358.754  1.00  0.00     0.162 HD
BRANCH   3   6
HETATM    6  C2  UNL     1       7.575 128.781 359.332  1.00  0.00     0.205 C 
BRANCH   6   7
HETATM    7  C3  UNL     1       8.416 129.730 360.150  1.00  0.00     0.230 C 
HETATM    8  O2  UNL     1       7.940 130.851 360.411  1.00  0.00    -0.273 OA
HETATM    9  N1  UNL     1       9.690 129.384 360.609  1.00  0.00    -0.327 N 
ATOM     10  H1  UNL     1      10.018 128.451 360.358  1.00  0.00     0.169 HD
BRANCH   9  11
HETATM   11  C4  UNL     1      10.578 130.165 361.377  1.00  0.00     0.035 A 
HETATM   12  C5  UNL     1      11.849 130.465 360.871  1.00  0.00     0.029 A 
HETATM   13  C6  UNL     1      12.756 131.219 361.573  1.00  0.00     0.003 A 
HETATM   14  C7  UNL     1      12.469 131.725 362.818  1.00  0.00     0.018 A 
HETATM   15  C8  UNL     1      11.237 131.453 363.344  1.00  0.00     0.043 A 
HETATM   16  C10 UNL     1      10.310 130.676 362.618  1.00  0.00     0.048 A 
BRANCH  15  17
HETATM   17  C9  UNL     1      10.885 131.966 364.660  1.00  0.00     0.209 C 
HETATM   18  O3  UNL     1       9.861 131.539 365.271  1.00  0.00    -0.644 OA
HETATM   19  O4  UNL     1      11.695 132.933 365.227  1.00  0.00    -0.644 OA
ENDBRANCH  15  17
ENDBRANCH   9  11
ENDBRANCH   6   7
ENDBRANCH   3   6
ENDBRANCH   1   2
BRANCH   1  20
HETATM   20  C12 UNL     1       6.224 132.472 356.743  1.00  0.00     0.047 C 
BRANCH  20  21
HETATM   21  C13 UNL     1       6.320 133.113 355.380  1.00  0.00     0.234 C 
BRANCH  21  22
HETATM   22  N3  UNL     1       5.774 134.434 355.336  1.00  0.00    -0.071 N 
ATOM     23  H32 UNL     1       5.258 134.638 356.192  1.00  0.00     0.277 HD
ATOM     24  H31 UNL     1       6.515 135.131 355.411  1.00  0.00     0.277 HD
BRANCH  22  25
HETATM   25  C14 UNL     1       4.952 134.690 354.175  1.00  0.00     0.270 C 
BRANCH  25  26
HETATM   26  C15 UNL     1       4.625 136.138 354.187  1.00  0.00    -0.031 A 
HETATM   27  C16 UNL     1       3.845 136.673 355.181  1.00  0.00     0.010 A 
HETATM   28  C17 UNL     1       3.567 138.005 355.155  1.00  0.00     0.014 A 
HETATM   29  C18 UNL     1       4.053 138.820 354.152  1.00  0.00    -0.004 A 
HETATM   30  C25 UNL     1       4.827 138.293 353.162  1.00  0.00     0.045 A 
HETATM   31 CL1  UNL     1       5.462 139.276 351.866  1.00  0.00    -0.083 Cl
HETATM   32  C26 UNL     1       5.118 136.931 353.179  1.00  0.00     0.033 A 
BRANCH  29  33
HETATM   33  C19 UNL     1       3.759 140.251 354.128  1.00  0.00    -0.024 A 
HETATM   34  C20 UNL     1       4.507 141.166 354.829  1.00  0.00     0.012 A 
HETATM   35  C21 UNL     1       4.179 142.516 354.760  1.00  0.00     0.001 A 
HETATM   36  C22 UNL     1       3.119 142.961 354.004  1.00  0.00     0.000 A 
HETATM   37  C23 UNL     1       2.370 142.048 353.301  1.00  0.00     0.001 A 
HETATM   38  C24 UNL     1       2.682 140.707 353.359  1.00  0.00     0.012 A 
ENDBRANCH  29  33
ENDBRANCH  25  26
ENDBRANCH  22  25
ENDBRANCH  21  22
ENDBRANCH  20  21
ENDBRANCH   1  20
TORSDOF 11
ENDMDL
