MODEL 19
REMARK VINA RESULT: -6.552248908      2.612      6.277
REMARK  4 active torsions:
REMARK  status: ('A' for Active; 'I' for Inactive)
REMARK    1  A    between atoms: C2_2  and  C5_7 
REMARK    2  A    between atoms: C3_3  and  C4_4 
REMARK    3  A    between atoms: C6_8  and  C7_9 
REMARK    4  A    between atoms: C7_9  and  O3_10 
ROOT
HETATM    1  C7  UNL     1      14.483  11.317   3.906  1.00  0.00     0.106 C 
HETATM    2  C8  UNL     1      14.139  11.825   2.541  1.00  0.00    -0.042 C 
HETATM    3  C9  UNL     1      15.168  12.176   1.541  1.00  0.00     0.047 C 
HETATM    4  C10 UNL     1      12.847  11.943   2.275  1.00  0.00     0.056 C 
HETATM    5  C11 UNL     1      11.891  11.581   3.303  1.00  0.00     0.150 C 
HETATM    6  O4  UNL     1      10.747  12.099   3.321  1.00  0.00    -0.293 OA
HETATM    7  C12 UNL     1      12.222  10.583   4.376  1.00  0.00     0.095 C 
HETATM    8  C13 UNL     1      13.637  10.083   4.132  1.00  0.00    -0.002 C 
HETATM    9  C14 UNL     1      14.079   9.359   5.379  1.00  0.00     0.019 C 
HETATM   10  C15 UNL     1      13.634   9.143   2.974  1.00  0.00     0.019 C 
ENDROOT
BRANCH   1  11
HETATM   11  C6  UNL     1      15.900  11.111   4.094  1.00  0.00     0.017 C 
HETATM   12  C5  UNL     1      16.651  12.153   4.506  1.00  0.00     0.006 C 
BRANCH  12  13
HETATM   13  C2  UNL     1      18.061  12.027   4.714  1.00  0.00    -0.056 C 
HETATM   14  C1  UNL     1      18.588  10.629   4.919  1.00  0.00     0.048 C 
HETATM   15  C3  UNL     1      18.902  13.006   4.739  1.00  0.00     0.091 C 
BRANCH  15  16
HETATM   16  C4  UNL     1      18.639  14.418   4.570  1.00  0.00     0.199 C 
HETATM   17  O1  UNL     1      17.624  14.965   4.998  1.00  0.00    -0.644 OA
HETATM   18  O2  UNL     1      19.571  15.231   3.886  1.00  0.00    -0.644 OA
ENDBRANCH  15  16
ENDBRANCH  12  13
ENDBRANCH   1  11
BRANCH   1  19
HETATM   19  O3  UNL     1      14.008  12.280   4.795  1.00  0.00    -0.380 OA
ATOM     20  H3  UNL     1      13.058  12.267   4.822  1.00  0.00     0.211 HD
ENDBRANCH   1  19
TORSDOF 4
ENDMDL
