MODEL 6
REMARK VINA RESULT: -6.821376043      2.906      6.152
REMARK  4 active torsions:
REMARK  status: ('A' for Active; 'I' for Inactive)
REMARK    1  A    between atoms: C2_2  and  C5_7 
REMARK    2  A    between atoms: C3_3  and  C4_4 
REMARK    3  A    between atoms: C6_8  and  C7_9 
REMARK    4  A    between atoms: C7_9  and  O3_10 
ROOT
HETATM    1  C7  UNL     1      14.780  10.781   4.148  1.00  0.00     0.106 C 
HETATM    2  C8  UNL     1      13.528  11.587   4.000  1.00  0.00    -0.042 C 
HETATM    3  C9  UNL     1      13.434  12.752   3.098  1.00  0.00     0.047 C 
HETATM    4  C10 UNL     1      12.496  11.194   4.731  1.00  0.00     0.056 C 
HETATM    5  C11 UNL     1      12.658  10.041   5.596  1.00  0.00     0.150 C 
HETATM    6  O4  UNL     1      11.949   9.912   6.625  1.00  0.00    -0.293 OA
HETATM    7  C12 UNL     1      13.666   8.967   5.304  1.00  0.00     0.095 C 
HETATM    8  C13 UNL     1      14.377   9.330   4.010  1.00  0.00    -0.002 C 
HETATM    9  C14 UNL     1      15.597   8.449   3.905  1.00  0.00     0.019 C 
HETATM   10  C15 UNL     1      13.465   9.072   2.858  1.00  0.00     0.019 C 
ENDROOT
BRANCH   1  11
HETATM   11  C6  UNL     1      15.831  11.197   3.248  1.00  0.00     0.017 C 
HETATM   12  C5  UNL     1      16.931  11.776   3.770  1.00  0.00     0.006 C 
BRANCH  12  13
HETATM   13  C2  UNL     1      18.013  12.214   2.942  1.00  0.00    -0.056 C 
HETATM   14  C1  UNL     1      18.116  11.579   1.578  1.00  0.00     0.048 C 
HETATM   15  C3  UNL     1      18.894  13.097   3.272  1.00  0.00     0.091 C 
BRANCH  15  16
HETATM   16  C4  UNL     1      19.003  13.835   4.511  1.00  0.00     0.199 C 
HETATM   17  O1  UNL     1      19.086  15.062   4.554  1.00  0.00    -0.644 OA
HETATM   18  O2  UNL     1      19.019  13.145   5.744  1.00  0.00    -0.644 OA
ENDBRANCH  15  16
ENDBRANCH  12  13
ENDBRANCH   1  11
BRANCH   1  19
HETATM   19  O3  UNL     1      15.179  10.949   5.472  1.00  0.00    -0.380 OA
ATOM     20  H3  UNL     1      14.494  11.375   5.974  1.00  0.00     0.211 HD
ENDBRANCH   1  19
TORSDOF 4
ENDMDL
