MODEL 1
REMARK VINA RESULT: -7.233878266      0.000      0.000
REMARK  4 active torsions:
REMARK  status: ('A' for Active; 'I' for Inactive)
REMARK    1  A    between atoms: C2_2  and  C5_7 
REMARK    2  A    between atoms: C3_3  and  C4_4 
REMARK    3  A    between atoms: C6_8  and  C7_9 
REMARK    4  A    between atoms: C7_9  and  O3_10 
ROOT
HETATM    1  C7  UNL     1      13.850  10.866   3.823  1.00  0.00     0.106 C 
HETATM    2  C8  UNL     1      14.711   9.897   4.570  1.00  0.00    -0.042 C 
HETATM    3  C9  UNL     1      14.792   8.466   4.214  1.00  0.00     0.047 C 
HETATM    4  C10 UNL     1      15.406  10.398   5.581  1.00  0.00     0.056 C 
HETATM    5  C11 UNL     1      15.279  11.812   5.875  1.00  0.00     0.150 C 
HETATM    6  O4  UNL     1      15.489  12.242   7.037  1.00  0.00    -0.293 OA
HETATM    7  C12 UNL     1      14.897  12.811   4.821  1.00  0.00     0.095 C 
HETATM    8  C13 UNL     1      14.721  12.062   3.508  1.00  0.00    -0.002 C 
HETATM    9  C14 UNL     1      14.018  12.993   2.552  1.00  0.00     0.019 C 
HETATM   10  C15 UNL     1      16.062  11.696   2.966  1.00  0.00     0.019 C 
ENDROOT
BRANCH   1  11
HETATM   11  C6  UNL     1      13.204  10.280   2.672  1.00  0.00     0.017 C 
HETATM   12  C5  UNL     1      11.873  10.067   2.723  1.00  0.00     0.006 C 
BRANCH  12  13
HETATM   13  C2  UNL     1      11.163   9.490   1.623  1.00  0.00    -0.056 C 
HETATM   14  C1  UNL     1      11.670   8.163   1.117  1.00  0.00     0.048 C 
HETATM   15  C3  UNL     1      10.137  10.013   1.040  1.00  0.00     0.091 C 
BRANCH  15  16
HETATM   16  C4  UNL     1       9.475  11.264   1.342  1.00  0.00     0.199 C 
HETATM   17  O1  UNL     1       8.477  11.336   2.056  1.00  0.00    -0.644 OA
HETATM   18  O2  UNL     1       9.975  12.472   0.807  1.00  0.00    -0.644 OA
ENDBRANCH  15  16
ENDBRANCH  12  13
ENDBRANCH   1  11
BRANCH   1  19
HETATM   19  O3  UNL     1      12.901  11.310   4.742  1.00  0.00    -0.380 OA
ATOM     20  H3  UNL     1      12.947  10.796   5.540  1.00  0.00     0.211 HD
ENDBRANCH   1  19
TORSDOF 4
ENDMDL
