MODEL 2
REMARK VINA RESULT: -7.001779228      2.420      4.139
REMARK  4 active torsions:
REMARK  status: ('A' for Active; 'I' for Inactive)
REMARK    1  A    between atoms: C2_2  and  C5_7 
REMARK    2  A    between atoms: C3_3  and  C4_4 
REMARK    3  A    between atoms: C6_8  and  C7_9 
REMARK    4  A    between atoms: C7_9  and  O3_10 
ROOT
HETATM    1  C7  UNL     1      15.689  12.945   4.537  1.00  0.00     0.106 C 
HETATM    2  C8  UNL     1      16.063  14.357   4.860  1.00  0.00    -0.042 C 
HETATM    3  C9  UNL     1      15.107  15.478   4.751  1.00  0.00     0.047 C 
HETATM    4  C10 UNL     1      17.312  14.551   5.256  1.00  0.00     0.056 C 
HETATM    5  C11 UNL     1      18.197  13.405   5.341  1.00  0.00     0.150 C 
HETATM    6  O4  UNL     1      19.440  13.550   5.227  1.00  0.00    -0.293 OA
HETATM    7  C12 UNL     1      17.675  12.015   5.567  1.00  0.00     0.095 C 
HETATM    8  C13 UNL     1      16.162  12.097   5.697  1.00  0.00    -0.002 C 
HETATM    9  C14 UNL     1      15.625  10.693   5.581  1.00  0.00     0.019 C 
HETATM   10  C15 UNL     1      15.812  12.666   7.031  1.00  0.00     0.019 C 
ENDROOT
BRANCH   1  11
HETATM   11  C6  UNL     1      14.290  12.788   4.214  1.00  0.00     0.017 C 
HETATM   12  C5  UNL     1      13.955  12.467   2.948  1.00  0.00     0.006 C 
BRANCH  12  13
HETATM   13  C2  UNL     1      12.590  12.295   2.553  1.00  0.00    -0.056 C 
HETATM   14  C1  UNL     1      11.881  13.521   2.035  1.00  0.00     0.048 C 
HETATM   15  C3  UNL     1      11.932  11.186   2.608  1.00  0.00     0.091 C 
BRANCH  15  16
HETATM   16  C4  UNL     1      12.391   9.893   3.064  1.00  0.00     0.199 C 
HETATM   17  O1  UNL     1      12.371   9.555   4.246  1.00  0.00    -0.644 OA
HETATM   18  O2  UNL     1      12.890   8.954   2.133  1.00  0.00    -0.644 OA
ENDBRANCH  15  16
ENDBRANCH  12  13
ENDBRANCH   1  11
BRANCH   1  19
HETATM   19  O3  UNL     1      16.483  12.588   3.447  1.00  0.00    -0.380 OA
ATOM     20  H3  UNL     1      17.403  12.677   3.664  1.00  0.00     0.211 HD
ENDBRANCH   1  19
TORSDOF 4
ENDMDL
