MODEL 3
REMARK VINA RESULT: -6.977102789      2.841      4.404
REMARK  4 active torsions:
REMARK  status: ('A' for Active; 'I' for Inactive)
REMARK    1  A    between atoms: C2_2  and  C5_7 
REMARK    2  A    between atoms: C3_3  and  C4_4 
REMARK    3  A    between atoms: C6_8  and  C7_9 
REMARK    4  A    between atoms: C7_9  and  O3_10 
ROOT
HETATM    1  C7  UNL     1      15.510  13.072   4.685  1.00  0.00     0.106 C 
HETATM    2  C8  UNL     1      15.456  14.538   4.977  1.00  0.00    -0.042 C 
HETATM    3  C9  UNL     1      14.186  15.286   5.061  1.00  0.00     0.047 C 
HETATM    4  C10 UNL     1      16.624  15.136   5.158  1.00  0.00     0.056 C 
HETATM    5  C11 UNL     1      17.833  14.341   5.060  1.00  0.00     0.150 C 
HETATM    6  O4  UNL     1      18.923  14.876   4.739  1.00  0.00    -0.293 OA
HETATM    7  C12 UNL     1      17.835  12.865   5.336  1.00  0.00     0.095 C 
HETATM    8  C13 UNL     1      16.422  12.459   5.725  1.00  0.00    -0.002 C 
HETATM    9  C14 UNL     1      16.355  10.953   5.666  1.00  0.00     0.019 C 
HETATM   10  C15 UNL     1      16.139  12.924   7.113  1.00  0.00     0.019 C 
ENDROOT
BRANCH   1  11
HETATM   11  C6  UNL     1      14.203  12.461   4.603  1.00  0.00     0.017 C 
HETATM   12  C5  UNL     1      13.798  11.969   3.415  1.00  0.00     0.006 C 
BRANCH  12  13
HETATM   13  C2  UNL     1      12.517  11.351   3.256  1.00  0.00    -0.056 C 
HETATM   14  C1  UNL     1      11.507  12.101   2.425  1.00  0.00     0.048 C 
HETATM   15  C3  UNL     1      12.168  10.217   3.765  1.00  0.00     0.091 C 
BRANCH  15  16
HETATM   16  C4  UNL     1      12.952   9.324   4.589  1.00  0.00     0.199 C 
HETATM   17  O1  UNL     1      12.657   9.056   5.752  1.00  0.00    -0.644 OA
HETATM   18  O2  UNL     1      14.114   8.718   4.062  1.00  0.00    -0.644 OA
ENDBRANCH  15  16
ENDBRANCH  12  13
ENDBRANCH   1  11
BRANCH   1  19
HETATM   19  O3  UNL     1      16.178  12.956   3.467  1.00  0.00    -0.380 OA
ATOM     20  H3  UNL     1      16.893  13.580   3.421  1.00  0.00     0.211 HD
ENDBRANCH   1  19
TORSDOF 4
ENDMDL
