MODEL 6
REMARK VINA RESULT: -5.783121715      2.820      5.080
REMARK  4 active torsions:
REMARK  status: ('A' for Active; 'I' for Inactive)
REMARK    1  A    between atoms: C2_2  and  O1_4 
REMARK    2  A    between atoms: O1_4  and  C4_5 
REMARK    3  A    between atoms: C7_8  and  C8_9 
REMARK    4  A    between atoms: C8_9  and  N1_10 
ROOT
HETATM    1  C4  UNL     1       4.093 141.977 352.574  1.00  0.00     0.091 A 
HETATM    2  C5  UNL     1       5.312 142.587 352.827  1.00  0.00     0.039 A 
HETATM    3  C6  UNL     1       5.435 143.941 353.065  1.00  0.00     0.012 A 
HETATM    4  C7  UNL     1       4.294 144.727 353.050  1.00  0.00    -0.031 A 
HETATM    5  C9  UNL     1       3.064 144.166 352.803  1.00  0.00     0.035 A 
HETATM    6  C10 UNL     1       2.988 142.803 352.569  1.00  0.00     0.068 A 
HETATM    7 CL1  UNL     1       1.414 142.057 352.248  1.00  0.00    -0.081 Cl
ENDROOT
BRANCH   4   8
HETATM    8  C8  UNL     1       4.393 146.190 353.302  1.00  0.00     0.268 C 
BRANCH   8   9
HETATM    9  N1  UNL     1       3.261 146.800 352.584  1.00  0.00    -0.075 N 
ATOM     10  H13 UNL     1       3.545 147.453 351.854  1.00  0.00     0.274 HD
ATOM     11  H12 UNL     1       2.763 146.148 351.978  1.00  0.00     0.274 HD
ATOM     12  H11 UNL     1       2.671 147.223 353.301  1.00  0.00     0.274 HD
ENDBRANCH   8   9
ENDBRANCH   4   8
BRANCH   1  13
HETATM   13  O1  UNL     1       3.923 140.646 352.333  1.00  0.00    -0.345 OA
BRANCH  13  14
HETATM   14  C2  UNL     1       4.525 139.556 352.940  1.00  0.00     0.120 C 
HETATM   15  C1  UNL     1       3.832 139.154 354.221  1.00  0.00     0.040 C 
HETATM   16  C3  UNL     1       4.593 138.381 351.961  1.00  0.00     0.040 C 
ENDBRANCH  13  14
ENDBRANCH   1  13
TORSDOF 4
ENDMDL
