MODEL 3
REMARK VINA RESULT: -5.975817314      1.697      2.162
REMARK  4 active torsions:
REMARK  status: ('A' for Active; 'I' for Inactive)
REMARK    1  A    between atoms: C2_2  and  O1_4 
REMARK    2  A    between atoms: O1_4  and  C4_5 
REMARK    3  A    between atoms: C7_8  and  C8_9 
REMARK    4  A    between atoms: C8_9  and  N1_10 
ROOT
HETATM    1  C4  UNL     1       3.481 142.934 352.091  1.00  0.00     0.091 A 
HETATM    2  C5  UNL     1       2.620 141.933 351.667  1.00  0.00     0.039 A 
HETATM    3  C6  UNL     1       2.832 140.598 351.944  1.00  0.00     0.012 A 
HETATM    4  C7  UNL     1       3.952 140.239 352.678  1.00  0.00    -0.031 A 
HETATM    5  C9  UNL     1       4.833 141.197 353.120  1.00  0.00     0.035 A 
HETATM    6  C10 UNL     1       4.580 142.525 352.818  1.00  0.00     0.068 A 
HETATM    7 CL1  UNL     1       5.701 143.778 353.375  1.00  0.00    -0.081 Cl
ENDROOT
BRANCH   4   8
HETATM    8  C8  UNL     1       4.210 138.809 352.993  1.00  0.00     0.268 C 
BRANCH   8   9
HETATM    9  N1  UNL     1       5.513 138.774 353.677  1.00  0.00    -0.075 N 
ATOM     10  H13 UNL     1       6.306 138.904 353.049  1.00  0.00     0.274 HD
ATOM     11  H12 UNL     1       5.687 139.590 354.264  1.00  0.00     0.274 HD
ATOM     12  H11 UNL     1       5.539 137.891 354.187  1.00  0.00     0.274 HD
ENDBRANCH   8   9
ENDBRANCH   4   8
BRANCH   1  13
HETATM   13  O1  UNL     1       3.313 144.263 351.841  1.00  0.00    -0.345 OA
BRANCH  13  14
HETATM   14  C2  UNL     1       2.781 145.253 352.651  1.00  0.00     0.120 C 
HETATM   15  C1  UNL     1       3.452 146.591 352.443  1.00  0.00     0.040 C 
HETATM   16  C3  UNL     1       1.270 145.358 352.427  1.00  0.00     0.040 C 
ENDBRANCH  13  14
ENDBRANCH   1  13
TORSDOF 4
ENDMDL
