MODEL 4
REMARK VINA RESULT: -5.883955489      1.824      2.441
REMARK  4 active torsions:
REMARK  status: ('A' for Active; 'I' for Inactive)
REMARK    1  A    between atoms: C2_2  and  O1_4 
REMARK    2  A    between atoms: O1_4  and  C4_5 
REMARK    3  A    between atoms: C7_8  and  C8_9 
REMARK    4  A    between atoms: C8_9  and  N1_10 
ROOT
HETATM    1  C4  UNL     1       3.674 141.741 352.215  1.00  0.00     0.091 A 
HETATM    2  C5  UNL     1       3.100 140.616 351.641  1.00  0.00     0.039 A 
HETATM    3  C6  UNL     1       3.653 139.357 351.749  1.00  0.00     0.012 A 
HETATM    4  C7  UNL     1       4.833 139.205 352.461  1.00  0.00    -0.031 A 
HETATM    5  C9  UNL     1       5.438 140.292 353.047  1.00  0.00     0.035 A 
HETATM    6  C10 UNL     1       4.847 141.537 352.913  1.00  0.00     0.068 A 
HETATM    7 CL1  UNL     1       5.608 142.952 353.658  1.00  0.00    -0.081 Cl
ENDROOT
BRANCH   4   8
HETATM    8  C8  UNL     1       5.456 137.862 352.595  1.00  0.00     0.268 C 
BRANCH   8   9
HETATM    9  N1  UNL     1       5.695 137.669 354.035  1.00  0.00    -0.075 N 
ATOM     10  H13 UNL     1       6.313 138.370 354.443  1.00  0.00     0.274 HD
ATOM     11  H12 UNL     1       4.880 137.872 354.614  1.00  0.00     0.274 HD
ATOM     12  H11 UNL     1       6.039 136.714 354.137  1.00  0.00     0.274 HD
ENDBRANCH   8   9
ENDBRANCH   4   8
BRANCH   1  13
HETATM   13  O1  UNL     1       3.164 143.002 352.135  1.00  0.00    -0.345 OA
BRANCH  13  14
HETATM   14  C2  UNL     1       1.846 143.426 352.178  1.00  0.00     0.120 C 
HETATM   15  C1  UNL     1       1.070 142.777 353.300  1.00  0.00     0.040 C 
HETATM   16  C3  UNL     1       1.789 144.952 352.282  1.00  0.00     0.040 C 
ENDBRANCH  13  14
ENDBRANCH   1  13
TORSDOF 4
ENDMDL
