MODEL 10
REMARK VINA RESULT: -5.621625324      3.277      5.336
REMARK  4 active torsions:
REMARK  status: ('A' for Active; 'I' for Inactive)
REMARK    1  A    between atoms: C2_2  and  O1_4 
REMARK    2  A    between atoms: O1_4  and  C4_5 
REMARK    3  A    between atoms: C7_8  and  C8_9 
REMARK    4  A    between atoms: C8_9  and  N1_10 
ROOT
HETATM    1  C4  UNL     1       3.673 142.115 352.453  1.00  0.00     0.091 A 
HETATM    2  C5  UNL     1       2.751 143.112 352.176  1.00  0.00     0.039 A 
HETATM    3  C6  UNL     1       3.012 144.451 352.387  1.00  0.00     0.012 A 
HETATM    4  C7  UNL     1       4.248 144.817 352.897  1.00  0.00    -0.031 A 
HETATM    5  C9  UNL     1       5.193 143.862 353.186  1.00  0.00     0.035 A 
HETATM    6  C10 UNL     1       4.887 142.530 352.959  1.00  0.00     0.068 A 
HETATM    7 CL1  UNL     1       6.089 141.282 353.324  1.00  0.00    -0.081 Cl
ENDROOT
BRANCH   4   8
HETATM    8  C8  UNL     1       4.560 146.251 353.137  1.00  0.00     0.268 C 
BRANCH   8   9
HETATM    9  N1  UNL     1       3.387 147.005 352.664  1.00  0.00    -0.075 N 
ATOM     10  H13 UNL     1       3.419 147.228 351.670  1.00  0.00     0.274 HD
ATOM     11  H12 UNL     1       2.531 146.452 352.638  1.00  0.00     0.274 HD
ATOM     12  H11 UNL     1       3.324 147.828 353.264  1.00  0.00     0.274 HD
ENDBRANCH   8   9
ENDBRANCH   4   8
BRANCH   1  13
HETATM   13  O1  UNL     1       3.459 140.782 352.261  1.00  0.00    -0.345 OA
BRANCH  13  14
HETATM   14  C2  UNL     1       3.728 139.996 351.153  1.00  0.00     0.120 C 
HETATM   15  C1  UNL     1       3.918 138.540 351.511  1.00  0.00     0.040 C 
HETATM   16  C3  UNL     1       2.619 140.164 350.110  1.00  0.00     0.040 C 
ENDBRANCH  13  14
ENDBRANCH   1  13
TORSDOF 4
ENDMDL
