MODEL 7
REMARK VINA RESULT: -5.758881162      1.910      2.487
REMARK  4 active torsions:
REMARK  status: ('A' for Active; 'I' for Inactive)
REMARK    1  A    between atoms: C2_2  and  O1_4 
REMARK    2  A    between atoms: O1_4  and  C4_5 
REMARK    3  A    between atoms: C7_8  and  C8_9 
REMARK    4  A    between atoms: C8_9  and  N1_10 
ROOT
HETATM    1  C4  UNL     1       3.462 142.752 352.490  1.00  0.00     0.091 A 
HETATM    2  C5  UNL     1       2.635 141.874 351.807  1.00  0.00     0.039 A 
HETATM    3  C6  UNL     1       2.994 140.570 351.530  1.00  0.00     0.012 A 
HETATM    4  C7  UNL     1       4.234 140.117 351.951  1.00  0.00    -0.031 A 
HETATM    5  C9  UNL     1       5.088 140.953 352.631  1.00  0.00     0.035 A 
HETATM    6  C10 UNL     1       4.685 142.253 352.887  1.00  0.00     0.068 A 
HETATM    7 CL1  UNL     1       5.768 143.349 353.761  1.00  0.00    -0.081 Cl
ENDROOT
BRANCH   4   8
HETATM    8  C8  UNL     1       4.653 138.718 351.668  1.00  0.00     0.268 C 
BRANCH   8   9
HETATM    9  N1  UNL     1       5.649 138.378 352.697  1.00  0.00    -0.075 N 
ATOM     10  H13 UNL     1       6.563 138.135 352.316  1.00  0.00     0.274 HD
ATOM     11  H12 UNL     1       5.956 139.180 353.248  1.00  0.00     0.274 HD
ATOM     12  H11 UNL     1       5.231 137.635 353.257  1.00  0.00     0.274 HD
ENDBRANCH   8   9
ENDBRANCH   4   8
BRANCH   1  13
HETATM   13  O1  UNL     1       3.150 144.046 352.784  1.00  0.00    -0.345 OA
BRANCH  13  14
HETATM   14  C2  UNL     1       2.583 145.022 351.980  1.00  0.00     0.120 C 
HETATM   15  C1  UNL     1       1.193 145.404 352.432  1.00  0.00     0.040 C 
HETATM   16  C3  UNL     1       3.497 146.248 351.921  1.00  0.00     0.040 C 
ENDBRANCH  13  14
ENDBRANCH   1  13
TORSDOF 4
ENDMDL
