MODEL 8
REMARK VINA RESULT: -5.699549439      3.139      5.470
REMARK  4 active torsions:
REMARK  status: ('A' for Active; 'I' for Inactive)
REMARK    1  A    between atoms: C2_2  and  O1_4 
REMARK    2  A    between atoms: O1_4  and  C4_5 
REMARK    3  A    between atoms: C7_8  and  C8_9 
REMARK    4  A    between atoms: C8_9  and  N1_10 
ROOT
HETATM    1  C4  UNL     1       3.431 141.029 352.560  1.00  0.00     0.091 A 
HETATM    2  C5  UNL     1       2.168 141.486 352.216  1.00  0.00     0.039 A 
HETATM    3  C6  UNL     1       1.886 142.821 352.009  1.00  0.00     0.012 A 
HETATM    4  C7  UNL     1       2.907 143.747 352.150  1.00  0.00    -0.031 A 
HETATM    5  C9  UNL     1       4.176 143.340 352.489  1.00  0.00     0.035 A 
HETATM    6  C10 UNL     1       4.413 141.990 352.687  1.00  0.00     0.068 A 
HETATM    7 CL1  UNL     1       6.039 141.442 353.126  1.00  0.00    -0.081 Cl
ENDROOT
BRANCH   4   8
HETATM    8  C8  UNL     1       2.637 145.194 351.934  1.00  0.00     0.268 C 
BRANCH   8   9
HETATM    9  N1  UNL     1       1.313 145.450 352.525  1.00  0.00    -0.075 N 
ATOM     10  H13 UNL     1       0.978 144.692 353.120  1.00  0.00     0.274 HD
ATOM     11  H12 UNL     1       1.320 146.175 353.243  1.00  0.00     0.274 HD
ATOM     12  H11 UNL     1       0.692 145.657 351.743  1.00  0.00     0.274 HD
ENDBRANCH   8   9
ENDBRANCH   4   8
BRANCH   1  13
HETATM   13  O1  UNL     1       3.755 139.723 352.775  1.00  0.00    -0.345 OA
BRANCH  13  14
HETATM   14  C2  UNL     1       3.755 138.657 351.890  1.00  0.00     0.120 C 
HETATM   15  C1  UNL     1       4.873 138.749 350.877  1.00  0.00     0.040 C 
HETATM   16  C3  UNL     1       3.821 137.336 352.660  1.00  0.00     0.040 C 
ENDBRANCH  13  14
ENDBRANCH   1  13
TORSDOF 4
ENDMDL
