MODEL 3
REMARK VINA RESULT: -8.262826566      1.788      4.174
REMARK  7 active torsions:
REMARK  status: ('A' for Active; 'I' for Inactive)
REMARK    1  A    between atoms: C2_2  and  O1_3 
REMARK    2  A    between atoms: O1_3  and  C3_4 
REMARK    3  A    between atoms: C6_7  and  C7_8 
REMARK    4  A    between atoms: C10_12  and  N1_13 
REMARK       I    between atoms: N1_13  and  C11_15 
REMARK    5  A    between atoms: C11_15  and  C12_17 
REMARK    6  A    between atoms: C14_19  and  C15_20 
REMARK    7  A    between atoms: C19_27  and  C20_28 
ROOT
HETATM    1  C12 UNL     1      22.654 -20.071 -15.308  1.00  0.00     0.034 A 
HETATM    2  C13 UNL     1      23.948 -20.455 -15.122  1.00  0.00     0.030 A 
HETATM    3  C14 UNL     1      24.868 -20.540 -16.150  1.00  0.00    -0.007 A 
HETATM    4  C18 UNL     1      24.450 -20.223 -17.407  1.00  0.00     0.029 A 
HETATM    5  C19 UNL     1      23.139 -19.823 -17.670  1.00  0.00     0.012 A 
HETATM    6  C21 UNL     1      22.278 -19.760 -16.601  1.00  0.00     0.032 A 
ENDROOT
BRANCH   1   7
HETATM    7  C11 UNL     1      21.673 -19.972 -14.213  1.00  0.00     0.256 C 
HETATM    8  N1  UNL     1      21.991 -19.468 -12.949  1.00  0.00    -0.320 N 
ATOM      9  H1  UNL     1      22.960 -19.174 -12.826  1.00  0.00     0.169 HD
HETATM   10  O3  UNL     1      20.504 -20.357 -14.428  1.00  0.00    -0.267 OA
BRANCH   8  11
HETATM   11  C10 UNL     1      21.161 -19.306 -11.819  1.00  0.00     0.069 A 
HETATM   12  C3  UNL     1      21.296 -20.284 -10.777  1.00  0.00     0.095 A 
HETATM   13  C4  UNL     1      20.485 -20.122  -9.627  1.00  0.00     0.040 A 
HETATM   14  C5  UNL     1      19.611 -19.088  -9.509  1.00  0.00     0.018 A 
HETATM   15  C6  UNL     1      19.491 -18.172 -10.501  1.00  0.00     0.012 A 
HETATM   16  C9  UNL     1      20.275 -18.291 -11.658  1.00  0.00     0.047 A 
BRANCH  12  17
HETATM   17  O1  UNL     1      22.131 -21.254 -10.921  1.00  0.00    -0.349 OA
BRANCH  17  18
HETATM   18  C2  UNL     1      22.731 -22.380 -11.004  1.00  0.00     0.171 C 
HETATM   19  C1  UNL     1      22.999 -22.929 -12.417  1.00  0.00     0.034 C 
ENDBRANCH  17  18
ENDBRANCH  12  17
BRANCH  15  20
HETATM   20  C7  UNL     1      18.574 -17.073 -10.405  1.00  0.00     0.155 C 
HETATM   21  C8  UNL     1      18.054 -16.364 -11.615  1.00  0.00     0.096 C 
HETATM   22  O2  UNL     1      18.154 -16.644  -9.284  1.00  0.00    -0.293 OA
ENDBRANCH  15  20
ENDBRANCH   8  11
ENDBRANCH   1   7
BRANCH   3  23
HETATM   23  C15 UNL     1      26.269 -20.974 -15.905  1.00  0.00     0.049 A 
HETATM   24  C16 UNL     1      27.097 -21.329 -16.939  1.00  0.00     0.081 A 
HETATM   25  S1  UNL     1      28.539 -21.716 -16.118  1.00  0.00    -0.094 SA
HETATM   26  C17 UNL     1      28.013 -21.406 -14.521  1.00  0.00     0.138 A 
HETATM   27  N2  UNL     1      26.764 -21.025 -14.704  1.00  0.00    -0.359 N 
ATOM     28  H2  UNL     1      26.187 -20.770 -13.903  1.00  0.00     0.166 HD
ENDBRANCH   3  23
BRANCH   5  29
HETATM   29  C20 UNL     1      22.698 -19.486 -18.994  1.00  0.00     0.141 A 
HETATM   30  N3  UNL     1      23.088 -18.436 -19.719  1.00  0.00    -0.270 N 
HETATM   31  N4  UNL     1      22.455 -18.464 -20.904  1.00  0.00    -0.007 NA
ATOM     32  H3  UNL     1      23.758 -17.727 -19.422  1.00  0.00     0.185 HD
HETATM   33  N5  UNL     1      21.678 -19.535 -20.893  1.00  0.00    -0.007 NA
HETATM   34  N6  UNL     1      21.824 -20.156 -19.737  1.00  0.00    -0.270 N 
ATOM     35  H6  UNL     1      21.343 -21.012 -19.459  1.00  0.00     0.185 HD
ENDBRANCH   5  29
TORSDOF 7
ENDMDL
