MODEL 4
REMARK VINA RESULT: -8.245581712      4.059      7.476
REMARK  7 active torsions:
REMARK  status: ('A' for Active; 'I' for Inactive)
REMARK    1  A    between atoms: C2_2  and  O1_3 
REMARK    2  A    between atoms: O1_3  and  C3_4 
REMARK    3  A    between atoms: C6_7  and  C7_8 
REMARK    4  A    between atoms: C10_12  and  N1_13 
REMARK       I    between atoms: N1_13  and  C11_15 
REMARK    5  A    between atoms: C11_15  and  C12_17 
REMARK    6  A    between atoms: C14_19  and  C15_20 
REMARK    7  A    between atoms: C19_27  and  C20_28 
ROOT
HETATM    1  C12 UNL     1      23.056 -21.946 -12.056  1.00  0.00     0.034 A 
HETATM    2  C13 UNL     1      23.243 -21.640 -13.371  1.00  0.00     0.030 A 
HETATM    3  C14 UNL     1      22.628 -20.570 -13.994  1.00  0.00    -0.007 A 
HETATM    4  C18 UNL     1      21.797 -19.790 -13.248  1.00  0.00     0.029 A 
HETATM    5  C19 UNL     1      21.560 -20.046 -11.897  1.00  0.00     0.012 A 
HETATM    6  C21 UNL     1      22.204 -21.126 -11.342  1.00  0.00     0.032 A 
ENDROOT
BRANCH   1   7
HETATM    7  C11 UNL     1      23.716 -23.081 -11.388  1.00  0.00     0.256 C 
HETATM    8  N1  UNL     1      24.375 -22.965 -10.160  1.00  0.00    -0.320 N 
ATOM      9  H1  UNL     1      24.378 -22.030  -9.752  1.00  0.00     0.169 HD
HETATM   10  O3  UNL     1      23.682 -24.198 -11.946  1.00  0.00    -0.267 OA
BRANCH   8  11
HETATM   11  C10 UNL     1      25.036 -23.957  -9.406  1.00  0.00     0.069 A 
HETATM   12  C3  UNL     1      26.457 -23.819  -9.266  1.00  0.00     0.095 A 
HETATM   13  C4  UNL     1      27.131 -24.796  -8.493  1.00  0.00     0.040 A 
HETATM   14  C5  UNL     1      26.466 -25.826  -7.906  1.00  0.00     0.018 A 
HETATM   15  C6  UNL     1      25.123 -25.947  -8.047  1.00  0.00     0.012 A 
HETATM   16  C9  UNL     1      24.414 -25.002  -8.803  1.00  0.00     0.047 A 
BRANCH  12  17
HETATM   17  O1  UNL     1      27.059 -22.833  -9.837  1.00  0.00    -0.349 OA
BRANCH  17  18
HETATM   18  C2  UNL     1      27.788 -21.831 -10.150  1.00  0.00     0.171 C 
HETATM   19  C1  UNL     1      28.191 -21.692 -11.630  1.00  0.00     0.034 C 
ENDBRANCH  17  18
ENDBRANCH  12  17
BRANCH  15  20
HETATM   20  C7  UNL     1      24.396 -27.026  -7.442  1.00  0.00     0.155 C 
HETATM   21  C8  UNL     1      24.480 -28.427  -7.957  1.00  0.00     0.096 C 
HETATM   22  O2  UNL     1      23.642 -26.846  -6.435  1.00  0.00    -0.293 OA
ENDBRANCH  15  20
ENDBRANCH   8  11
ENDBRANCH   1   7
BRANCH   3  23
HETATM   23  C15 UNL     1      22.851 -20.277 -15.435  1.00  0.00     0.049 A 
HETATM   24  C16 UNL     1      24.116 -20.177 -15.955  1.00  0.00     0.081 A 
HETATM   25  S1  UNL     1      23.796 -19.853 -17.597  1.00  0.00    -0.094 SA
HETATM   26  C17 UNL     1      22.088 -19.864 -17.530  1.00  0.00     0.138 A 
HETATM   27  N2  UNL     1      21.857 -20.114 -16.256  1.00  0.00    -0.359 N 
ATOM     28  H2  UNL     1      20.898 -20.180 -15.915  1.00  0.00     0.166 HD
ENDBRANCH   3  23
BRANCH   5  29
HETATM   29  C20 UNL     1      20.686 -19.223 -11.109  1.00  0.00     0.141 A 
HETATM   30  N3  UNL     1      20.003 -19.598 -10.025  1.00  0.00    -0.270 N 
HETATM   31  N4  UNL     1      19.300 -18.549  -9.567  1.00  0.00    -0.007 NA
ATOM     32  H3  UNL     1      20.014 -20.530  -9.611  1.00  0.00     0.185 HD
HETATM   33  N5  UNL     1      19.558 -17.537 -10.379  1.00  0.00    -0.007 NA
HETATM   34  N6  UNL     1      20.398 -17.943 -11.314  1.00  0.00    -0.270 N 
ATOM     35  H6  UNL     1      20.765 -17.366 -12.071  1.00  0.00     0.185 HD
ENDBRANCH   5  29
TORSDOF 7
ENDMDL
