MODEL 2
REMARK VINA RESULT: -8.340292214      3.990      7.555
REMARK  7 active torsions:
REMARK  status: ('A' for Active; 'I' for Inactive)
REMARK    1  A    between atoms: C2_2  and  O1_3 
REMARK    2  A    between atoms: O1_3  and  C3_4 
REMARK    3  A    between atoms: C6_7  and  C7_8 
REMARK    4  A    between atoms: C10_12  and  N1_13 
REMARK       I    between atoms: N1_13  and  C11_15 
REMARK    5  A    between atoms: C11_15  and  C12_17 
REMARK    6  A    between atoms: C14_19  and  C15_20 
REMARK    7  A    between atoms: C19_27  and  C20_28 
ROOT
HETATM    1  C12 UNL     1      22.929 -21.560 -11.728  1.00  0.00     0.034 A 
HETATM    2  C13 UNL     1      23.051 -21.381 -13.073  1.00  0.00     0.030 A 
HETATM    3  C14 UNL     1      22.339 -20.428 -13.777  1.00  0.00    -0.007 A 
HETATM    4  C18 UNL     1      21.475 -19.636 -13.084  1.00  0.00     0.029 A 
HETATM    5  C19 UNL     1      21.300 -19.765 -11.706  1.00  0.00     0.012 A 
HETATM    6  C21 UNL     1      22.040 -20.732 -11.069  1.00  0.00     0.032 A 
ENDROOT
BRANCH   1   7
HETATM    7  C11 UNL     1      23.692 -22.569 -10.973  1.00  0.00     0.256 C 
HETATM    8  N1  UNL     1      25.081 -22.523 -10.828  1.00  0.00    -0.320 N 
ATOM      9  H1  UNL     1      25.544 -21.739 -11.290  1.00  0.00     0.169 HD
HETATM   10  O3  UNL     1      23.065 -23.508 -10.439  1.00  0.00    -0.267 OA
BRANCH   8  11
HETATM   11  C10 UNL     1      25.935 -23.405 -10.133  1.00  0.00     0.069 A 
HETATM   12  C3  UNL     1      26.479 -24.499 -10.886  1.00  0.00     0.095 A 
HETATM   13  C4  UNL     1      27.355 -25.381 -10.206  1.00  0.00     0.040 A 
HETATM   14  C5  UNL     1      27.671 -25.206  -8.896  1.00  0.00     0.018 A 
HETATM   15  C6  UNL     1      27.149 -24.169  -8.196  1.00  0.00     0.012 A 
HETATM   16  C9  UNL     1      26.278 -23.270  -8.827  1.00  0.00     0.047 A 
BRANCH  12  17
HETATM   17  O1  UNL     1      26.158 -24.640 -12.125  1.00  0.00    -0.349 OA
BRANCH  17  18
HETATM   18  C2  UNL     1      25.871 -25.059 -13.298  1.00  0.00     0.171 C 
HETATM   19  C1  UNL     1      24.442 -24.795 -13.807  1.00  0.00     0.034 C 
ENDBRANCH  17  18
ENDBRANCH  12  17
BRANCH  15  20
HETATM   20  C7  UNL     1      27.462 -23.962  -6.810  1.00  0.00     0.155 C 
HETATM   21  C8  UNL     1      28.690 -24.535  -6.179  1.00  0.00     0.096 C 
HETATM   22  O2  UNL     1      26.709 -23.279  -6.047  1.00  0.00    -0.293 OA
ENDBRANCH  15  20
ENDBRANCH   8  11
ENDBRANCH   1   7
BRANCH   3  23
HETATM   23  C15 UNL     1      22.495 -20.272 -15.248  1.00  0.00     0.049 A 
HETATM   24  C16 UNL     1      23.696 -20.506 -15.868  1.00  0.00     0.081 A 
HETATM   25  S1  UNL     1      23.316 -20.200 -17.500  1.00  0.00    -0.094 SA
HETATM   26  C17 UNL     1      21.666 -19.796 -17.305  1.00  0.00     0.138 A 
HETATM   27  N2  UNL     1      21.498 -19.917 -16.003  1.00  0.00    -0.359 N 
ATOM     28  H2  UNL     1      20.585 -19.732 -15.588  1.00  0.00     0.166 HD
ENDBRANCH   3  23
BRANCH   5  29
HETATM   29  C20 UNL     1      20.391 -18.929 -10.972  1.00  0.00     0.141 A 
HETATM   30  N3  UNL     1      19.736 -19.254  -9.856  1.00  0.00    -0.270 N 
HETATM   31  N4  UNL     1      18.984 -18.209  -9.471  1.00  0.00    -0.007 NA
ATOM     32  H3  UNL     1      19.796 -20.150  -9.373  1.00  0.00     0.185 HD
HETATM   33  N5  UNL     1      19.185 -17.250 -10.360  1.00  0.00    -0.007 NA
HETATM   34  N6  UNL     1      20.038 -17.684 -11.270  1.00  0.00    -0.270 N 
ATOM     35  H6  UNL     1      20.371 -17.149 -12.073  1.00  0.00     0.185 HD
ENDBRANCH   5  29
TORSDOF 7
ENDMDL
