MODEL 5
REMARK VINA RESULT: -8.241431939      1.918      2.651
REMARK  7 active torsions:
REMARK  status: ('A' for Active; 'I' for Inactive)
REMARK    1  A    between atoms: C2_2  and  O1_3 
REMARK    2  A    between atoms: O1_3  and  C3_4 
REMARK    3  A    between atoms: C6_7  and  C7_8 
REMARK    4  A    between atoms: C10_12  and  N1_13 
REMARK       I    between atoms: N1_13  and  C11_15 
REMARK    5  A    between atoms: C11_15  and  C12_17 
REMARK    6  A    between atoms: C14_19  and  C15_20 
REMARK    7  A    between atoms: C19_27  and  C20_28 
ROOT
HETATM    1  C12 UNL     1      22.555 -19.888 -17.012  1.00  0.00     0.034 A 
HETATM    2  C13 UNL     1      21.875 -20.002 -18.187  1.00  0.00     0.030 A 
HETATM    3  C14 UNL     1      22.457 -19.787 -19.422  1.00  0.00    -0.007 A 
HETATM    4  C18 UNL     1      23.775 -19.444 -19.455  1.00  0.00     0.029 A 
HETATM    5  C19 UNL     1      24.531 -19.309 -18.290  1.00  0.00     0.012 A 
HETATM    6  C21 UNL     1      23.889 -19.538 -17.097  1.00  0.00     0.032 A 
ENDROOT
BRANCH   1   7
HETATM    7  C11 UNL     1      21.939 -20.124 -15.694  1.00  0.00     0.256 C 
HETATM    8  N1  UNL     1      22.683 -20.253 -14.517  1.00  0.00    -0.320 N 
ATOM      9  H1  UNL     1      23.694 -20.180 -14.628  1.00  0.00     0.169 HD
HETATM   10  O3  UNL     1      20.695 -20.212 -15.629  1.00  0.00    -0.267 OA
BRANCH   8  11
HETATM   11  C10 UNL     1      22.233 -20.469 -13.198  1.00  0.00     0.069 A 
HETATM   12  C3  UNL     1      22.574 -21.729 -12.600  1.00  0.00     0.095 A 
HETATM   13  C4  UNL     1      22.147 -21.950 -11.268  1.00  0.00     0.040 A 
HETATM   14  C5  UNL     1      21.442 -21.016 -10.578  1.00  0.00     0.018 A 
HETATM   15  C6  UNL     1      21.124 -19.831 -11.154  1.00  0.00     0.012 A 
HETATM   16  C9  UNL     1      21.527 -19.566 -12.472  1.00  0.00     0.047 A 
BRANCH  12  17
HETATM   17  O1  UNL     1      23.240 -22.596 -13.282  1.00  0.00    -0.349 OA
BRANCH  17  18
HETATM   18  C2  UNL     1      23.992 -23.541 -13.699  1.00  0.00     0.171 C 
HETATM   19  C1  UNL     1      23.941 -24.871 -12.924  1.00  0.00     0.034 C 
ENDBRANCH  17  18
ENDBRANCH  12  17
BRANCH  15  20
HETATM   20  C7  UNL     1      20.378 -18.827 -10.451  1.00  0.00     0.155 C 
HETATM   21  C8  UNL     1      19.998 -17.528 -11.087  1.00  0.00     0.096 C 
HETATM   22  O2  UNL     1      19.999 -18.991  -9.249  1.00  0.00    -0.293 OA
ENDBRANCH  15  20
ENDBRANCH   8  11
ENDBRANCH   1   7
BRANCH   3  23
HETATM   23  C15 UNL     1      21.675 -19.911 -20.681  1.00  0.00     0.049 A 
HETATM   24  C16 UNL     1      22.040 -19.233 -21.817  1.00  0.00     0.081 A 
HETATM   25  S1  UNL     1      20.845 -19.734 -22.923  1.00  0.00    -0.094 SA
HETATM   26  C17 UNL     1      19.958 -20.767 -21.890  1.00  0.00     0.138 A 
HETATM   27  N2  UNL     1      20.624 -20.672 -20.756  1.00  0.00    -0.359 N 
ATOM     28  H2  UNL     1      20.315 -21.196 -19.938  1.00  0.00     0.166 HD
ENDBRANCH   3  23
BRANCH   5  29
HETATM   29  C20 UNL     1      25.921 -18.950 -18.323  1.00  0.00     0.141 A 
HETATM   30  N3  UNL     1      26.422 -17.714 -18.359  1.00  0.00    -0.270 N 
HETATM   31  N4  UNL     1      27.764 -17.787 -18.381  1.00  0.00    -0.007 NA
ATOM     32  H3  UNL     1      25.876 -16.853 -18.369  1.00  0.00     0.185 HD
HETATM   33  N5  UNL     1      28.073 -19.073 -18.359  1.00  0.00    -0.007 NA
HETATM   34  N6  UNL     1      26.958 -19.780 -18.323  1.00  0.00    -0.270 N 
ATOM     35  H6  UNL     1      26.903 -20.798 -18.300  1.00  0.00     0.185 HD
ENDBRANCH   5  29
TORSDOF 7
ENDMDL
