MODEL 2
REMARK VINA RESULT: -8.319801020      3.910      6.753
REMARK  5 active torsions:
REMARK  status: ('A' for Active; 'I' for Inactive)
REMARK    1  A    between atoms: C2_2  and  O1_3 
REMARK    2  A    between atoms: O1_3  and  C3_4 
REMARK    3  A    between atoms: C6_7  and  C7_8 
REMARK    4  A    between atoms: C10_12  and  C11_13 
REMARK    5  A    between atoms: C15_17  and  C16_18 
ROOT
HETATM    1  C11 UNL     1     -10.996 -12.970   0.447  1.00  0.00    -0.022 A 
HETATM    2  C12 UNL     1     -11.151 -12.203  -0.688  1.00  0.00     0.012 A 
HETATM    3  C13 UNL     1     -10.520 -10.971  -0.849  1.00  0.00     0.002 A 
HETATM    4  C14 UNL     1      -9.702 -10.491   0.168  1.00  0.00     0.015 A 
HETATM    5  C15 UNL     1      -9.540 -11.256   1.312  1.00  0.00     0.011 A 
HETATM    6  C17 UNL     1     -10.175 -12.469   1.446  1.00  0.00     0.027 A 
ENDROOT
BRANCH   1   7
HETATM    7  C10 UNL     1     -11.665 -14.259   0.599  1.00  0.00     0.008 A 
HETATM    8  C3  UNL     1     -10.919 -15.409   0.735  1.00  0.00     0.079 A 
HETATM    9  C4  UNL     1     -11.542 -16.649   0.881  1.00  0.00     0.038 A 
HETATM   10  C5  UNL     1     -12.916 -16.764   0.895  1.00  0.00     0.018 A 
HETATM   11  C6  UNL     1     -13.665 -15.618   0.760  1.00  0.00     0.010 A 
HETATM   12  C9  UNL     1     -13.038 -14.383   0.614  1.00  0.00     0.030 A 
BRANCH   8  13
HETATM   13  O1  UNL     1      -9.540 -15.279   0.720  1.00  0.00    -0.351 OA
BRANCH  13  14
HETATM   14  C2  UNL     1      -8.765 -16.409   1.075  1.00  0.00     0.171 C 
HETATM   15  C1  UNL     1      -8.357 -17.215  -0.125  1.00  0.00     0.034 C 
ENDBRANCH  13  14
ENDBRANCH   8  13
BRANCH  11  16
HETATM   16  C7  UNL     1     -15.100 -15.710   0.770  1.00  0.00     0.155 C 
HETATM   17  C8  UNL     1     -15.898 -14.848  -0.132  1.00  0.00     0.096 C 
HETATM   18  O2  UNL     1     -15.703 -16.501   1.523  1.00  0.00    -0.293 OA
ENDBRANCH  11  16
ENDBRANCH   1   7
BRANCH   5  19
HETATM   19  C16 UNL     1      -8.677 -10.739   2.374  1.00  0.00     0.141 A 
HETATM   20  N1  UNL     1      -8.477 -11.237   3.606  1.00  0.00    -0.270 N 
HETATM   21  N2  UNL     1      -7.613 -10.468   4.266  1.00  0.00    -0.007 NA
ATOM     22  H1  UNL     1      -8.920 -12.076   3.980  1.00  0.00     0.185 HD
HETATM   23  N3  UNL     1      -7.284  -9.498   3.433  1.00  0.00    -0.007 NA
HETATM   24  N4  UNL     1      -7.917  -9.643   2.281  1.00  0.00    -0.270 N 
ATOM     25  H4  UNL     1      -7.841  -9.030   1.469  1.00  0.00     0.185 HD
ENDBRANCH   5  19
TORSDOF 5
ENDMDL
