MODEL 3
REMARK VINA RESULT: -7.961139625      3.819      6.145
REMARK  5 active torsions:
REMARK  status: ('A' for Active; 'I' for Inactive)
REMARK    1  A    between atoms: C2_2  and  O1_3 
REMARK    2  A    between atoms: O1_3  and  C3_4 
REMARK    3  A    between atoms: C6_7  and  C7_8 
REMARK    4  A    between atoms: C10_12  and  C11_13 
REMARK    5  A    between atoms: C15_17  and  C16_18 
ROOT
HETATM    1  C11 UNL     1     -10.816 -12.511   0.228  1.00  0.00    -0.022 A 
HETATM    2  C12 UNL     1     -10.885 -11.642  -0.841  1.00  0.00     0.012 A 
HETATM    3  C13 UNL     1     -10.199 -10.431  -0.865  1.00  0.00     0.002 A 
HETATM    4  C14 UNL     1      -9.412 -10.076   0.226  1.00  0.00     0.015 A 
HETATM    5  C15 UNL     1      -9.337 -10.942   1.305  1.00  0.00     0.011 A 
HETATM    6  C17 UNL     1     -10.025 -12.134   1.303  1.00  0.00     0.027 A 
ENDROOT
BRANCH   1   7
HETATM    7  C10 UNL     1     -11.542 -13.777   0.236  1.00  0.00     0.008 A 
HETATM    8  C3  UNL     1     -12.808 -13.847  -0.305  1.00  0.00     0.079 A 
HETATM    9  C4  UNL     1     -13.517 -15.049  -0.306  1.00  0.00     0.038 A 
HETATM   10  C5  UNL     1     -12.978 -16.199   0.229  1.00  0.00     0.018 A 
HETATM   11  C6  UNL     1     -11.715 -16.135   0.770  1.00  0.00     0.010 A 
HETATM   12  C9  UNL     1     -11.012 -14.932   0.769  1.00  0.00     0.030 A 
BRANCH   8  13
HETATM   13  O1  UNL     1     -13.337 -12.684  -0.840  1.00  0.00    -0.351 OA
BRANCH  13  14
HETATM   14  C2  UNL     1     -14.107 -12.790  -2.023  1.00  0.00     0.171 C 
HETATM   15  C1  UNL     1     -13.247 -12.917  -3.248  1.00  0.00     0.034 C 
ENDBRANCH  13  14
ENDBRANCH   8  13
BRANCH  11  16
HETATM   16  C7  UNL     1     -11.129 -17.320   1.335  1.00  0.00     0.155 C 
HETATM   17  C8  UNL     1      -9.676 -17.565   1.188  1.00  0.00     0.096 C 
HETATM   18  O2  UNL     1     -11.813 -18.160   1.954  1.00  0.00    -0.293 OA
ENDBRANCH  11  16
ENDBRANCH   1   7
BRANCH   5  19
HETATM   19  C16 UNL     1      -8.506 -10.558   2.446  1.00  0.00     0.141 A 
HETATM   20  N1  UNL     1      -8.386 -11.168   3.637  1.00  0.00    -0.270 N 
HETATM   21  N2  UNL     1      -7.525 -10.497   4.400  1.00  0.00    -0.007 NA
ATOM     22  H1  UNL     1      -8.880 -12.016   3.915  1.00  0.00     0.185 HD
HETATM   23  N3  UNL     1      -7.118  -9.474   3.671  1.00  0.00    -0.007 NA
HETATM   24  N4  UNL     1      -7.700  -9.491   2.484  1.00  0.00    -0.270 N 
ATOM     25  H4  UNL     1      -7.560  -8.814   1.733  1.00  0.00     0.185 HD
ENDBRANCH   5  19
TORSDOF 5
ENDMDL
