MODEL 6
REMARK VINA RESULT: -7.809667570      4.130      7.065
REMARK  5 active torsions:
REMARK  status: ('A' for Active; 'I' for Inactive)
REMARK    1  A    between atoms: C2_2  and  O1_3 
REMARK    2  A    between atoms: O1_3  and  C3_4 
REMARK    3  A    between atoms: C6_7  and  C7_8 
REMARK    4  A    between atoms: C10_12  and  C11_13 
REMARK    5  A    between atoms: C15_17  and  C16_18 
ROOT
HETATM    1  C11 UNL     1     -12.782 -14.963   0.077  1.00  0.00    -0.022 A 
HETATM    2  C12 UNL     1     -13.481 -14.745  -1.091  1.00  0.00     0.012 A 
HETATM    3  C13 UNL     1     -13.371 -13.561  -1.817  1.00  0.00     0.002 A 
HETATM    4  C14 UNL     1     -12.527 -12.558  -1.354  1.00  0.00     0.015 A 
HETATM    5  C15 UNL     1     -11.820 -12.768  -0.181  1.00  0.00     0.011 A 
HETATM    6  C17 UNL     1     -11.947 -13.947   0.518  1.00  0.00     0.027 A 
ENDROOT
BRANCH   1   7
HETATM    7  C10 UNL     1     -12.909 -16.210   0.826  1.00  0.00     0.008 A 
HETATM    8  C3  UNL     1     -11.839 -17.072   0.912  1.00  0.00     0.079 A 
HETATM    9  C4  UNL     1     -11.942 -18.269   1.623  1.00  0.00     0.038 A 
HETATM   10  C5  UNL     1     -13.112 -18.625   2.260  1.00  0.00     0.018 A 
HETATM   11  C6  UNL     1     -14.185 -17.767   2.177  1.00  0.00     0.010 A 
HETATM   12  C9  UNL     1     -14.075 -16.574   1.464  1.00  0.00     0.030 A 
BRANCH   8  13
HETATM   13  O1  UNL     1     -10.668 -16.702   0.269  1.00  0.00    -0.351 OA
BRANCH  13  14
HETATM   14  C2  UNL     1      -9.439 -17.053   0.877  1.00  0.00     0.171 C 
HETATM   15  C1  UNL     1      -8.414 -17.487  -0.131  1.00  0.00     0.034 C 
ENDBRANCH  13  14
ENDBRANCH   8  13
BRANCH  11  16
HETATM   16  C7  UNL     1     -15.417 -18.114   2.830  1.00  0.00     0.155 C 
HETATM   17  C8  UNL     1     -15.980 -19.474   2.664  1.00  0.00     0.096 C 
HETATM   18  O2  UNL     1     -16.036 -17.297   3.541  1.00  0.00    -0.293 OA
ENDBRANCH  11  16
ENDBRANCH   1   7
BRANCH   5  19
HETATM   19  C16 UNL     1     -10.935 -11.706   0.296  1.00  0.00     0.141 A 
HETATM   20  N1  UNL     1     -10.339 -11.587   1.495  1.00  0.00    -0.270 N 
HETATM   21  N2  UNL     1      -9.614 -10.471   1.527  1.00  0.00    -0.007 NA
ATOM     22  H1  UNL     1     -10.430 -12.251   2.263  1.00  0.00     0.185 HD
HETATM   23  N3  UNL     1      -9.767  -9.907   0.343  1.00  0.00    -0.007 NA
HETATM   24  N4  UNL     1     -10.564 -10.638  -0.419  1.00  0.00    -0.270 N 
ATOM     25  H4  UNL     1     -10.845 -10.426  -1.376  1.00  0.00     0.185 HD
ENDBRANCH   5  19
TORSDOF 5
ENDMDL
