MODEL 5
REMARK VINA RESULT: -7.891537700      2.843      3.431
REMARK  5 active torsions:
REMARK  status: ('A' for Active; 'I' for Inactive)
REMARK    1  A    between atoms: C2_2  and  O1_3 
REMARK    2  A    between atoms: O1_3  and  C3_4 
REMARK    3  A    between atoms: C6_7  and  C7_8 
REMARK    4  A    between atoms: C10_12  and  C11_13 
REMARK    5  A    between atoms: C15_17  and  C16_18 
ROOT
HETATM    1  C11 UNL     1     -11.966 -15.274   0.623  1.00  0.00    -0.022 A 
HETATM    2  C12 UNL     1     -11.039 -16.265   0.375  1.00  0.00     0.012 A 
HETATM    3  C13 UNL     1     -11.323 -17.617   0.559  1.00  0.00     0.002 A 
HETATM    4  C14 UNL     1     -12.585 -17.989   1.010  1.00  0.00     0.015 A 
HETATM    5  C15 UNL     1     -13.523 -17.000   1.262  1.00  0.00     0.011 A 
HETATM    6  C17 UNL     1     -13.216 -15.672   1.072  1.00  0.00     0.027 A 
ENDROOT
BRANCH   1   7
HETATM    7  C10 UNL     1     -11.651 -13.863   0.425  1.00  0.00     0.008 A 
HETATM    8  C3  UNL     1     -12.137 -13.199  -0.680  1.00  0.00     0.079 A 
HETATM    9  C4  UNL     1     -11.846 -11.850  -0.886  1.00  0.00     0.038 A 
HETATM   10  C5  UNL     1     -11.069 -11.140   0.004  1.00  0.00     0.018 A 
HETATM   11  C6  UNL     1     -10.581 -11.798   1.109  1.00  0.00     0.010 A 
HETATM   12  C9  UNL     1     -10.874 -13.146   1.309  1.00  0.00     0.030 A 
BRANCH   8  13
HETATM   13  O1  UNL     1     -12.918 -13.923  -1.566  1.00  0.00    -0.351 OA
BRANCH  13  14
HETATM   14  C2  UNL     1     -14.098 -13.316  -2.059  1.00  0.00     0.171 C 
HETATM   15  C1  UNL     1     -15.257 -13.490  -1.120  1.00  0.00     0.034 C 
ENDBRANCH  13  14
ENDBRANCH   8  13
BRANCH  11  16
HETATM   16  C7  UNL     1      -9.767 -11.083   2.053  1.00  0.00     0.155 C 
HETATM   17  C8  UNL     1      -9.381 -11.727   3.329  1.00  0.00     0.096 C 
HETATM   18  O2  UNL     1      -9.369  -9.921   1.830  1.00  0.00    -0.293 OA
ENDBRANCH  11  16
ENDBRANCH   1   7
BRANCH   5  19
HETATM   19  C16 UNL     1     -14.846 -17.404   1.735  1.00  0.00     0.141 A 
HETATM   20  N1  UNL     1     -15.967 -17.600   1.021  1.00  0.00    -0.270 N 
HETATM   21  N2  UNL     1     -16.959 -17.964   1.832  1.00  0.00    -0.007 NA
ATOM     22  H1  UNL     1     -16.046 -17.488   0.010  1.00  0.00     0.185 HD
HETATM   23  N3  UNL     1     -16.441 -17.990   3.046  1.00  0.00    -0.007 NA
HETATM   24  N4  UNL     1     -15.162 -17.654   3.011  1.00  0.00    -0.270 N 
ATOM     25  H4  UNL     1     -14.531 -17.595   3.810  1.00  0.00     0.185 HD
ENDBRANCH   5  19
TORSDOF 5
ENDMDL
