MODEL 2
REMARK VINA RESULT: -6.625935725      1.860      5.340
REMARK  2 active torsions:
REMARK  status: ('A' for Active; 'I' for Inactive)
REMARK    1  A    between atoms: O1_2  and  C2_3 
REMARK    2  A    between atoms: C2_3  and  C3_5 
ROOT
HETATM    1  C3  UNL     1       0.537  21.995  75.027  1.00  0.00     0.042 A 
HETATM    2  C4  UNL     1       1.484  22.178  74.058  1.00  0.00     0.020 A 
HETATM    3  C5  UNL     1       1.462  21.431  72.878  1.00  0.00     0.033 A 
HETATM    4  C6  UNL     1       0.482  20.484  72.658  1.00  0.00     0.071 A 
HETATM    5  N1  UNL     1       0.177  19.627  71.680  1.00  0.00    -0.300 N 
ATOM      6  H1  UNL     1       0.688  19.509  70.805  1.00  0.00     0.171 HD
HETATM    7  C7  UNL     1      -0.919  18.950  72.050  1.00  0.00     0.370 A 
HETATM    8  O3  UNL     1      -1.518  18.058  71.409  1.00  0.00    -0.238 OA
HETATM    9  O4  UNL     1      -1.294  19.372  73.234  1.00  0.00    -0.259 OA
HETATM   10  C8  UNL     1      -0.473  20.305  73.644  1.00  0.00     0.108 A 
HETATM   11  C9  UNL     1      -0.443  21.038  74.790  1.00  0.00     0.057 A 
ENDROOT
BRANCH   1  12
HETATM   12  C2  UNL     1       0.517  22.751  76.277  1.00  0.00     0.293 C 
HETATM   13  O2  UNL     1      -0.500  22.701  77.007  1.00  0.00    -0.259 OA
BRANCH  12  14
HETATM   14  O1  UNL     1       1.581  23.519  76.684  1.00  0.00    -0.323 OA
HETATM   15  C1  UNL     1       2.019  23.648  78.016  1.00  0.00     0.213 C 
ENDBRANCH  12  14
ENDBRANCH   1  12
TORSDOF 2
ENDMDL
