MODEL 11
REMARK VINA RESULT: -6.255170775      1.742      2.399
REMARK  2 active torsions:
REMARK  status: ('A' for Active; 'I' for Inactive)
REMARK    1  A    between atoms: O1_2  and  C2_3 
REMARK    2  A    between atoms: C2_3  and  C3_5 
ROOT
HETATM    1  C3  UNL     1       0.228  21.083  73.828  1.00  0.00     0.042 A 
HETATM    2  C4  UNL     1       1.497  21.471  73.499  1.00  0.00     0.020 A 
HETATM    3  C5  UNL     1       2.244  22.288  74.350  1.00  0.00     0.033 A 
HETATM    4  C6  UNL     1       1.720  22.729  75.550  1.00  0.00     0.071 A 
HETATM    5  N1  UNL     1       2.145  23.491  76.560  1.00  0.00    -0.300 N 
ATOM      6  H1  UNL     1       3.058  23.941  76.630  1.00  0.00     0.171 HD
HETATM    7  C7  UNL     1       1.161  23.558  77.469  1.00  0.00     0.370 A 
HETATM    8  O3  UNL     1       1.169  24.175  78.557  1.00  0.00    -0.238 OA
HETATM    9  O4  UNL     1       0.142  22.854  77.038  1.00  0.00    -0.259 OA
HETATM   10  C8  UNL     1       0.435  22.331  75.875  1.00  0.00     0.108 A 
HETATM   11  C9  UNL     1      -0.285  21.535  75.039  1.00  0.00     0.057 A 
ENDROOT
BRANCH   1  12
HETATM   12  C2  UNL     1      -0.594  20.229  72.973  1.00  0.00     0.293 C 
HETATM   13  O2  UNL     1      -1.755  19.932  73.338  1.00  0.00    -0.259 OA
BRANCH  12  14
HETATM   14  O1  UNL     1      -0.136  19.739  71.773  1.00  0.00    -0.323 OA
HETATM   15  C1  UNL     1      -0.445  18.469  71.251  1.00  0.00     0.213 C 
ENDBRANCH  12  14
ENDBRANCH   1  12
TORSDOF 2
ENDMDL
