MODEL 19
REMARK VINA RESULT: -5.751509371      2.038      2.938
REMARK  2 active torsions:
REMARK  status: ('A' for Active; 'I' for Inactive)
REMARK    1  A    between atoms: O1_2  and  C2_3 
REMARK    2  A    between atoms: C2_3  and  C3_5 
ROOT
HETATM    1  C3  UNL     1       1.031  21.548  73.840  1.00  0.00     0.042 A 
HETATM    2  C4  UNL     1       2.354  21.839  74.032  1.00  0.00     0.020 A 
HETATM    3  C5  UNL     1       2.780  22.547  75.157  1.00  0.00     0.033 A 
HETATM    4  C6  UNL     1       1.875  22.976  76.109  1.00  0.00     0.071 A 
HETATM    5  N1  UNL     1       1.940  23.651  77.260  1.00  0.00    -0.300 N 
ATOM      6  H1  UNL     1       2.788  24.016  77.694  1.00  0.00     0.171 HD
HETATM    7  C7  UNL     1       0.695  23.763  77.744  1.00  0.00     0.370 A 
HETATM    8  O3  UNL     1       0.336  24.326  78.801  1.00  0.00    -0.238 OA
HETATM    9  O4  UNL     1      -0.133  23.172  76.916  1.00  0.00    -0.259 OA
HETATM   10  C8  UNL     1       0.539  22.678  75.907  1.00  0.00     0.108 A 
HETATM   11  C9  UNL     1       0.134  21.987  74.807  1.00  0.00     0.057 A 
ENDROOT
BRANCH   1  12
HETATM   12  C2  UNL     1       0.535  20.810  72.681  1.00  0.00     0.293 C 
HETATM   13  O2  UNL     1       1.096  20.963  71.571  1.00  0.00    -0.259 OA
BRANCH  12  14
HETATM   14  O1  UNL     1      -0.532  19.948  72.764  1.00  0.00    -0.323 OA
HETATM   15  C1  UNL     1      -0.745  18.845  71.916  1.00  0.00     0.213 C 
ENDBRANCH  12  14
ENDBRANCH   1  12
TORSDOF 2
ENDMDL
