MODEL 3
REMARK VINA RESULT: -6.597749517      1.873      5.453
REMARK  2 active torsions:
REMARK  status: ('A' for Active; 'I' for Inactive)
REMARK    1  A    between atoms: O1_2  and  C2_3 
REMARK    2  A    between atoms: C2_3  and  C3_5 
ROOT
HETATM    1  C3  UNL     1       0.662  21.989  75.025  1.00  0.00     0.042 A 
HETATM    2  C4  UNL     1       1.576  22.167  74.023  1.00  0.00     0.020 A 
HETATM    3  C5  UNL     1       1.503  21.427  72.842  1.00  0.00     0.033 A 
HETATM    4  C6  UNL     1       0.505  20.491  72.652  1.00  0.00     0.071 A 
HETATM    5  N1  UNL     1       0.156  19.643  71.681  1.00  0.00    -0.300 N 
ATOM      6  H1  UNL     1       0.634  19.524  70.788  1.00  0.00     0.171 HD
HETATM    7  C7  UNL     1      -0.934  18.976  72.088  1.00  0.00     0.370 A 
HETATM    8  O3  UNL     1      -1.565  18.094  71.464  1.00  0.00    -0.238 OA
HETATM    9  O4  UNL     1      -1.261  19.396  73.287  1.00  0.00    -0.259 OA
HETATM   10  C8  UNL     1      -0.416  20.317  73.671  1.00  0.00     0.108 A 
HETATM   11  C9  UNL     1      -0.336  21.044  74.819  1.00  0.00     0.057 A 
ENDROOT
BRANCH   1  12
HETATM   12  C2  UNL     1       0.695  22.739  76.279  1.00  0.00     0.293 C 
HETATM   13  O2  UNL     1       1.779  23.226  76.673  1.00  0.00    -0.259 OA
BRANCH  12  14
HETATM   14  O1  UNL     1      -0.430  22.930  77.046  1.00  0.00    -0.323 OA
HETATM   15  C1  UNL     1      -0.558  23.898  78.061  1.00  0.00     0.213 C 
ENDBRANCH  12  14
ENDBRANCH   1  12
TORSDOF 2
ENDMDL
