MODEL 6
REMARK VINA RESULT: -6.365010466      2.233      5.610
REMARK  2 active torsions:
REMARK  status: ('A' for Active; 'I' for Inactive)
REMARK    1  A    between atoms: O1_2  and  C2_3 
REMARK    2  A    between atoms: C2_3  and  C3_5 
ROOT
HETATM    1  C3  UNL     1       0.946  21.959  74.791  1.00  0.00     0.042 A 
HETATM    2  C4  UNL     1      -0.185  21.459  75.376  1.00  0.00     0.020 A 
HETATM    3  C5  UNL     1      -0.970  20.505  74.727  1.00  0.00     0.033 A 
HETATM    4  C6  UNL     1      -0.627  20.039  73.473  1.00  0.00     0.071 A 
HETATM    5  N1  UNL     1      -1.135  19.163  72.602  1.00  0.00    -0.300 N 
ATOM      6  H1  UNL     1      -1.982  18.610  72.732  1.00  0.00     0.171 HD
HETATM    7  C7  UNL     1      -0.334  19.138  71.527  1.00  0.00     0.370 A 
HETATM    8  O3  UNL     1      -0.467  18.446  70.493  1.00  0.00    -0.238 OA
HETATM    9  O4  UNL     1       0.654  19.979  71.718  1.00  0.00    -0.259 OA
HETATM   10  C8  UNL     1       0.518  20.550  72.888  1.00  0.00     0.108 A 
HETATM   11  C9  UNL     1       1.277  21.480  73.529  1.00  0.00     0.057 A 
ENDROOT
BRANCH   1  12
HETATM   12  C2  UNL     1       1.800  22.958  75.429  1.00  0.00     0.293 C 
HETATM   13  O2  UNL     1       2.930  23.198  74.943  1.00  0.00    -0.259 OA
BRANCH  12  14
HETATM   14  O1  UNL     1       1.406  23.650  76.549  1.00  0.00    -0.323 OA
HETATM   15  C1  UNL     1       2.131  23.713  77.754  1.00  0.00     0.213 C 
ENDBRANCH  12  14
ENDBRANCH   1  12
TORSDOF 2
ENDMDL
