MODEL 5
REMARK VINA RESULT: -4.652181163      3.122      4.562
REMARK  1 active torsions:
REMARK  status: ('A' for Active; 'I' for Inactive)
REMARK       I    between atoms: N1_2  and  C2_4 
REMARK    1  A    between atoms: C2_4  and  C3_6 
ROOT
HETATM    1  C3  UNL     1     -20.145 -26.753 -13.617  1.00  0.00     0.101 A 
HETATM    2  C4  UNL     1     -21.324 -26.071 -13.787  1.00  0.00     0.055 A 
HETATM    3  C5  UNL     1     -21.412 -25.075 -12.852  1.00  0.00     0.028 A 
HETATM    4 BR1  UNL     1     -22.836 -23.801 -12.606  1.00  0.00    -0.050 Br
HETATM    5  C6  UNL     1     -20.260 -25.151 -12.096  1.00  0.00     0.107 A 
HETATM    6  N2  UNL     1     -19.509 -26.178 -12.583  1.00  0.00    -0.360 N 
ATOM      7  H2  UNL     1     -18.603 -26.467 -12.217  1.00  0.00     0.165 HD
ENDROOT
BRANCH   1   8
HETATM    8  C2  UNL     1     -19.606 -27.879 -14.356  1.00  0.00     0.267 C 
HETATM    9  N1  UNL     1     -19.009 -28.975 -13.665  1.00  0.00    -0.360 N 
HETATM   10  C1  UNL     1     -18.462 -30.113 -14.347  1.00  0.00     0.149 C 
ATOM     11  H1  UNL     1     -18.971 -28.949 -12.646  1.00  0.00     0.162 HD
HETATM   12  O1  UNL     1     -19.636 -27.946 -15.611  1.00  0.00    -0.266 OA
ENDBRANCH   1   8
TORSDOF 1
ENDMDL
