MODEL 7
REMARK VINA RESULT: -4.574399705      3.352      4.676
REMARK  1 active torsions:
REMARK  status: ('A' for Active; 'I' for Inactive)
REMARK       I    between atoms: N1_2  and  C2_4 
REMARK    1  A    between atoms: C2_4  and  C3_6 
ROOT
HETATM    1  C3  UNL     1     -19.686 -26.544 -13.074  1.00  0.00     0.101 A 
HETATM    2  C4  UNL     1     -20.944 -26.146 -13.456  1.00  0.00     0.055 A 
HETATM    3  C5  UNL     1     -21.291 -25.016 -12.765  1.00  0.00     0.028 A 
HETATM    4 BR1  UNL     1     -22.931 -24.012 -12.882  1.00  0.00    -0.050 Br
HETATM    5  C6  UNL     1     -20.222 -24.720 -11.945  1.00  0.00     0.107 A 
HETATM    6  N2  UNL     1     -19.262 -25.663 -12.153  1.00  0.00    -0.360 N 
ATOM      7  H2  UNL     1     -18.359 -25.696 -11.681  1.00  0.00     0.165 HD
ENDROOT
BRANCH   1   8
HETATM    8  C2  UNL     1     -18.893 -27.673 -13.520  1.00  0.00     0.267 C 
HETATM    9  N1  UNL     1     -19.462 -28.658 -14.382  1.00  0.00    -0.360 N 
HETATM   10  C1  UNL     1     -18.722 -29.794 -14.852  1.00  0.00     0.149 C 
ATOM     11  H1  UNL     1     -20.432 -28.550 -14.676  1.00  0.00     0.162 HD
HETATM   12  O1  UNL     1     -17.695 -27.840 -13.178  1.00  0.00    -0.266 OA
ENDBRANCH   1   8
TORSDOF 1
ENDMDL
