MODEL 13
REMARK VINA RESULT: -4.286874580      1.761      2.329
REMARK  1 active torsions:
REMARK  status: ('A' for Active; 'I' for Inactive)
REMARK       I    between atoms: N1_2  and  C2_4 
REMARK    1  A    between atoms: C2_4  and  C3_6 
ROOT
HETATM    1  C3  UNL     1     -19.132 -28.135 -14.060  1.00  0.00     0.101 A 
HETATM    2  C4  UNL     1     -18.016 -27.992 -14.847  1.00  0.00     0.055 A 
HETATM    3  C5  UNL     1     -17.346 -29.184 -14.905  1.00  0.00     0.028 A 
HETATM    4 BR1  UNL     1     -15.718 -29.584 -15.854  1.00  0.00    -0.050 Br
HETATM    5  C6  UNL     1     -18.069 -30.073 -14.137  1.00  0.00     0.107 A 
HETATM    6  N2  UNL     1     -19.148 -29.410 -13.637  1.00  0.00    -0.360 N 
ATOM      7  H2  UNL     1     -19.860 -29.819 -13.032  1.00  0.00     0.165 HD
ENDROOT
BRANCH   1   8
HETATM    8  C2  UNL     1     -20.148 -27.165 -13.702  1.00  0.00     0.267 C 
HETATM    9  N1  UNL     1     -19.842 -26.099 -12.804  1.00  0.00    -0.360 N 
HETATM   10  C1  UNL     1     -20.809 -25.112 -12.417  1.00  0.00     0.149 C 
ATOM     11  H1  UNL     1     -18.898 -26.035 -12.423  1.00  0.00     0.162 HD
HETATM   12  O1  UNL     1     -21.322 -27.210 -14.151  1.00  0.00    -0.266 OA
ENDBRANCH   1   8
TORSDOF 1
ENDMDL
