MODEL 12
REMARK VINA RESULT: -4.292966020      2.008      2.393
REMARK  1 active torsions:
REMARK  status: ('A' for Active; 'I' for Inactive)
REMARK       I    between atoms: N1_2  and  C2_4 
REMARK    1  A    between atoms: C2_4  and  C3_6 
ROOT
HETATM    1  C3  UNL     1     -19.048 -27.561 -13.822  1.00  0.00     0.101 A 
HETATM    2  C4  UNL     1     -17.725 -27.653 -14.175  1.00  0.00     0.055 A 
HETATM    3  C5  UNL     1     -17.515 -28.828 -14.845  1.00  0.00     0.028 A 
HETATM    4 BR1  UNL     1     -15.863 -29.497 -15.578  1.00  0.00    -0.050 Br
HETATM    5  C6  UNL     1     -18.737 -29.465 -14.903  1.00  0.00     0.107 A 
HETATM    6  N2  UNL     1     -19.650 -28.673 -14.274  1.00  0.00    -0.360 N 
ATOM      7  H2  UNL     1     -20.640 -28.892 -14.163  1.00  0.00     0.165 HD
ENDROOT
BRANCH   1   8
HETATM    8  C2  UNL     1     -19.749 -26.512 -13.106  1.00  0.00     0.267 C 
HETATM    9  N1  UNL     1     -21.065 -26.125 -13.500  1.00  0.00    -0.360 N 
HETATM   10  C1  UNL     1     -21.802 -25.094 -12.827  1.00  0.00     0.149 C 
ATOM     11  H1  UNL     1     -21.498 -26.600 -14.292  1.00  0.00     0.162 HD
HETATM   12  O1  UNL     1     -19.247 -25.904 -12.127  1.00  0.00    -0.266 OA
ENDBRANCH   1   8
TORSDOF 1
ENDMDL
