MODEL 4
REMARK VINA RESULT: -4.672943077      3.507      4.836
REMARK  1 active torsions:
REMARK  status: ('A' for Active; 'I' for Inactive)
REMARK       I    between atoms: N1_2  and  C2_4 
REMARK    1  A    between atoms: C2_4  and  C3_6 
ROOT
HETATM    1  C3  UNL     1     -19.735 -26.042 -12.844  1.00  0.00     0.101 A 
HETATM    2  C4  UNL     1     -20.312 -24.876 -12.404  1.00  0.00     0.055 A 
HETATM    3  C5  UNL     1     -21.627 -24.849 -12.784  1.00  0.00     0.028 A 
HETATM    4 BR1  UNL     1     -22.930 -23.470 -12.450  1.00  0.00    -0.050 Br
HETATM    5  C6  UNL     1     -21.856 -26.025 -13.469  1.00  0.00     0.107 A 
HETATM    6  N2  UNL     1     -20.691 -26.729 -13.490  1.00  0.00    -0.360 N 
ATOM      7  H2  UNL     1     -20.564 -27.641 -13.930  1.00  0.00     0.165 HD
ENDROOT
BRANCH   1   8
HETATM    8  C2  UNL     1     -18.376 -26.523 -12.689  1.00  0.00     0.267 C 
HETATM    9  N1  UNL     1     -17.336 -25.629 -12.295  1.00  0.00    -0.360 N 
HETATM   10  C1  UNL     1     -15.975 -26.053 -12.127  1.00  0.00     0.149 C 
ATOM     11  H1  UNL     1     -17.568 -24.651 -12.126  1.00  0.00     0.162 HD
HETATM   12  O1  UNL     1     -18.051 -27.721 -12.889  1.00  0.00    -0.266 OA
ENDBRANCH   1   8
TORSDOF 1
ENDMDL
