MODEL 1
REMARK VINA RESULT: -10.131229346      0.000      0.000
REMARK  8 active torsions:
REMARK  status: ('A' for Active; 'I' for Inactive)
REMARK    1  A    between atoms: C2_2  and  C3_3 
REMARK    2  A    between atoms: C7_7  and  C8_8 
REMARK    3  A    between atoms: C10_10  and  N1_11 
REMARK       I    between atoms: N1_11  and  C11_13 
REMARK    4  A    between atoms: C11_13  and  C12_15 
REMARK    5  A    between atoms: C20_28  and  N5_29 
REMARK    6  A    between atoms: N5_29  and  C21_31 
REMARK    7  A    between atoms: C24_34  and  N6_35 
REMARK    8  A    between atoms: C31_43  and  O2_44 
ROOT
HETATM    1  C12 UNL     1       1.537 -15.015 -16.804  1.00  0.00     0.129 A 
HETATM    2  N2  UNL     1       1.081 -14.490 -15.627  1.00  0.00    -0.292 N 
ATOM      3  H2  UNL     1       1.197 -14.927 -14.713  1.00  0.00     0.187 HD
HETATM    4  N3  UNL     1       0.472 -13.340 -15.838  1.00  0.00    -0.293 N 
HETATM    5  C13 UNL     1      -0.120 -12.502 -14.793  1.00  0.00     0.178 C 
HETATM    6  C14 UNL     1       0.494 -13.052 -17.126  1.00  0.00     0.091 A 
HETATM    7  C15 UNL     1       1.175 -14.115 -17.762  1.00  0.00     0.028 A 
HETATM    8  C16 UNL     1       1.369 -14.059 -19.136  1.00  0.00     0.017 A 
HETATM    9  C17 UNL     1       0.926 -13.015 -19.915  1.00  0.00     0.016 A 
HETATM   10  C18 UNL     1       0.264 -11.998 -19.265  1.00  0.00     0.009 A 
HETATM   11  C19 UNL     1      -0.212 -10.905 -19.978  1.00  0.00     0.120 A 
HETATM   12  N4  UNL     1      -0.847  -9.925 -19.352  1.00  0.00    -0.201 N 
ATOM     13  H4  UNL     1      -1.183  -9.138 -19.907  1.00  0.00     0.183 HD
HETATM   14  C20 UNL     1      -1.081  -9.908 -17.994  1.00  0.00     0.683 A 
HETATM   15  N8  UNL     1      -0.621 -10.958 -17.312  1.00  0.00    -0.188 N 
ATOM     16  H8  UNL     1      -0.770 -10.989 -16.302  1.00  0.00     0.184 HD
HETATM   17  C33 UNL     1       0.042 -11.995 -17.907  1.00  0.00     0.090 A 
ENDROOT
BRANCH  14  18
HETATM   18  N5  UNL     1      -1.735  -8.763 -17.471  1.00  0.00    -0.189 N 
ATOM     19  H5  UNL     1      -2.085  -8.093 -18.158  1.00  0.00     0.184 HD
BRANCH  18  20
HETATM   20  C21 UNL     1      -1.960  -8.439 -16.120  1.00  0.00     0.082 A 
HETATM   21  C22 UNL     1      -2.342  -9.372 -15.187  1.00  0.00     0.035 A 
HETATM   22  C23 UNL     1      -2.611  -9.004 -13.860  1.00  0.00     0.032 A 
HETATM   23  C24 UNL     1      -2.511  -7.703 -13.418  1.00  0.00     0.033 A 
HETATM   24  C30 UNL     1      -2.124  -6.766 -14.369  1.00  0.00     0.068 A 
HETATM   25  C31 UNL     1      -1.860  -7.132 -15.669  1.00  0.00     0.097 A 
BRANCH  23  26
HETATM   26  N6  UNL     1      -2.805  -7.335 -12.081  1.00  0.00    -0.377 N 
HETATM   27  C25 UNL     1      -2.098  -6.210 -11.501  1.00  0.00     0.153 C 
HETATM   28  C26 UNL     1      -1.697  -6.527 -10.058  1.00  0.00     0.291 C 
HETATM   29  N7  UNL     1      -1.854  -7.949  -9.796  1.00  0.00     0.087 N 
HETATM   30  C27 UNL     1      -1.183  -8.261  -8.567  1.00  0.00     0.310 C 
HETATM   31  C28 UNL     1      -3.257  -8.224  -9.815  1.00  0.00     0.291 C 
HETATM   32  C29 UNL     1      -3.775  -7.984 -11.230  1.00  0.00     0.153 C 
ENDBRANCH  23  26
BRANCH  25  33
HETATM   33  O2  UNL     1      -1.471  -6.191 -16.625  1.00  0.00    -0.354 OA
HETATM   34  C32 UNL     1      -1.014  -4.906 -16.342  1.00  0.00     0.210 C 
ENDBRANCH  25  33
ENDBRANCH  18  20
ENDBRANCH  14  18
BRANCH   1  35
HETATM   35  C11 UNL     1       2.274 -16.254 -16.905  1.00  0.00     0.275 C 
HETATM   36  N1  UNL     1       2.419 -17.229 -15.903  1.00  0.00    -0.321 N 
ATOM     37  H1  UNL     1       1.979 -17.076 -14.996  1.00  0.00     0.169 HD
HETATM   38  O1  UNL     1       2.886 -16.539 -18.009  1.00  0.00    -0.266 OA
BRANCH  36  39
HETATM   39  C10 UNL     1       3.171 -18.435 -16.123  1.00  0.00     0.047 A 
HETATM   40  C3  UNL     1       4.499 -18.414 -15.774  1.00  0.00    -0.031 A 
HETATM   41  C4  UNL     1       5.214 -19.580 -15.980  1.00  0.00     0.009 A 
HETATM   42  C5  UNL     1       4.595 -20.703 -16.514  1.00  0.00     0.001 A 
HETATM   43  C6  UNL     1       3.260 -20.671 -16.846  1.00  0.00     0.009 A 
HETATM   44  C7  UNL     1       2.510 -19.505 -16.650  1.00  0.00    -0.031 A 
BRANCH  40  45
HETATM   45  C2  UNL     1       5.163 -17.202 -15.203  1.00  0.00     0.036 C 
HETATM   46  C1  UNL     1       5.994 -16.589 -16.316  1.00  0.00     0.010 C 
ENDBRANCH  40  45
BRANCH  44  47
HETATM   47  C8  UNL     1       1.066 -19.507 -17.021  1.00  0.00     0.036 C 
HETATM   48  C9  UNL     1       0.274 -19.759 -15.754  1.00  0.00     0.010 C 
ENDBRANCH  44  47
ENDBRANCH  36  39
ENDBRANCH   1  35
TORSDOF 8
ENDMDL
