MODEL 3
REMARK VINA RESULT: -10.100522799      5.131     12.443
REMARK  8 active torsions:
REMARK  status: ('A' for Active; 'I' for Inactive)
REMARK    1  A    between atoms: C2_2  and  C3_3 
REMARK    2  A    between atoms: C7_7  and  C8_8 
REMARK    3  A    between atoms: C10_10  and  N1_11 
REMARK       I    between atoms: N1_11  and  C11_13 
REMARK    4  A    between atoms: C11_13  and  C12_15 
REMARK    5  A    between atoms: C20_28  and  N5_29 
REMARK    6  A    between atoms: N5_29  and  C21_31 
REMARK    7  A    between atoms: C24_34  and  N6_35 
REMARK    8  A    between atoms: C31_43  and  O2_44 
ROOT
HETATM    1  C12 UNL     1      -0.220 -14.658 -15.171  1.00  0.00     0.129 A 
HETATM    2  N2  UNL     1      -0.486 -14.611 -13.830  1.00  0.00    -0.292 N 
ATOM      3  H2  UNL     1      -0.923 -13.823 -13.352  1.00  0.00     0.187 HD
HETATM    4  N3  UNL     1      -0.099 -15.726 -13.242  1.00  0.00    -0.293 N 
HETATM    5  C13 UNL     1      -0.251 -16.016 -11.814  1.00  0.00     0.178 C 
HETATM    6  C14 UNL     1       0.425 -16.544 -14.135  1.00  0.00     0.091 A 
HETATM    7  C15 UNL     1       0.355 -15.876 -15.380  1.00  0.00     0.028 A 
HETATM    8  C16 UNL     1       0.820 -16.526 -16.515  1.00  0.00     0.017 A 
HETATM    9  C17 UNL     1       1.351 -17.796 -16.490  1.00  0.00     0.016 A 
HETATM   10  C18 UNL     1       1.408 -18.416 -15.263  1.00  0.00     0.009 A 
HETATM   11  C19 UNL     1       1.927 -19.699 -15.151  1.00  0.00     0.120 A 
HETATM   12  N4  UNL     1       1.980 -20.298 -13.970  1.00  0.00    -0.201 N 
ATOM     13  H4  UNL     1       2.367 -21.241 -13.925  1.00  0.00     0.183 HD
HETATM   14  C20 UNL     1       1.541 -19.720 -12.798  1.00  0.00     0.683 A 
HETATM   15  N8  UNL     1       1.042 -18.487 -12.909  1.00  0.00    -0.188 N 
ATOM     16  H8  UNL     1       0.704 -18.019 -12.067  1.00  0.00     0.184 HD
HETATM   17  C33 UNL     1       0.963 -17.826 -14.102  1.00  0.00     0.090 A 
ENDROOT
BRANCH  14  18
HETATM   18  N5  UNL     1       1.625 -20.511 -11.623  1.00  0.00    -0.189 N 
ATOM     19  H5  UNL     1       0.771 -20.581 -11.068  1.00  0.00     0.184 HD
BRANCH  18  20
HETATM   20  C21 UNL     1       2.742 -21.212 -11.133  1.00  0.00     0.082 A 
HETATM   21  C22 UNL     1       3.692 -20.626 -10.330  1.00  0.00     0.035 A 
HETATM   22  C23 UNL     1       4.822 -21.338  -9.904  1.00  0.00     0.032 A 
HETATM   23  C24 UNL     1       5.048 -22.651 -10.259  1.00  0.00     0.033 A 
HETATM   24  C30 UNL     1       4.082 -23.235 -11.070  1.00  0.00     0.068 A 
HETATM   25  C31 UNL     1       2.974 -22.532 -11.485  1.00  0.00     0.097 A 
BRANCH  23  26
HETATM   26  N6  UNL     1       6.203 -23.358  -9.843  1.00  0.00    -0.377 N 
HETATM   27  C25 UNL     1       6.037 -24.681  -9.273  1.00  0.00     0.153 C 
HETATM   28  C26 UNL     1       6.962 -24.853  -8.066  1.00  0.00     0.291 C 
HETATM   29  N7  UNL     1       7.493 -23.564  -7.653  1.00  0.00     0.087 N 
HETATM   30  C27 UNL     1       8.087 -23.712  -6.355  1.00  0.00     0.310 C 
HETATM   31  C28 UNL     1       8.381 -23.129  -8.687  1.00  0.00     0.291 C 
HETATM   32  C29 UNL     1       7.561 -22.877  -9.949  1.00  0.00     0.153 C 
ENDBRANCH  23  26
BRANCH  25  33
HETATM   33  O2  UNL     1       2.004 -23.119 -12.300  1.00  0.00    -0.354 OA
HETATM   34  C32 UNL     1       2.267 -23.908 -13.416  1.00  0.00     0.210 C 
ENDBRANCH  25  33
ENDBRANCH  18  20
ENDBRANCH  14  18
BRANCH   1  35
HETATM   35  C11 UNL     1      -0.552 -13.601 -16.098  1.00  0.00     0.275 C 
HETATM   36  N1  UNL     1       0.235 -12.480 -16.411  1.00  0.00    -0.321 N 
ATOM     37  H1  UNL     1       1.137 -12.363 -15.951  1.00  0.00     0.169 HD
HETATM   38  O1  UNL     1      -1.683 -13.642 -16.725  1.00  0.00    -0.266 OA
BRANCH  36  39
HETATM   39  C10 UNL     1      -0.197 -11.493 -17.364  1.00  0.00     0.047 A 
HETATM   40  C3  UNL     1      -0.957 -10.455 -16.886  1.00  0.00    -0.031 A 
HETATM   41  C4  UNL     1      -1.362  -9.505 -17.806  1.00  0.00     0.009 A 
HETATM   42  C5  UNL     1      -1.003  -9.619 -19.143  1.00  0.00     0.001 A 
HETATM   43  C6  UNL     1      -0.239 -10.680 -19.571  1.00  0.00     0.009 A 
HETATM   44  C7  UNL     1       0.186 -11.657 -18.663  1.00  0.00    -0.031 A 
BRANCH  40  45
HETATM   45  C2  UNL     1      -1.346 -10.338 -15.447  1.00  0.00     0.036 C 
HETATM   46  C1  UNL     1      -0.991  -8.929 -15.006  1.00  0.00     0.010 C 
ENDBRANCH  40  45
BRANCH  44  47
HETATM   47  C8  UNL     1       1.014 -12.793 -19.162  1.00  0.00     0.036 C 
HETATM   48  C9  UNL     1       0.074 -13.780 -19.824  1.00  0.00     0.010 C 
ENDBRANCH  44  47
ENDBRANCH  36  39
ENDBRANCH   1  35
TORSDOF 8
ENDMDL
