MODEL 9
REMARK VINA RESULT: -9.973045216      0.680      2.159
REMARK  8 active torsions:
REMARK  status: ('A' for Active; 'I' for Inactive)
REMARK    1  A    between atoms: C2_2  and  C3_3 
REMARK    2  A    between atoms: C7_7  and  C8_8 
REMARK    3  A    between atoms: C10_10  and  N1_11 
REMARK       I    between atoms: N1_11  and  C11_13 
REMARK    4  A    between atoms: C11_13  and  C12_15 
REMARK    5  A    between atoms: C20_28  and  N5_29 
REMARK    6  A    between atoms: N5_29  and  C21_31 
REMARK    7  A    between atoms: C24_34  and  N6_35 
REMARK    8  A    between atoms: C31_43  and  O2_44 
ROOT
HETATM    1  C12 UNL     1       1.598 -15.127 -16.765  1.00  0.00     0.129 A 
HETATM    2  N2  UNL     1       1.132 -14.612 -15.587  1.00  0.00    -0.292 N 
ATOM      3  H2  UNL     1       1.246 -15.053 -14.674  1.00  0.00     0.187 HD
HETATM    4  N3  UNL     1       0.515 -13.465 -15.795  1.00  0.00    -0.293 N 
HETATM    5  C13 UNL     1      -0.089 -12.638 -14.748  1.00  0.00     0.178 C 
HETATM    6  C14 UNL     1       0.541 -13.170 -17.081  1.00  0.00     0.091 A 
HETATM    7  C15 UNL     1       1.233 -14.224 -17.720  1.00  0.00     0.028 A 
HETATM    8  C16 UNL     1       1.434 -14.160 -19.092  1.00  0.00     0.017 A 
HETATM    9  C17 UNL     1       0.986 -13.114 -19.868  1.00  0.00     0.016 A 
HETATM   10  C18 UNL     1       0.313 -12.106 -19.216  1.00  0.00     0.009 A 
HETATM   11  C19 UNL     1      -0.168 -11.013 -19.925  1.00  0.00     0.120 A 
HETATM   12  N4  UNL     1      -0.814 -10.041 -19.297  1.00  0.00    -0.201 N 
ATOM     13  H4  UNL     1      -1.153  -9.254 -19.849  1.00  0.00     0.183 HD
HETATM   14  C20 UNL     1      -1.055 -10.034 -17.939  1.00  0.00     0.683 A 
HETATM   15  N8  UNL     1      -0.590 -11.084 -17.261  1.00  0.00    -0.188 N 
ATOM     16  H8  UNL     1      -0.744 -11.121 -16.253  1.00  0.00     0.184 HD
HETATM   17  C33 UNL     1       0.084 -12.112 -17.859  1.00  0.00     0.090 A 
ENDROOT
BRANCH  14  18
HETATM   18  N5  UNL     1      -1.720  -8.897 -17.414  1.00  0.00    -0.189 N 
ATOM     19  H5  UNL     1      -2.055  -8.217 -18.098  1.00  0.00     0.184 HD
BRANCH  18  20
HETATM   20  C21 UNL     1      -1.974  -8.593 -16.064  1.00  0.00     0.082 A 
HETATM   21  C22 UNL     1      -2.402  -9.535 -15.159  1.00  0.00     0.035 A 
HETATM   22  C23 UNL     1      -2.699  -9.186 -13.833  1.00  0.00     0.032 A 
HETATM   23  C24 UNL     1      -2.582  -7.896 -13.363  1.00  0.00     0.033 A 
HETATM   24  C30 UNL     1      -2.149  -6.951 -14.285  1.00  0.00     0.068 A 
HETATM   25  C31 UNL     1      -1.858  -7.297 -15.584  1.00  0.00     0.097 A 
BRANCH  23  26
HETATM   26  N6  UNL     1      -2.904  -7.547 -12.028  1.00  0.00    -0.377 N 
HETATM   27  C25 UNL     1      -4.096  -6.756 -11.787  1.00  0.00     0.153 C 
HETATM   28  C26 UNL     1      -3.812  -5.687 -10.730  1.00  0.00     0.291 C 
HETATM   29  N7  UNL     1      -2.379  -5.566 -10.510  1.00  0.00     0.087 N 
HETATM   30  C27 UNL     1      -2.133  -4.363  -9.768  1.00  0.00     0.310 C 
HETATM   31  C28 UNL     1      -1.953  -6.776  -9.876  1.00  0.00     0.291 C 
HETATM   32  C29 UNL     1      -2.146  -7.927 -10.859  1.00  0.00     0.153 C 
ENDBRANCH  23  26
BRANCH  25  33
HETATM   33  O2  UNL     1      -1.422  -6.347 -16.511  1.00  0.00    -0.354 OA
HETATM   34  C32 UNL     1      -1.069  -5.036 -16.205  1.00  0.00     0.210 C 
ENDBRANCH  25  33
ENDBRANCH  18  20
ENDBRANCH  14  18
BRANCH   1  35
HETATM   35  C11 UNL     1       2.345 -16.360 -16.868  1.00  0.00     0.275 C 
HETATM   36  N1  UNL     1       2.479 -17.346 -15.877  1.00  0.00    -0.321 N 
ATOM     37  H1  UNL     1       2.022 -17.208 -14.976  1.00  0.00     0.169 HD
HETATM   38  O1  UNL     1       2.978 -16.626 -17.965  1.00  0.00    -0.266 OA
BRANCH  36  39
HETATM   39  C10 UNL     1       3.243 -18.544 -16.099  1.00  0.00     0.047 A 
HETATM   40  C3  UNL     1       2.580 -19.615 -16.645  1.00  0.00    -0.031 A 
HETATM   41  C4  UNL     1       3.323 -20.760 -16.864  1.00  0.00     0.009 A 
HETATM   42  C5  UNL     1       4.673 -20.799 -16.539  1.00  0.00     0.001 A 
HETATM   43  C6  UNL     1       5.290 -19.697 -15.993  1.00  0.00     0.009 A 
HETATM   44  C7  UNL     1       4.564 -18.523 -15.760  1.00  0.00    -0.031 A 
BRANCH  40  45
HETATM   45  C2  UNL     1       1.126 -19.570 -16.989  1.00  0.00     0.036 C 
HETATM   46  C1  UNL     1       0.359 -19.739 -15.690  1.00  0.00     0.010 C 
ENDBRANCH  40  45
BRANCH  44  47
HETATM   47  C8  UNL     1       5.266 -17.348 -15.168  1.00  0.00     0.036 C 
HETATM   48  C9  UNL     1       6.019 -16.660 -16.288  1.00  0.00     0.010 C 
ENDBRANCH  44  47
ENDBRANCH  36  39
ENDBRANCH   1  35
TORSDOF 8
ENDMDL
