MODEL 4
REMARK VINA RESULT: -10.044053147      6.357     10.545
REMARK  8 active torsions:
REMARK  status: ('A' for Active; 'I' for Inactive)
REMARK    1  A    between atoms: C2_2  and  C3_3 
REMARK    2  A    between atoms: C7_7  and  C8_8 
REMARK    3  A    between atoms: C10_10  and  N1_11 
REMARK       I    between atoms: N1_11  and  C11_13 
REMARK    4  A    between atoms: C11_13  and  C12_15 
REMARK    5  A    between atoms: C20_28  and  N5_29 
REMARK    6  A    between atoms: N5_29  and  C21_31 
REMARK    7  A    between atoms: C24_34  and  N6_35 
REMARK    8  A    between atoms: C31_43  and  O2_44 
ROOT
HETATM    1  C12 UNL     1      -0.581 -13.957 -14.839  1.00  0.00     0.129 A 
HETATM    2  N2  UNL     1      -1.014 -13.558 -13.605  1.00  0.00    -0.292 N 
ATOM      3  H2  UNL     1      -1.452 -12.658 -13.406  1.00  0.00     0.187 HD
HETATM    4  N3  UNL     1      -0.788 -14.498 -12.708  1.00  0.00    -0.293 N 
HETATM    5  C13 UNL     1      -1.143 -14.405 -11.290  1.00  0.00     0.178 C 
HETATM    6  C14 UNL     1      -0.213 -15.536 -13.284  1.00  0.00     0.091 A 
HETATM    7  C15 UNL     1      -0.074 -15.209 -14.653  1.00  0.00     0.028 A 
HETATM    8  C16 UNL     1       0.485 -16.145 -15.512  1.00  0.00     0.017 A 
HETATM    9  C17 UNL     1       0.916 -17.384 -15.095  1.00  0.00     0.016 A 
HETATM   10  C18 UNL     1       0.770 -17.670 -13.757  1.00  0.00     0.009 A 
HETATM   11  C19 UNL     1       1.176 -18.900 -13.255  1.00  0.00     0.120 A 
HETATM   12  N4  UNL     1       1.032 -19.176 -11.968  1.00  0.00    -0.201 N 
ATOM     13  H4  UNL     1       1.341 -20.090 -11.634  1.00  0.00     0.183 HD
HETATM   14  C20 UNL     1       0.489 -18.301 -11.052  1.00  0.00     0.683 A 
HETATM   15  N8  UNL     1       0.098 -17.121 -11.537  1.00  0.00    -0.188 N 
ATOM     16  H8  UNL     1      -0.310 -16.440 -10.896  1.00  0.00     0.184 HD
HETATM   17  C33 UNL     1       0.222 -16.786 -12.856  1.00  0.00     0.090 A 
ENDROOT
BRANCH  14  18
HETATM   18  N5  UNL     1       0.363 -18.767  -9.718  1.00  0.00    -0.189 N 
ATOM     19  H5  UNL     1       1.200 -18.699  -9.138  1.00  0.00     0.184 HD
BRANCH  18  20
HETATM   20  C21 UNL     1      -0.777 -19.311  -9.098  1.00  0.00     0.082 A 
HETATM   21  C22 UNL     1      -0.973 -20.664  -8.961  1.00  0.00     0.035 A 
HETATM   22  C23 UNL     1      -2.147 -21.174  -8.388  1.00  0.00     0.032 A 
HETATM   23  C24 UNL     1      -3.162 -20.361  -7.934  1.00  0.00     0.033 A 
HETATM   24  C30 UNL     1      -2.956 -18.994  -8.076  1.00  0.00     0.068 A 
HETATM   25  C31 UNL     1      -1.802 -18.498  -8.639  1.00  0.00     0.097 A 
BRANCH  23  26
HETATM   26  N6  UNL     1      -4.356 -20.884  -7.375  1.00  0.00    -0.377 N 
HETATM   27  C25 UNL     1      -5.588 -20.752  -8.128  1.00  0.00     0.153 C 
HETATM   28  C26 UNL     1      -6.737 -20.369  -7.192  1.00  0.00     0.291 C 
HETATM   29  N7  UNL     1      -6.213 -19.944  -5.903  1.00  0.00     0.087 N 
HETATM   30  C27 UNL     1      -7.269 -19.302  -5.173  1.00  0.00     0.310 C 
HETATM   31  C28 UNL     1      -5.654 -21.104  -5.279  1.00  0.00     0.291 C 
HETATM   32  C29 UNL     1      -4.456 -21.563  -6.105  1.00  0.00     0.153 C 
ENDBRANCH  23  26
BRANCH  25  33
HETATM   33  O2  UNL     1      -1.594 -17.125  -8.782  1.00  0.00    -0.354 OA
HETATM   34  C32 UNL     1      -1.383 -16.235  -7.732  1.00  0.00     0.210 C 
ENDBRANCH  25  33
ENDBRANCH  18  20
ENDBRANCH  14  18
BRANCH   1  35
HETATM   35  C11 UNL     1      -0.715 -13.162 -16.038  1.00  0.00     0.275 C 
HETATM   36  N1  UNL     1       0.137 -12.127 -16.458  1.00  0.00    -0.321 N 
ATOM     37  H1  UNL     1       0.938 -11.878 -15.878  1.00  0.00     0.169 HD
HETATM   38  O1  UNL     1      -1.708 -13.384 -16.838  1.00  0.00    -0.266 OA
BRANCH  36  39
HETATM   39  C10 UNL     1      -0.090 -11.409 -17.684  1.00  0.00     0.047 A 
HETATM   40  C3  UNL     1      -0.801 -10.238 -17.598  1.00  0.00    -0.031 A 
HETATM   41  C4  UNL     1      -1.009  -9.548 -18.778  1.00  0.00     0.009 A 
HETATM   42  C5  UNL     1      -0.510 -10.038 -19.979  1.00  0.00     0.001 A 
HETATM   43  C6  UNL     1       0.196 -11.218 -20.010  1.00  0.00     0.009 A 
HETATM   44  C7  UNL     1       0.422 -11.939 -18.831  1.00  0.00    -0.031 A 
BRANCH  40  45
HETATM   45  C2  UNL     1      -1.339  -9.716 -16.304  1.00  0.00     0.036 C 
HETATM   46  C1  UNL     1      -1.745  -8.273 -16.545  1.00  0.00     0.010 C 
ENDBRANCH  40  45
BRANCH  44  47
HETATM   47  C8  UNL     1       1.193 -13.213 -18.902  1.00  0.00     0.036 C 
HETATM   48  C9  UNL     1       0.376 -14.191 -19.721  1.00  0.00     0.010 C 
ENDBRANCH  44  47
ENDBRANCH  36  39
ENDBRANCH   1  35
TORSDOF 8
ENDMDL
