MODEL 2
REMARK VINA RESULT: -10.119799049      5.120     12.460
REMARK  8 active torsions:
REMARK  status: ('A' for Active; 'I' for Inactive)
REMARK    1  A    between atoms: C2_2  and  C3_3 
REMARK    2  A    between atoms: C7_7  and  C8_8 
REMARK    3  A    between atoms: C10_10  and  N1_11 
REMARK       I    between atoms: N1_11  and  C11_13 
REMARK    4  A    between atoms: C11_13  and  C12_15 
REMARK    5  A    between atoms: C20_28  and  N5_29 
REMARK    6  A    between atoms: N5_29  and  C21_31 
REMARK    7  A    between atoms: C24_34  and  N6_35 
REMARK    8  A    between atoms: C31_43  and  O2_44 
ROOT
HETATM    1  C12 UNL     1      -0.233 -14.639 -15.163  1.00  0.00     0.129 A 
HETATM    2  N2  UNL     1      -0.498 -14.597 -13.822  1.00  0.00    -0.292 N 
ATOM      3  H2  UNL     1      -0.933 -13.811 -13.340  1.00  0.00     0.187 HD
HETATM    4  N3  UNL     1      -0.112 -15.716 -13.239  1.00  0.00    -0.293 N 
HETATM    5  C13 UNL     1      -0.261 -16.011 -11.812  1.00  0.00     0.178 C 
HETATM    6  C14 UNL     1       0.410 -16.531 -14.136  1.00  0.00     0.091 A 
HETATM    7  C15 UNL     1       0.339 -15.858 -15.378  1.00  0.00     0.028 A 
HETATM    8  C16 UNL     1       0.801 -16.503 -16.517  1.00  0.00     0.017 A 
HETATM    9  C17 UNL     1       1.330 -17.774 -16.498  1.00  0.00     0.016 A 
HETATM   10  C18 UNL     1       1.388 -18.399 -15.273  1.00  0.00     0.009 A 
HETATM   11  C19 UNL     1       1.905 -19.684 -15.167  1.00  0.00     0.120 A 
HETATM   12  N4  UNL     1       1.959 -20.288 -13.989  1.00  0.00    -0.201 N 
ATOM     13  H4  UNL     1       2.344 -21.232 -13.949  1.00  0.00     0.183 HD
HETATM   14  C20 UNL     1       1.524 -19.713 -12.814  1.00  0.00     0.683 A 
HETATM   15  N8  UNL     1       1.026 -18.480 -12.919  1.00  0.00    -0.188 N 
ATOM     16  H8  UNL     1       0.691 -18.015 -12.074  1.00  0.00     0.184 HD
HETATM   17  C33 UNL     1       0.946 -17.813 -14.109  1.00  0.00     0.090 A 
ENDROOT
BRANCH  14  18
HETATM   18  N5  UNL     1       1.608 -20.510 -11.643  1.00  0.00    -0.189 N 
ATOM     19  H5  UNL     1       0.754 -20.585 -11.088  1.00  0.00     0.184 HD
BRANCH  18  20
HETATM   20  C21 UNL     1       2.726 -21.210 -11.154  1.00  0.00     0.082 A 
HETATM   21  C22 UNL     1       3.679 -20.624 -10.356  1.00  0.00     0.035 A 
HETATM   22  C23 UNL     1       4.810 -21.336  -9.933  1.00  0.00     0.032 A 
HETATM   23  C24 UNL     1       5.033 -22.649 -10.285  1.00  0.00     0.033 A 
HETATM   24  C30 UNL     1       4.065 -23.234 -11.092  1.00  0.00     0.068 A 
HETATM   25  C31 UNL     1       2.956 -22.532 -11.505  1.00  0.00     0.097 A 
BRANCH  23  26
HETATM   26  N6  UNL     1       6.190 -23.356  -9.871  1.00  0.00    -0.377 N 
HETATM   27  C25 UNL     1       6.027 -24.688  -9.320  1.00  0.00     0.153 C 
HETATM   28  C26 UNL     1       6.945 -24.872  -8.109  1.00  0.00     0.291 C 
HETATM   29  N7  UNL     1       7.467 -23.585  -7.676  1.00  0.00     0.087 N 
HETATM   30  C27 UNL     1       8.053 -23.748  -6.377  1.00  0.00     0.310 C 
HETATM   31  C28 UNL     1       8.359 -23.133  -8.699  1.00  0.00     0.291 C 
HETATM   32  C29 UNL     1       7.545 -22.868  -9.963  1.00  0.00     0.153 C 
ENDBRANCH  23  26
BRANCH  25  33
HETATM   33  O2  UNL     1       1.982 -23.120 -12.315  1.00  0.00    -0.354 OA
HETATM   34  C32 UNL     1       2.241 -23.890 -13.446  1.00  0.00     0.210 C 
ENDBRANCH  25  33
ENDBRANCH  18  20
ENDBRANCH  14  18
BRANCH   1  35
HETATM   35  C11 UNL     1      -0.566 -13.577 -16.085  1.00  0.00     0.275 C 
HETATM   36  N1  UNL     1       0.233 -12.469 -16.413  1.00  0.00    -0.321 N 
ATOM     37  H1  UNL     1       1.145 -12.367 -15.969  1.00  0.00     0.169 HD
HETATM   38  O1  UNL     1      -1.708 -13.601 -16.692  1.00  0.00    -0.266 OA
BRANCH  36  39
HETATM   39  C10 UNL     1      -0.200 -11.477 -17.359  1.00  0.00     0.047 A 
HETATM   40  C3  UNL     1       0.169 -11.659 -18.669  1.00  0.00    -0.031 A 
HETATM   41  C4  UNL     1      -0.259 -10.706 -19.575  1.00  0.00     0.009 A 
HETATM   42  C5  UNL     1      -1.025  -9.626 -19.154  1.00  0.00     0.001 A 
HETATM   43  C6  UNL     1      -1.368  -9.490 -17.828  1.00  0.00     0.009 A 
HETATM   44  C7  UNL     1      -0.950 -10.439 -16.888  1.00  0.00    -0.031 A 
BRANCH  40  45
HETATM   45  C2  UNL     1       0.998 -12.820 -19.117  1.00  0.00     0.036 C 
HETATM   46  C1  UNL     1       0.058 -13.791 -19.810  1.00  0.00     0.010 C 
ENDBRANCH  40  45
BRANCH  44  47
HETATM   47  C8  UNL     1      -1.341 -10.260 -15.460  1.00  0.00     0.036 C 
HETATM   48  C9  UNL     1      -1.000  -8.835 -15.074  1.00  0.00     0.010 C 
ENDBRANCH  44  47
ENDBRANCH  36  39
ENDBRANCH   1  35
TORSDOF 8
ENDMDL
