MODEL 6
REMARK VINA RESULT: -7.296933488      1.240      1.240
REMARK  3 active torsions:
REMARK  status: ('A' for Active; 'I' for Inactive)
REMARK    1  A    between atoms: O1_1  and  C1_3 
REMARK    2  A    between atoms: C6_10  and  C7_11 
REMARK    3  A    between atoms: C9_13  and  C10_14 
ROOT
HETATM    1  C1  UNL     1      15.450  29.774 -16.014  1.00  0.00     0.096 A 
HETATM    2  C2  UNL     1      14.874  30.779 -15.215  1.00  0.00     0.046 A 
HETATM    3 BR1  UNL     1      15.571  31.078 -13.438  1.00  0.00    -0.048 Br
HETATM    4  C3  UNL     1      13.821  31.516 -15.605  1.00  0.00     0.041 A 
HETATM    5  C4  UNL     1      13.273  31.286 -16.859  1.00  0.00     0.013 A 
HETATM    6 BR2  UNL     1      11.813  32.327 -17.449  1.00  0.00    -0.051 Br
HETATM    7  C5  UNL     1      13.796  30.316 -17.678  1.00  0.00     0.036 A 
HETATM    8  C6  UNL     1      14.888  29.556 -17.249  1.00  0.00     0.036 A 
ENDROOT
BRANCH   8   9
HETATM    9  C7  UNL     1      15.501  28.633 -18.198  1.00  0.00     0.114 A 
HETATM   10  C8  UNL     1      16.835  28.209 -18.234  1.00  0.00     0.076 A 
HETATM   11  C9  UNL     1      17.012  27.338 -19.294  1.00  0.00     0.141 A 
HETATM   12  N1  UNL     1      15.767  27.260 -19.876  1.00  0.00    -0.256 N 
HETATM   13  O2  UNL     1      14.922  28.010 -19.221  1.00  0.00    -0.237 OA
ATOM     14  H1  UNL     1      15.539  26.699 -20.697  1.00  0.00     0.195 HD
BRANCH  11  15
HETATM   15  C10 UNL     1      18.240  26.655 -19.762  1.00  0.00     0.434 C 
HETATM   16  F1  UNL     1      18.271  25.351 -19.283  1.00  0.00    -0.165 F 
HETATM   17  F2  UNL     1      19.357  27.260 -19.338  1.00  0.00    -0.165 F 
HETATM   18  F3  UNL     1      18.288  26.661 -21.147  1.00  0.00    -0.165 F 
ENDBRANCH  11  15
ENDBRANCH   8   9
BRANCH   1  19
HETATM   19  O1  UNL     1      16.538  29.055 -15.561  1.00  0.00    -0.358 OA
ATOM     20  H1  UNL     1      16.481  28.114 -15.449  1.00  0.00     0.217 HD
ENDBRANCH   1  19
TORSDOF 3
ENDMDL
