MODEL 1
REMARK VINA RESULT: -8.159466905      0.000      0.000
REMARK  3 active torsions:
REMARK  status: ('A' for Active; 'I' for Inactive)
REMARK    1  A    between atoms: O1_1  and  C1_3 
REMARK    2  A    between atoms: C6_10  and  C7_11 
REMARK    3  A    between atoms: C9_13  and  C10_14 
ROOT
HETATM    1  C1  UNL     1      15.543  30.161 -15.507  1.00  0.00     0.096 A 
HETATM    2  C2  UNL     1      14.710  31.189 -15.027  1.00  0.00     0.046 A 
HETATM    3 BR1  UNL     1      15.075  31.955 -13.291  1.00  0.00    -0.048 Br
HETATM    4  C3  UNL     1      13.634  31.637 -15.694  1.00  0.00     0.041 A 
HETATM    5  C4  UNL     1      13.326  31.068 -16.922  1.00  0.00     0.013 A 
HETATM    6 BR2  UNL     1      11.839  31.698 -17.899  1.00  0.00    -0.051 Br
HETATM    7  C5  UNL     1      14.105  30.060 -17.436  1.00  0.00     0.036 A 
HETATM    8  C6  UNL     1      15.215  29.605 -16.720  1.00  0.00     0.036 A 
ENDROOT
BRANCH   8   9
HETATM    9  C7  UNL     1      16.095  28.632 -17.360  1.00  0.00     0.114 A 
HETATM   10  C8  UNL     1      16.414  28.538 -18.720  1.00  0.00     0.076 A 
HETATM   11  C9  UNL     1      17.276  27.474 -18.918  1.00  0.00     0.141 A 
HETATM   12  N1  UNL     1      17.455  26.949 -17.658  1.00  0.00    -0.256 N 
HETATM   13  O2  UNL     1      16.768  27.639 -16.787  1.00  0.00    -0.237 OA
ATOM     14  H1  UNL     1      18.038  26.142 -17.437  1.00  0.00     0.195 HD
BRANCH  11  15
HETATM   15  C10 UNL     1      17.865  26.954 -20.173  1.00  0.00     0.434 C 
HETATM   16  F1  UNL     1      17.715  25.574 -20.232  1.00  0.00    -0.165 F 
HETATM   17  F2  UNL     1      19.175  27.215 -20.272  1.00  0.00    -0.165 F 
HETATM   18  F3  UNL     1      17.258  27.553 -21.266  1.00  0.00    -0.165 F 
ENDBRANCH  11  15
ENDBRANCH   8   9
BRANCH   1  19
HETATM   19  O1  UNL     1      16.640  29.749 -14.779  1.00  0.00    -0.358 OA
ATOM     20  H1  UNL     1      16.664  28.882 -14.391  1.00  0.00     0.217 HD
ENDBRANCH   1  19
TORSDOF 3
ENDMDL
