MODEL 8
REMARK VINA RESULT: -6.581138161      4.566      6.378
REMARK  3 active torsions:
REMARK  status: ('A' for Active; 'I' for Inactive)
REMARK    1  A    between atoms: O1_1  and  C1_3 
REMARK    2  A    between atoms: C6_10  and  C7_11 
REMARK    3  A    between atoms: C9_13  and  C10_14 
ROOT
HETATM    1  C1  UNL     1      16.751  27.989 -18.860  1.00  0.00     0.096 A 
HETATM    2  C2  UNL     1      17.767  27.046 -19.100  1.00  0.00     0.046 A 
HETATM    3 BR1  UNL     1      18.342  26.731 -20.918  1.00  0.00    -0.048 Br
HETATM    4  C3  UNL     1      18.330  26.307 -18.130  1.00  0.00     0.041 A 
HETATM    5  C4  UNL     1      17.900  26.483 -16.823  1.00  0.00     0.013 A 
HETATM    6 BR2  UNL     1      18.694  25.484 -15.432  1.00  0.00    -0.051 Br
HETATM    7  C5  UNL     1      16.909  27.389 -16.533  1.00  0.00     0.036 A 
HETATM    8  C6  UNL     1      16.332  28.141 -17.560  1.00  0.00     0.036 A 
ENDROOT
BRANCH   8   9
HETATM    9  C7  UNL     1      15.383  29.189 -17.196  1.00  0.00     0.114 A 
HETATM   10  C8  UNL     1      14.268  29.618 -17.926  1.00  0.00     0.076 A 
HETATM   11  C9  UNL     1      13.633  30.637 -17.238  1.00  0.00     0.141 A 
HETATM   12  N1  UNL     1      14.392  30.797 -16.100  1.00  0.00    -0.256 N 
HETATM   13  O2  UNL     1      15.385  29.948 -16.105  1.00  0.00    -0.237 OA
ATOM     14  H1  UNL     1      14.205  31.478 -15.364  1.00  0.00     0.195 HD
BRANCH  11  15
HETATM   15  C10 UNL     1      12.440  31.431 -17.612  1.00  0.00     0.434 C 
HETATM   16  F1  UNL     1      11.539  31.462 -16.556  1.00  0.00    -0.165 F 
HETATM   17  F2  UNL     1      11.796  30.921 -18.669  1.00  0.00    -0.165 F 
HETATM   18  F3  UNL     1      12.818  32.718 -17.962  1.00  0.00    -0.165 F 
ENDBRANCH  11  15
ENDBRANCH   8   9
BRANCH   1  19
HETATM   19  O1  UNL     1      16.216  28.724 -19.898  1.00  0.00    -0.358 OA
ATOM     20  H1  UNL     1      15.895  28.292 -20.680  1.00  0.00     0.217 HD
ENDBRANCH   1  19
TORSDOF 3
ENDMDL
