MODEL 4
REMARK VINA RESULT: -7.549270794      4.485      5.927
REMARK  3 active torsions:
REMARK  status: ('A' for Active; 'I' for Inactive)
REMARK    1  A    between atoms: O1_1  and  C1_3 
REMARK    2  A    between atoms: C6_10  and  C7_11 
REMARK    3  A    between atoms: C9_13  and  C10_14 
ROOT
HETATM    1  C1  UNL     1      17.000  27.355 -16.570  1.00  0.00     0.096 A 
HETATM    2  C2  UNL     1      17.894  26.354 -16.995  1.00  0.00     0.046 A 
HETATM    3 BR1  UNL     1      18.689  25.186 -15.677  1.00  0.00    -0.048 Br
HETATM    4  C3  UNL     1      18.269  26.198 -18.276  1.00  0.00     0.041 A 
HETATM    5  C4  UNL     1      17.748  27.056 -19.233  1.00  0.00     0.013 A 
HETATM    6 BR2  UNL     1      18.229  26.841 -21.046  1.00  0.00    -0.051 Br
HETATM    7  C5  UNL     1      16.872  28.051 -18.872  1.00  0.00     0.036 A 
HETATM    8  C6  UNL     1      16.502  28.200 -17.532  1.00  0.00     0.036 A 
ENDROOT
BRANCH   8   9
HETATM    9  C7  UNL     1      15.467  29.177 -17.209  1.00  0.00     0.114 A 
HETATM   10  C8  UNL     1      14.392  29.575 -18.012  1.00  0.00     0.076 A 
HETATM   11  C9  UNL     1      13.645  30.526 -17.340  1.00  0.00     0.141 A 
HETATM   12  N1  UNL     1      14.297  30.678 -16.137  1.00  0.00    -0.256 N 
HETATM   13  O2  UNL     1      15.335  29.886 -16.092  1.00  0.00    -0.237 OA
ATOM     14  H1  UNL     1      14.012  31.314 -15.393  1.00  0.00     0.195 HD
BRANCH  11  15
HETATM   15  C10 UNL     1      12.441  31.269 -17.781  1.00  0.00     0.434 C 
HETATM   16  F1  UNL     1      11.885  30.654 -18.896  1.00  0.00    -0.165 F 
HETATM   17  F2  UNL     1      12.717  32.534 -18.122  1.00  0.00    -0.165 F 
HETATM   18  F3  UNL     1      11.516  31.329 -16.751  1.00  0.00    -0.165 F 
ENDBRANCH  11  15
ENDBRANCH   8   9
BRANCH   1  19
HETATM   19  O1  UNL     1      16.646  27.461 -15.240  1.00  0.00    -0.358 OA
ATOM     20  H1  UNL     1      16.796  28.269 -14.764  1.00  0.00     0.217 HD
ENDBRANCH   1  19
TORSDOF 3
ENDMDL
