MODEL 7
REMARK VINA RESULT: -6.622704015      5.339      6.874
REMARK  3 active torsions:
REMARK  status: ('A' for Active; 'I' for Inactive)
REMARK    1  A    between atoms: O1_1  and  C1_3 
REMARK    2  A    between atoms: C6_10  and  C7_11 
REMARK    3  A    between atoms: C9_13  and  C10_14 
ROOT
HETATM    1  C1  UNL     1      18.096  24.202 -14.708  1.00  0.00     0.096 A 
HETATM    2  C2  UNL     1      18.618  23.265 -13.796  1.00  0.00     0.046 A 
HETATM    3 BR1  UNL     1      17.503  22.651 -12.342  1.00  0.00    -0.048 Br
HETATM    4  C3  UNL     1      19.880  22.809 -13.852  1.00  0.00     0.041 A 
HETATM    5  C4  UNL     1      20.714  23.272 -14.859  1.00  0.00     0.013 A 
HETATM    6 BR2  UNL     1      22.483  22.625 -14.984  1.00  0.00    -0.051 Br
HETATM    7  C5  UNL     1      20.255  24.188 -15.774  1.00  0.00     0.036 A 
HETATM    8  C6  UNL     1      18.941  24.655 -15.693  1.00  0.00     0.036 A 
ENDROOT
BRANCH   8   9
HETATM    9  C7  UNL     1      18.449  25.519 -16.762  1.00  0.00     0.114 A 
HETATM   10  C8  UNL     1      18.854  25.529 -18.102  1.00  0.00     0.076 A 
HETATM   11  C9  UNL     1      18.150  26.502 -18.787  1.00  0.00     0.141 A 
HETATM   12  N1  UNL     1      17.330  27.059 -17.832  1.00  0.00    -0.256 N 
HETATM   13  O2  UNL     1      17.523  26.469 -16.682  1.00  0.00    -0.237 OA
ATOM     14  H1  UNL     1      16.671  27.819 -17.997  1.00  0.00     0.195 HD
BRANCH  11  15
HETATM   15  C10 UNL     1      18.245  26.917 -20.206  1.00  0.00     0.434 C 
HETATM   16  F1  UNL     1      17.330  27.929 -20.468  1.00  0.00    -0.165 F 
HETATM   17  F2  UNL     1      17.981  25.914 -21.052  1.00  0.00    -0.165 F 
HETATM   18  F3  UNL     1      19.532  27.346 -20.489  1.00  0.00    -0.165 F 
ENDBRANCH  11  15
ENDBRANCH   8   9
BRANCH   1  19
HETATM   19  O1  UNL     1      16.788  24.627 -14.605  1.00  0.00    -0.358 OA
ATOM     20  H1  UNL     1      16.582  25.461 -14.199  1.00  0.00     0.217 HD
ENDBRANCH   1  19
TORSDOF 3
ENDMDL
