MODEL 9
REMARK VINA RESULT: -5.204819890      1.277      1.488
REMARK  2 active torsions:
REMARK  status: ('A' for Active; 'I' for Inactive)
REMARK    1  A    between atoms: C2_3  and  C3_4 
REMARK    2  A    between atoms: C3_4  and  C4_5 
ROOT
HETATM    1  O1  UNL     1       3.295  22.605 -20.516  1.00  0.00    -0.270 OA
HETATM    2  C1  UNL     1       4.028  22.279 -19.527  1.00  0.00     0.270 A 
HETATM    3  C2  UNL     1       4.615  23.221 -18.606  1.00  0.00     0.147 A 
HETATM    4  C10 UNL     1       5.429  22.584 -17.582  1.00  0.00     0.110 A 
HETATM    5 CL1  UNL     1       6.281  23.535 -16.363  1.00  0.00    -0.068 Cl
HETATM    6  N1  UNL     1       5.573  21.324 -17.525  1.00  0.00    -0.182 N 
ATOM      7  H1  UNL     1       6.158  20.957 -16.774  1.00  0.00     0.185 HD
HETATM    8  C11 UNL     1       4.995  20.383 -18.409  1.00  0.00     0.708 A 
HETATM    9  N2  UNL     1       4.998  19.046 -18.543  1.00  0.00    -0.184 N 
ATOM     10  H2  UNL     1       5.497  18.399 -17.934  1.00  0.00     0.185 HD
HETATM   11  C12 UNL     1       4.247  18.685 -19.598  1.00  0.00     0.216 A 
HETATM   12  N3  UNL     1       3.786  19.837 -20.104  1.00  0.00    -0.272 N 
ATOM     13  H3  UNL     1       3.178  19.909 -20.921  1.00  0.00     0.189 HD
HETATM   14  N4  UNL     1       4.234  20.884 -19.388  1.00  0.00    -0.050 N 
ENDROOT
BRANCH   3  15
HETATM   15  C3  UNL     1       3.667  24.265 -18.080  1.00  0.00     0.060 C 
BRANCH  15  16
HETATM   16  C4  UNL     1       3.506  25.454 -18.916  1.00  0.00    -0.057 A 
HETATM   17  C5  UNL     1       2.497  26.390 -18.726  1.00  0.00     0.007 A 
HETATM   18  C6  UNL     1       2.356  27.513 -19.526  1.00  0.00     0.001 A 
HETATM   19  C7  UNL     1       3.236  27.738 -20.558  1.00  0.00     0.000 A 
HETATM   20  C8  UNL     1       4.234  26.837 -20.766  1.00  0.00     0.001 A 
HETATM   21  C9  UNL     1       4.374  25.703 -19.956  1.00  0.00     0.007 A 
ENDBRANCH  15  16
ENDBRANCH   3  15
TORSDOF 2
ENDMDL
