MODEL 2
REMARK VINA RESULT: -7.217247227      0.078      1.107
REMARK  2 active torsions:
REMARK  status: ('A' for Active; 'I' for Inactive)
REMARK    1  A    between atoms: C2_3  and  C3_4 
REMARK    2  A    between atoms: C3_4  and  C4_5 
ROOT
HETATM    1  O1  UNL     1       2.751  21.268 -20.190  1.00  0.00    -0.270 OA
HETATM    2  C1  UNL     1       3.889  21.120 -19.637  1.00  0.00     0.270 A 
HETATM    3  C2  UNL     1       4.659  22.196 -19.063  1.00  0.00     0.147 A 
HETATM    4  C10 UNL     1       5.934  21.755 -18.520  1.00  0.00     0.110 A 
HETATM    5 CL1  UNL     1       7.068  22.899 -17.798  1.00  0.00    -0.068 Cl
HETATM    6  N1  UNL     1       6.294  20.538 -18.551  1.00  0.00    -0.182 N 
ATOM      7  H1  UNL     1       7.203  20.313 -18.146  1.00  0.00     0.185 HD
HETATM    8  C11 UNL     1       5.548  19.467 -19.096  1.00  0.00     0.708 A 
HETATM    9  N2  UNL     1       5.712  18.141 -19.235  1.00  0.00    -0.184 N 
ATOM     10  H2  UNL     1       6.528  17.617 -18.922  1.00  0.00     0.185 HD
HETATM   11  C12 UNL     1       4.643  17.605 -19.848  1.00  0.00     0.216 A 
HETATM   12  N3  UNL     1       3.822  18.638 -20.079  1.00  0.00    -0.272 N 
ATOM     13  H3  UNL     1       2.913  18.566 -20.537  1.00  0.00     0.189 HD
HETATM   14  N4  UNL     1       4.362  19.785 -19.624  1.00  0.00    -0.050 N 
ENDROOT
BRANCH   3  15
HETATM   15  C3  UNL     1       3.884  23.112 -18.155  1.00  0.00     0.060 C 
BRANCH  15  16
HETATM   16  C4  UNL     1       3.861  24.522 -18.545  1.00  0.00    -0.057 A 
HETATM   17  C5  UNL     1       3.116  25.006 -19.613  1.00  0.00     0.007 A 
HETATM   18  C6  UNL     1       3.103  26.346 -19.972  1.00  0.00     0.001 A 
HETATM   19  C7  UNL     1       3.849  27.255 -19.261  1.00  0.00     0.000 A 
HETATM   20  C8  UNL     1       4.588  26.807 -18.211  1.00  0.00     0.001 A 
HETATM   21  C9  UNL     1       4.599  25.453 -17.850  1.00  0.00     0.007 A 
ENDBRANCH  15  16
ENDBRANCH   3  15
TORSDOF 2
ENDMDL
