MODEL 5
REMARK VINA RESULT: -5.445604126      3.559      6.163
REMARK  2 active torsions:
REMARK  status: ('A' for Active; 'I' for Inactive)
REMARK    1  A    between atoms: C2_3  and  C3_4 
REMARK    2  A    between atoms: C3_4  and  C4_5 
ROOT
HETATM    1  O1  UNL     1       3.265  23.770 -20.753  1.00  0.00    -0.270 OA
HETATM    2  C1  UNL     1       3.750  24.489 -19.820  1.00  0.00     0.270 A 
HETATM    3  C2  UNL     1       4.446  23.966 -18.670  1.00  0.00     0.147 A 
HETATM    4  C10 UNL     1       4.873  25.003 -17.745  1.00  0.00     0.110 A 
HETATM    5 CL1  UNL     1       5.712  24.605 -16.243  1.00  0.00    -0.068 Cl
HETATM    6  N1  UNL     1       4.654  26.234 -17.965  1.00  0.00    -0.182 N 
ATOM      7  H1  UNL     1       4.989  26.898 -17.267  1.00  0.00     0.185 HD
HETATM    8  C11 UNL     1       3.987  26.768 -19.093  1.00  0.00     0.708 A 
HETATM    9  N2  UNL     1       3.651  27.992 -19.534  1.00  0.00    -0.184 N 
ATOM     10  H2  UNL     1       3.856  28.864 -19.048  1.00  0.00     0.185 HD
HETATM   11  C12 UNL     1       3.006  27.899 -20.709  1.00  0.00     0.216 A 
HETATM   12  N3  UNL     1       2.957  26.586 -20.974  1.00  0.00    -0.272 N 
ATOM     13  H3  UNL     1       2.526  26.177 -21.804  1.00  0.00     0.189 HD
HETATM   14  N4  UNL     1       3.553  25.881 -19.994  1.00  0.00    -0.050 N 
ENDROOT
BRANCH   3  15
HETATM   15  C3  UNL     1       5.504  22.943 -18.984  1.00  0.00     0.060 C 
BRANCH  15  16
HETATM   16  C4  UNL     1       5.416  21.690 -18.235  1.00  0.00    -0.057 A 
HETATM   17  C5  UNL     1       4.615  21.525 -17.112  1.00  0.00     0.007 A 
HETATM   18  C6  UNL     1       4.541  20.331 -16.412  1.00  0.00     0.001 A 
HETATM   19  C7  UNL     1       5.279  19.247 -16.822  1.00  0.00     0.000 A 
HETATM   20  C8  UNL     1       6.073  19.380 -17.918  1.00  0.00     0.001 A 
HETATM   21  C9  UNL     1       6.145  20.588 -18.624  1.00  0.00     0.007 A 
ENDBRANCH  15  16
ENDBRANCH   3  15
TORSDOF 2
ENDMDL
