MODEL 1
REMARK VINA RESULT: -7.235805742      0.000      0.000
REMARK  2 active torsions:
REMARK  status: ('A' for Active; 'I' for Inactive)
REMARK    1  A    between atoms: C2_3  and  C3_4 
REMARK    2  A    between atoms: C3_4  and  C4_5 
ROOT
HETATM    1  O1  UNL     1       2.739  21.291 -20.211  1.00  0.00    -0.270 OA
HETATM    2  C1  UNL     1       3.874  21.132 -19.656  1.00  0.00     0.270 A 
HETATM    3  C2  UNL     1       4.656  22.200 -19.083  1.00  0.00     0.147 A 
HETATM    4  C10 UNL     1       5.924  21.746 -18.536  1.00  0.00     0.110 A 
HETATM    5 CL1  UNL     1       7.070  22.878 -17.814  1.00  0.00    -0.068 Cl
HETATM    6  N1  UNL     1       6.270  20.525 -18.563  1.00  0.00    -0.182 N 
ATOM      7  H1  UNL     1       7.175  20.289 -18.156  1.00  0.00     0.185 HD
HETATM    8  C11 UNL     1       5.513  19.461 -19.107  1.00  0.00     0.708 A 
HETATM    9  N2  UNL     1       5.661  18.132 -19.244  1.00  0.00    -0.184 N 
ATOM     10  H2  UNL     1       6.471  17.600 -18.927  1.00  0.00     0.185 HD
HETATM   11  C12 UNL     1       4.587  17.608 -19.858  1.00  0.00     0.216 A 
HETATM   12  N3  UNL     1       3.779  18.650 -20.093  1.00  0.00    -0.272 N 
ATOM     13  H3  UNL     1       2.870  18.588 -20.552  1.00  0.00     0.189 HD
HETATM   14  N4  UNL     1       4.332  19.791 -19.639  1.00  0.00    -0.050 N 
ENDROOT
BRANCH   3  15
HETATM   15  C3  UNL     1       3.889  23.127 -18.178  1.00  0.00     0.060 C 
BRANCH  15  16
HETATM   16  C4  UNL     1       3.878  24.535 -18.575  1.00  0.00    -0.057 A 
HETATM   17  C5  UNL     1       4.521  25.535 -17.857  1.00  0.00     0.007 A 
HETATM   18  C6  UNL     1       4.502  26.866 -18.244  1.00  0.00     0.001 A 
HETATM   19  C7  UNL     1       3.829  27.242 -19.382  1.00  0.00     0.000 A 
HETATM   20  C8  UNL     1       3.191  26.283 -20.104  1.00  0.00     0.001 A 
HETATM   21  C9  UNL     1       3.211  24.938 -19.710  1.00  0.00     0.007 A 
ENDBRANCH  15  16
ENDBRANCH   3  15
TORSDOF 2
ENDMDL
