MODEL 4
REMARK VINA RESULT: -5.547053819      3.819      6.401
REMARK  2 active torsions:
REMARK  status: ('A' for Active; 'I' for Inactive)
REMARK    1  A    between atoms: C2_3  and  C3_4 
REMARK    2  A    between atoms: C3_4  and  C4_5 
ROOT
HETATM    1  O1  UNL     1       5.699  25.939 -17.767  1.00  0.00    -0.270 OA
HETATM    2  C1  UNL     1       4.825  25.411 -18.527  1.00  0.00     0.270 A 
HETATM    3  C2  UNL     1       4.611  23.989 -18.654  1.00  0.00     0.147 A 
HETATM    4  C10 UNL     1       3.567  23.655 -19.609  1.00  0.00     0.110 A 
HETATM    5 CL1  UNL     1       3.151  21.976 -19.963  1.00  0.00    -0.068 Cl
HETATM    6  N1  UNL     1       2.919  24.547 -20.239  1.00  0.00    -0.182 N 
ATOM      7  H1  UNL     1       2.201  24.227 -20.889  1.00  0.00     0.185 HD
HETATM    8  C11 UNL     1       3.103  25.944 -20.118  1.00  0.00     0.708 A 
HETATM    9  N2  UNL     1       2.555  27.047 -20.656  1.00  0.00    -0.184 N 
ATOM     10  H2  UNL     1       1.803  27.048 -21.345  1.00  0.00     0.185 HD
HETATM   11  C12 UNL     1       3.142  28.147 -20.155  1.00  0.00     0.216 A 
HETATM   12  N3  UNL     1       4.062  27.688 -19.297  1.00  0.00    -0.272 N 
ATOM     13  H3  UNL     1       4.686  28.277 -18.745  1.00  0.00     0.189 HD
HETATM   14  N4  UNL     1       4.051  26.342 -19.263  1.00  0.00    -0.050 N 
ENDROOT
BRANCH   3  15
HETATM   15  C3  UNL     1       4.515  23.247 -17.348  1.00  0.00     0.060 C 
BRANCH  15  16
HETATM   16  C4  UNL     1       5.019  21.874 -17.361  1.00  0.00    -0.057 A 
HETATM   17  C5  UNL     1       4.515  20.869 -16.546  1.00  0.00     0.007 A 
HETATM   18  C6  UNL     1       5.003  19.571 -16.568  1.00  0.00     0.001 A 
HETATM   19  C7  UNL     1       6.026  19.235 -17.421  1.00  0.00     0.000 A 
HETATM   20  C8  UNL     1       6.539  20.200 -18.230  1.00  0.00     0.001 A 
HETATM   21  C9  UNL     1       6.044  21.511 -18.206  1.00  0.00     0.007 A 
ENDBRANCH  15  16
ENDBRANCH   3  15
TORSDOF 2
ENDMDL
