MODEL 6
REMARK VINA RESULT: -5.344995352      3.117      6.497
REMARK  2 active torsions:
REMARK  status: ('A' for Active; 'I' for Inactive)
REMARK    1  A    between atoms: C2_3  and  C3_4 
REMARK    2  A    between atoms: C3_4  and  C4_5 
ROOT
HETATM    1  O1  UNL     1       6.892  23.154 -17.950  1.00  0.00    -0.270 OA
HETATM    2  C1  UNL     1       5.688  23.283 -18.344  1.00  0.00     0.270 A 
HETATM    3  C2  UNL     1       4.883  22.204 -18.864  1.00  0.00     0.147 A 
HETATM    4  C10 UNL     1       3.552  22.631 -19.264  1.00  0.00     0.110 A 
HETATM    5 CL1  UNL     1       2.396  21.495 -19.965  1.00  0.00    -0.068 Cl
HETATM    6  N1  UNL     1       3.164  23.833 -19.141  1.00  0.00    -0.182 N 
ATOM      7  H1  UNL     1       2.214  24.048 -19.444  1.00  0.00     0.185 HD
HETATM    8  C11 UNL     1       3.932  24.902 -18.621  1.00  0.00     0.708 A 
HETATM    9  N2  UNL     1       3.745  26.213 -18.394  1.00  0.00    -0.184 N 
ATOM     10  H2  UNL     1       2.886  26.723 -18.594  1.00  0.00     0.185 HD
HETATM   11  C12 UNL     1       4.856  26.754 -17.866  1.00  0.00     0.216 A 
HETATM   12  N3  UNL     1       5.726  25.739 -17.775  1.00  0.00    -0.272 N 
ATOM     13  H3  UNL     1       6.675  25.819 -17.409  1.00  0.00     0.189 HD
HETATM   14  N4  UNL     1       5.175  24.599 -18.233  1.00  0.00    -0.050 N 
ENDROOT
BRANCH   3  15
HETATM   15  C3  UNL     1       4.907  20.946 -18.040  1.00  0.00     0.060 C 
BRANCH  15  16
HETATM   16  C4  UNL     1       5.383  19.746 -18.728  1.00  0.00    -0.057 A 
HETATM   17  C5  UNL     1       4.599  19.006 -19.603  1.00  0.00     0.007 A 
HETATM   18  C6  UNL     1       5.063  17.870 -20.249  1.00  0.00     0.001 A 
HETATM   19  C7  UNL     1       6.349  17.434 -20.035  1.00  0.00     0.000 A 
HETATM   20  C8  UNL     1       7.139  18.140 -19.182  1.00  0.00     0.001 A 
HETATM   21  C9  UNL     1       6.667  19.288 -18.531  1.00  0.00     0.007 A 
ENDBRANCH  15  16
ENDBRANCH   3  15
TORSDOF 2
ENDMDL
