MODEL 7
REMARK VINA RESULT: -5.970935415      9.193     12.437
REMARK  2 active torsions:
REMARK  status: ('A' for Active; 'I' for Inactive)
REMARK    1  A    between atoms: C6_13  and  C7_14 
REMARK    2  A    between atoms: C7_14  and  C8_15 
ROOT
HETATM    1  N1  UNL     1       7.222  17.867 -19.774  1.00  0.00    -0.191 NA
HETATM    2  C1  UNL     1       7.123  17.010 -20.545  1.00  0.00     0.105 C 
HETATM    3  C2  UNL     1       7.024  15.954 -21.505  1.00  0.00     0.107 A 
HETATM    4  C3  UNL     1       5.873  15.289 -21.863  1.00  0.00     0.134 A 
HETATM    5  N2  UNL     1       6.235  14.371 -22.797  1.00  0.00    -0.299 N 
ATOM      6  H2  UNL     1       5.597  13.721 -23.257  1.00  0.00     0.186 HD
HETATM    7  N3  UNL     1       7.523  14.441 -23.020  1.00  0.00    -0.205 N 
HETATM    8  C4  UNL     1       8.065  15.420 -22.235  1.00  0.00     0.153 A 
HETATM    9  N4  UNL     1       9.451  15.671 -22.354  1.00  0.00    -0.333 N 
ATOM     10  H4  UNL     1       9.836  16.401 -21.754  1.00  0.00     0.168 HD
HETATM   11  C5  UNL     1      10.273  15.082 -23.133  1.00  0.00     0.095 C 
HETATM   12 CL1  UNL     1      11.987  15.523 -23.142  1.00  0.00    -0.068 Cl
HETATM   13  C6  UNL     1       9.795  14.049 -24.068  1.00  0.00     0.146 C 
HETATM   14  C14 UNL     1       8.374  13.693 -23.861  1.00  0.00     0.255 C 
HETATM   15  O1  UNL     1       7.916  12.687 -24.457  1.00  0.00    -0.270 OA
ENDROOT
BRANCH  13  16
HETATM   16  C7  UNL     1       9.933  14.451 -25.519  1.00  0.00     0.060 C 
BRANCH  16  17
HETATM   17  C8  UNL     1      11.195  14.090 -26.145  1.00  0.00    -0.057 A 
HETATM   18  C9  UNL     1      11.647  12.786 -26.214  1.00  0.00     0.007 A 
HETATM   19  C10 UNL     1      12.818  12.481 -26.832  1.00  0.00     0.001 A 
HETATM   20  C11 UNL     1      13.596  13.461 -27.412  1.00  0.00     0.000 A 
HETATM   21  C12 UNL     1      13.139  14.760 -27.340  1.00  0.00     0.001 A 
HETATM   22  C13 UNL     1      11.963  15.069 -26.720  1.00  0.00     0.007 A 
ENDBRANCH  16  17
ENDBRANCH  13  16
TORSDOF 2
ENDMDL
