MODEL 3
REMARK VINA RESULT: -6.542280743      8.377     11.322
REMARK  2 active torsions:
REMARK  status: ('A' for Active; 'I' for Inactive)
REMARK    1  A    between atoms: C6_13  and  C7_14 
REMARK    2  A    between atoms: C7_14  and  C8_15 
ROOT
HETATM    1  N1  UNL     1       6.811  17.905 -20.442  1.00  0.00    -0.191 NA
HETATM    2  C1  UNL     1       6.863  16.918 -21.043  1.00  0.00     0.105 C 
HETATM    3  C2  UNL     1       6.949  15.702 -21.791  1.00  0.00     0.107 A 
HETATM    4  C3  UNL     1       5.900  14.871 -22.112  1.00  0.00     0.134 A 
HETATM    5  N2  UNL     1       6.431  13.841 -22.823  1.00  0.00    -0.299 N 
ATOM      6  H2  UNL     1       5.899  13.058 -23.204  1.00  0.00     0.186 HD
HETATM    7  N3  UNL     1       7.723  14.000 -22.947  1.00  0.00    -0.205 N 
HETATM    8  C4  UNL     1       8.100  15.154 -22.318  1.00  0.00     0.153 A 
HETATM    9  N4  UNL     1       9.465  15.519 -22.367  1.00  0.00    -0.333 N 
ATOM     10  H4  UNL     1       9.724  16.380 -21.886  1.00  0.00     0.168 HD
HETATM   11  C5  UNL     1      10.408  14.885 -22.950  1.00  0.00     0.095 C 
HETATM   12 CL1  UNL     1      12.070  15.489 -22.900  1.00  0.00    -0.068 Cl
HETATM   13  C6  UNL     1      10.114  13.658 -23.711  1.00  0.00     0.146 C 
HETATM   14  C14 UNL     1       8.715  13.203 -23.558  1.00  0.00     0.255 C 
HETATM   15  O1  UNL     1       8.405  12.065 -23.991  1.00  0.00    -0.270 OA
ENDROOT
BRANCH  13  16
HETATM   16  C7  UNL     1      10.363  13.804 -25.195  1.00  0.00     0.060 C 
BRANCH  16  17
HETATM   17  C8  UNL     1       9.561  14.817 -25.861  1.00  0.00    -0.057 A 
HETATM   18  C9  UNL     1       9.877  16.162 -25.823  1.00  0.00     0.007 A 
HETATM   19  C10 UNL     1       9.120  17.079 -26.482  1.00  0.00     0.001 A 
HETATM   20  C11 UNL     1       8.012  16.700 -27.210  1.00  0.00     0.000 A 
HETATM   21  C12 UNL     1       7.703  15.356 -27.244  1.00  0.00     0.001 A 
HETATM   22  C13 UNL     1       8.461  14.433 -26.584  1.00  0.00     0.007 A 
ENDBRANCH  16  17
ENDBRANCH  13  16
TORSDOF 2
ENDMDL
