MODEL 4
REMARK VINA RESULT: -6.508852467      8.337     11.238
REMARK  2 active torsions:
REMARK  status: ('A' for Active; 'I' for Inactive)
REMARK    1  A    between atoms: C6_13  and  C7_14 
REMARK    2  A    between atoms: C7_14  and  C8_15 
ROOT
HETATM    1  N1  UNL     1       6.859  17.956 -20.406  1.00  0.00    -0.191 NA
HETATM    2  C1  UNL     1       6.870  16.964 -21.003  1.00  0.00     0.105 C 
HETATM    3  C2  UNL     1       6.906  15.742 -21.744  1.00  0.00     0.107 A 
HETATM    4  C3  UNL     1       5.824  14.952 -22.059  1.00  0.00     0.134 A 
HETATM    5  N2  UNL     1       6.312  13.898 -22.766  1.00  0.00    -0.299 N 
ATOM      6  H2  UNL     1       5.748  13.135 -23.141  1.00  0.00     0.186 HD
HETATM    7  N3  UNL     1       7.609  14.004 -22.893  1.00  0.00    -0.205 N 
HETATM    8  C4  UNL     1       8.033  15.146 -22.270  1.00  0.00     0.153 A 
HETATM    9  N4  UNL     1       9.412  15.455 -22.324  1.00  0.00    -0.333 N 
ATOM     10  H4  UNL     1       9.706  16.307 -21.847  1.00  0.00     0.168 HD
HETATM   11  C5  UNL     1      10.327  14.781 -22.904  1.00  0.00     0.095 C 
HETATM   12 CL1  UNL     1      12.013  15.317 -22.860  1.00  0.00    -0.068 Cl
HETATM   13  C6  UNL     1       9.983  13.562 -23.658  1.00  0.00     0.146 C 
HETATM   14  C14 UNL     1       8.567  13.165 -23.501  1.00  0.00     0.255 C 
HETATM   15  O1  UNL     1       8.211  12.038 -23.927  1.00  0.00    -0.270 OA
ENDROOT
BRANCH  13  16
HETATM   16  C7  UNL     1      10.236  13.691 -25.143  1.00  0.00     0.060 C 
BRANCH  16  17
HETATM   17  C8  UNL     1       9.919  14.989 -25.716  1.00  0.00    -0.057 A 
HETATM   18  C9  UNL     1       8.621  15.426 -25.898  1.00  0.00     0.007 A 
HETATM   19  C10 UNL     1       8.361  16.658 -26.411  1.00  0.00     0.001 A 
HETATM   20  C11 UNL     1       9.382  17.514 -26.765  1.00  0.00     0.000 A 
HETATM   21  C12 UNL     1      10.675  17.071 -26.580  1.00  0.00     0.001 A 
HETATM   22  C13 UNL     1      10.939  15.835 -26.066  1.00  0.00     0.007 A 
ENDBRANCH  16  17
ENDBRANCH  13  16
TORSDOF 2
ENDMDL
