MODEL 5
REMARK VINA RESULT: -7.573066103      1.084      1.186
REMARK  6 active torsions:
REMARK  status: ('A' for Active; 'I' for Inactive)
REMARK    1  A    between atoms: N1_1  and  S1_4 
REMARK    2  A    between atoms: S1_4  and  C1_7 
REMARK    3  A    between atoms: C4_12  and  S2_13 
REMARK    4  A    between atoms: S2_13  and  C5_16 
REMARK    5  A    between atoms: C5_16  and  C6_17 
REMARK    6  A    between atoms: C6_17  and  O5_18 
ROOT
HETATM    1  C1  UNL     1      25.038   4.261  10.464  1.00  0.00     0.162 A 
HETATM    2  C2  UNL     1      25.748   4.344   9.291  1.00  0.00     0.182 A 
HETATM    3  F1  UNL     1      25.274   3.653   8.227  1.00  0.00    -0.201 F 
HETATM    4  C3  UNL     1      26.904   5.095   9.168  1.00  0.00     0.181 A 
HETATM    5  F2  UNL     1      27.593   5.166   8.005  1.00  0.00    -0.201 F 
HETATM    6  C4  UNL     1      27.379   5.795  10.253  1.00  0.00     0.142 A 
HETATM    7  C7  UNL     1      26.664   5.710  11.434  1.00  0.00     0.181 A 
HETATM    8  F3  UNL     1      27.168   6.420  12.490  1.00  0.00    -0.201 F 
HETATM    9  C8  UNL     1      25.514   4.962  11.549  1.00  0.00     0.182 A 
HETATM   10  F4  UNL     1      24.844   4.914  12.745  1.00  0.00    -0.201 F 
ENDROOT
BRANCH   6  11
HETATM   11  S2  UNL     1      28.853   6.770  10.153  1.00  0.00     0.183 S 
HETATM   12  O3  UNL     1      29.758   6.430  11.292  1.00  0.00    -0.222 OA
HETATM   13  O4  UNL     1      29.527   6.532   8.836  1.00  0.00    -0.222 OA
BRANCH  11  14
HETATM   14  C5  UNL     1      28.339   8.470  10.260  1.00  0.00     0.172 C 
BRANCH  14  15
HETATM   15  C6  UNL     1      29.372   9.383   9.622  1.00  0.00     0.179 C 
BRANCH  15  16
HETATM   16  O5  UNL     1      30.666   8.990   9.964  1.00  0.00    -0.400 OA
ATOM     17  H5  UNL     1      31.082   9.637  10.520  1.00  0.00     0.209 HD
ENDBRANCH  15  16
ENDBRANCH  14  15
ENDBRANCH  11  14
ENDBRANCH   6  11
BRANCH   1  18
HETATM   18  S1  UNL     1      23.568   3.309  10.622  1.00  0.00     0.263 S 
HETATM   19  O1  UNL     1      22.425   4.025   9.918  1.00  0.00    -0.201 OA
HETATM   20  O2  UNL     1      23.179   3.111  12.046  1.00  0.00    -0.201 OA
BRANCH  18  21
HETATM   21  N1  UNL     1      23.777   1.808   9.784  1.00  0.00    -0.324 N 
ATOM     22  H12 UNL     1      24.535   1.575   9.143  1.00  0.00     0.169 HD
ATOM     23  H11 UNL     1      22.993   1.219  10.064  1.00  0.00     0.169 HD
ENDBRANCH  18  21
ENDBRANCH   1  18
TORSDOF 6
ENDMDL
