MODEL 17
REMARK VINA RESULT: -6.907742541      3.324      5.895
REMARK  6 active torsions:
REMARK  status: ('A' for Active; 'I' for Inactive)
REMARK    1  A    between atoms: N1_1  and  S1_4 
REMARK    2  A    between atoms: S1_4  and  C1_7 
REMARK    3  A    between atoms: C4_12  and  S2_13 
REMARK    4  A    between atoms: S2_13  and  C5_16 
REMARK    5  A    between atoms: C5_16  and  C6_17 
REMARK    6  A    between atoms: C6_17  and  O5_18 
ROOT
HETATM    1  C1  UNL     1      25.956   6.409  13.354  1.00  0.00     0.162 A 
HETATM    2  C2  UNL     1      26.165   6.311  12.000  1.00  0.00     0.182 A 
HETATM    3  F1  UNL     1      27.109   7.117  11.457  1.00  0.00    -0.201 F 
HETATM    4  C3  UNL     1      25.459   5.435  11.195  1.00  0.00     0.181 A 
HETATM    5  F2  UNL     1      25.676   5.351   9.861  1.00  0.00    -0.201 F 
HETATM    6  C4  UNL     1      24.501   4.619  11.755  1.00  0.00     0.142 A 
HETATM    7  C7  UNL     1      24.292   4.719  13.118  1.00  0.00     0.181 A 
HETATM    8  F3  UNL     1      23.333   3.892  13.636  1.00  0.00    -0.201 F 
HETATM    9  C8  UNL     1      24.999   5.592  13.912  1.00  0.00     0.182 A 
HETATM   10  F4  UNL     1      24.750   5.649  15.261  1.00  0.00    -0.201 F 
ENDROOT
BRANCH   6  11
HETATM   11  S2  UNL     1      23.567   3.481  10.773  1.00  0.00     0.183 S 
HETATM   12  O3  UNL     1      22.670   2.676  11.656  1.00  0.00    -0.222 OA
HETATM   13  O4  UNL     1      22.779   4.232   9.741  1.00  0.00    -0.222 OA
BRANCH  11  14
HETATM   14  C5  UNL     1      24.749   2.424   9.967  1.00  0.00     0.172 C 
BRANCH  14  15
HETATM   15  C6  UNL     1      24.397   2.248   8.499  1.00  0.00     0.179 C 
BRANCH  15  16
HETATM   16  O5  UNL     1      24.930   3.283   7.730  1.00  0.00    -0.400 OA
ATOM     17  H5  UNL     1      24.289   3.612   7.112  1.00  0.00     0.209 HD
ENDBRANCH  15  16
ENDBRANCH  14  15
ENDBRANCH  11  14
ENDBRANCH   6  11
BRANCH   1  18
HETATM   18  S1  UNL     1      26.854   7.520  14.379  1.00  0.00     0.263 S 
HETATM   19  O1  UNL     1      27.946   8.193  13.558  1.00  0.00    -0.201 OA
HETATM   20  O2  UNL     1      27.503   6.827  15.526  1.00  0.00    -0.201 OA
BRANCH  18  21
HETATM   21  N1  UNL     1      25.796   8.791  14.893  1.00  0.00    -0.324 N 
ATOM     22  H12 UNL     1      25.918   9.787  14.714  1.00  0.00     0.169 HD
ATOM     23  H11 UNL     1      25.038   8.336  15.402  1.00  0.00     0.169 HD
ENDBRANCH  18  21
ENDBRANCH   1  18
TORSDOF 6
ENDMDL
