MODEL 1
REMARK VINA RESULT: -7.723491409      0.000      0.000
REMARK  6 active torsions:
REMARK  status: ('A' for Active; 'I' for Inactive)
REMARK    1  A    between atoms: N1_1  and  S1_4 
REMARK    2  A    between atoms: S1_4  and  C1_7 
REMARK    3  A    between atoms: C4_12  and  S2_13 
REMARK    4  A    between atoms: S2_13  and  C5_16 
REMARK    5  A    between atoms: C5_16  and  C6_17 
REMARK    6  A    between atoms: C6_17  and  O5_18 
ROOT
HETATM    1  C1  UNL     1      25.105   4.129  10.140  1.00  0.00     0.162 A 
HETATM    2  C2  UNL     1      26.083   4.482   9.243  1.00  0.00     0.182 A 
HETATM    3  F1  UNL     1      25.988   3.979   7.989  1.00  0.00    -0.201 F 
HETATM    4  C3  UNL     1      27.137   5.316   9.574  1.00  0.00     0.181 A 
HETATM    5  F2  UNL     1      28.094   5.654   8.678  1.00  0.00    -0.201 F 
HETATM    6  C4  UNL     1      27.227   5.823  10.850  1.00  0.00     0.142 A 
HETATM    7  C7  UNL     1      26.242   5.467  11.753  1.00  0.00     0.181 A 
HETATM    8  F3  UNL     1      26.367   5.992  13.011  1.00  0.00    -0.201 F 
HETATM    9  C8  UNL     1      25.197   4.638  11.416  1.00  0.00     0.182 A 
HETATM   10  F4  UNL     1      24.246   4.317  12.353  1.00  0.00    -0.201 F 
ENDROOT
BRANCH   6  11
HETATM   11  S2  UNL     1      28.553   6.894  11.329  1.00  0.00     0.183 S 
HETATM   12  O3  UNL     1      28.490   7.143  12.801  1.00  0.00    -0.222 OA
HETATM   13  O4  UNL     1      29.864   6.279  10.940  1.00  0.00    -0.222 OA
BRANCH  11  14
HETATM   14  C5  UNL     1      28.320   8.414  10.435  1.00  0.00     0.172 C 
BRANCH  14  15
HETATM   15  C6  UNL     1      29.628   8.880   9.819  1.00  0.00     0.179 C 
BRANCH  15  16
HETATM   16  O5  UNL     1      29.955   8.113   8.700  1.00  0.00    -0.400 OA
ATOM     17  H5  UNL     1      30.704   8.478   8.245  1.00  0.00     0.209 HD
ENDBRANCH  15  16
ENDBRANCH  14  15
ENDBRANCH  11  14
ENDBRANCH   6  11
BRANCH   1  18
HETATM   18  S1  UNL     1      23.765   3.070   9.722  1.00  0.00     0.263 S 
HETATM   19  O1  UNL     1      22.451   3.793   9.984  1.00  0.00    -0.201 OA
HETATM   20  O2  UNL     1      23.768   1.817  10.525  1.00  0.00    -0.201 OA
BRANCH  18  21
HETATM   21  N1  UNL     1      23.805   2.760   8.019  1.00  0.00    -0.324 N 
ATOM     22  H12 UNL     1      23.004   2.750   7.388  1.00  0.00     0.169 HD
ATOM     23  H11 UNL     1      24.784   2.591   7.788  1.00  0.00     0.169 HD
ENDBRANCH  18  21
ENDBRANCH   1  18
TORSDOF 6
ENDMDL
