MODEL 4
REMARK VINA RESULT: -7.585854712      0.867      1.019
REMARK  6 active torsions:
REMARK  status: ('A' for Active; 'I' for Inactive)
REMARK    1  A    between atoms: N1_1  and  S1_4 
REMARK    2  A    between atoms: S1_4  and  C1_7 
REMARK    3  A    between atoms: C4_12  and  S2_13 
REMARK    4  A    between atoms: S2_13  and  C5_16 
REMARK    5  A    between atoms: C5_16  and  C6_17 
REMARK    6  A    between atoms: C6_17  and  O5_18 
ROOT
HETATM    1  C1  UNL     1      25.123   4.181  10.100  1.00  0.00     0.162 A 
HETATM    2  C2  UNL     1      26.078   4.545   9.184  1.00  0.00     0.182 A 
HETATM    3  F1  UNL     1      25.981   4.018   7.940  1.00  0.00    -0.201 F 
HETATM    4  C3  UNL     1      27.112   5.414   9.486  1.00  0.00     0.181 A 
HETATM    5  F2  UNL     1      28.047   5.764   8.572  1.00  0.00    -0.201 F 
HETATM    6  C4  UNL     1      27.204   5.947  10.752  1.00  0.00     0.142 A 
HETATM    7  C7  UNL     1      26.241   5.579  11.674  1.00  0.00     0.181 A 
HETATM    8  F3  UNL     1      26.367   6.128  12.921  1.00  0.00    -0.201 F 
HETATM    9  C8  UNL     1      25.216   4.714  11.365  1.00  0.00     0.182 A 
HETATM   10  F4  UNL     1      24.286   4.383  12.320  1.00  0.00    -0.201 F 
ENDROOT
BRANCH   6  11
HETATM   11  S2  UNL     1      28.505   7.062  11.195  1.00  0.00     0.183 S 
HETATM   12  O3  UNL     1      29.225   6.542  12.397  1.00  0.00    -0.222 OA
HETATM   13  O4  UNL     1      29.439   7.234  10.036  1.00  0.00    -0.222 OA
BRANCH  11  14
HETATM   14  C5  UNL     1      27.727   8.619  11.569  1.00  0.00     0.172 C 
BRANCH  14  15
HETATM   15  C6  UNL     1      26.794   9.034  10.444  1.00  0.00     0.179 C 
BRANCH  15  16
HETATM   16  O5  UNL     1      27.483   9.140   9.236  1.00  0.00    -0.400 OA
ATOM     17  H5  UNL     1      27.312   8.390   8.680  1.00  0.00     0.209 HD
ENDBRANCH  15  16
ENDBRANCH  14  15
ENDBRANCH  11  14
ENDBRANCH   6  11
BRANCH   1  18
HETATM   18  S1  UNL     1      23.808   3.077   9.717  1.00  0.00     0.263 S 
HETATM   19  O1  UNL     1      22.477   3.774   9.963  1.00  0.00    -0.201 OA
HETATM   20  O2  UNL     1      23.845   1.848  10.556  1.00  0.00    -0.201 OA
BRANCH  18  21
HETATM   21  N1  UNL     1      23.850   2.718   8.023  1.00  0.00    -0.324 N 
ATOM     22  H12 UNL     1      23.874   1.790   7.604  1.00  0.00     0.169 HD
ATOM     23  H11 UNL     1      23.845   3.620   7.546  1.00  0.00     0.169 HD
ENDBRANCH  18  21
ENDBRANCH   1  18
TORSDOF 6
ENDMDL
