MODEL 2
REMARK VINA RESULT: -7.692762757      0.073      2.350
REMARK  6 active torsions:
REMARK  status: ('A' for Active; 'I' for Inactive)
REMARK    1  A    between atoms: N1_1  and  S1_4 
REMARK    2  A    between atoms: S1_4  and  C1_7 
REMARK    3  A    between atoms: C4_12  and  S2_13 
REMARK    4  A    between atoms: S2_13  and  C5_16 
REMARK    5  A    between atoms: C5_16  and  C6_17 
REMARK    6  A    between atoms: C6_17  and  O5_18 
ROOT
HETATM    1  C1  UNL     1      25.071   4.149  10.236  1.00  0.00     0.162 A 
HETATM    2  C2  UNL     1      25.192   4.682  11.496  1.00  0.00     0.182 A 
HETATM    3  F1  UNL     1      24.238   4.362  12.402  1.00  0.00    -0.201 F 
HETATM    4  C3  UNL     1      26.235   5.516  11.858  1.00  0.00     0.181 A 
HETATM    5  F2  UNL     1      26.341   6.035  13.104  1.00  0.00    -0.201 F 
HETATM    6  C4  UNL     1      27.202   5.837  10.932  1.00  0.00     0.142 A 
HETATM    7  C7  UNL     1      27.079   5.300   9.664  1.00  0.00     0.181 A 
HETATM    8  F3  UNL     1      28.058   5.642   8.772  1.00  0.00    -0.201 F 
HETATM    9  C8  UNL     1      26.039   4.470   9.311  1.00  0.00     0.182 A 
HETATM   10  F4  UNL     1      25.966   3.964   8.037  1.00  0.00    -0.201 F 
ENDROOT
BRANCH   6  11
HETATM   11  S2  UNL     1      28.558   6.900  11.339  1.00  0.00     0.183 S 
HETATM   12  O3  UNL     1      28.550   7.183  12.806  1.00  0.00    -0.222 OA
HETATM   13  O4  UNL     1      29.846   6.259  10.917  1.00  0.00    -0.222 OA
BRANCH  11  14
HETATM   14  C5  UNL     1      28.312   8.403  10.419  1.00  0.00     0.172 C 
BRANCH  14  15
HETATM   15  C6  UNL     1      29.617   8.871   9.798  1.00  0.00     0.179 C 
BRANCH  15  16
HETATM   16  O5  UNL     1      29.963   8.077   8.705  1.00  0.00    -0.400 OA
ATOM     17  H5  UNL     1      30.891   8.145   8.516  1.00  0.00     0.209 HD
ENDBRANCH  15  16
ENDBRANCH  14  15
ENDBRANCH  11  14
ENDBRANCH   6  11
BRANCH   1  18
HETATM   18  S1  UNL     1      23.747   3.088   9.774  1.00  0.00     0.263 S 
HETATM   19  O1  UNL     1      22.423   3.799  10.015  1.00  0.00    -0.201 OA
HETATM   20  O2  UNL     1      23.739   1.824  10.562  1.00  0.00    -0.201 OA
BRANCH  18  21
HETATM   21  N1  UNL     1      23.827   2.798   8.069  1.00  0.00    -0.324 N 
ATOM     22  H12 UNL     1      23.152   3.110   7.372  1.00  0.00     0.169 HD
ATOM     23  H11 UNL     1      24.680   2.259   7.916  1.00  0.00     0.169 HD
ENDBRANCH  18  21
ENDBRANCH   1  18
TORSDOF 6
ENDMDL
