MODEL 18
REMARK VINA RESULT: -6.868454375      3.155      6.296
REMARK  6 active torsions:
REMARK  status: ('A' for Active; 'I' for Inactive)
REMARK    1  A    between atoms: N1_1  and  S1_4 
REMARK    2  A    between atoms: S1_4  and  C1_7 
REMARK    3  A    between atoms: C4_12  and  S2_13 
REMARK    4  A    between atoms: S2_13  and  C5_16 
REMARK    5  A    between atoms: C5_16  and  C6_17 
REMARK    6  A    between atoms: C6_17  and  O5_18 
ROOT
HETATM    1  C1  UNL     1      26.163   6.454  13.125  1.00  0.00     0.162 A 
HETATM    2  C2  UNL     1      25.227   5.670  13.753  1.00  0.00     0.182 A 
HETATM    3  F1  UNL     1      25.098   5.807  15.094  1.00  0.00    -0.201 F 
HETATM    4  C3  UNL     1      24.430   4.766  13.072  1.00  0.00     0.181 A 
HETATM    5  F2  UNL     1      23.512   3.998  13.706  1.00  0.00    -0.201 F 
HETATM    6  C4  UNL     1      24.566   4.631  11.709  1.00  0.00     0.142 A 
HETATM    7  C7  UNL     1      25.509   5.421  11.078  1.00  0.00     0.181 A 
HETATM    8  F3  UNL     1      25.614   5.259   9.723  1.00  0.00    -0.201 F 
HETATM    9  C8  UNL     1      26.297   6.319  11.761  1.00  0.00     0.182 A 
HETATM   10  F4  UNL     1      27.218   7.078  11.084  1.00  0.00    -0.201 F 
ENDROOT
BRANCH   6  11
HETATM   11  S2  UNL     1      23.575   3.491  10.788  1.00  0.00     0.183 S 
HETATM   12  O3  UNL     1      22.672   2.746  11.717  1.00  0.00    -0.222 OA
HETATM   13  O4  UNL     1      22.789   4.230   9.746  1.00  0.00    -0.222 OA
BRANCH  11  14
HETATM   14  C5  UNL     1      24.706   2.368   9.995  1.00  0.00     0.172 C 
BRANCH  14  15
HETATM   15  C6  UNL     1      24.287   2.113   8.557  1.00  0.00     0.179 C 
BRANCH  15  16
HETATM   16  O5  UNL     1      24.751   3.124   7.715  1.00  0.00    -0.400 OA
ATOM     17  H5  UNL     1      24.684   2.864   6.804  1.00  0.00     0.209 HD
ENDBRANCH  15  16
ENDBRANCH  14  15
ENDBRANCH  11  14
ENDBRANCH   6  11
BRANCH   1  18
HETATM   18  S1  UNL     1      27.175   7.604  13.988  1.00  0.00     0.263 S 
HETATM   19  O1  UNL     1      28.635   7.352  13.637  1.00  0.00    -0.201 OA
HETATM   20  O2  UNL     1      27.031   7.482  15.465  1.00  0.00    -0.201 OA
BRANCH  18  21
HETATM   21  N1  UNL     1      26.819   9.201  13.422  1.00  0.00    -0.324 N 
ATOM     22  H12 UNL     1      27.427   9.789  12.853  1.00  0.00     0.169 HD
ATOM     23  H11 UNL     1      25.888   9.422  13.775  1.00  0.00     0.169 HD
ENDBRANCH  18  21
ENDBRANCH   1  18
TORSDOF 6
ENDMDL
