MODEL 3
REMARK VINA RESULT: -7.602365531      1.226      1.474
REMARK  6 active torsions:
REMARK  status: ('A' for Active; 'I' for Inactive)
REMARK    1  A    between atoms: N1_1  and  S1_4 
REMARK    2  A    between atoms: S1_4  and  C1_7 
REMARK    3  A    between atoms: C4_12  and  S2_13 
REMARK    4  A    between atoms: S2_13  and  C5_16 
REMARK    5  A    between atoms: C5_16  and  C6_17 
REMARK    6  A    between atoms: C6_17  and  O5_18 
ROOT
HETATM    1  C1  UNL     1      25.095   4.126  10.185  1.00  0.00     0.162 A 
HETATM    2  C2  UNL     1      26.080   4.517   9.313  1.00  0.00     0.182 A 
HETATM    3  F1  UNL     1      26.030   4.021   8.053  1.00  0.00    -0.201 F 
HETATM    4  C3  UNL     1      27.099   5.382   9.674  1.00  0.00     0.181 A 
HETATM    5  F2  UNL     1      28.064   5.758   8.803  1.00  0.00    -0.201 F 
HETATM    6  C4  UNL     1      27.143   5.882  10.956  1.00  0.00     0.142 A 
HETATM    7  C7  UNL     1      26.150   5.487  11.833  1.00  0.00     0.181 A 
HETATM    8  F3  UNL     1      26.229   6.005  13.097  1.00  0.00    -0.201 F 
HETATM    9  C8  UNL     1      25.140   4.627  11.466  1.00  0.00     0.182 A 
HETATM   10  F4  UNL     1      24.179   4.269  12.379  1.00  0.00    -0.201 F 
ENDROOT
BRANCH   6  11
HETATM   11  S2  UNL     1      28.423   6.991  11.473  1.00  0.00     0.183 S 
HETATM   12  O3  UNL     1      28.320   8.269  10.706  1.00  0.00    -0.222 OA
HETATM   13  O4  UNL     1      28.314   7.234  12.948  1.00  0.00    -0.222 OA
BRANCH  11  14
HETATM   14  C5  UNL     1      29.966   6.179  11.116  1.00  0.00     0.172 C 
BRANCH  14  15
HETATM   15  C6  UNL     1      31.107   6.844  11.867  1.00  0.00     0.179 C 
BRANCH  15  16
HETATM   16  O5  UNL     1      30.909   8.222  11.959  1.00  0.00    -0.400 OA
ATOM     17  H5  UNL     1      31.043   8.526  12.848  1.00  0.00     0.209 HD
ENDBRANCH  15  16
ENDBRANCH  14  15
ENDBRANCH  11  14
ENDBRANCH   6  11
BRANCH   1  18
HETATM   18  S1  UNL     1      23.799   3.028   9.728  1.00  0.00     0.263 S 
HETATM   19  O1  UNL     1      22.457   3.702   9.973  1.00  0.00    -0.201 OA
HETATM   20  O2  UNL     1      23.830   1.765  10.516  1.00  0.00    -0.201 OA
BRANCH  18  21
HETATM   21  N1  UNL     1      23.881   2.741   8.022  1.00  0.00    -0.324 N 
ATOM     22  H12 UNL     1      23.374   2.023   7.506  1.00  0.00     0.169 HD
ATOM     23  H11 UNL     1      24.535   3.432   7.653  1.00  0.00     0.169 HD
ENDBRANCH  18  21
ENDBRANCH   1  18
TORSDOF 6
ENDMDL
