MODEL 19
REMARK VINA RESULT: -6.825088978      2.437      5.895
REMARK  6 active torsions:
REMARK  status: ('A' for Active; 'I' for Inactive)
REMARK    1  A    between atoms: N1_1  and  S1_4 
REMARK    2  A    between atoms: S1_4  and  C1_7 
REMARK    3  A    between atoms: C4_12  and  S2_13 
REMARK    4  A    between atoms: S2_13  and  C5_16 
REMARK    5  A    between atoms: C5_16  and  C6_17 
REMARK    6  A    between atoms: C6_17  and  O5_18 
ROOT
HETATM    1  C1  UNL     1      28.065   6.720  10.488  1.00  0.00     0.162 A 
HETATM    2  C2  UNL     1      27.733   5.950   9.401  1.00  0.00     0.182 A 
HETATM    3  F1  UNL     1      28.537   6.029   8.313  1.00  0.00    -0.201 F 
HETATM    4  C3  UNL     1      26.629   5.116   9.383  1.00  0.00     0.181 A 
HETATM    5  F2  UNL     1      26.314   4.364   8.303  1.00  0.00    -0.201 F 
HETATM    6  C4  UNL     1      25.816   5.041  10.492  1.00  0.00     0.142 A 
HETATM    7  C7  UNL     1      26.151   5.817  11.586  1.00  0.00     0.181 A 
HETATM    8  F3  UNL     1      25.320   5.714  12.668  1.00  0.00    -0.201 F 
HETATM    9  C8  UNL     1      27.252   6.643  11.596  1.00  0.00     0.182 A 
HETATM   10  F4  UNL     1      27.538   7.392  12.711  1.00  0.00    -0.201 F 
ENDROOT
BRANCH   6  11
HETATM   11  S2  UNL     1      24.390   3.993  10.525  1.00  0.00     0.183 S 
HETATM   12  O3  UNL     1      23.879   3.884  11.925  1.00  0.00    -0.222 OA
HETATM   13  O4  UNL     1      23.340   4.540   9.606  1.00  0.00    -0.222 OA
BRANCH  11  14
HETATM   14  C5  UNL     1      24.924   2.400   9.938  1.00  0.00     0.172 C 
BRANCH  14  15
HETATM   15  C6  UNL     1      23.735   1.575   9.472  1.00  0.00     0.179 C 
BRANCH  15  16
HETATM   16  O5  UNL     1      22.638   1.762  10.312  1.00  0.00    -0.400 OA
ATOM     17  H5  UNL     1      21.837   1.855   9.810  1.00  0.00     0.209 HD
ENDBRANCH  15  16
ENDBRANCH  14  15
ENDBRANCH  11  14
ENDBRANCH   6  11
BRANCH   1  18
HETATM   18  S1  UNL     1      29.468   7.779  10.513  1.00  0.00     0.263 S 
HETATM   19  O1  UNL     1      29.172   8.987  11.390  1.00  0.00    -0.201 OA
HETATM   20  O2  UNL     1      29.822   8.274   9.154  1.00  0.00    -0.201 OA
BRANCH  18  21
HETATM   21  N1  UNL     1      30.785   6.951  11.274  1.00  0.00    -0.324 N 
ATOM     22  H12 UNL     1      30.740   6.412  12.138  1.00  0.00     0.169 HD
ATOM     23  H11 UNL     1      31.599   7.115  10.681  1.00  0.00     0.169 HD
ENDBRANCH  18  21
ENDBRANCH   1  18
TORSDOF 6
ENDMDL
