MODEL 3
REMARK VINA RESULT: -6.344580133      3.589      5.496
REMARK  4 active torsions:
REMARK  status: ('A' for Active; 'I' for Inactive)
REMARK    1  A    between atoms: N1_1  and  C1_5 
REMARK    2  A    between atoms: C1_5  and  C2_6 
REMARK    3  A    between atoms: C2_6  and  C3_7 
REMARK    4  A    between atoms: C8_14  and  O1_15 
ROOT
HETATM    1  C3  UNL     1      -8.310 -43.836  10.430  1.00  0.00    -0.029 A 
HETATM    2  C4  UNL     1      -9.475 -43.078  10.484  1.00  0.00     0.096 A 
HETATM    3  N2  UNL     1      -9.400 -42.220  11.517  1.00  0.00    -0.365 N 
ATOM      4  H2  UNL     1     -10.121 -41.549  11.782  1.00  0.00     0.165 HD
HETATM    5  C5  UNL     1      -8.217 -42.390  12.147  1.00  0.00     0.043 A 
HETATM    6  C6  UNL     1      -7.625 -41.792  13.251  1.00  0.00     0.033 A 
HETATM    7  C7  UNL     1      -6.377 -42.171  13.695  1.00  0.00     0.039 A 
HETATM    8  C8  UNL     1      -5.694 -43.171  13.031  1.00  0.00     0.066 A 
HETATM    9  C9  UNL     1      -6.271 -43.769  11.936  1.00  0.00     0.050 A 
HETATM   10  C10 UNL     1      -7.530 -43.384  11.491  1.00  0.00     0.001 A 
ENDROOT
BRANCH   1  11
HETATM   11  C2  UNL     1      -7.909 -44.900   9.476  1.00  0.00     0.068 C 
BRANCH  11  12
HETATM   12  C1  UNL     1      -7.939 -44.312   8.057  1.00  0.00     0.234 C 
BRANCH  12  13
HETATM   13  N1  UNL     1      -8.267 -45.356   7.134  1.00  0.00    -0.079 N 
ATOM     14  H13 UNL     1      -8.526 -44.998   6.215  1.00  0.00     0.274 HD
ATOM     15  H12 UNL     1      -7.451 -45.897   6.850  1.00  0.00     0.274 HD
ATOM     16  H11 UNL     1      -8.997 -45.938   7.546  1.00  0.00     0.274 HD
ENDBRANCH  12  13
ENDBRANCH  11  12
ENDBRANCH   1  11
BRANCH   8  17
HETATM   17  O1  UNL     1      -4.422 -43.616  13.420  1.00  0.00    -0.361 OA
ATOM     18  H1  UNL     1      -3.629 -43.118  13.259  1.00  0.00     0.217 HD
ENDBRANCH   8  17
TORSDOF 4
ENDMDL
