MODEL 1
REMARK VINA RESULT: -6.557242832      0.000      0.000
REMARK  4 active torsions:
REMARK  status: ('A' for Active; 'I' for Inactive)
REMARK    1  A    between atoms: N1_1  and  C1_5 
REMARK    2  A    between atoms: C1_5  and  C2_6 
REMARK    3  A    between atoms: C2_6  and  C3_7 
REMARK    4  A    between atoms: C8_14  and  O1_15 
ROOT
HETATM    1  C3  UNL     1     -10.315 -42.210  10.718  1.00  0.00    -0.029 A 
HETATM    2  C4  UNL     1      -9.217 -42.267  11.569  1.00  0.00     0.096 A 
HETATM    3  N2  UNL     1      -8.260 -43.029  11.010  1.00  0.00    -0.365 N 
ATOM      4  H2  UNL     1      -7.351 -43.235  11.423  1.00  0.00     0.165 HD
HETATM    5  C5  UNL     1      -8.696 -43.476   9.812  1.00  0.00     0.043 A 
HETATM    6  C6  UNL     1      -8.138 -44.284   8.830  1.00  0.00     0.033 A 
HETATM    7  C7  UNL     1      -8.824 -44.595   7.675  1.00  0.00     0.039 A 
HETATM    8  C8  UNL     1     -10.098 -44.096   7.486  1.00  0.00     0.066 A 
HETATM    9  C9  UNL     1     -10.658 -43.294   8.451  1.00  0.00     0.050 A 
HETATM   10  C10 UNL     1      -9.964 -42.982   9.614  1.00  0.00     0.001 A 
ENDROOT
BRANCH   1  11
HETATM   11  C2  UNL     1     -11.608 -41.497  10.877  1.00  0.00     0.068 C 
BRANCH  11  12
HETATM   12  C1  UNL     1     -11.361 -39.998  10.648  1.00  0.00     0.234 C 
BRANCH  12  13
HETATM   13  N1  UNL     1     -12.003 -39.609   9.428  1.00  0.00    -0.079 N 
ATOM     14  H13 UNL     1     -11.344 -39.505   8.656  1.00  0.00     0.274 HD
ATOM     15  H12 UNL     1     -12.569 -40.358   9.029  1.00  0.00     0.274 HD
ATOM     16  H11 UNL     1     -12.542 -38.761   9.598  1.00  0.00     0.274 HD
ENDBRANCH  12  13
ENDBRANCH  11  12
ENDBRANCH   1  11
BRANCH   8  17
HETATM   17  O1  UNL     1     -10.861 -44.366   6.341  1.00  0.00    -0.361 OA
ATOM     18  H1  UNL     1     -11.716 -44.779   6.375  1.00  0.00     0.217 HD
ENDBRANCH   8  17
TORSDOF 4
ENDMDL
