MODEL 2
REMARK VINA RESULT: -6.346179615      3.806      5.587
REMARK  4 active torsions:
REMARK  status: ('A' for Active; 'I' for Inactive)
REMARK    1  A    between atoms: N1_1  and  C1_5 
REMARK    2  A    between atoms: C1_5  and  C2_6 
REMARK    3  A    between atoms: C2_6  and  C3_7 
REMARK    4  A    between atoms: C8_14  and  O1_15 
ROOT
HETATM    1  C3  UNL     1      -6.620 -42.411  13.744  1.00  0.00    -0.029 A 
HETATM    2  C4  UNL     1      -6.216 -43.727  13.550  1.00  0.00     0.096 A 
HETATM    3  N2  UNL     1      -6.980 -44.292  12.598  1.00  0.00    -0.365 N 
ATOM      4  H2  UNL     1      -6.895 -45.251  12.263  1.00  0.00     0.165 HD
HETATM    5  C5  UNL     1      -7.878 -43.384  12.158  1.00  0.00     0.043 A 
HETATM    6  C6  UNL     1      -8.892 -43.421  11.209  1.00  0.00     0.033 A 
HETATM    7  C7  UNL     1      -9.684 -42.323  10.956  1.00  0.00     0.039 A 
HETATM    8  C8  UNL     1      -9.472 -41.154  11.661  1.00  0.00     0.066 A 
HETATM    9  C9  UNL     1      -8.471 -41.107  12.601  1.00  0.00     0.050 A 
HETATM   10  C10 UNL     1      -7.673 -42.216  12.854  1.00  0.00     0.001 A 
ENDROOT
BRANCH   1  11
HETATM   11  C2  UNL     1      -6.090 -41.377  14.669  1.00  0.00     0.068 C 
BRANCH  11  12
HETATM   12  C1  UNL     1      -4.834 -41.940  15.351  1.00  0.00     0.234 C 
BRANCH  12  13
HETATM   13  N1  UNL     1      -3.809 -40.940  15.321  1.00  0.00    -0.079 N 
ATOM     14  H13 UNL     1      -3.529 -40.696  14.371  1.00  0.00     0.274 HD
ATOM     15  H12 UNL     1      -4.150 -40.023  15.607  1.00  0.00     0.274 HD
ATOM     16  H11 UNL     1      -3.025 -41.259  15.889  1.00  0.00     0.274 HD
ENDBRANCH  12  13
ENDBRANCH  11  12
ENDBRANCH   1  11
BRANCH   8  17
HETATM   17  O1  UNL     1     -10.235 -39.994  11.463  1.00  0.00    -0.361 OA
ATOM     18  H1  UNL     1      -9.848 -39.147  11.272  1.00  0.00     0.217 HD
ENDBRANCH   8  17
TORSDOF 4
ENDMDL
