MODEL 4
REMARK VINA RESULT: -6.260871159      3.763      5.021
REMARK  4 active torsions:
REMARK  status: ('A' for Active; 'I' for Inactive)
REMARK    1  A    between atoms: N1_1  and  C1_5 
REMARK    2  A    between atoms: C1_5  and  C2_6 
REMARK    3  A    between atoms: C2_6  and  C3_7 
REMARK    4  A    between atoms: C8_14  and  O1_15 
ROOT
HETATM    1  C3  UNL     1      -8.911 -42.748  11.463  1.00  0.00    -0.029 A 
HETATM    2  C4  UNL     1      -8.659 -43.908  10.740  1.00  0.00     0.096 A 
HETATM    3  N2  UNL     1      -7.570 -44.518  11.241  1.00  0.00    -0.365 N 
ATOM      4  H2  UNL     1      -7.168 -45.389  10.895  1.00  0.00     0.165 HD
HETATM    5  C5  UNL     1      -7.096 -43.792  12.277  1.00  0.00     0.043 A 
HETATM    6  C6  UNL     1      -6.018 -43.943  13.139  1.00  0.00     0.033 A 
HETATM    7  C7  UNL     1      -5.753 -43.025  14.132  1.00  0.00     0.039 A 
HETATM    8  C8  UNL     1      -6.574 -41.924  14.277  1.00  0.00     0.066 A 
HETATM    9  C9  UNL     1      -7.645 -41.766  13.429  1.00  0.00     0.050 A 
HETATM   10  C10 UNL     1      -7.910 -42.694  12.429  1.00  0.00     0.001 A 
ENDROOT
BRANCH   1  11
HETATM   11  C2  UNL     1      -9.993 -41.743  11.307  1.00  0.00     0.068 C 
BRANCH  11  12
HETATM   12  C1  UNL     1     -10.784 -42.081  10.035  1.00  0.00     0.234 C 
BRANCH  12  13
HETATM   13  N1  UNL     1     -11.448 -40.897   9.579  1.00  0.00    -0.079 N 
ATOM     14  H13 UNL     1     -11.026 -40.046   9.950  1.00  0.00     0.274 HD
ATOM     15  H12 UNL     1     -11.285 -40.714   8.589  1.00  0.00     0.274 HD
ATOM     16  H11 UNL     1     -12.440 -40.971   9.804  1.00  0.00     0.274 HD
ENDBRANCH  12  13
ENDBRANCH  11  12
ENDBRANCH   1  11
BRANCH   8  17
HETATM   17  O1  UNL     1      -6.373 -40.945  15.260  1.00  0.00    -0.361 OA
ATOM     18  H1  UNL     1      -7.014 -40.747  15.933  1.00  0.00     0.217 HD
ENDBRANCH   8  17
TORSDOF 4
ENDMDL
