MODEL 6
REMARK VINA RESULT: -10.239644827      2.513      6.299
REMARK  7 active torsions:
REMARK  status: ('A' for Active; 'I' for Inactive)
REMARK    1  A    between atoms: C6_9  and  C7_10 
REMARK    2  A    between atoms: C7_10  and  C8_11 
REMARK    3  A    between atoms: C8_11  and  O1_12 
REMARK    4  A    between atoms: O1_12  and  C9_13 
REMARK    5  A    between atoms: C10_14  and  C11_15 
REMARK    6  A    between atoms: C17_21  and  C18_22 
REMARK    7  A    between atoms: C18_22  and  N3_23 
ROOT
HETATM    1  C9  UNL     1     -19.697   6.915  -7.458  1.00  0.00     0.121 A 
HETATM    2  C10 UNL     1     -19.142   5.748  -6.991  1.00  0.00     0.011 A 
HETATM    3  C22 UNL     1     -18.209   5.794  -5.965  1.00  0.00     0.018 A 
HETATM    4  C23 UNL     1     -17.866   7.020  -5.444  1.00  0.00     0.046 A 
HETATM    5  C24 UNL     1     -18.413   8.209  -5.899  1.00  0.00     0.157 A 
HETATM    6  F1  UNL     1     -18.030   9.384  -5.340  1.00  0.00    -0.203 F 
HETATM    7  C25 UNL     1     -19.338   8.128  -6.919  1.00  0.00     0.188 A 
HETATM    8  F2  UNL     1     -19.868   9.295  -7.358  1.00  0.00    -0.200 F 
ENDROOT
BRANCH   2   9
HETATM    9  C11 UNL     1     -19.573   4.501  -7.613  1.00  0.00    -0.022 A 
HETATM   10  C12 UNL     1     -20.250   3.511  -6.930  1.00  0.00     0.014 A 
HETATM   11  C13 UNL     1     -20.659   2.333  -7.520  1.00  0.00     0.033 A 
HETATM   12  C14 UNL     1     -20.401   2.092  -8.852  1.00  0.00     0.062 A 
HETATM   13  C15 UNL     1     -19.724   3.067  -9.559  1.00  0.00     0.019 A 
HETATM   14  N5  UNL     1     -20.686   1.043  -9.654  1.00  0.00    -0.296 N 
HETATM   15  C16 UNL     1     -19.321   4.240  -8.956  1.00  0.00     0.028 A 
HETATM   16  C17 UNL     1     -19.612   2.556 -10.835  1.00  0.00     0.066 A 
HETATM   17  N4  UNL     1     -20.198   1.354 -10.839  1.00  0.00    -0.300 N 
ATOM     18  H4  UNL     1     -20.259   0.751 -11.660  1.00  0.00     0.187 HD
HETATM   19  C21 UNL     1     -21.394  -0.191  -9.284  1.00  0.00     0.178 C 
BRANCH  16  20
HETATM   20  C18 UNL     1     -18.954   3.254 -11.963  1.00  0.00     0.330 C 
BRANCH  20  21
HETATM   21  N3  UNL     1     -19.878   3.876 -12.857  1.00  0.00     0.085 N 
HETATM   22  C19 UNL     1     -19.555   3.583 -14.232  1.00  0.00     0.309 C 
HETATM   23  C20 UNL     1     -20.115   5.267 -12.640  1.00  0.00     0.309 C 
ENDBRANCH  20  21
ENDBRANCH  16  20
ENDBRANCH   2   9
BRANCH   1  24
HETATM   24  O1  UNL     1     -20.623   6.848  -8.478  1.00  0.00    -0.347 OA
BRANCH  24  25
HETATM   25  C8  UNL     1     -20.258   7.407  -9.724  1.00  0.00     0.180 C 
BRANCH  25  26
HETATM   26  C7  UNL     1     -21.211   8.500 -10.152  1.00  0.00     0.069 C 
BRANCH  26  27
HETATM   27  C6  UNL     1     -20.685   9.167 -11.384  1.00  0.00    -0.009 A 
HETATM   28  C2  UNL     1     -19.593  10.004 -11.452  1.00  0.00     0.030 A 
HETATM   29  C1  UNL     1     -18.715  10.404 -10.296  1.00  0.00     0.070 C 
HETATM   30  N1  UNL     1     -19.481  10.373 -12.731  1.00  0.00    -0.303 N 
HETATM   31  N2  UNL     1     -20.421   9.833 -13.475  1.00  0.00    -0.300 N 
ATOM     32  H1  UNL     1     -18.757  10.997 -13.087  1.00  0.00     0.186 HD
HETATM   33  C3  UNL     1     -20.584  10.029 -14.901  1.00  0.00     0.177 C 
HETATM   34  C4  UNL     1     -21.177   9.083 -12.667  1.00  0.00     0.032 A 
HETATM   35  C5  UNL     1     -22.358   8.292 -13.095  1.00  0.00     0.070 C 
ENDBRANCH  26  27
ENDBRANCH  25  26
ENDBRANCH  24  25
ENDBRANCH   1  24
TORSDOF 7
ENDMDL
