MODEL 1
REMARK VINA RESULT: -10.647351421      0.000      0.000
REMARK  7 active torsions:
REMARK  status: ('A' for Active; 'I' for Inactive)
REMARK    1  A    between atoms: C6_9  and  C7_10 
REMARK    2  A    between atoms: C7_10  and  C8_11 
REMARK    3  A    between atoms: C8_11  and  O1_12 
REMARK    4  A    between atoms: O1_12  and  C9_13 
REMARK    5  A    between atoms: C10_14  and  C11_15 
REMARK    6  A    between atoms: C17_21  and  C18_22 
REMARK    7  A    between atoms: C18_22  and  N3_23 
ROOT
HETATM    1  C9  UNL     1     -19.139   4.490  -6.921  1.00  0.00     0.121 A 
HETATM    2  C10 UNL     1     -18.744   5.494  -7.772  1.00  0.00     0.011 A 
HETATM    3  C22 UNL     1     -18.121   6.623  -7.258  1.00  0.00     0.018 A 
HETATM    4  C23 UNL     1     -17.918   6.700  -5.899  1.00  0.00     0.046 A 
HETATM    5  C24 UNL     1     -18.308   5.699  -5.024  1.00  0.00     0.157 A 
HETATM    6  F1  UNL     1     -18.077   5.839  -3.695  1.00  0.00    -0.203 F 
HETATM    7  C25 UNL     1     -18.924   4.591  -5.567  1.00  0.00     0.188 A 
HETATM    8  F2  UNL     1     -19.302   3.617  -4.705  1.00  0.00    -0.200 F 
ENDROOT
BRANCH   2   9
HETATM    9  C11 UNL     1     -19.007   5.315  -9.195  1.00  0.00    -0.022 A 
HETATM   10  C12 UNL     1     -18.690   4.161  -9.882  1.00  0.00     0.014 A 
HETATM   11  C13 UNL     1     -18.941   3.991 -11.227  1.00  0.00     0.033 A 
HETATM   12  C14 UNL     1     -19.536   4.996 -11.960  1.00  0.00     0.062 A 
HETATM   13  C15 UNL     1     -19.863   6.162 -11.295  1.00  0.00     0.019 A 
HETATM   14  N5  UNL     1     -19.883   5.083 -13.262  1.00  0.00    -0.296 N 
HETATM   15  C16 UNL     1     -19.606   6.318  -9.950  1.00  0.00     0.028 A 
HETATM   16  C17 UNL     1     -20.429   6.966 -12.264  1.00  0.00     0.066 A 
HETATM   17  N4  UNL     1     -20.417   6.280 -13.412  1.00  0.00    -0.300 N 
ATOM     18  H4  UNL     1     -20.777   6.639 -14.296  1.00  0.00     0.187 HD
HETATM   19  C21 UNL     1     -19.704   4.057 -14.300  1.00  0.00     0.178 C 
BRANCH  16  20
HETATM   20  C18 UNL     1     -20.944   8.333 -12.023  1.00  0.00     0.330 C 
BRANCH  20  21
HETATM   21  N3  UNL     1     -19.953   9.346 -12.192  1.00  0.00     0.085 N 
HETATM   22  C19 UNL     1     -19.509   9.862 -10.920  1.00  0.00     0.309 C 
HETATM   23  C20 UNL     1     -20.275  10.386 -13.115  1.00  0.00     0.309 C 
ENDBRANCH  20  21
ENDBRANCH  16  20
ENDBRANCH   2   9
BRANCH   1  24
HETATM   24  O1  UNL     1     -19.756   3.376  -7.451  1.00  0.00    -0.347 OA
BRANCH  24  25
HETATM   25  C8  UNL     1     -21.128   3.195  -7.162  1.00  0.00     0.180 C 
BRANCH  25  26
HETATM   26  C7  UNL     1     -21.540   1.744  -7.273  1.00  0.00     0.069 C 
BRANCH  26  27
HETATM   27  C6  UNL     1     -22.933   1.659  -7.814  1.00  0.00    -0.009 A 
HETATM   28  C2  UNL     1     -24.083   1.496  -7.073  1.00  0.00     0.030 A 
HETATM   29  C1  UNL     1     -24.157   1.376  -5.575  1.00  0.00     0.070 C 
HETATM   30  N1  UNL     1     -25.092   1.470  -7.948  1.00  0.00    -0.303 N 
HETATM   31  N2  UNL     1     -24.666   1.604  -9.184  1.00  0.00    -0.300 N 
ATOM     32  H1  UNL     1     -26.073   1.361  -7.689  1.00  0.00     0.186 HD
HETATM   33  C3  UNL     1     -25.501   1.618 -10.368  1.00  0.00     0.177 C 
HETATM   34  C4  UNL     1     -23.336   1.723  -9.129  1.00  0.00     0.032 A 
HETATM   35  C5  UNL     1     -22.444   1.894 -10.304  1.00  0.00     0.070 C 
ENDBRANCH  26  27
ENDBRANCH  25  26
ENDBRANCH  24  25
ENDBRANCH   1  24
TORSDOF 7
ENDMDL
