MODEL 8
REMARK VINA RESULT: -10.180086038      3.551      7.938
REMARK  7 active torsions:
REMARK  status: ('A' for Active; 'I' for Inactive)
REMARK    1  A    between atoms: C6_9  and  C7_10 
REMARK    2  A    between atoms: C7_10  and  C8_11 
REMARK    3  A    between atoms: C8_11  and  O1_12 
REMARK    4  A    between atoms: O1_12  and  C9_13 
REMARK    5  A    between atoms: C10_14  and  C11_15 
REMARK    6  A    between atoms: C17_21  and  C18_22 
REMARK    7  A    between atoms: C18_22  and  N3_23 
ROOT
HETATM    1  C9  UNL     1     -19.915   5.244 -11.792  1.00  0.00     0.121 A 
HETATM    2  C10 UNL     1     -19.130   4.332 -11.128  1.00  0.00     0.011 A 
HETATM    3  C22 UNL     1     -18.482   3.334 -11.843  1.00  0.00     0.018 A 
HETATM    4  C23 UNL     1     -18.648   3.291 -13.208  1.00  0.00     0.046 A 
HETATM    5  C24 UNL     1     -19.434   4.200 -13.898  1.00  0.00     0.157 A 
HETATM    6  F1  UNL     1     -19.554   4.100 -15.245  1.00  0.00    -0.203 F 
HETATM    7  C25 UNL     1     -20.064   5.179 -13.158  1.00  0.00     0.188 A 
HETATM    8  F2  UNL     1     -20.830   6.064 -13.840  1.00  0.00    -0.200 F 
ENDROOT
BRANCH   2   9
HETATM    9  C11 UNL     1     -19.021   4.465  -9.680  1.00  0.00    -0.022 A 
HETATM   10  C12 UNL     1     -18.282   5.456  -9.066  1.00  0.00     0.014 A 
HETATM   11  C13 UNL     1     -18.181   5.582  -7.697  1.00  0.00     0.033 A 
HETATM   12  C14 UNL     1     -18.833   4.699  -6.863  1.00  0.00     0.062 A 
HETATM   13  C15 UNL     1     -19.581   3.698  -7.452  1.00  0.00     0.019 A 
HETATM   14  N5  UNL     1     -18.898   4.604  -5.518  1.00  0.00    -0.296 N 
HETATM   15  C16 UNL     1     -19.672   3.583  -8.823  1.00  0.00     0.028 A 
HETATM   16  C17 UNL     1     -20.103   2.986  -6.393  1.00  0.00     0.066 A 
HETATM   17  N4  UNL     1     -19.668   3.563  -5.267  1.00  0.00    -0.300 N 
ATOM     18  H4  UNL     1     -19.904   3.238  -4.330  1.00  0.00     0.187 HD
HETATM   19  C21 UNL     1     -18.243   5.478  -4.532  1.00  0.00     0.178 C 
BRANCH  16  20
HETATM   20  C18 UNL     1     -20.984   1.804  -6.529  1.00  0.00     0.330 C 
BRANCH  20  21
HETATM   21  N3  UNL     1     -22.353   2.085  -6.236  1.00  0.00     0.085 N 
HETATM   22  C19 UNL     1     -22.803   1.351  -5.079  1.00  0.00     0.309 C 
HETATM   23  C20 UNL     1     -23.261   1.975  -7.333  1.00  0.00     0.309 C 
ENDBRANCH  20  21
ENDBRANCH  16  20
ENDBRANCH   2   9
BRANCH   1  24
HETATM   24  O1  UNL     1     -20.550   6.227 -11.064  1.00  0.00    -0.347 OA
BRANCH  24  25
HETATM   25  C8  UNL     1     -20.583   7.527 -11.620  1.00  0.00     0.180 C 
BRANCH  25  26
HETATM   26  C7  UNL     1     -21.243   8.520 -10.690  1.00  0.00     0.069 C 
BRANCH  26  27
HETATM   27  C6  UNL     1     -20.308   8.854  -9.569  1.00  0.00    -0.009 A 
HETATM   28  C2  UNL     1     -19.222   9.699  -9.643  1.00  0.00     0.030 A 
HETATM   29  C1  UNL     1     -18.770  10.451 -10.866  1.00  0.00     0.070 C 
HETATM   30  N1  UNL     1     -18.671   9.707  -8.425  1.00  0.00    -0.303 N 
HETATM   31  N2  UNL     1     -19.328   8.933  -7.591  1.00  0.00    -0.300 N 
ATOM     32  H1  UNL     1     -17.844  10.249  -8.175  1.00  0.00     0.186 HD
HETATM   33  C3  UNL     1     -18.993   8.719  -6.197  1.00  0.00     0.177 C 
HETATM   34  C4  UNL     1     -20.344   8.395  -8.273  1.00  0.00     0.032 A 
HETATM   35  C5  UNL     1     -21.343   7.451  -7.712  1.00  0.00     0.070 C 
ENDBRANCH  26  27
ENDBRANCH  25  26
ENDBRANCH  24  25
ENDBRANCH   1  24
TORSDOF 7
ENDMDL
