MODEL 4
REMARK VINA RESULT: -10.293862280      0.687      1.666
REMARK  7 active torsions:
REMARK  status: ('A' for Active; 'I' for Inactive)
REMARK    1  A    between atoms: C6_9  and  C7_10 
REMARK    2  A    between atoms: C7_10  and  C8_11 
REMARK    3  A    between atoms: C8_11  and  O1_12 
REMARK    4  A    between atoms: O1_12  and  C9_13 
REMARK    5  A    between atoms: C10_14  and  C11_15 
REMARK    6  A    between atoms: C17_21  and  C18_22 
REMARK    7  A    between atoms: C18_22  and  N3_23 
ROOT
HETATM    1  C9  UNL     1     -19.031   4.633  -6.891  1.00  0.00     0.121 A 
HETATM    2  C10 UNL     1     -18.732   5.724  -7.671  1.00  0.00     0.011 A 
HETATM    3  C22 UNL     1     -18.185   6.857  -7.085  1.00  0.00     0.018 A 
HETATM    4  C23 UNL     1     -17.959   6.851  -5.729  1.00  0.00     0.046 A 
HETATM    5  C24 UNL     1     -18.253   5.762  -4.923  1.00  0.00     0.157 A 
HETATM    6  F1  UNL     1     -18.004   5.823  -3.592  1.00  0.00    -0.203 F 
HETATM    7  C25 UNL     1     -18.794   4.652  -5.537  1.00  0.00     0.188 A 
HETATM    8  F2  UNL     1     -19.078   3.591  -4.743  1.00  0.00    -0.200 F 
ENDROOT
BRANCH   2   9
HETATM    9  C11 UNL     1     -19.012   5.628  -9.099  1.00  0.00    -0.022 A 
HETATM   10  C12 UNL     1     -18.541   4.603  -9.894  1.00  0.00     0.014 A 
HETATM   11  C13 UNL     1     -18.808   4.513 -11.244  1.00  0.00     0.033 A 
HETATM   12  C14 UNL     1     -19.577   5.470 -11.871  1.00  0.00     0.062 A 
HETATM   13  C15 UNL     1     -20.060   6.507 -11.097  1.00  0.00     0.019 A 
HETATM   14  N5  UNL     1     -19.978   5.613 -13.152  1.00  0.00    -0.296 N 
HETATM   15  C16 UNL     1     -19.786   6.585  -9.748  1.00  0.00     0.028 A 
HETATM   16  C17 UNL     1     -20.778   7.291 -11.977  1.00  0.00     0.066 A 
HETATM   17  N4  UNL     1     -20.697   6.718 -13.183  1.00  0.00    -0.300 N 
ATOM     18  H4  UNL     1     -21.139   7.090 -14.024  1.00  0.00     0.187 HD
HETATM   19  C21 UNL     1     -19.675   4.722 -14.283  1.00  0.00     0.178 C 
BRANCH  16  20
HETATM   20  C18 UNL     1     -21.492   8.533 -11.604  1.00  0.00     0.330 C 
BRANCH  20  21
HETATM   21  N3  UNL     1     -20.752   9.718 -11.896  1.00  0.00     0.085 N 
HETATM   22  C19 UNL     1     -20.641   9.930 -13.319  1.00  0.00     0.309 C 
HETATM   23  C20 UNL     1     -19.497   9.850 -11.229  1.00  0.00     0.309 C 
ENDBRANCH  20  21
ENDBRANCH  16  20
ENDBRANCH   2   9
BRANCH   1  24
HETATM   24  O1  UNL     1     -19.573   3.516  -7.492  1.00  0.00    -0.347 OA
BRANCH  24  25
HETATM   25  C8  UNL     1     -20.907   3.186  -7.164  1.00  0.00     0.180 C 
BRANCH  25  26
HETATM   26  C7  UNL     1     -21.210   1.729  -7.436  1.00  0.00     0.069 C 
BRANCH  26  27
HETATM   27  C6  UNL     1     -22.228   1.624  -8.528  1.00  0.00    -0.009 A 
HETATM   28  C2  UNL     1     -21.965   1.521  -9.876  1.00  0.00     0.030 A 
HETATM   29  C1  UNL     1     -20.599   1.489 -10.509  1.00  0.00     0.070 C 
HETATM   30  N1  UNL     1     -23.152   1.455 -10.486  1.00  0.00    -0.303 N 
HETATM   31  N2  UNL     1     -24.143   1.510  -9.625  1.00  0.00    -0.300 N 
ATOM     32  H1  UNL     1     -23.274   1.372 -11.495  1.00  0.00     0.186 HD
HETATM   33  C3  UNL     1     -25.553   1.463  -9.957  1.00  0.00     0.177 C 
HETATM   34  C4  UNL     1     -23.599   1.614  -8.408  1.00  0.00     0.032 A 
HETATM   35  C5  UNL     1     -24.361   1.705  -7.137  1.00  0.00     0.070 C 
ENDBRANCH  26  27
ENDBRANCH  25  26
ENDBRANCH  24  25
ENDBRANCH   1  24
TORSDOF 7
ENDMDL
