MODEL 3
REMARK VINA RESULT: -10.403368276      1.059      1.095
REMARK  7 active torsions:
REMARK  status: ('A' for Active; 'I' for Inactive)
REMARK    1  A    between atoms: C6_9  and  C7_10 
REMARK    2  A    between atoms: C7_10  and  C8_11 
REMARK    3  A    between atoms: C8_11  and  O1_12 
REMARK    4  A    between atoms: O1_12  and  C9_13 
REMARK    5  A    between atoms: C10_14  and  C11_15 
REMARK    6  A    between atoms: C17_21  and  C18_22 
REMARK    7  A    between atoms: C18_22  and  N3_23 
ROOT
HETATM    1  C9  UNL     1     -19.607   4.229  -7.468  1.00  0.00     0.121 A 
HETATM    2  C10 UNL     1     -18.872   5.031  -8.306  1.00  0.00     0.011 A 
HETATM    3  C22 UNL     1     -17.948   5.919  -7.772  1.00  0.00     0.018 A 
HETATM    4  C23 UNL     1     -17.798   5.967  -6.406  1.00  0.00     0.046 A 
HETATM    5  C24 UNL     1     -18.529   5.167  -5.542  1.00  0.00     0.157 A 
HETATM    6  F1  UNL     1     -18.330   5.265  -4.204  1.00  0.00    -0.203 F 
HETATM    7  C25 UNL     1     -19.437   4.296  -6.105  1.00  0.00     0.188 A 
HETATM    8  F2  UNL     1     -20.148   3.517  -5.253  1.00  0.00    -0.200 F 
ENDROOT
BRANCH   2   9
HETATM    9  C11 UNL     1     -19.108   4.903  -9.740  1.00  0.00    -0.022 A 
HETATM   10  C12 UNL     1     -18.752   3.785 -10.467  1.00  0.00     0.014 A 
HETATM   11  C13 UNL     1     -18.979   3.664 -11.822  1.00  0.00     0.033 A 
HETATM   12  C14 UNL     1     -19.586   4.684 -12.524  1.00  0.00     0.062 A 
HETATM   13  C15 UNL     1     -19.952   5.814 -11.819  1.00  0.00     0.019 A 
HETATM   14  N5  UNL     1     -19.915   4.815 -13.827  1.00  0.00    -0.296 N 
HETATM   15  C16 UNL     1     -19.720   5.922 -10.464  1.00  0.00     0.028 A 
HETATM   16  C17 UNL     1     -20.522   6.642 -12.763  1.00  0.00     0.066 A 
HETATM   17  N4  UNL     1     -20.475   6.004 -13.938  1.00  0.00    -0.300 N 
ATOM     18  H4  UNL     1     -20.830   6.390 -14.813  1.00  0.00     0.187 HD
HETATM   19  C21 UNL     1     -19.695   3.837 -14.902  1.00  0.00     0.178 C 
BRANCH  16  20
HETATM   20  C18 UNL     1     -21.073   7.986 -12.477  1.00  0.00     0.330 C 
BRANCH  20  21
HETATM   21  N3  UNL     1     -20.097   9.025 -12.558  1.00  0.00     0.085 N 
HETATM   22  C19 UNL     1     -19.814   9.580 -11.257  1.00  0.00     0.309 C 
HETATM   23  C20 UNL     1     -20.342  10.035 -13.537  1.00  0.00     0.309 C 
ENDBRANCH  20  21
ENDBRANCH  16  20
ENDBRANCH   2   9
BRANCH   1  24
HETATM   24  O1  UNL     1     -20.519   3.353  -8.018  1.00  0.00    -0.347 OA
BRANCH  24  25
HETATM   25  C8  UNL     1     -20.418   1.993  -7.647  1.00  0.00     0.180 C 
BRANCH  25  26
HETATM   26  C7  UNL     1     -20.705   1.069  -8.810  1.00  0.00     0.069 C 
BRANCH  26  27
HETATM   27  C6  UNL     1     -22.185   0.951  -9.001  1.00  0.00    -0.009 A 
HETATM   28  C2  UNL     1     -23.029   0.114  -8.305  1.00  0.00     0.030 A 
HETATM   29  C1  UNL     1     -22.624  -0.840  -7.214  1.00  0.00     0.070 C 
HETATM   30  N1  UNL     1     -24.255   0.328  -8.793  1.00  0.00    -0.303 N 
HETATM   31  N2  UNL     1     -24.247   1.236  -9.744  1.00  0.00    -0.300 N 
ATOM     32  H1  UNL     1     -25.093  -0.153  -8.468  1.00  0.00     0.186 HD
HETATM   33  C3  UNL     1     -25.407   1.698 -10.479  1.00  0.00     0.177 C 
HETATM   34  C4  UNL     1     -22.980   1.637  -9.891  1.00  0.00     0.032 A 
HETATM   35  C5  UNL     1     -22.516   2.658 -10.864  1.00  0.00     0.070 C 
ENDBRANCH  26  27
ENDBRANCH  25  26
ENDBRANCH  24  25
ENDBRANCH   1  24
TORSDOF 7
ENDMDL
