MODEL 7
REMARK VINA RESULT: -10.181739137      2.378      7.100
REMARK  7 active torsions:
REMARK  status: ('A' for Active; 'I' for Inactive)
REMARK    1  A    between atoms: C6_9  and  C7_10 
REMARK    2  A    between atoms: C7_10  and  C8_11 
REMARK    3  A    between atoms: C8_11  and  O1_12 
REMARK    4  A    between atoms: O1_12  and  C9_13 
REMARK    5  A    between atoms: C10_14  and  C11_15 
REMARK    6  A    between atoms: C17_21  and  C18_22 
REMARK    7  A    between atoms: C18_22  and  N3_23 
ROOT
HETATM    1  C9  UNL     1     -19.724   6.565  -7.675  1.00  0.00     0.121 A 
HETATM    2  C10 UNL     1     -19.155   5.356  -7.354  1.00  0.00     0.011 A 
HETATM    3  C22 UNL     1     -18.228   5.286  -6.323  1.00  0.00     0.018 A 
HETATM    4  C23 UNL     1     -17.906   6.441  -5.649  1.00  0.00     0.046 A 
HETATM    5  C24 UNL     1     -18.468   7.670  -5.956  1.00  0.00     0.157 A 
HETATM    6  F1  UNL     1     -18.105   8.771  -5.251  1.00  0.00    -0.203 F 
HETATM    7  C25 UNL     1     -19.385   7.705  -6.985  1.00  0.00     0.188 A 
HETATM    8  F2  UNL     1     -19.929   8.911  -7.279  1.00  0.00    -0.200 F 
ENDROOT
BRANCH   2   9
HETATM    9  C11 UNL     1     -19.564   4.191  -8.131  1.00  0.00    -0.022 A 
HETATM   10  C12 UNL     1     -19.248   4.023  -9.463  1.00  0.00     0.014 A 
HETATM   11  C13 UNL     1     -19.634   2.920 -10.196  1.00  0.00     0.033 A 
HETATM   12  C14 UNL     1     -20.372   1.914  -9.610  1.00  0.00     0.062 A 
HETATM   13  C15 UNL     1     -20.702   2.059  -8.276  1.00  0.00     0.019 A 
HETATM   14  N5  UNL     1     -20.866   0.755 -10.094  1.00  0.00    -0.296 N 
HETATM   15  C16 UNL     1     -20.310   3.167  -7.556  1.00  0.00     0.028 A 
HETATM   16  C17 UNL     1     -21.426   0.924  -7.974  1.00  0.00     0.066 A 
HETATM   17  N4  UNL     1     -21.495   0.184  -9.085  1.00  0.00    -0.300 N 
ATOM     18  H4  UNL     1     -21.976  -0.714  -9.145  1.00  0.00     0.187 HD
HETATM   19  C21 UNL     1     -20.734   0.235 -11.463  1.00  0.00     0.178 C 
BRANCH  16  20
HETATM   20  C18 UNL     1     -21.999   0.626  -6.642  1.00  0.00     0.330 C 
BRANCH  20  21
HETATM   21  N3  UNL     1     -23.299   1.183  -6.450  1.00  0.00     0.085 N 
HETATM   22  C19 UNL     1     -23.556   1.446  -5.055  1.00  0.00     0.309 C 
HETATM   23  C20 UNL     1     -24.376   0.486  -7.077  1.00  0.00     0.309 C 
ENDBRANCH  20  21
ENDBRANCH  16  20
ENDBRANCH   2   9
BRANCH   1  24
HETATM   24  O1  UNL     1     -20.642   6.614  -8.702  1.00  0.00    -0.347 OA
BRANCH  24  25
HETATM   25  C8  UNL     1     -20.254   7.276  -9.889  1.00  0.00     0.180 C 
BRANCH  25  26
HETATM   26  C7  UNL     1     -21.165   8.440 -10.209  1.00  0.00     0.069 C 
BRANCH  26  27
HETATM   27  C6  UNL     1     -20.661   9.151 -11.426  1.00  0.00    -0.009 A 
HETATM   28  C2  UNL     1     -19.592  10.019 -11.474  1.00  0.00     0.030 A 
HETATM   29  C1  UNL     1     -18.724  10.416 -10.310  1.00  0.00     0.070 C 
HETATM   30  N1  UNL     1     -19.494  10.422 -12.744  1.00  0.00    -0.303 N 
HETATM   31  N2  UNL     1     -20.419   9.873 -13.500  1.00  0.00    -0.300 N 
ATOM     32  H1  UNL     1     -18.787  11.074 -13.086  1.00  0.00     0.186 HD
HETATM   33  C3  UNL     1     -20.590  10.098 -14.921  1.00  0.00     0.177 C 
HETATM   34  C4  UNL     1     -21.152   9.084 -12.709  1.00  0.00     0.032 A 
HETATM   35  C5  UNL     1     -22.312   8.270 -13.155  1.00  0.00     0.070 C 
ENDBRANCH  26  27
ENDBRANCH  25  26
ENDBRANCH  24  25
ENDBRANCH   1  24
TORSDOF 7
ENDMDL
