MODEL 3
REMARK VINA RESULT: -10.056948637      4.784     12.796
REMARK  10 active torsions:
REMARK  status: ('A' for Active; 'I' for Inactive)
REMARK    1  A    between atoms: C6_8  and  C7_9 
REMARK    2  A    between atoms: C12_16  and  N2_17 
REMARK       I    between atoms: N2_17  and  C13_19 
REMARK       I    between atoms: C13_19  and  N3_21 
REMARK    3  A    between atoms: N3_21  and  C14_23 
REMARK    4  A    between atoms: C14_23  and  C15_24 
REMARK       I    between atoms: C15_24  and  N4_26 
REMARK    5  A    between atoms: N4_26  and  C16_28 
REMARK    6  A    between atoms: C16_28  and  C17_29 
REMARK    7  A    between atoms: C17_29  and  C18_30 
REMARK    8  A    between atoms: C18_30  and  N5_31 
REMARK    9  A    between atoms: N5_31  and  C20_33 
REMARK   10  A    between atoms: N6_37  and  C24_38 
ROOT
HETATM    1  C15 UNL     1      34.303  -6.530   9.113  1.00  0.00     0.235 C 
HETATM    2  O2  UNL     1      33.267  -6.018   8.612  1.00  0.00    -0.272 OA
HETATM    3  N4  UNL     1      34.208  -7.736   9.868  1.00  0.00    -0.359 N 
ATOM      4  H4  UNL     1      35.060  -8.133  10.264  1.00  0.00     0.162 HD
ENDROOT
BRANCH   1   5
HETATM    5  C14 UNL     1      35.628  -5.892   8.931  1.00  0.00     0.227 C 
BRANCH   5   6
HETATM    6  N3  UNL     1      36.032  -5.122  10.090  1.00  0.00    -0.334 N 
HETATM    7  C13 UNL     1      36.595  -5.790  11.248  1.00  0.00     0.321 C 
HETATM    8  N2  UNL     1      36.997  -5.094  12.378  1.00  0.00    -0.309 N 
HETATM    9  O1  UNL     1      36.694  -7.021  11.167  1.00  0.00    -0.247 OA
ATOM     10  H2  UNL     1      36.888  -4.080  12.364  1.00  0.00     0.170 HD
ATOM     11  H3  UNL     1      35.919  -4.109  10.091  1.00  0.00     0.164 HD
BRANCH   8  12
HETATM   12  C12 UNL     1      37.557  -5.682  13.574  1.00  0.00     0.037 A 
HETATM   13  C11 UNL     1      38.842  -6.169  13.601  1.00  0.00     0.031 A 
HETATM   14  C10 UNL     1      39.305  -6.670  14.805  1.00  0.00     0.022 A 
HETATM   15  C9  UNL     1      38.506  -6.687  15.960  1.00  0.00     0.017 A 
HETATM   16  S1  UNL     1      38.732  -7.201  17.572  1.00  0.00    -0.076 SA
HETATM   17  C32 UNL     1      37.224  -6.207  15.949  1.00  0.00    -0.004 A 
HETATM   18  C8  UNL     1      37.202  -6.797  18.193  1.00  0.00     0.087 A 
HETATM   19  C7  UNL     1      36.540  -6.268  17.131  1.00  0.00     0.016 A 
HETATM   20 CL1  UNL     1      36.584  -7.005  19.854  1.00  0.00    -0.075 Cl
HETATM   21  C31 UNL     1      36.784  -5.704  14.705  1.00  0.00     0.043 A 
BRANCH  19  22
HETATM   22  C6  UNL     1      35.133  -5.773  17.271  1.00  0.00    -0.001 A 
HETATM   23  C2  UNL     1      34.954  -4.472  17.675  1.00  0.00     0.016 A 
HETATM   24  C1  UNL     1      36.068  -3.539  17.973  1.00  0.00     0.069 C 
HETATM   25  N1  UNL     1      33.682  -4.056  17.800  1.00  0.00    -0.369 N 
HETATM   26  C3  UNL     1      32.615  -4.820  17.557  1.00  0.00     0.088 A 
ATOM     27  H1  UNL     1      33.522  -3.094  18.099  1.00  0.00     0.165 HD
HETATM   28  C4  UNL     1      32.784  -6.118  17.153  1.00  0.00     0.018 A 
HETATM   29  C5  UNL     1      34.069  -6.612  17.005  1.00  0.00     0.015 A 
ENDBRANCH  19  22
ENDBRANCH   8  12
ENDBRANCH   5   6
ENDBRANCH   1   5
BRANCH   3  30
HETATM   30  C16 UNL     1      32.956  -8.418  10.097  1.00  0.00     0.128 C 
BRANCH  30  31
HETATM   31  C17 UNL     1      33.109  -9.845  10.456  1.00  0.00     0.064 C 
BRANCH  31  32
HETATM   32  C18 UNL     1      32.070 -10.450  11.349  1.00  0.00     0.059 C 
BRANCH  32  33
HETATM   33  N5  UNL     1      30.844 -10.815  10.785  1.00  0.00    -0.391 N 
HETATM   34  C19 UNL     1      30.754 -11.060   9.409  1.00  0.00     0.149 C 
BRANCH  33  35
HETATM   35  C20 UNL     1      29.869 -11.368  11.650  1.00  0.00     0.101 C 
HETATM   36  C21 UNL     1      29.547 -10.474  12.836  1.00  0.00     0.028 C 
HETATM   37  C22 UNL     1      29.022 -11.329  13.963  1.00  0.00     0.022 C 
HETATM   38  C23 UNL     1      28.208 -12.517  13.439  1.00  0.00     0.124 C 
HETATM   39  N6  UNL     1      29.130 -13.367  12.745  1.00  0.00    -0.365 N 
HETATM   40  C30 UNL     1      30.338 -12.703  12.226  1.00  0.00     0.149 C 
BRANCH  39  41
HETATM   41  C24 UNL     1      28.966 -14.749  12.534  1.00  0.00     0.114 A 
HETATM   42  N7  UNL     1      28.472 -15.177  11.333  1.00  0.00    -0.338 N 
HETATM   43  C25 UNL     1      28.301 -16.479  11.102  1.00  0.00     0.183 A 
ATOM     44  H7  UNL     1      28.234 -14.498  10.612  1.00  0.00     0.168 HD
HETATM   45  N8  UNL     1      28.600 -17.414  12.018  1.00  0.00    -0.338 N 
HETATM   46  C26 UNL     1      29.091 -17.060  13.223  1.00  0.00     0.116 A 
ATOM     47  H8  UNL     1      28.453 -18.400  11.801  1.00  0.00     0.168 HD
HETATM   48  C27 UNL     1      29.269 -15.705  13.464  1.00  0.00     0.035 A 
HETATM   49  N9  UNL     1      29.498 -17.783  14.369  1.00  0.00    -0.355 N 
HETATM   50  C28 UNL     1      29.815 -15.608  14.837  1.00  0.00     0.091 A 
HETATM   51  C29 UNL     1      29.912 -16.996  15.294  1.00  0.00     0.067 A 
ATOM     52  H9  UNL     1      29.467 -18.799  14.449  1.00  0.00     0.166 HD
ENDBRANCH  39  41
ENDBRANCH  33  35
ENDBRANCH  32  33
ENDBRANCH  31  32
ENDBRANCH  30  31
ENDBRANCH   3  30
TORSDOF 10
ENDMDL
