MODEL 1
REMARK VINA RESULT: -11.267583365      0.000      0.000
REMARK  10 active torsions:
REMARK  status: ('A' for Active; 'I' for Inactive)
REMARK    1  A    between atoms: C6_8  and  C7_9 
REMARK    2  A    between atoms: C12_16  and  N2_17 
REMARK       I    between atoms: N2_17  and  C13_19 
REMARK       I    between atoms: C13_19  and  N3_21 
REMARK    3  A    between atoms: N3_21  and  C14_23 
REMARK    4  A    between atoms: C14_23  and  C15_24 
REMARK       I    between atoms: C15_24  and  N4_26 
REMARK    5  A    between atoms: N4_26  and  C16_28 
REMARK    6  A    between atoms: C16_28  and  C17_29 
REMARK    7  A    between atoms: C17_29  and  C18_30 
REMARK    8  A    between atoms: C18_30  and  N5_31 
REMARK    9  A    between atoms: N5_31  and  C20_33 
REMARK   10  A    between atoms: N6_37  and  C24_38 
ROOT
HETATM    1  C15 UNL     1      37.822  -6.360  15.237  1.00  0.00     0.235 C 
HETATM    2  O2  UNL     1      38.306  -5.467  15.981  1.00  0.00    -0.272 OA
HETATM    3  N4  UNL     1      36.553  -6.933  15.545  1.00  0.00    -0.359 N 
ATOM      4  H4  UNL     1      36.180  -7.654  14.928  1.00  0.00     0.162 HD
ENDROOT
BRANCH   1   5
HETATM    5  C14 UNL     1      38.556  -6.829  14.039  1.00  0.00     0.227 C 
BRANCH   5   6
HETATM    6  N3  UNL     1      38.252  -6.039  12.864  1.00  0.00    -0.334 N 
HETATM    7  C13 UNL     1      37.131  -6.395  12.016  1.00  0.00     0.321 C 
HETATM    8  N2  UNL     1      36.801  -5.667  10.883  1.00  0.00    -0.309 N 
HETATM    9  O1  UNL     1      36.485  -7.392  12.365  1.00  0.00    -0.247 OA
ATOM     10  H2  UNL     1      37.379  -4.854  10.667  1.00  0.00     0.170 HD
ATOM     11  H3  UNL     1      38.828  -5.229  12.632  1.00  0.00     0.164 HD
BRANCH   8  12
HETATM   12  C12 UNL     1      35.709  -5.960   9.982  1.00  0.00     0.037 A 
HETATM   13  C11 UNL     1      35.333  -5.077   8.998  1.00  0.00     0.031 A 
HETATM   14  C10 UNL     1      34.307  -5.466   8.155  1.00  0.00     0.022 A 
HETATM   15  C9  UNL     1      33.668  -6.711   8.287  1.00  0.00     0.017 A 
HETATM   16  S1  UNL     1      32.412  -7.513   7.453  1.00  0.00    -0.076 SA
HETATM   17  C32 UNL     1      34.030  -7.600   9.262  1.00  0.00    -0.004 A 
HETATM   18  C8  UNL     1      32.376  -8.952   8.356  1.00  0.00     0.087 A 
HETATM   19  C7  UNL     1      33.344  -8.782   9.294  1.00  0.00     0.016 A 
HETATM   20 CL1  UNL     1      31.322 -10.376   8.141  1.00  0.00    -0.075 Cl
HETATM   21  C31 UNL     1      35.079  -7.170  10.104  1.00  0.00     0.043 A 
BRANCH  19  22
HETATM   22  C6  UNL     1      33.637  -9.853  10.301  1.00  0.00    -0.001 A 
HETATM   23  C2  UNL     1      34.772 -10.605  10.115  1.00  0.00     0.016 A 
HETATM   24  C1  UNL     1      35.716 -10.413   8.987  1.00  0.00     0.069 C 
HETATM   25  N1  UNL     1      35.007 -11.564  11.028  1.00  0.00    -0.369 N 
HETATM   26  C3  UNL     1      34.218 -11.814  12.074  1.00  0.00     0.088 A 
ATOM     27  H1  UNL     1      35.844 -12.137  10.914  1.00  0.00     0.165 HD
HETATM   28  C4  UNL     1      33.085 -11.069  12.267  1.00  0.00     0.018 A 
HETATM   29  C5  UNL     1      32.782 -10.064  11.364  1.00  0.00     0.015 A 
ENDBRANCH  19  22
ENDBRANCH   8  12
ENDBRANCH   5   6
ENDBRANCH   1   5
BRANCH   3  30
HETATM   30  C16 UNL     1      35.775  -6.536  16.695  1.00  0.00     0.128 C 
BRANCH  30  31
HETATM   31  C17 UNL     1      35.158  -5.198  16.567  1.00  0.00     0.064 C 
BRANCH  31  32
HETATM   32  C18 UNL     1      35.398  -4.215  17.671  1.00  0.00     0.059 C 
BRANCH  32  33
HETATM   33  N5  UNL     1      35.129  -2.866  17.427  1.00  0.00    -0.391 N 
HETATM   34  C19 UNL     1      34.469  -2.488  16.249  1.00  0.00     0.149 C 
BRANCH  33  35
HETATM   35  C20 UNL     1      35.101  -1.995  18.542  1.00  0.00     0.101 C 
HETATM   36  C21 UNL     1      34.272  -2.531  19.698  1.00  0.00     0.028 C 
HETATM   37  C22 UNL     1      33.796  -1.371  20.537  1.00  0.00     0.022 C 
HETATM   38  C23 UNL     1      34.828  -0.239  20.572  1.00  0.00     0.124 C 
HETATM   39  N6  UNL     1      34.900   0.289  19.242  1.00  0.00    -0.365 N 
HETATM   40  C30 UNL     1      34.502  -0.640  18.169  1.00  0.00     0.149 C 
BRANCH  39  41
HETATM   41  C24 UNL     1      35.309   1.591  18.900  1.00  0.00     0.114 A 
HETATM   42  N7  UNL     1      36.537   1.765  18.324  1.00  0.00    -0.338 N 
HETATM   43  C25 UNL     1      36.957   2.985  17.991  1.00  0.00     0.183 A 
ATOM     44  H7  UNL     1      37.133   0.957  18.149  1.00  0.00     0.168 HD
HETATM   45  N8  UNL     1      36.210   4.082  18.201  1.00  0.00    -0.338 N 
HETATM   46  C26 UNL     1      34.989   3.981  18.764  1.00  0.00     0.116 A 
ATOM     47  H8  UNL     1      36.570   4.998  17.932  1.00  0.00     0.168 HD
HETATM   48  C27 UNL     1      34.552   2.710  19.111  1.00  0.00     0.035 A 
HETATM   49  N9  UNL     1      33.983   4.915  19.103  1.00  0.00    -0.355 N 
HETATM   50  C28 UNL     1      33.203   2.893  19.693  1.00  0.00     0.091 A 
HETATM   51  C29 UNL     1      32.965   4.337  19.627  1.00  0.00     0.067 A 
ATOM     52  H9  UNL     1      34.058   5.921  18.951  1.00  0.00     0.166 HD
ENDBRANCH  39  41
ENDBRANCH  33  35
ENDBRANCH  32  33
ENDBRANCH  31  32
ENDBRANCH  30  31
ENDBRANCH   3  30
TORSDOF 10
ENDMDL
