MODEL 6
REMARK VINA RESULT: -9.956727068      3.734     11.449
REMARK  10 active torsions:
REMARK  status: ('A' for Active; 'I' for Inactive)
REMARK    1  A    between atoms: C6_8  and  C7_9 
REMARK    2  A    between atoms: C12_16  and  N2_17 
REMARK       I    between atoms: N2_17  and  C13_19 
REMARK       I    between atoms: C13_19  and  N3_21 
REMARK    3  A    between atoms: N3_21  and  C14_23 
REMARK    4  A    between atoms: C14_23  and  C15_24 
REMARK       I    between atoms: C15_24  and  N4_26 
REMARK    5  A    between atoms: N4_26  and  C16_28 
REMARK    6  A    between atoms: C16_28  and  C17_29 
REMARK    7  A    between atoms: C17_29  and  C18_30 
REMARK    8  A    between atoms: C18_30  and  N5_31 
REMARK    9  A    between atoms: N5_31  and  C20_33 
REMARK   10  A    between atoms: N6_37  and  C24_38 
ROOT
HETATM    1  C15 UNL     1      38.704  -7.113  14.301  1.00  0.00     0.235 C 
HETATM    2  O2  UNL     1      38.415  -6.728  13.137  1.00  0.00    -0.272 OA
HETATM    3  N4  UNL     1      39.115  -8.459  14.525  1.00  0.00    -0.359 N 
ATOM      4  H4  UNL     1      39.345  -8.748  15.476  1.00  0.00     0.162 HD
ENDROOT
BRANCH   1   5
HETATM    5  C14 UNL     1      38.618  -6.181  15.450  1.00  0.00     0.227 C 
BRANCH   5   6
HETATM    6  N3  UNL     1      37.518  -5.247  15.320  1.00  0.00    -0.334 N 
HETATM    7  C13 UNL     1      36.469  -5.212  16.321  1.00  0.00     0.321 C 
HETATM    8  N2  UNL     1      35.400  -4.334  16.238  1.00  0.00    -0.309 N 
HETATM    9  O1  UNL     1      36.587  -6.015  17.255  1.00  0.00    -0.247 OA
ATOM     10  H2  UNL     1      35.379  -3.699  15.440  1.00  0.00     0.170 HD
ATOM     11  H3  UNL     1      37.481  -4.613  14.522  1.00  0.00     0.164 HD
BRANCH   8  12
HETATM   12  C12 UNL     1      34.312  -4.241  17.186  1.00  0.00     0.037 A 
HETATM   13  C11 UNL     1      33.405  -5.262  17.340  1.00  0.00     0.031 A 
HETATM   14  C10 UNL     1      32.426  -5.102  18.305  1.00  0.00     0.022 A 
HETATM   15  C9  UNL     1      32.351  -3.948  19.103  1.00  0.00     0.017 A 
HETATM   16  S1  UNL     1      31.324  -3.418  20.359  1.00  0.00    -0.076 SA
HETATM   17  C32 UNL     1      33.246  -2.922  18.961  1.00  0.00    -0.004 A 
HETATM   18  C8  UNL     1      32.050  -1.914  20.675  1.00  0.00     0.087 A 
HETATM   19  C7  UNL     1      33.082  -1.850  19.794  1.00  0.00     0.016 A 
HETATM   20 CL1  UNL     1      31.586  -0.684  21.882  1.00  0.00    -0.075 Cl
HETATM   21  C31 UNL     1      34.230  -3.119  17.967  1.00  0.00     0.043 A 
BRANCH  19  22
HETATM   22  C6  UNL     1      33.990  -0.659  19.757  1.00  0.00    -0.001 A 
HETATM   23  C2  UNL     1      35.078  -0.664  20.597  1.00  0.00     0.016 A 
HETATM   24  C1  UNL     1      35.401  -1.775  21.525  1.00  0.00     0.069 C 
HETATM   25  N1  UNL     1      35.872   0.421  20.550  1.00  0.00    -0.369 N 
HETATM   26  C3  UNL     1      35.663   1.469  19.753  1.00  0.00     0.088 A 
ATOM     27  H1  UNL     1      36.686   0.443  21.164  1.00  0.00     0.165 HD
HETATM   28  C4  UNL     1      34.582   1.483  18.911  1.00  0.00     0.018 A 
HETATM   29  C5  UNL     1      33.722   0.397  18.909  1.00  0.00     0.015 A 
ENDBRANCH  19  22
ENDBRANCH   8  12
ENDBRANCH   5   6
ENDBRANCH   1   5
BRANCH   3  30
HETATM   30  C16 UNL     1      39.221  -9.431  13.462  1.00  0.00     0.128 C 
BRANCH  30  31
HETATM   31  C17 UNL     1      38.218 -10.516  13.540  1.00  0.00     0.064 C 
BRANCH  31  32
HETATM   32  C18 UNL     1      36.808 -10.133  13.868  1.00  0.00     0.059 C 
BRANCH  32  33
HETATM   33  N5  UNL     1      35.777 -10.970  13.433  1.00  0.00    -0.391 N 
HETATM   34  C19 UNL     1      35.367 -12.045  14.232  1.00  0.00     0.149 C 
BRANCH  33  35
HETATM   35  C20 UNL     1      34.887 -10.455  12.460  1.00  0.00     0.101 C 
HETATM   36  C21 UNL     1      34.014 -11.525  11.824  1.00  0.00     0.028 C 
HETATM   37  C22 UNL     1      33.578 -11.052  10.459  1.00  0.00     0.022 C 
HETATM   38  C23 UNL     1      33.369  -9.533  10.429  1.00  0.00     0.124 C 
HETATM   39  N6  UNL     1      34.660  -8.941  10.617  1.00  0.00    -0.365 N 
HETATM   40  C30 UNL     1      35.647  -9.779  11.320  1.00  0.00     0.149 C 
BRANCH  39  41
HETATM   41  C24 UNL     1      35.040  -7.655  10.187  1.00  0.00     0.114 A 
HETATM   42  N7  UNL     1      36.080  -7.032  10.819  1.00  0.00    -0.338 N 
HETATM   43  C25 UNL     1      36.463  -5.812  10.440  1.00  0.00     0.183 A 
ATOM     44  H7  UNL     1      36.564  -7.502  11.583  1.00  0.00     0.168 HD
HETATM   45  N8  UNL     1      35.858  -5.150   9.440  1.00  0.00    -0.338 N 
HETATM   46  C26 UNL     1      34.826  -5.709   8.775  1.00  0.00     0.116 A 
ATOM     47  H8  UNL     1      36.182  -4.218   9.182  1.00  0.00     0.168 HD
HETATM   48  C27 UNL     1      34.427  -6.978   9.170  1.00  0.00     0.035 A 
HETATM   49  N9  UNL     1      34.005  -5.287   7.703  1.00  0.00    -0.355 N 
HETATM   50  C28 UNL     1      33.299  -7.340   8.281  1.00  0.00     0.091 A 
HETATM   51  C29 UNL     1      33.137  -6.181   7.400  1.00  0.00     0.067 A 
ATOM     52  H9  UNL     1      34.092  -4.387   7.231  1.00  0.00     0.166 HD
ENDBRANCH  39  41
ENDBRANCH  33  35
ENDBRANCH  32  33
ENDBRANCH  31  32
ENDBRANCH  30  31
ENDBRANCH   3  30
TORSDOF 10
ENDMDL
