MODEL 4
REMARK VINA RESULT: -9.985109220      4.687     13.012
REMARK  10 active torsions:
REMARK  status: ('A' for Active; 'I' for Inactive)
REMARK    1  A    between atoms: C6_8  and  C7_9 
REMARK    2  A    between atoms: C12_16  and  N2_17 
REMARK       I    between atoms: N2_17  and  C13_19 
REMARK       I    between atoms: C13_19  and  N3_21 
REMARK    3  A    between atoms: N3_21  and  C14_23 
REMARK    4  A    between atoms: C14_23  and  C15_24 
REMARK       I    between atoms: C15_24  and  N4_26 
REMARK    5  A    between atoms: N4_26  and  C16_28 
REMARK    6  A    between atoms: C16_28  and  C17_29 
REMARK    7  A    between atoms: C17_29  and  C18_30 
REMARK    8  A    between atoms: C18_30  and  N5_31 
REMARK    9  A    between atoms: N5_31  and  C20_33 
REMARK   10  A    between atoms: N6_37  and  C24_38 
ROOT
HETATM    1  C15 UNL     1      34.203  -6.446   8.946  1.00  0.00     0.235 C 
HETATM    2  O2  UNL     1      33.173  -5.893   8.478  1.00  0.00    -0.272 OA
HETATM    3  N4  UNL     1      34.097  -7.702   9.613  1.00  0.00    -0.359 N 
ATOM      4  H4  UNL     1      34.945  -8.131   9.983  1.00  0.00     0.162 HD
ENDROOT
BRANCH   1   5
HETATM    5  C14 UNL     1      35.532  -5.805   8.816  1.00  0.00     0.227 C 
BRANCH   5   6
HETATM    6  N3  UNL     1      35.900  -5.057  10.000  1.00  0.00    -0.334 N 
HETATM    7  C13 UNL     1      36.504  -5.734  11.132  1.00  0.00     0.321 C 
HETATM    8  N2  UNL     1      36.874  -5.058  12.285  1.00  0.00    -0.309 N 
HETATM    9  O1  UNL     1      36.669  -6.954  11.007  1.00  0.00    -0.247 OA
ATOM     10  H2  UNL     1      36.711  -4.052  12.308  1.00  0.00     0.170 HD
ATOM     11  H3  UNL     1      35.734  -4.051  10.039  1.00  0.00     0.164 HD
BRANCH   8  12
HETATM   12  C12 UNL     1      37.470  -5.658  13.457  1.00  0.00     0.037 A 
HETATM   13  C11 UNL     1      38.751  -6.156  13.437  1.00  0.00     0.031 A 
HETATM   14  C10 UNL     1      39.253  -6.668  14.620  1.00  0.00     0.022 A 
HETATM   15  C9  UNL     1      38.495  -6.685  15.803  1.00  0.00     0.017 A 
HETATM   16  S1  UNL     1      38.772  -7.211  17.403  1.00  0.00    -0.076 SA
HETATM   17  C32 UNL     1      37.217  -6.195  15.840  1.00  0.00    -0.004 A 
HETATM   18  C8  UNL     1      37.269  -6.798  18.079  1.00  0.00     0.087 A 
HETATM   19  C7  UNL     1      36.574  -6.257  17.045  1.00  0.00     0.016 A 
HETATM   20 CL1  UNL     1      36.707  -7.011  19.760  1.00  0.00    -0.075 Cl
HETATM   21  C31 UNL     1      36.738  -5.681  14.615  1.00  0.00     0.043 A 
BRANCH  19  22
HETATM   22  C6  UNL     1      35.177  -5.752  17.236  1.00  0.00    -0.001 A 
HETATM   23  C2  UNL     1      35.024  -4.456  17.670  1.00  0.00     0.016 A 
HETATM   24  C1  UNL     1      36.156  -3.540  17.949  1.00  0.00     0.069 C 
HETATM   25  N1  UNL     1      33.760  -4.031  17.841  1.00  0.00    -0.369 N 
HETATM   26  C3  UNL     1      32.679  -4.780  17.618  1.00  0.00     0.088 A 
ATOM     27  H1  UNL     1      33.619  -3.073  18.162  1.00  0.00     0.165 HD
HETATM   28  C4  UNL     1      32.822  -6.072  17.186  1.00  0.00     0.018 A 
HETATM   29  C5  UNL     1      34.097  -6.575  16.988  1.00  0.00     0.015 A 
ENDBRANCH  19  22
ENDBRANCH   8  12
ENDBRANCH   5   6
ENDBRANCH   1   5
BRANCH   3  30
HETATM   30  C16 UNL     1      32.840  -8.391   9.786  1.00  0.00     0.128 C 
BRANCH  30  31
HETATM   31  C17 UNL     1      32.891  -9.827   9.435  1.00  0.00     0.064 C 
BRANCH  31  32
HETATM   32  C18 UNL     1      32.600 -10.817  10.520  1.00  0.00     0.059 C 
BRANCH  32  33
HETATM   33  N5  UNL     1      33.654 -11.593  11.009  1.00  0.00    -0.391 N 
HETATM   34  C19 UNL     1      34.683 -10.988  11.744  1.00  0.00     0.149 C 
BRANCH  33  35
HETATM   35  C20 UNL     1      33.427 -12.982  11.156  1.00  0.00     0.101 C 
HETATM   36  C21 UNL     1      34.230 -13.825  10.178  1.00  0.00     0.028 C 
HETATM   37  C22 UNL     1      33.522 -15.141   9.971  1.00  0.00     0.022 C 
HETATM   38  C23 UNL     1      32.815 -15.608  11.248  1.00  0.00     0.124 C 
HETATM   39  N6  UNL     1      31.760 -14.671  11.496  1.00  0.00    -0.365 N 
HETATM   40  C30 UNL     1      31.957 -13.328  10.921  1.00  0.00     0.149 C 
BRANCH  39  41
HETATM   41  C24 UNL     1      30.586 -14.936  12.225  1.00  0.00     0.114 A 
HETATM   42  N7  UNL     1      30.372 -14.261  13.395  1.00  0.00    -0.338 N 
HETATM   43  C25 UNL     1      29.272 -14.490  14.112  1.00  0.00     0.183 A 
ATOM     44  H7  UNL     1      31.057 -13.579  13.719  1.00  0.00     0.168 HD
HETATM   45  N8  UNL     1      28.339 -15.377  13.729  1.00  0.00    -0.338 N 
HETATM   46  C26 UNL     1      28.488 -16.076  12.585  1.00  0.00     0.116 A 
ATOM     47  H8  UNL     1      27.512 -15.523  14.307  1.00  0.00     0.168 HD
HETATM   48  C27 UNL     1      29.634 -15.837  11.838  1.00  0.00     0.035 A 
HETATM   49  N9  UNL     1      27.707 -17.050  11.920  1.00  0.00    -0.355 N 
HETATM   50  C28 UNL     1      29.534 -16.721  10.655  1.00  0.00     0.091 A 
HETATM   51  C29 UNL     1      28.267 -17.434  10.831  1.00  0.00     0.067 A 
ATOM     52  H9  UNL     1      26.814 -17.403  12.263  1.00  0.00     0.166 HD
ENDBRANCH  39  41
ENDBRANCH  33  35
ENDBRANCH  32  33
ENDBRANCH  31  32
ENDBRANCH  30  31
ENDBRANCH   3  30
TORSDOF 10
ENDMDL
