MODEL 2
REMARK VINA RESULT: -10.691817452      0.969      1.674
REMARK  10 active torsions:
REMARK  status: ('A' for Active; 'I' for Inactive)
REMARK    1  A    between atoms: C6_8  and  C7_9 
REMARK    2  A    between atoms: C12_16  and  N2_17 
REMARK       I    between atoms: N2_17  and  C13_19 
REMARK       I    between atoms: C13_19  and  N3_21 
REMARK    3  A    between atoms: N3_21  and  C14_23 
REMARK    4  A    between atoms: C14_23  and  C15_24 
REMARK       I    between atoms: C15_24  and  N4_26 
REMARK    5  A    between atoms: N4_26  and  C16_28 
REMARK    6  A    between atoms: C16_28  and  C17_29 
REMARK    7  A    between atoms: C17_29  and  C18_30 
REMARK    8  A    between atoms: C18_30  and  N5_31 
REMARK    9  A    between atoms: N5_31  and  C20_33 
REMARK   10  A    between atoms: N6_37  and  C24_38 
ROOT
HETATM    1  C15 UNL     1      37.712  -6.182  15.308  1.00  0.00     0.235 C 
HETATM    2  O2  UNL     1      38.334  -5.425  16.100  1.00  0.00    -0.272 OA
HETATM    3  N4  UNL     1      36.343  -6.497  15.551  1.00  0.00    -0.359 N 
ATOM      4  H4  UNL     1      35.859  -7.111  14.896  1.00  0.00     0.162 HD
ENDROOT
BRANCH   1   5
HETATM    5  C14 UNL     1      38.388  -6.755  14.120  1.00  0.00     0.227 C 
BRANCH   5   6
HETATM    6  N3  UNL     1      38.121  -5.995  12.916  1.00  0.00    -0.334 N 
HETATM    7  C13 UNL     1      37.013  -6.360  12.054  1.00  0.00     0.321 C 
HETATM    8  N2  UNL     1      36.720  -5.659  10.894  1.00  0.00    -0.309 N 
HETATM    9  O1  UNL     1      36.344  -7.336  12.417  1.00  0.00    -0.247 OA
ATOM     10  H2  UNL     1      37.315  -4.862  10.667  1.00  0.00     0.170 HD
ATOM     11  H3  UNL     1      38.714  -5.202  12.674  1.00  0.00     0.164 HD
BRANCH   8  12
HETATM   12  C12 UNL     1      35.643  -5.962   9.978  1.00  0.00     0.037 A 
HETATM   13  C11 UNL     1      35.275  -5.085   8.987  1.00  0.00     0.031 A 
HETATM   14  C10 UNL     1      34.264  -5.483   8.129  1.00  0.00     0.022 A 
HETATM   15  C9  UNL     1      33.632  -6.732   8.255  1.00  0.00     0.017 A 
HETATM   16  S1  UNL     1      32.394  -7.544   7.405  1.00  0.00    -0.076 SA
HETATM   17  C32 UNL     1      33.986  -7.616   9.237  1.00  0.00    -0.004 A 
HETATM   18  C8  UNL     1      32.355  -8.982   8.311  1.00  0.00     0.087 A 
HETATM   19  C7  UNL     1      33.308  -8.803   9.263  1.00  0.00     0.016 A 
HETATM   20 CL1  UNL     1      31.314 -10.414   8.084  1.00  0.00    -0.075 Cl
HETATM   21  C31 UNL     1      35.020  -7.176  10.094  1.00  0.00     0.043 A 
BRANCH  19  22
HETATM   22  C6  UNL     1      33.594  -9.869  10.276  1.00  0.00    -0.001 A 
HETATM   23  C2  UNL     1      34.738 -10.612  10.110  1.00  0.00     0.016 A 
HETATM   24  C1  UNL     1      35.697 -10.415   8.997  1.00  0.00     0.069 C 
HETATM   25  N1  UNL     1      34.966 -11.568  11.029  1.00  0.00    -0.369 N 
HETATM   26  C3  UNL     1      34.162 -11.822  12.062  1.00  0.00     0.088 A 
ATOM     27  H1  UNL     1      35.809 -12.134  10.928  1.00  0.00     0.165 HD
HETATM   28  C4  UNL     1      33.020 -11.086  12.236  1.00  0.00     0.018 A 
HETATM   29  C5  UNL     1      32.724 -10.085  11.325  1.00  0.00     0.015 A 
ENDBRANCH  19  22
ENDBRANCH   8  12
ENDBRANCH   5   6
ENDBRANCH   1   5
BRANCH   3  30
HETATM   30  C16 UNL     1      35.613  -5.984  16.687  1.00  0.00     0.128 C 
BRANCH  30  31
HETATM   31  C17 UNL     1      34.884  -4.726  16.411  1.00  0.00     0.064 C 
BRANCH  31  32
HETATM   32  C18 UNL     1      35.278  -3.511  17.193  1.00  0.00     0.059 C 
BRANCH  32  33
HETATM   33  N5  UNL     1      34.323  -2.921  18.025  1.00  0.00    -0.391 N 
HETATM   34  C19 UNL     1      33.103  -3.571  18.257  1.00  0.00     0.149 C 
BRANCH  33  35
HETATM   35  C20 UNL     1      34.776  -1.953  18.952  1.00  0.00     0.101 C 
HETATM   36  C21 UNL     1      35.620  -2.546  20.068  1.00  0.00     0.028 C 
HETATM   37  C22 UNL     1      35.543  -1.640  21.273  1.00  0.00     0.022 C 
HETATM   38  C23 UNL     1      35.433  -0.166  20.864  1.00  0.00     0.124 C 
HETATM   39  N6  UNL     1      34.161  -0.016  20.223  1.00  0.00    -0.365 N 
HETATM   40  C30 UNL     1      33.603  -1.242  19.625  1.00  0.00     0.149 C 
BRANCH  39  41
HETATM   41  C24 UNL     1      33.429   1.182  20.129  1.00  0.00     0.114 A 
HETATM   42  N7  UNL     1      32.133   1.197  20.565  1.00  0.00    -0.338 N 
HETATM   43  C25 UNL     1      31.410   2.314  20.487  1.00  0.00     0.183 A 
ATOM     44  H7  UNL     1      31.718   0.350  20.951  1.00  0.00     0.168 HD
HETATM   45  N8  UNL     1      31.909   3.457  19.988  1.00  0.00    -0.338 N 
HETATM   46  C26 UNL     1      33.181   3.511  19.541  1.00  0.00     0.116 A 
ATOM     47  H8  UNL     1      31.322   4.290  19.945  1.00  0.00     0.168 HD
HETATM   48  C27 UNL     1      33.933   2.347  19.622  1.00  0.00     0.035 A 
HETATM   49  N9  UNL     1      33.982   4.532  18.980  1.00  0.00    -0.355 N 
HETATM   50  C28 UNL     1      35.266   2.691  19.076  1.00  0.00     0.091 A 
HETATM   51  C29 UNL     1      35.160   4.105  18.708  1.00  0.00     0.067 A 
ATOM     52  H9  UNL     1      33.664   5.487  18.813  1.00  0.00     0.166 HD
ENDBRANCH  39  41
ENDBRANCH  33  35
ENDBRANCH  32  33
ENDBRANCH  31  32
ENDBRANCH  30  31
ENDBRANCH   3  30
TORSDOF 10
ENDMDL
