MODEL 8
REMARK VINA RESULT: -7.429895612      3.828      6.913
REMARK  6 active torsions:
REMARK  status: ('A' for Active; 'I' for Inactive)
REMARK    1  A    between atoms: C2_2  and  C4_4 
REMARK    2  A    between atoms: C4_4  and  C5_5 
REMARK    3  A    between atoms: C8_8  and  S1_9 
REMARK    4  A    between atoms: S1_9  and  N1_12 
REMARK    5  A    between atoms: N1_12  and  C9_14 
REMARK    6  A    between atoms: C14_19  and  N2_20 
ROOT
HETATM    1  C9  UNL     1      24.416  -0.607  12.646  1.00  0.00     0.071 A 
HETATM    2  C10 UNL     1      23.555  -0.564  13.730  1.00  0.00     0.064 A 
HETATM    3  C11 UNL     1      23.424   0.531  14.550  1.00  0.00     0.066 A 
HETATM    4  C12 UNL     1      24.170   1.657  14.313  1.00  0.00     0.066 A 
HETATM    5  C13 UNL     1      25.036   1.652  13.247  1.00  0.00     0.063 A 
HETATM    6  C14 UNL     1      25.161   0.534  12.420  1.00  0.00     0.060 A 
HETATM    7  N3  UNL     1      24.064   2.763  15.111  1.00  0.00    -0.312 N 
HETATM    8  C19 UNL     1      24.862   3.942  14.843  1.00  0.00     0.160 C 
HETATM    9  C20 UNL     1      23.195   2.685  16.133  1.00  0.00     0.316 A 
HETATM   10  O4  UNL     1      23.057   3.691  16.912  1.00  0.00    -0.262 OA
HETATM   11  C21 UNL     1      22.445   1.553  16.373  1.00  0.00     0.316 A 
HETATM   12  O5  UNL     1      21.632   1.489  17.334  1.00  0.00    -0.262 OA
HETATM   13  N4  UNL     1      22.567   0.480  15.574  1.00  0.00    -0.312 N 
HETATM   14  C22 UNL     1      21.774  -0.727  15.818  1.00  0.00     0.160 C 
ENDROOT
BRANCH   1  15
HETATM   15  N1  UNL     1      24.566  -1.709  11.798  1.00  0.00    -0.278 N 
ATOM     16  H1  UNL     1      25.420  -1.810  11.250  1.00  0.00     0.179 HD
BRANCH  15  17
HETATM   17  S1  UNL     1      23.334  -2.892  11.668  1.00  0.00     0.263 S 
HETATM   18  O1  UNL     1      23.716  -3.959  10.642  1.00  0.00    -0.200 OA
HETATM   19  O2  UNL     1      23.246  -3.694  12.971  1.00  0.00    -0.200 OA
BRANCH  17  20
HETATM   20  C8  UNL     1      21.770  -2.264  11.274  1.00  0.00     0.079 A 
HETATM   21  C7  UNL     1      20.734  -2.212  12.174  1.00  0.00     0.026 A 
HETATM   22  C6  UNL     1      19.478  -1.710  11.819  1.00  0.00     0.009 A 
HETATM   23  C5  UNL     1      19.227  -1.245  10.550  1.00  0.00    -0.058 A 
HETATM   24  C24 UNL     1      20.269  -1.296   9.640  1.00  0.00     0.009 A 
HETATM   25  C23 UNL     1      21.508  -1.790   9.987  1.00  0.00     0.026 A 
BRANCH  23  26
HETATM   26  C4  UNL     1      17.887  -0.706  10.168  1.00  0.00     0.042 C 
BRANCH  26  27
HETATM   27  C2  UNL     1      17.973  -0.187   8.744  1.00  0.00    -0.019 C 
HETATM   28  C1  UNL     1      16.663  -0.528   8.070  1.00  0.00     0.010 C 
HETATM   29  C3  UNL     1      18.113   1.304   8.707  1.00  0.00     0.010 C 
ENDBRANCH  26  27
ENDBRANCH  23  26
ENDBRANCH  17  20
ENDBRANCH  15  17
ENDBRANCH   1  15
BRANCH   6  30
HETATM   30  N2  UNL     1      26.065   0.595  11.341  1.00  0.00    -0.375 N 
HETATM   31  C15 UNL     1      27.460   0.222  11.359  1.00  0.00     0.149 C 
HETATM   32  C16 UNL     1      27.683  -0.797  10.212  1.00  0.00     0.187 C 
HETATM   33  O3  UNL     1      27.339  -0.251   9.004  1.00  0.00    -0.388 OA
HETATM   34  C17 UNL     1      26.762   0.991   9.048  1.00  0.00     0.187 C 
HETATM   35  C18 UNL     1      25.630   1.059  10.038  1.00  0.00     0.149 C 
ENDBRANCH   6  30
TORSDOF 6
ENDMDL
