MODEL 17
REMARK VINA RESULT: -7.147563090      2.826      4.399
REMARK  6 active torsions:
REMARK  status: ('A' for Active; 'I' for Inactive)
REMARK    1  A    between atoms: C2_2  and  C4_4 
REMARK    2  A    between atoms: C4_4  and  C5_5 
REMARK    3  A    between atoms: C8_8  and  S1_9 
REMARK    4  A    between atoms: S1_9  and  N1_12 
REMARK    5  A    between atoms: N1_12  and  C9_14 
REMARK    6  A    between atoms: C14_19  and  N2_20 
ROOT
HETATM    1  C9  UNL     1      24.030  -1.435   8.351  1.00  0.00     0.071 A 
HETATM    2  C10 UNL     1      23.728  -1.987   9.586  1.00  0.00     0.064 A 
HETATM    3  C11 UNL     1      22.465  -1.987  10.126  1.00  0.00     0.066 A 
HETATM    4  C12 UNL     1      21.424  -1.421   9.435  1.00  0.00     0.066 A 
HETATM    5  C13 UNL     1      21.684  -0.865   8.207  1.00  0.00     0.063 A 
HETATM    6  C14 UNL     1      22.972  -0.869   7.667  1.00  0.00     0.060 A 
HETATM    7  N3  UNL     1      20.155  -1.406   9.947  1.00  0.00    -0.312 N 
HETATM    8  C19 UNL     1      19.070  -0.802   9.200  1.00  0.00     0.160 C 
HETATM    9  C20 UNL     1      19.987  -1.970  11.155  1.00  0.00     0.316 A 
HETATM   10  O4  UNL     1      18.820  -1.981  11.679  1.00  0.00    -0.262 OA
HETATM   11  C21 UNL     1      21.033  -2.539  11.850  1.00  0.00     0.316 A 
HETATM   12  O5  UNL     1      20.865  -3.066  12.983  1.00  0.00    -0.262 OA
HETATM   13  N4  UNL     1      22.270  -2.542  11.326  1.00  0.00    -0.312 N 
HETATM   14  C22 UNL     1      23.388  -3.145  12.056  1.00  0.00     0.160 C 
ENDROOT
BRANCH   1  15
HETATM   15  N1  UNL     1      25.307  -1.423   7.780  1.00  0.00    -0.278 N 
ATOM     16  H1  UNL     1      25.484  -1.963   6.933  1.00  0.00     0.179 HD
BRANCH  15  17
HETATM   17  S1  UNL     1      26.575  -0.514   8.485  1.00  0.00     0.263 S 
HETATM   18  O1  UNL     1      27.332  -1.352   9.517  1.00  0.00    -0.200 OA
HETATM   19  O2  UNL     1      27.651  -0.223   7.432  1.00  0.00    -0.200 OA
BRANCH  17  20
HETATM   20  C8  UNL     1      26.076   0.971   9.220  1.00  0.00     0.079 A 
HETATM   21  C7  UNL     1      25.768   2.099   8.499  1.00  0.00     0.026 A 
HETATM   22  C6  UNL     1      25.380   3.287   9.125  1.00  0.00     0.009 A 
HETATM   23  C5  UNL     1      25.289   3.377  10.495  1.00  0.00    -0.058 A 
HETATM   24  C24 UNL     1      25.599   2.242  11.224  1.00  0.00     0.009 A 
HETATM   25  C23 UNL     1      25.982   1.069  10.610  1.00  0.00     0.026 A 
BRANCH  23  26
HETATM   26  C4  UNL     1      24.873   4.644  11.168  1.00  0.00     0.042 C 
BRANCH  26  27
HETATM   27  C2  UNL     1      24.448   4.311  12.586  1.00  0.00    -0.019 C 
HETATM   28  C1  UNL     1      25.260   5.193  13.508  1.00  0.00     0.010 C 
HETATM   29  C3  UNL     1      23.005   4.635  12.821  1.00  0.00     0.010 C 
ENDBRANCH  26  27
ENDBRANCH  23  26
ENDBRANCH  17  20
ENDBRANCH  15  17
ENDBRANCH   1  15
BRANCH   6  30
HETATM   30  N2  UNL     1      23.170  -0.284   6.401  1.00  0.00    -0.375 N 
HETATM   31  C15 UNL     1      23.394  -0.977   5.154  1.00  0.00     0.149 C 
HETATM   32  C16 UNL     1      22.340  -0.461   4.140  1.00  0.00     0.187 C 
HETATM   33  O3  UNL     1      22.450   0.894   3.973  1.00  0.00    -0.388 OA
HETATM   34  C17 UNL     1      23.342   1.530   4.796  1.00  0.00     0.187 C 
HETATM   35  C18 UNL     1      23.151   1.157   6.242  1.00  0.00     0.149 C 
ENDBRANCH   6  30
TORSDOF 6
ENDMDL
