MODEL 6
REMARK VINA RESULT: -7.534645129      3.047      6.149
REMARK  6 active torsions:
REMARK  status: ('A' for Active; 'I' for Inactive)
REMARK    1  A    between atoms: C2_2  and  C4_4 
REMARK    2  A    between atoms: C4_4  and  C5_5 
REMARK    3  A    between atoms: C8_8  and  S1_9 
REMARK    4  A    between atoms: S1_9  and  N1_12 
REMARK    5  A    between atoms: N1_12  and  C9_14 
REMARK    6  A    between atoms: C14_19  and  N2_20 
ROOT
HETATM    1  C9  UNL     1      23.892   0.680   6.526  1.00  0.00     0.071 A 
HETATM    2  C10 UNL     1      24.346   1.656   7.399  1.00  0.00     0.064 A 
HETATM    3  C11 UNL     1      24.838   2.871   6.986  1.00  0.00     0.066 A 
HETATM    4  C12 UNL     1      24.898   3.167   5.649  1.00  0.00     0.066 A 
HETATM    5  C13 UNL     1      24.456   2.224   4.753  1.00  0.00     0.063 A 
HETATM    6  C14 UNL     1      23.959   0.992   5.182  1.00  0.00     0.060 A 
HETATM    7  N3  UNL     1      25.382   4.367   5.207  1.00  0.00    -0.312 N 
HETATM    8  C19 UNL     1      25.436   4.660   3.788  1.00  0.00     0.160 C 
HETATM    9  C20 UNL     1      25.794   5.233   6.148  1.00  0.00     0.316 A 
HETATM   10  O4  UNL     1      26.258   6.370   5.789  1.00  0.00    -0.262 OA
HETATM   11  C21 UNL     1      25.735   4.935   7.494  1.00  0.00     0.316 A 
HETATM   12  O5  UNL     1      26.125   5.754   8.369  1.00  0.00    -0.262 OA
HETATM   13  N4  UNL     1      25.254   3.749   7.902  1.00  0.00    -0.312 N 
HETATM   14  C22 UNL     1      25.186   3.424   9.329  1.00  0.00     0.160 C 
ENDROOT
BRANCH   1  15
HETATM   15  N1  UNL     1      23.388  -0.563   6.922  1.00  0.00    -0.278 N 
ATOM     16  H1  UNL     1      24.001  -1.378   6.924  1.00  0.00     0.179 HD
BRANCH  15  17
HETATM   17  S1  UNL     1      21.753  -0.735   7.405  1.00  0.00     0.263 S 
HETATM   18  O1  UNL     1      21.024   0.608   7.330  1.00  0.00    -0.200 OA
HETATM   19  O2  UNL     1      20.997  -1.587   6.379  1.00  0.00    -0.200 OA
BRANCH  17  20
HETATM   20  C8  UNL     1      21.534  -1.408   8.984  1.00  0.00     0.079 A 
HETATM   21  C7  UNL     1      20.339  -1.362   9.659  1.00  0.00     0.026 A 
HETATM   22  C6  UNL     1      20.199  -1.905  10.940  1.00  0.00     0.009 A 
HETATM   23  C5  UNL     1      21.255  -2.511  11.579  1.00  0.00    -0.058 A 
HETATM   24  C24 UNL     1      22.461  -2.560  10.901  1.00  0.00     0.009 A 
HETATM   25  C23 UNL     1      22.603  -2.025   9.638  1.00  0.00     0.026 A 
BRANCH  23  26
HETATM   26  C4  UNL     1      21.109  -3.095  12.947  1.00  0.00     0.042 C 
BRANCH  26  27
HETATM   27  C2  UNL     1      22.211  -2.529  13.824  1.00  0.00    -0.019 C 
HETATM   28  C1  UNL     1      21.658  -1.284  14.479  1.00  0.00     0.010 C 
HETATM   29  C3  UNL     1      22.584  -3.477  14.922  1.00  0.00     0.010 C 
ENDBRANCH  26  27
ENDBRANCH  23  26
ENDBRANCH  17  20
ENDBRANCH  15  17
ENDBRANCH   1  15
BRANCH   6  30
HETATM   30  N2  UNL     1      23.519   0.071   4.212  1.00  0.00    -0.375 N 
HETATM   31  C15 UNL     1      24.274  -1.028   3.658  1.00  0.00     0.149 C 
HETATM   32  C16 UNL     1      23.427  -2.314   3.843  1.00  0.00     0.187 C 
HETATM   33  O3  UNL     1      22.214  -2.190   3.219  1.00  0.00    -0.388 OA
HETATM   34  C17 UNL     1      21.936  -0.959   2.685  1.00  0.00     0.187 C 
HETATM   35  C18 UNL     1      22.178   0.157   3.665  1.00  0.00     0.149 C 
ENDBRANCH   6  30
TORSDOF 6
ENDMDL
