MODEL 2
REMARK VINA RESULT: -8.323633569      2.390      3.934
REMARK  6 active torsions:
REMARK  status: ('A' for Active; 'I' for Inactive)
REMARK    1  A    between atoms: C2_2  and  C4_4 
REMARK    2  A    between atoms: C4_4  and  C5_5 
REMARK    3  A    between atoms: C8_8  and  S1_9 
REMARK    4  A    between atoms: S1_9  and  N1_12 
REMARK    5  A    between atoms: N1_12  and  C9_14 
REMARK    6  A    between atoms: C14_19  and  N2_20 
ROOT
HETATM    1  C9  UNL     1      22.771  -1.352   8.482  1.00  0.00     0.071 A 
HETATM    2  C10 UNL     1      22.052  -1.772   9.589  1.00  0.00     0.064 A 
HETATM    3  C11 UNL     1      20.739  -1.432   9.813  1.00  0.00     0.066 A 
HETATM    4  C12 UNL     1      20.075  -0.637   8.914  1.00  0.00     0.066 A 
HETATM    5  C13 UNL     1      20.756  -0.201   7.803  1.00  0.00     0.063 A 
HETATM    6  C14 UNL     1      22.090  -0.552   7.586  1.00  0.00     0.060 A 
HETATM    7  N3  UNL     1      18.769  -0.280   9.109  1.00  0.00    -0.312 N 
HETATM    8  C19 UNL     1      18.087   0.562   8.146  1.00  0.00     0.160 C 
HETATM    9  C20 UNL     1      18.178  -0.748  10.221  1.00  0.00     0.316 A 
HETATM   10  O4  UNL     1      16.957  -0.443  10.452  1.00  0.00    -0.262 OA
HETATM   11  C21 UNL     1      18.845  -1.547  11.125  1.00  0.00     0.316 A 
HETATM   12  O5  UNL     1      18.281  -1.980  12.166  1.00  0.00    -0.262 OA
HETATM   13  N4  UNL     1      20.128  -1.883  10.911  1.00  0.00    -0.312 N 
HETATM   14  C22 UNL     1      20.845  -2.733  11.865  1.00  0.00     0.160 C 
ENDROOT
BRANCH   1  15
HETATM   15  N1  UNL     1      24.107  -1.686   8.233  1.00  0.00    -0.278 N 
ATOM     16  H1  UNL     1      24.385  -1.985   7.298  1.00  0.00     0.179 HD
BRANCH  15  17
HETATM   17  S1  UNL     1      25.281  -1.598   9.477  1.00  0.00     0.263 S 
HETATM   18  O1  UNL     1      25.060  -2.707  10.507  1.00  0.00    -0.200 OA
HETATM   19  O2  UNL     1      26.664  -1.937   8.909  1.00  0.00    -0.200 OA
BRANCH  17  20
HETATM   20  C8  UNL     1      25.354  -0.074  10.294  1.00  0.00     0.079 A 
HETATM   21  C7  UNL     1      25.157   0.061  11.647  1.00  0.00     0.026 A 
HETATM   22  C6  UNL     1      25.210   1.309  12.275  1.00  0.00     0.009 A 
HETATM   23  C5  UNL     1      25.464   2.458  11.562  1.00  0.00    -0.058 A 
HETATM   24  C24 UNL     1      25.663   2.324  10.198  1.00  0.00     0.009 A 
HETATM   25  C23 UNL     1      25.610   1.095   9.576  1.00  0.00     0.026 A 
BRANCH  23  26
HETATM   26  C4  UNL     1      25.524   3.793  12.229  1.00  0.00     0.042 C 
BRANCH  26  27
HETATM   27  C2  UNL     1      24.140   4.415  12.171  1.00  0.00    -0.019 C 
HETATM   28  C1  UNL     1      23.892   5.065  13.514  1.00  0.00     0.010 C 
HETATM   29  C3  UNL     1      24.063   5.495  11.137  1.00  0.00     0.010 C 
ENDBRANCH  26  27
ENDBRANCH  23  26
ENDBRANCH  17  20
ENDBRANCH  15  17
ENDBRANCH   1  15
BRANCH   6  30
HETATM   30  N2  UNL     1      22.728  -0.075   6.425  1.00  0.00    -0.375 N 
HETATM   31  C15 UNL     1      22.929  -0.795   5.190  1.00  0.00     0.149 C 
HETATM   32  C16 UNL     1      22.351   0.077   4.045  1.00  0.00     0.187 C 
HETATM   33  O3  UNL     1      22.970   1.298   4.005  1.00  0.00    -0.388 OA
HETATM   34  C17 UNL     1      23.851   1.559   5.021  1.00  0.00     0.187 C 
HETATM   35  C18 UNL     1      23.260   1.274   6.376  1.00  0.00     0.149 C 
ENDBRANCH   6  30
TORSDOF 6
ENDMDL
