MODEL 7
REMARK VINA RESULT: -7.492562695      4.662      7.637
REMARK  6 active torsions:
REMARK  status: ('A' for Active; 'I' for Inactive)
REMARK    1  A    between atoms: C2_2  and  C4_4 
REMARK    2  A    between atoms: C4_4  and  C5_5 
REMARK    3  A    between atoms: C8_8  and  S1_9 
REMARK    4  A    between atoms: S1_9  and  N1_12 
REMARK    5  A    between atoms: N1_12  and  C9_14 
REMARK    6  A    between atoms: C14_19  and  N2_20 
ROOT
HETATM    1  C9  UNL     1      24.324  -0.553  15.025  1.00  0.00     0.071 A 
HETATM    2  C10 UNL     1      23.394   0.464  15.172  1.00  0.00     0.064 A 
HETATM    3  C11 UNL     1      23.482   1.670  14.519  1.00  0.00     0.066 A 
HETATM    4  C12 UNL     1      24.532   1.915  13.670  1.00  0.00     0.066 A 
HETATM    5  C13 UNL     1      25.474   0.930  13.499  1.00  0.00     0.063 A 
HETATM    6  C14 UNL     1      25.375  -0.292  14.168  1.00  0.00     0.060 A 
HETATM    7  N3  UNL     1      24.647   3.105  13.007  1.00  0.00    -0.312 N 
HETATM    8  C19 UNL     1      25.765   3.342  12.115  1.00  0.00     0.160 C 
HETATM    9  C20 UNL     1      23.684   4.015  13.230  1.00  0.00     0.316 A 
HETATM   10  O4  UNL     1      23.746   5.146  12.635  1.00  0.00    -0.262 OA
HETATM   11  C21 UNL     1      22.629   3.769  14.084  1.00  0.00     0.316 A 
HETATM   12  O5  UNL     1      21.730   4.629  14.288  1.00  0.00    -0.262 OA
HETATM   13  N4  UNL     1      22.538   2.592  14.724  1.00  0.00    -0.312 N 
HETATM   14  C22 UNL     1      21.420   2.321  15.631  1.00  0.00     0.160 C 
ENDROOT
BRANCH   1  15
HETATM   15  N1  UNL     1      24.255  -1.788  15.679  1.00  0.00    -0.278 N 
ATOM     16  H1  UNL     1      24.764  -1.924  16.552  1.00  0.00     0.179 HD
BRANCH  15  17
HETATM   17  S1  UNL     1      23.328  -3.074  15.031  1.00  0.00     0.263 S 
HETATM   18  O1  UNL     1      24.226  -4.256  14.666  1.00  0.00    -0.200 OA
HETATM   19  O2  UNL     1      22.424  -3.661  16.121  1.00  0.00    -0.200 OA
BRANCH  17  20
HETATM   20  C8  UNL     1      22.366  -2.649  13.656  1.00  0.00     0.079 A 
HETATM   21  C7  UNL     1      21.138  -2.044  13.759  1.00  0.00     0.026 A 
HETATM   22  C6  UNL     1      20.380  -1.725  12.627  1.00  0.00     0.009 A 
HETATM   23  C5  UNL     1      20.835  -2.004  11.360  1.00  0.00    -0.058 A 
HETATM   24  C24 UNL     1      22.074  -2.614  11.254  1.00  0.00     0.009 A 
HETATM   25  C23 UNL     1      22.823  -2.930  12.367  1.00  0.00     0.026 A 
BRANCH  23  26
HETATM   26  C4  UNL     1      20.030  -1.664  10.149  1.00  0.00     0.042 C 
BRANCH  26  27
HETATM   27  C2  UNL     1      18.816  -0.868  10.594  1.00  0.00    -0.019 C 
HETATM   28  C1  UNL     1      18.482   0.091   9.474  1.00  0.00     0.010 C 
HETATM   29  C3  UNL     1      17.622  -1.750  10.793  1.00  0.00     0.010 C 
ENDBRANCH  26  27
ENDBRANCH  23  26
ENDBRANCH  17  20
ENDBRANCH  15  17
ENDBRANCH   1  15
BRANCH   6  30
HETATM   30  N2  UNL     1      26.373  -1.261  13.946  1.00  0.00    -0.375 N 
HETATM   31  C15 UNL     1      27.530  -1.516  14.772  1.00  0.00     0.149 C 
HETATM   32  C16 UNL     1      27.523  -3.026  15.127  1.00  0.00     0.187 C 
HETATM   33  O3  UNL     1      27.554  -3.791  13.991  1.00  0.00    -0.388 OA
HETATM   34  C17 UNL     1      27.455  -3.112  12.806  1.00  0.00     0.187 C 
HETATM   35  C18 UNL     1      26.303  -2.143  12.797  1.00  0.00     0.149 C 
ENDBRANCH   6  30
TORSDOF 6
ENDMDL
