MODEL 4
REMARK VINA RESULT: -8.221882531      2.527      4.288
REMARK  6 active torsions:
REMARK  status: ('A' for Active; 'I' for Inactive)
REMARK    1  A    between atoms: C2_2  and  C4_4 
REMARK    2  A    between atoms: C4_4  and  C5_5 
REMARK    3  A    between atoms: C8_8  and  S1_9 
REMARK    4  A    between atoms: S1_9  and  N1_12 
REMARK    5  A    between atoms: N1_12  and  C9_14 
REMARK    6  A    between atoms: C14_19  and  N2_20 
ROOT
HETATM    1  C9  UNL     1      22.711  -1.156   8.013  1.00  0.00     0.071 A 
HETATM    2  C10 UNL     1      22.118  -1.631   9.172  1.00  0.00     0.064 A 
HETATM    3  C11 UNL     1      20.843  -1.298   9.561  1.00  0.00     0.066 A 
HETATM    4  C12 UNL     1      20.089  -0.453   8.787  1.00  0.00     0.066 A 
HETATM    5  C13 UNL     1      20.643   0.038   7.630  1.00  0.00     0.063 A 
HETATM    6  C14 UNL     1      21.940  -0.307   7.244  1.00  0.00     0.060 A 
HETATM    7  N3  UNL     1      18.818  -0.102   9.149  1.00  0.00    -0.312 N 
HETATM    8  C19 UNL     1      18.038   0.792   8.316  1.00  0.00     0.160 C 
HETATM    9  C20 UNL     1      18.352  -0.626  10.295  1.00  0.00     0.316 A 
HETATM   10  O4  UNL     1      17.168  -0.328  10.680  1.00  0.00    -0.262 OA
HETATM   11  C21 UNL     1      19.110  -1.475  11.074  1.00  0.00     0.316 A 
HETATM   12  O5  UNL     1      18.664  -1.961  12.148  1.00  0.00    -0.262 OA
HETATM   13  N4  UNL     1      20.357  -1.805  10.697  1.00  0.00    -0.312 N 
HETATM   14  C22 UNL     1      21.169  -2.707  11.517  1.00  0.00     0.160 C 
ENDROOT
BRANCH   1  15
HETATM   15  N1  UNL     1      24.006  -1.482   7.596  1.00  0.00    -0.278 N 
ATOM     16  H1  UNL     1      24.162  -1.795   6.637  1.00  0.00     0.179 HD
BRANCH  15  17
HETATM   17  S1  UNL     1      25.332  -1.361   8.672  1.00  0.00     0.263 S 
HETATM   18  O1  UNL     1      25.317  -2.512   9.680  1.00  0.00    -0.200 OA
HETATM   19  O2  UNL     1      26.641  -1.597   7.910  1.00  0.00    -0.200 OA
BRANCH  17  20
HETATM   20  C8  UNL     1      25.431   0.139   9.530  1.00  0.00     0.079 A 
HETATM   21  C7  UNL     1      25.440   0.219  10.901  1.00  0.00     0.026 A 
HETATM   22  C6  UNL     1      25.508   1.448  11.564  1.00  0.00     0.009 A 
HETATM   23  C5  UNL     1      25.570   2.633  10.868  1.00  0.00    -0.058 A 
HETATM   24  C24 UNL     1      25.561   2.555   9.486  1.00  0.00     0.009 A 
HETATM   25  C23 UNL     1      25.494   1.345   8.830  1.00  0.00     0.026 A 
BRANCH  23  26
HETATM   26  C4  UNL     1      25.645   3.949  11.573  1.00  0.00     0.042 C 
BRANCH  26  27
HETATM   27  C2  UNL     1      24.399   4.744  11.225  1.00  0.00    -0.019 C 
HETATM   28  C1  UNL     1      23.603   4.896  12.502  1.00  0.00     0.010 C 
HETATM   29  C3  UNL     1      24.740   6.123  10.750  1.00  0.00     0.010 C 
ENDBRANCH  26  27
ENDBRANCH  23  26
ENDBRANCH  17  20
ENDBRANCH  15  17
ENDBRANCH   1  15
BRANCH   6  30
HETATM   30  N2  UNL     1      22.447   0.229   6.044  1.00  0.00    -0.375 N 
HETATM   31  C15 UNL     1      23.191   1.457   5.892  1.00  0.00     0.149 C 
HETATM   32  C16 UNL     1      24.507   1.115   5.147  1.00  0.00     0.187 C 
HETATM   33  O3  UNL     1      24.242   0.549   3.928  1.00  0.00    -0.388 OA
HETATM   34  C17 UNL     1      22.924   0.283   3.663  1.00  0.00     0.187 C 
HETATM   35  C18 UNL     1      22.256  -0.466   4.786  1.00  0.00     0.149 C 
ENDBRANCH   6  30
TORSDOF 6
ENDMDL
