MODEL 5
REMARK VINA RESULT: -8.131755559      2.388      3.820
REMARK  6 active torsions:
REMARK  status: ('A' for Active; 'I' for Inactive)
REMARK    1  A    between atoms: C2_2  and  C4_4 
REMARK    2  A    between atoms: C4_4  and  C5_5 
REMARK    3  A    between atoms: C8_8  and  S1_9 
REMARK    4  A    between atoms: S1_9  and  N1_12 
REMARK    5  A    between atoms: N1_12  and  C9_14 
REMARK    6  A    between atoms: C14_19  and  N2_20 
ROOT
HETATM    1  C9  UNL     1      23.037  -1.744   9.143  1.00  0.00     0.071 A 
HETATM    2  C10 UNL     1      22.153  -2.088  10.152  1.00  0.00     0.064 A 
HETATM    3  C11 UNL     1      20.847  -1.663  10.192  1.00  0.00     0.066 A 
HETATM    4  C12 UNL     1      20.358  -0.856   9.196  1.00  0.00     0.066 A 
HETATM    5  C13 UNL     1      21.205  -0.495   8.177  1.00  0.00     0.063 A 
HETATM    6  C14 UNL     1      22.532  -0.931   8.147  1.00  0.00     0.060 A 
HETATM    7  N3  UNL     1      19.063  -0.417   9.207  1.00  0.00    -0.312 N 
HETATM    8  C19 UNL     1      18.568   0.435   8.145  1.00  0.00     0.160 C 
HETATM    9  C20 UNL     1      18.302  -0.816  10.240  1.00  0.00     0.316 A 
HETATM   10  O4  UNL     1      17.083  -0.432  10.299  1.00  0.00    -0.262 OA
HETATM   11  C21 UNL     1      18.792  -1.627  11.242  1.00  0.00     0.316 A 
HETATM   12  O5  UNL     1      18.070  -1.996  12.207  1.00  0.00    -0.262 OA
HETATM   13  N4  UNL     1      20.069  -2.045  11.208  1.00  0.00    -0.312 N 
HETATM   14  C22 UNL     1      20.599  -2.909  12.266  1.00  0.00     0.160 C 
ENDROOT
BRANCH   1  15
HETATM   15  N1  UNL     1      24.370  -2.164   9.081  1.00  0.00    -0.278 N 
ATOM     16  H1  UNL     1      24.713  -2.629   8.240  1.00  0.00     0.179 HD
BRANCH  15  17
HETATM   17  S1  UNL     1      25.434  -1.906  10.398  1.00  0.00     0.263 S 
HETATM   18  O1  UNL     1      25.212  -2.958  11.486  1.00  0.00    -0.200 OA
HETATM   19  O2  UNL     1      26.878  -2.176   9.958  1.00  0.00    -0.200 OA
BRANCH  17  20
HETATM   20  C8  UNL     1      25.336  -0.330  11.107  1.00  0.00     0.079 A 
HETATM   21  C7  UNL     1      25.663   0.819  10.430  1.00  0.00     0.026 A 
HETATM   22  C6  UNL     1      25.584   2.076  11.037  1.00  0.00     0.009 A 
HETATM   23  C5  UNL     1      25.174   2.215  12.342  1.00  0.00    -0.058 A 
HETATM   24  C24 UNL     1      24.843   1.059  13.027  1.00  0.00     0.009 A 
HETATM   25  C23 UNL     1      24.920  -0.182  12.432  1.00  0.00     0.026 A 
BRANCH  23  26
HETATM   26  C4  UNL     1      25.086   3.557  12.993  1.00  0.00     0.042 C 
BRANCH  26  27
HETATM   27  C2  UNL     1      23.807   4.229  12.526  1.00  0.00    -0.019 C 
HETATM   28  C1  UNL     1      23.146   4.818  13.751  1.00  0.00     0.010 C 
HETATM   29  C3  UNL     1      24.091   5.362  11.589  1.00  0.00     0.010 C 
ENDBRANCH  26  27
ENDBRANCH  23  26
ENDBRANCH  17  20
ENDBRANCH  15  17
ENDBRANCH   1  15
BRANCH   6  30
HETATM   30  N2  UNL     1      23.347  -0.526   7.072  1.00  0.00    -0.375 N 
HETATM   31  C15 UNL     1      23.563  -1.238   5.835  1.00  0.00     0.149 C 
HETATM   32  C16 UNL     1      23.237  -0.264   4.674  1.00  0.00     0.187 C 
HETATM   33  O3  UNL     1      24.028   0.852   4.740  1.00  0.00    -0.388 OA
HETATM   34  C17 UNL     1      24.830   0.955   5.846  1.00  0.00     0.187 C 
HETATM   35  C18 UNL     1      24.071   0.730   7.126  1.00  0.00     0.149 C 
ENDBRANCH   6  30
TORSDOF 6
ENDMDL
