MODEL 2
REMARK VINA RESULT: -7.350230631      2.562      4.318
REMARK  5 active torsions:
REMARK  status: ('A' for Active; 'I' for Inactive)
REMARK       I    between atoms: N1_2  and  C2_4 
REMARK    1  A    between atoms: C2_4  and  C3_6 
REMARK    2  A    between atoms: C3_6  and  C4_7 
REMARK    3  A    between atoms: N2_17  and  C12_18 
REMARK    4  A    between atoms: C12_18  and  O3_19 
REMARK    5  A    between atoms: C12_18  and  C13_21 
ROOT
HETATM    1  C4  UNL     1       7.638  15.468  16.690  1.00  0.00     0.125 C 
HETATM    2  C5  UNL     1       7.601  14.254  15.779  1.00  0.00     0.202 C 
HETATM    3  O2  UNL     1       8.831  14.088  15.089  1.00  0.00    -0.347 OA
HETATM    4  C6  UNL     1      10.008  14.032  15.858  1.00  0.00     0.098 A 
HETATM    5  C7  UNL     1      11.036  13.153  15.598  1.00  0.00     0.081 A 
HETATM    6  C8  UNL     1      12.146  13.165  16.402  1.00  0.00     0.119 A 
HETATM    7  F1  UNL     1      13.201  12.313  16.193  1.00  0.00    -0.206 F 
HETATM    8  C9  UNL     1      12.182  14.061  17.442  1.00  0.00     0.044 A 
HETATM    9  C10 UNL     1      11.157  14.950  17.715  1.00  0.00     0.036 A 
HETATM   10  C11 UNL     1      10.024  14.943  16.892  1.00  0.00     0.070 A 
HETATM   11  N2  UNL     1       8.930  15.863  17.152  1.00  0.00    -0.317 N 
ENDROOT
BRANCH  11  12
HETATM   12  C12 UNL     1       9.267  17.099  17.760  1.00  0.00     0.153 C 
BRANCH  12  13
HETATM   13  O3  UNL     1       9.742  17.986  16.924  1.00  0.00    -0.345 OA
ATOM     14  H3  UNL     1       9.540  18.884  17.162  1.00  0.00     0.219 HD
ENDBRANCH  12  13
BRANCH  12  15
HETATM   15  C13 UNL     1       9.190  17.558  19.103  1.00  0.00     0.017 A 
HETATM   16  C14 UNL     1       8.758  16.812  20.166  1.00  0.00     0.018 A 
HETATM   17  C15 UNL     1       8.684  17.322  21.471  1.00  0.00     0.040 A 
HETATM   18  C16 UNL     1       9.062  18.631  21.706  1.00  0.00     0.096 A 
HETATM   19  C17 UNL     1       9.500  19.398  20.652  1.00  0.00     0.069 A 
HETATM   20  O5  UNL     1       9.005  19.179  22.991  1.00  0.00    -0.340 OA
HETATM   21  C18 UNL     1       9.553  18.856  19.404  1.00  0.00     0.048 A 
HETATM   22  N3  UNL     1       9.902  20.776  20.865  1.00  0.00    -0.323 N 
HETATM   23  C19 UNL     1       9.820  21.272  22.181  1.00  0.00     0.246 C 
ATOM     24  H3  UNL     1      10.230  21.360  20.095  1.00  0.00     0.169 HD
HETATM   25  O4  UNL     1      10.440  22.304  22.519  1.00  0.00    -0.271 OA
HETATM   26  C20 UNL     1       8.995  20.578  23.197  1.00  0.00     0.278 C 
ENDBRANCH  12  15
ENDBRANCH  11  12
BRANCH   1  27
HETATM   27  C3  UNL     1       6.895  16.541  15.917  1.00  0.00     0.130 C 
BRANCH  27  28
HETATM   28  C2  UNL     1       7.580  16.932  14.676  1.00  0.00     0.219 C 
HETATM   29  N1  UNL     1       7.510  16.130  13.516  1.00  0.00    -0.365 N 
HETATM   30  C1  UNL     1       8.146  16.443  12.273  1.00  0.00     0.149 C 
ATOM     31  H1  UNL     1       6.967  15.268  13.567  1.00  0.00     0.161 HD
HETATM   32  O1  UNL     1       8.247  17.993  14.612  1.00  0.00    -0.274 OA
ENDBRANCH  27  28
ENDBRANCH   1  27
TORSDOF 5
ENDMDL
