MODEL 20
REMARK VINA RESULT: -3.523355136      2.675      4.581
REMARK  5 active torsions:
REMARK  status: ('A' for Active; 'I' for Inactive)
REMARK       I    between atoms: N1_2  and  C2_4 
REMARK    1  A    between atoms: C2_4  and  C3_6 
REMARK    2  A    between atoms: C3_6  and  C4_7 
REMARK    3  A    between atoms: N2_17  and  C12_18 
REMARK    4  A    between atoms: C12_18  and  O3_19 
REMARK    5  A    between atoms: C12_18  and  C13_21 
ROOT
HETATM    1  C4  UNL     1       6.877  16.618  15.485  1.00  0.00     0.125 C 
HETATM    2  C5  UNL     1       7.620  15.930  14.354  1.00  0.00     0.202 C 
HETATM    3  O2  UNL     1       9.016  15.871  14.612  1.00  0.00    -0.347 OA
HETATM    4  C6  UNL     1       9.431  15.300  15.829  1.00  0.00     0.098 A 
HETATM    5  C7  UNL     1      10.515  14.458  15.934  1.00  0.00     0.081 A 
HETATM    6  C8  UNL     1      10.845  13.943  17.161  1.00  0.00     0.119 A 
HETATM    7  F1  UNL     1      11.914  13.099  17.328  1.00  0.00    -0.206 F 
HETATM    8  C9  UNL     1      10.071  14.293  18.240  1.00  0.00     0.044 A 
HETATM    9  C10 UNL     1       8.980  15.138  18.149  1.00  0.00     0.036 A 
HETATM   10  C11 UNL     1       8.642  15.669  16.898  1.00  0.00     0.070 A 
HETATM   11  N2  UNL     1       7.501  16.560  16.768  1.00  0.00    -0.317 N 
ENDROOT
BRANCH  11  12
HETATM   12  C12 UNL     1       7.173  17.346  17.902  1.00  0.00     0.153 C 
BRANCH  12  13
HETATM   13  O3  UNL     1       6.060  18.022  17.771  1.00  0.00    -0.345 OA
ATOM     14  H3  UNL     1       5.942  18.401  16.907  1.00  0.00     0.219 HD
ENDBRANCH  12  13
BRANCH  12  15
HETATM   15  C13 UNL     1       7.821  17.544  19.151  1.00  0.00     0.017 A 
HETATM   16  C14 UNL     1       8.077  16.561  20.068  1.00  0.00     0.018 A 
HETATM   17  C15 UNL     1       8.704  16.815  21.298  1.00  0.00     0.040 A 
HETATM   18  C16 UNL     1       9.083  18.108  21.607  1.00  0.00     0.096 A 
HETATM   19  C17 UNL     1       8.835  19.111  20.699  1.00  0.00     0.069 A 
HETATM   20  O5  UNL     1       9.711  18.405  22.820  1.00  0.00    -0.340 OA
HETATM   21  C18 UNL     1       8.224  18.812  19.519  1.00  0.00     0.048 A 
HETATM   22  N3  UNL     1       9.220  20.479  20.993  1.00  0.00    -0.323 N 
HETATM   23  C19 UNL     1       9.846  20.716  22.233  1.00  0.00     0.246 C 
ATOM     24  H3  UNL     1       9.045  21.236  20.332  1.00  0.00     0.169 HD
HETATM   25  O4  UNL     1      10.498  21.764  22.433  1.00  0.00    -0.271 OA
HETATM   26  C20 UNL     1       9.747  19.724  23.329  1.00  0.00     0.278 C 
ENDBRANCH  12  15
ENDBRANCH  11  12
BRANCH   1  27
HETATM   27  C3  UNL     1       6.632  18.024  14.972  1.00  0.00     0.130 C 
BRANCH  27  28
HETATM   28  C2  UNL     1       7.662  18.480  14.028  1.00  0.00     0.219 C 
HETATM   29  N1  UNL     1       7.690  18.014  12.695  1.00  0.00    -0.365 N 
HETATM   30  C1  UNL     1       8.658  18.410  11.717  1.00  0.00     0.149 C 
ATOM     31  H1  UNL     1       6.971  17.351  12.409  1.00  0.00     0.161 HD
HETATM   32  O1  UNL     1       8.547  19.297  14.380  1.00  0.00    -0.274 OA
ENDBRANCH  27  28
ENDBRANCH   1  27
TORSDOF 5
ENDMDL
