MODEL 7
REMARK VINA RESULT: -5.622563630      2.488      5.245
REMARK  5 active torsions:
REMARK  status: ('A' for Active; 'I' for Inactive)
REMARK       I    between atoms: N1_2  and  C2_4 
REMARK    1  A    between atoms: C2_4  and  C3_6 
REMARK    2  A    between atoms: C3_6  and  C4_7 
REMARK    3  A    between atoms: N2_17  and  C12_18 
REMARK    4  A    between atoms: C12_18  and  O3_19 
REMARK    5  A    between atoms: C12_18  and  C13_21 
ROOT
HETATM    1  C4  UNL     1       6.105  17.205  16.379  1.00  0.00     0.125 C 
HETATM    2  C5  UNL     1       6.017  18.669  15.988  1.00  0.00     0.202 C 
HETATM    3  O2  UNL     1       7.195  19.099  15.320  1.00  0.00    -0.347 OA
HETATM    4  C6  UNL     1       7.612  18.363  14.196  1.00  0.00     0.098 A 
HETATM    5  C7  UNL     1       8.097  18.950  13.049  1.00  0.00     0.081 A 
HETATM    6  C8  UNL     1       8.477  18.154  11.999  1.00  0.00     0.119 A 
HETATM    7  F1  UNL     1       8.967  18.682  10.831  1.00  0.00    -0.206 F 
HETATM    8  C9  UNL     1       8.353  16.794  12.140  1.00  0.00     0.044 A 
HETATM    9  C10 UNL     1       7.868  16.190  13.286  1.00  0.00     0.036 A 
HETATM   10  C11 UNL     1       7.483  17.000  14.362  1.00  0.00     0.070 A 
HETATM   11  N2  UNL     1       6.970  16.397  15.580  1.00  0.00    -0.317 N 
ENDROOT
BRANCH  11  12
HETATM   12  C12 UNL     1       7.443  15.099  15.899  1.00  0.00     0.153 C 
BRANCH  12  13
HETATM   13  O3  UNL     1       6.515  14.177  15.871  1.00  0.00    -0.345 OA
ATOM     14  H3  UNL     1       6.842  13.310  15.661  1.00  0.00     0.219 HD
ENDBRANCH  12  13
BRANCH  12  15
HETATM   15  C13 UNL     1       8.730  14.607  16.246  1.00  0.00     0.017 A 
HETATM   16  C14 UNL     1       9.075  13.284  16.308  1.00  0.00     0.018 A 
HETATM   17  C15 UNL     1      10.359  12.850  16.677  1.00  0.00     0.040 A 
HETATM   18  C16 UNL     1      11.323  13.790  16.991  1.00  0.00     0.096 A 
HETATM   19  C17 UNL     1      10.997  15.126  16.934  1.00  0.00     0.069 A 
HETATM   20  O5  UNL     1      12.614  13.402  17.362  1.00  0.00    -0.340 OA
HETATM   21  C18 UNL     1       9.738  15.494  16.571  1.00  0.00     0.048 A 
HETATM   22  N3  UNL     1      11.986  16.136  17.259  1.00  0.00    -0.323 N 
HETATM   23  C19 UNL     1      13.268  15.683  17.628  1.00  0.00     0.246 C 
ATOM     24  H3  UNL     1      11.763  17.131  17.222  1.00  0.00     0.169 HD
HETATM   25  O4  UNL     1      14.254  16.452  17.601  1.00  0.00    -0.271 OA
HETATM   26  C20 UNL     1      13.477  14.281  18.057  1.00  0.00     0.278 C 
ENDBRANCH  12  15
ENDBRANCH  11  12
BRANCH   1  27
HETATM   27  C3  UNL     1       6.459  17.231  17.854  1.00  0.00     0.130 C 
BRANCH  27  28
HETATM   28  C2  UNL     1       7.198  18.440  18.246  1.00  0.00     0.219 C 
HETATM   29  N1  UNL     1       8.603  18.511  18.127  1.00  0.00    -0.365 N 
HETATM   30  C1  UNL     1       9.392  19.649  18.487  1.00  0.00     0.149 C 
ATOM     31  H1  UNL     1       9.090  17.694  17.759  1.00  0.00     0.161 HD
HETATM   32  O1  UNL     1       6.599  19.446  18.699  1.00  0.00    -0.274 OA
ENDBRANCH  27  28
ENDBRANCH   1  27
TORSDOF 5
ENDMDL
