MODEL 14
REMARK VINA RESULT: -4.017952485      2.775      4.739
REMARK  5 active torsions:
REMARK  status: ('A' for Active; 'I' for Inactive)
REMARK       I    between atoms: N1_2  and  C2_4 
REMARK    1  A    between atoms: C2_4  and  C3_6 
REMARK    2  A    between atoms: C3_6  and  C4_7 
REMARK    3  A    between atoms: N2_17  and  C12_18 
REMARK    4  A    between atoms: C12_18  and  O3_19 
REMARK    5  A    between atoms: C12_18  and  C13_21 
ROOT
HETATM    1  C4  UNL     1       6.824  16.510  15.291  1.00  0.00     0.125 C 
HETATM    2  C5  UNL     1       7.537  15.643  14.269  1.00  0.00     0.202 C 
HETATM    3  O2  UNL     1       8.938  15.619  14.498  1.00  0.00    -0.347 OA
HETATM    4  C6  UNL     1       9.383  15.252  15.781  1.00  0.00     0.098 A 
HETATM    5  C7  UNL     1      10.469  14.433  15.996  1.00  0.00     0.081 A 
HETATM    6  C8  UNL     1      10.830  14.123  17.282  1.00  0.00     0.119 A 
HETATM    7  F1  UNL     1      11.902  13.312  17.558  1.00  0.00    -0.206 F 
HETATM    8  C9  UNL     1      10.083  14.649  18.308  1.00  0.00     0.044 A 
HETATM    9  C10 UNL     1       8.991  15.474  18.107  1.00  0.00     0.036 A 
HETATM   10  C11 UNL     1       8.622  15.795  16.795  1.00  0.00     0.070 A 
HETATM   11  N2  UNL     1       7.480  16.659  16.550  1.00  0.00    -0.317 N 
ENDROOT
BRANCH  11  12
HETATM   12  C12 UNL     1       7.182  17.621  17.548  1.00  0.00     0.153 C 
BRANCH  12  13
HETATM   13  O3  UNL     1       5.900  17.819  17.723  1.00  0.00    -0.345 OA
ATOM     14  H3  UNL     1       5.692  18.665  18.105  1.00  0.00     0.219 HD
ENDBRANCH  12  13
BRANCH  12  15
HETATM   15  C13 UNL     1       8.006  18.414  18.392  1.00  0.00     0.017 A 
HETATM   16  C14 UNL     1       8.787  19.457  17.973  1.00  0.00     0.018 A 
HETATM   17  C15 UNL     1       9.599  20.197  18.847  1.00  0.00     0.040 A 
HETATM   18  C16 UNL     1       9.618  19.868  20.190  1.00  0.00     0.096 A 
HETATM   19  C17 UNL     1       8.840  18.823  20.632  1.00  0.00     0.069 A 
HETATM   20  O5  UNL     1      10.411  20.579  21.095  1.00  0.00    -0.340 OA
HETATM   21  C18 UNL     1       8.070  18.137  19.743  1.00  0.00     0.048 A 
HETATM   22  N3  UNL     1       8.839  18.452  22.035  1.00  0.00    -0.323 N 
HETATM   23  C19 UNL     1       9.660  19.204  22.897  1.00  0.00     0.246 C 
ATOM     24  H3  UNL     1       8.268  17.680  22.381  1.00  0.00     0.169 HD
HETATM   25  O4  UNL     1       9.481  19.184  24.135  1.00  0.00    -0.271 OA
HETATM   26  C20 UNL     1      10.758  20.038  22.355  1.00  0.00     0.278 C 
ENDBRANCH  12  15
ENDBRANCH  11  12
BRANCH   1  27
HETATM   27  C3  UNL     1       6.567  17.815  14.562  1.00  0.00     0.130 C 
BRANCH  27  28
HETATM   28  C2  UNL     1       7.714  18.258  13.755  1.00  0.00     0.219 C 
HETATM   29  N1  UNL     1       7.826  17.915  12.390  1.00  0.00    -0.365 N 
HETATM   30  C1  UNL     1       8.909  18.307  11.540  1.00  0.00     0.149 C 
ATOM     31  H1  UNL     1       7.083  17.349  11.981  1.00  0.00     0.161 HD
HETATM   32  O1  UNL     1       8.628  18.956  14.258  1.00  0.00    -0.274 OA
ENDBRANCH  27  28
ENDBRANCH   1  27
TORSDOF 5
ENDMDL
