MODEL 3
REMARK VINA RESULT: -7.028655781      2.883      6.540
REMARK  5 active torsions:
REMARK  status: ('A' for Active; 'I' for Inactive)
REMARK       I    between atoms: N1_2  and  C2_4 
REMARK    1  A    between atoms: C2_4  and  C3_6 
REMARK    2  A    between atoms: C3_6  and  C4_7 
REMARK    3  A    between atoms: N2_17  and  C12_18 
REMARK    4  A    between atoms: C12_18  and  O3_19 
REMARK    5  A    between atoms: C12_18  and  C13_21 
ROOT
HETATM    1  C4  UNL     1       6.991  18.845  17.263  1.00  0.00     0.125 C 
HETATM    2  C5  UNL     1       6.074  19.151  18.434  1.00  0.00     0.202 C 
HETATM    3  O2  UNL     1       6.605  18.651  19.652  1.00  0.00    -0.347 OA
HETATM    4  C6  UNL     1       7.914  19.034  20.000  1.00  0.00     0.098 A 
HETATM    5  C7  UNL     1       8.284  19.372  21.282  1.00  0.00     0.081 A 
HETATM    6  C8  UNL     1       9.582  19.738  21.529  1.00  0.00     0.119 A 
HETATM    7  F1  UNL     1      10.009  20.086  22.787  1.00  0.00    -0.206 F 
HETATM    8  C9  UNL     1      10.462  19.752  20.476  1.00  0.00     0.044 A 
HETATM    9  C10 UNL     1      10.104  19.414  19.183  1.00  0.00     0.036 A 
HETATM   10  C11 UNL     1       8.780  19.037  18.927  1.00  0.00     0.070 A 
HETATM   11  N2  UNL     1       8.373  18.676  17.581  1.00  0.00    -0.317 N 
ENDROOT
BRANCH  11  12
HETATM   12  C12 UNL     1       9.368  18.113  16.741  1.00  0.00     0.153 C 
BRANCH  12  13
HETATM   13  O3  UNL     1       9.463  18.695  15.573  1.00  0.00    -0.345 OA
ATOM     14  H3  UNL     1      10.249  19.220  15.470  1.00  0.00     0.219 HD
ENDBRANCH  12  13
BRANCH  12  15
HETATM   15  C13 UNL     1      10.278  17.037  16.923  1.00  0.00     0.017 A 
HETATM   16  C14 UNL     1      11.622  17.173  17.143  1.00  0.00     0.018 A 
HETATM   17  C15 UNL     1      12.482  16.074  17.296  1.00  0.00     0.040 A 
HETATM   18  C16 UNL     1      11.960  14.795  17.224  1.00  0.00     0.096 A 
HETATM   19  C17 UNL     1      10.611  14.636  17.004  1.00  0.00     0.069 A 
HETATM   20  O5  UNL     1      12.780  13.673  17.373  1.00  0.00    -0.340 OA
HETATM   21  C18 UNL     1       9.820  15.736  16.862  1.00  0.00     0.048 A 
HETATM   22  N3  UNL     1      10.033  13.308  16.923  1.00  0.00    -0.323 N 
HETATM   23  C19 UNL     1      10.910  12.217  17.077  1.00  0.00     0.246 C 
ATOM     24  H3  UNL     1       9.035  13.170  16.761  1.00  0.00     0.169 HD
HETATM   25  O4  UNL     1      10.476  11.077  17.351  1.00  0.00    -0.271 OA
HETATM   26  C20 UNL     1      12.372  12.397  16.919  1.00  0.00     0.278 C 
ENDBRANCH  12  15
ENDBRANCH  11  12
BRANCH   1  27
HETATM   27  C3  UNL     1       6.352  17.645  16.591  1.00  0.00     0.130 C 
BRANCH  27  28
HETATM   28  C2  UNL     1       6.779  17.473  15.195  1.00  0.00     0.219 C 
HETATM   29  N1  UNL     1       7.375  16.271  14.753  1.00  0.00    -0.365 N 
HETATM   30  C1  UNL     1       7.816  16.027  13.414  1.00  0.00     0.149 C 
ATOM     31  H1  UNL     1       7.499  15.524  15.437  1.00  0.00     0.161 HD
HETATM   32  O1  UNL     1       6.626  18.392  14.353  1.00  0.00    -0.274 OA
ENDBRANCH  27  28
ENDBRANCH   1  27
TORSDOF 5
ENDMDL
