MODEL 6
REMARK VINA RESULT: -5.777357634      2.884      6.783
REMARK  5 active torsions:
REMARK  status: ('A' for Active; 'I' for Inactive)
REMARK       I    between atoms: N1_2  and  C2_4 
REMARK    1  A    between atoms: C2_4  and  C3_6 
REMARK    2  A    between atoms: C3_6  and  C4_7 
REMARK    3  A    between atoms: N2_17  and  C12_18 
REMARK    4  A    between atoms: C12_18  and  O3_19 
REMARK    5  A    between atoms: C12_18  and  C13_21 
ROOT
HETATM    1  C4  UNL     1       7.140  19.543  17.353  1.00  0.00     0.125 C 
HETATM    2  C5  UNL     1       6.254  20.105  18.450  1.00  0.00     0.202 C 
HETATM    3  O2  UNL     1       6.409  19.383  19.663  1.00  0.00    -0.347 OA
HETATM    4  C6  UNL     1       7.712  19.238  20.174  1.00  0.00     0.098 A 
HETATM    5  C7  UNL     1       8.012  19.350  21.512  1.00  0.00     0.081 A 
HETATM    6  C8  UNL     1       9.312  19.199  21.922  1.00  0.00     0.119 A 
HETATM    7  F1  UNL     1       9.672  19.300  23.242  1.00  0.00    -0.206 F 
HETATM    8  C9  UNL     1      10.265  18.941  20.967  1.00  0.00     0.044 A 
HETATM    9  C10 UNL     1       9.977  18.825  19.619  1.00  0.00     0.036 A 
HETATM   10  C11 UNL     1       8.650  18.976  19.198  1.00  0.00     0.070 A 
HETATM   11  N2  UNL     1       8.315  18.860  17.790  1.00  0.00    -0.317 N 
ENDROOT
BRANCH  11  12
HETATM   12  C12 UNL     1       9.139  18.013  17.005  1.00  0.00     0.153 C 
BRANCH  12  13
HETATM   13  O3  UNL     1       9.914  18.658  16.170  1.00  0.00    -0.345 OA
ATOM     14  H3  UNL     1      10.009  18.229  15.327  1.00  0.00     0.219 HD
ENDBRANCH  12  13
BRANCH  12  15
HETATM   15  C13 UNL     1       9.283  16.601  16.947  1.00  0.00     0.017 A 
HETATM   16  C14 UNL     1       8.249  15.704  16.975  1.00  0.00     0.018 A 
HETATM   17  C15 UNL     1       8.448  14.315  16.935  1.00  0.00     0.040 A 
HETATM   18  C16 UNL     1       9.738  13.821  16.864  1.00  0.00     0.096 A 
HETATM   19  C17 UNL     1      10.791  14.705  16.835  1.00  0.00     0.069 A 
HETATM   20  O5  UNL     1       9.981  12.444  16.821  1.00  0.00    -0.340 OA
HETATM   21  C18 UNL     1      10.544  16.044  16.876  1.00  0.00     0.048 A 
HETATM   22  N3  UNL     1      12.156  14.218  16.762  1.00  0.00    -0.323 N 
HETATM   23  C19 UNL     1      12.337  12.822  16.724  1.00  0.00     0.246 C 
ATOM     24  H3  UNL     1      12.949  14.859  16.739  1.00  0.00     0.169 HD
HETATM   25  O4  UNL     1      13.416  12.324  16.335  1.00  0.00    -0.271 OA
HETATM   26  C20 UNL     1      11.249  11.910  17.147  1.00  0.00     0.278 C 
ENDBRANCH  12  15
ENDBRANCH  11  12
BRANCH   1  27
HETATM   27  C3  UNL     1       6.203  18.698  16.510  1.00  0.00     0.130 C 
BRANCH  27  28
HETATM   28  C2  UNL     1       6.706  18.466  15.149  1.00  0.00     0.219 C 
HETATM   29  N1  UNL     1       7.372  19.483  14.431  1.00  0.00    -0.365 N 
HETATM   30  C1  UNL     1       7.890  19.335  13.104  1.00  0.00     0.149 C 
ATOM     31  H1  UNL     1       7.492  20.386  14.889  1.00  0.00     0.161 HD
HETATM   32  O1  UNL     1       6.559  17.354  14.585  1.00  0.00    -0.274 OA
ENDBRANCH  27  28
ENDBRANCH   1  27
TORSDOF 5
ENDMDL
