MODEL 4
REMARK VINA RESULT: -6.781438020      2.685      4.531
REMARK  5 active torsions:
REMARK  status: ('A' for Active; 'I' for Inactive)
REMARK       I    between atoms: N1_2  and  C2_4 
REMARK    1  A    between atoms: C2_4  and  C3_6 
REMARK    2  A    between atoms: C3_6  and  C4_7 
REMARK    3  A    between atoms: N2_17  and  C12_18 
REMARK    4  A    between atoms: C12_18  and  O3_19 
REMARK    5  A    between atoms: C12_18  and  C13_21 
ROOT
HETATM    1  C4  UNL     1       7.777  15.631  16.386  1.00  0.00     0.125 C 
HETATM    2  C5  UNL     1       7.749  14.434  15.452  1.00  0.00     0.202 C 
HETATM    3  O2  UNL     1       9.025  14.199  14.873  1.00  0.00    -0.347 OA
HETATM    4  C6  UNL     1      10.120  14.058  15.745  1.00  0.00     0.098 A 
HETATM    5  C7  UNL     1      11.111  13.120  15.562  1.00  0.00     0.081 A 
HETATM    6  C8  UNL     1      12.141  13.050  16.465  1.00  0.00     0.119 A 
HETATM    7  F1  UNL     1      13.156  12.135  16.335  1.00  0.00    -0.206 F 
HETATM    8  C9  UNL     1      12.137  13.927  17.521  1.00  0.00     0.044 A 
HETATM    9  C10 UNL     1      11.149  14.876  17.716  1.00  0.00     0.036 A 
HETATM   10  C11 UNL     1      10.097  14.952  16.794  1.00  0.00     0.070 A 
HETATM   11  N2  UNL     1       9.044  15.937  16.970  1.00  0.00    -0.317 N 
ENDROOT
BRANCH  11  12
HETATM   12  C12 UNL     1       9.399  17.140  17.631  1.00  0.00     0.153 C 
BRANCH  12  13
HETATM   13  O3  UNL     1       9.920  18.043  16.839  1.00  0.00    -0.345 OA
ATOM     14  H3  UNL     1       9.604  18.924  17.003  1.00  0.00     0.219 HD
ENDBRANCH  12  13
BRANCH  12  15
HETATM   15  C13 UNL     1       9.302  17.554  18.987  1.00  0.00     0.017 A 
HETATM   16  C14 UNL     1       8.882  16.764  20.022  1.00  0.00     0.018 A 
HETATM   17  C15 UNL     1       8.786  17.229  21.343  1.00  0.00     0.040 A 
HETATM   18  C16 UNL     1       9.129  18.539  21.622  1.00  0.00     0.096 A 
HETATM   19  C17 UNL     1       9.554  19.351  20.596  1.00  0.00     0.069 A 
HETATM   20  O5  UNL     1       9.049  19.043  22.923  1.00  0.00    -0.340 OA
HETATM   21  C18 UNL     1       9.629  18.851  19.332  1.00  0.00     0.048 A 
HETATM   22  N3  UNL     1       9.920  20.731  20.856  1.00  0.00    -0.323 N 
HETATM   23  C19 UNL     1       9.816  21.181  22.187  1.00  0.00     0.246 C 
ATOM     24  H3  UNL     1      10.238  21.347  20.108  1.00  0.00     0.169 HD
HETATM   25  O4  UNL     1      10.408  22.217  22.562  1.00  0.00    -0.271 OA
HETATM   26  C20 UNL     1       9.002  20.434  23.173  1.00  0.00     0.278 C 
ENDBRANCH  12  15
ENDBRANCH  11  12
BRANCH   1  27
HETATM   27  C3  UNL     1       7.177  16.759  15.569  1.00  0.00     0.130 C 
BRANCH  27  28
HETATM   28  C2  UNL     1       6.325  17.654  16.364  1.00  0.00     0.219 C 
HETATM   29  N1  UNL     1       6.878  18.710  17.122  1.00  0.00    -0.365 N 
HETATM   30  C1  UNL     1       6.117  19.623  17.919  1.00  0.00     0.149 C 
ATOM     31  H1  UNL     1       7.890  18.831  17.099  1.00  0.00     0.161 HD
HETATM   32  O1  UNL     1       5.079  17.507  16.392  1.00  0.00    -0.274 OA
ENDBRANCH  27  28
ENDBRANCH   1  27
TORSDOF 5
ENDMDL
