MODEL 4
REMARK VINA RESULT: -4.669325804      1.543      6.784
REMARK  2 active torsions:
REMARK  status: ('A' for Active; 'I' for Inactive)
REMARK    1  A    between atoms: O1_2  and  C2_3 
REMARK    2  A    between atoms: C2_3  and  C3_5 
ROOT
HETATM    1  C3  UNL     1       8.279  15.743  16.478  1.00  0.00     0.097 C 
HETATM    2  C4  UNL     1       9.085  15.558  15.180  1.00  0.00     0.050 C 
HETATM    3  C5  UNL     1       8.336  16.325  14.167  1.00  0.00    -0.064 C 
HETATM    4  C6  UNL     1       8.080  15.897  12.942  1.00  0.00     0.053 C 
HETATM    5  C7  UNL     1       7.328  16.746  12.023  1.00  0.00     0.149 C 
HETATM    6  O3  UNL     1       6.618  16.209  11.164  1.00  0.00    -0.293 OA
HETATM    7  C8  UNL     1       7.449  18.220  12.158  1.00  0.00     0.084 C 
HETATM    8  C9  UNL     1       8.234  18.565  13.409  1.00  0.00     0.025 C 
HETATM    9  C10 UNL     1       7.842  17.670  14.569  1.00  0.00     0.014 C 
HETATM   10  C11 UNL     1       6.327  17.694  14.642  1.00  0.00     0.023 C 
HETATM   11  C12 UNL     1       8.430  18.153  15.840  1.00  0.00     0.103 A 
HETATM   12  O4  UNL     1       9.782  18.709  15.710  1.00  0.00    -0.368 OA
HETATM   13  C13 UNL     1       8.642  19.467  16.161  1.00  0.00     0.159 A 
HETATM   14  C14 UNL     1       8.777  19.928  17.587  1.00  0.00     0.047 C 
HETATM   15  C15 UNL     1       8.571  18.862  18.595  1.00  0.00    -0.006 C 
HETATM   16  C16 UNL     1       7.088  18.718  18.837  1.00  0.00     0.019 C 
HETATM   17  C17 UNL     1       9.200  17.583  18.012  1.00  0.00     0.005 C 
HETATM   18  C18 UNL     1       9.590  16.846  19.193  1.00  0.00     0.009 C 
HETATM   19  C19 UNL     1      10.236  17.972  20.040  1.00  0.00     0.040 C 
HETATM   20  C20 UNL     1       9.214  19.056  19.906  1.00  0.00     0.079 C 
HETATM   21  C21 UNL     1       9.763  20.432  20.150  1.00  0.00     0.049 C 
HETATM   22  C22 UNL     1       9.744  20.563  21.660  1.00  0.00     0.114 C 
HETATM   23  C23 UNL     1       9.030  19.341  22.116  1.00  0.00     0.259 C 
HETATM   24  O5  UNL     1       9.081  18.829  23.290  1.00  0.00    -0.265 OA
HETATM   25  O6  UNL     1       8.322  18.908  21.006  1.00  0.00    -0.309 OA
HETATM   26  C24 UNL     1       8.297  17.115  16.981  1.00  0.00     0.043 C 
ENDROOT
BRANCH   1  27
HETATM   27  C2  UNL     1       8.566  14.620  17.340  1.00  0.00     0.263 C 
HETATM   28  O2  UNL     1       9.710  14.503  17.904  1.00  0.00    -0.265 OA
BRANCH  27  29
HETATM   29  O1  UNL     1       7.694  13.585  17.647  1.00  0.00    -0.326 OA
HETATM   30  C1  UNL     1       6.497  13.342  16.927  1.00  0.00     0.213 C 
ENDBRANCH  27  29
ENDBRANCH   1  27
TORSDOF 2
ENDMDL
