MODEL 3
REMARK VINA RESULT: -5.977027824      1.400      6.660
REMARK  2 active torsions:
REMARK  status: ('A' for Active; 'I' for Inactive)
REMARK    1  A    between atoms: O1_2  and  C2_3 
REMARK    2  A    between atoms: C2_3  and  C3_5 
ROOT
HETATM    1  C3  UNL     1       9.627  16.692  16.776  1.00  0.00     0.097 C 
HETATM    2  C4  UNL     1       9.846  17.260  15.362  1.00  0.00     0.050 C 
HETATM    3  C5  UNL     1       8.524  17.158  14.714  1.00  0.00    -0.064 C 
HETATM    4  C6  UNL     1       8.328  16.732  13.478  1.00  0.00     0.053 C 
HETATM    5  C7  UNL     1       6.971  16.674  12.941  1.00  0.00     0.149 C 
HETATM    6  O3  UNL     1       6.702  15.809  12.098  1.00  0.00    -0.293 OA
HETATM    7  C8  UNL     1       5.972  17.658  13.430  1.00  0.00     0.084 C 
HETATM    8  C9  UNL     1       6.548  18.454  14.585  1.00  0.00     0.025 C 
HETATM    9  C10 UNL     1       7.344  17.566  15.522  1.00  0.00     0.014 C 
HETATM   10  C11 UNL     1       6.463  16.372  15.841  1.00  0.00     0.023 C 
HETATM   11  C12 UNL     1       7.707  18.288  16.764  1.00  0.00     0.103 A 
HETATM   12  O4  UNL     1       8.038  19.704  16.567  1.00  0.00    -0.368 OA
HETATM   13  C13 UNL     1       6.937  19.242  17.374  1.00  0.00     0.159 A 
HETATM   14  C14 UNL     1       7.099  19.586  18.831  1.00  0.00     0.047 C 
HETATM   15  C15 UNL     1       8.086  18.748  19.549  1.00  0.00    -0.006 C 
HETATM   16  C16 UNL     1       7.401  17.473  19.980  1.00  0.00     0.019 C 
HETATM   17  C17 UNL     1       9.241  18.492  18.563  1.00  0.00     0.005 C 
HETATM   18  C18 UNL     1      10.381  18.322  19.437  1.00  0.00     0.009 C 
HETATM   19  C19 UNL     1      10.165  19.492  20.430  1.00  0.00     0.040 C 
HETATM   20  C20 UNL     1       8.711  19.338  20.746  1.00  0.00     0.079 C 
HETATM   21  C21 UNL     1       8.068  20.599  21.245  1.00  0.00     0.049 C 
HETATM   22  C22 UNL     1       8.414  20.619  22.720  1.00  0.00     0.114 C 
HETATM   23  C23 UNL     1       9.056  19.298  22.955  1.00  0.00     0.259 C 
HETATM   24  O5  UNL     1       9.826  18.995  23.934  1.00  0.00    -0.265 OA
HETATM   25  O6  UNL     1       8.633  18.506  21.898  1.00  0.00    -0.309 OA
HETATM   26  C24 UNL     1       8.756  17.521  17.605  1.00  0.00     0.043 C 
ENDROOT
BRANCH   1  27
HETATM   27  C2  UNL     1      10.902  16.216  17.262  1.00  0.00     0.263 C 
HETATM   28  O2  UNL     1      11.964  16.912  17.103  1.00  0.00    -0.265 OA
BRANCH  27  29
HETATM   29  O1  UNL     1      11.125  15.015  17.921  1.00  0.00    -0.326 OA
HETATM   30  C1  UNL     1      12.031  14.031  17.451  1.00  0.00     0.213 C 
ENDBRANCH  27  29
ENDBRANCH   1  27
TORSDOF 2
ENDMDL
