MODEL 2
REMARK VINA RESULT: -6.866604972      1.450      6.667
REMARK  2 active torsions:
REMARK  status: ('A' for Active; 'I' for Inactive)
REMARK    1  A    between atoms: O1_2  and  C2_3 
REMARK    2  A    between atoms: C2_3  and  C3_5 
ROOT
HETATM    1  C3  UNL     1       8.360  15.795  16.760  1.00  0.00     0.097 C 
HETATM    2  C4  UNL     1       9.164  15.589  15.465  1.00  0.00     0.050 C 
HETATM    3  C5  UNL     1       8.393  16.307  14.433  1.00  0.00    -0.064 C 
HETATM    4  C6  UNL     1       8.143  15.835  13.223  1.00  0.00     0.053 C 
HETATM    5  C7  UNL     1       7.367  16.638  12.281  1.00  0.00     0.149 C 
HETATM    6  O3  UNL     1       6.666  16.058  11.443  1.00  0.00    -0.293 OA
HETATM    7  C8  UNL     1       7.454  18.118  12.371  1.00  0.00     0.084 C 
HETATM    8  C9  UNL     1       8.235  18.519  13.606  1.00  0.00     0.025 C 
HETATM    9  C10 UNL     1       7.869  17.651  14.795  1.00  0.00     0.014 C 
HETATM   10  C11 UNL     1       6.354  17.642  14.874  1.00  0.00     0.023 C 
HETATM   11  C12 UNL     1       8.451  18.187  16.048  1.00  0.00     0.103 A 
HETATM   12  O4  UNL     1       9.789  18.770  15.895  1.00  0.00    -0.368 OA
HETATM   13  C13 UNL     1       8.633  19.515  16.328  1.00  0.00     0.159 A 
HETATM   14  C14 UNL     1       8.763  20.022  17.738  1.00  0.00     0.047 C 
HETATM   15  C15 UNL     1       8.587  18.984  18.779  1.00  0.00    -0.006 C 
HETATM   16  C16 UNL     1       7.108  18.813  19.032  1.00  0.00     0.019 C 
HETATM   17  C17 UNL     1       9.243  17.702  18.232  1.00  0.00     0.005 C 
HETATM   18  C18 UNL     1       9.656  17.012  19.434  1.00  0.00     0.009 C 
HETATM   19  C19 UNL     1      10.278  18.178  20.243  1.00  0.00     0.040 C 
HETATM   20  C20 UNL     1       9.231  19.233  20.081  1.00  0.00     0.079 C 
HETATM   21  C21 UNL     1       9.748  20.628  20.280  1.00  0.00     0.049 C 
HETATM   22  C22 UNL     1       9.732  20.805  21.785  1.00  0.00     0.114 C 
HETATM   23  C23 UNL     1       9.049  19.581  22.282  1.00  0.00     0.259 C 
HETATM   24  O5  UNL     1       9.117  19.108  23.471  1.00  0.00    -0.265 OA
HETATM   25  O6  UNL     1       8.347  19.098  21.189  1.00  0.00    -0.309 OA
HETATM   26  C24 UNL     1       8.348  17.182  17.221  1.00  0.00     0.043 C 
ENDROOT
BRANCH   1  27
HETATM   27  C2  UNL     1       8.676  14.706  17.655  1.00  0.00     0.263 C 
HETATM   28  O2  UNL     1       7.806  14.266  18.485  1.00  0.00    -0.265 OA
BRANCH  27  29
HETATM   29  O1  UNL     1       9.890  14.037  17.727  1.00  0.00    -0.326 OA
HETATM   30  C1  UNL     1      11.120  14.621  17.328  1.00  0.00     0.213 C 
ENDBRANCH  27  29
ENDBRANCH   1  27
TORSDOF 2
ENDMDL
