MODEL 1
REMARK VINA RESULT: -8.346692046      0.000      0.000
REMARK  2 active torsions:
REMARK  status: ('A' for Active; 'I' for Inactive)
REMARK    1  A    between atoms: O1_2  and  C2_3 
REMARK    2  A    between atoms: C2_3  and  C3_5 
ROOT
HETATM    1  C3  UNL     1       9.932  16.671  18.585  1.00  0.00     0.097 C 
HETATM    2  C4  UNL     1       9.325  16.395  19.972  1.00  0.00     0.050 C 
HETATM    3  C5  UNL     1       9.166  17.731  20.577  1.00  0.00    -0.064 C 
HETATM    4  C6  UNL     1       9.478  18.027  21.827  1.00  0.00     0.053 C 
HETATM    5  C7  UNL     1       9.277  19.388  22.319  1.00  0.00     0.149 C 
HETATM    6  O3  UNL     1      10.032  19.819  23.198  1.00  0.00    -0.293 OA
HETATM    7  C8  UNL     1       8.172  20.194  21.742  1.00  0.00     0.084 C 
HETATM    8  C9  UNL     1       7.554  19.464  20.566  1.00  0.00     0.025 C 
HETATM    9  C10 UNL     1       8.617  18.805  19.707  1.00  0.00     0.014 C 
HETATM   10  C11 UNL     1       9.664  19.866  19.425  1.00  0.00     0.023 C 
HETATM   11  C12 UNL     1       8.041  18.295  18.441  1.00  0.00     0.103 A 
HETATM   12  O4  UNL     1       6.691  17.735  18.571  1.00  0.00    -0.368 OA
HETATM   13  C13 UNL     1       7.011  18.877  17.752  1.00  0.00     0.159 A 
HETATM   14  C14 UNL     1       6.787  18.623  16.286  1.00  0.00     0.047 C 
HETATM   15  C15 UNL     1       7.819  17.773  15.650  1.00  0.00    -0.006 C 
HETATM   16  C16 UNL     1       8.986  18.652  15.266  1.00  0.00     0.019 C 
HETATM   17  C17 UNL     1       8.204  16.703  16.688  1.00  0.00     0.005 C 
HETATM   18  C18 UNL     1       8.614  15.586  15.865  1.00  0.00     0.009 C 
HETATM   19  C19 UNL     1       7.486  15.577  14.802  1.00  0.00     0.040 C 
HETATM   20  C20 UNL     1       7.415  17.027  14.445  1.00  0.00     0.079 C 
HETATM   21  C21 UNL     1       6.097  17.436  13.855  1.00  0.00     0.049 C 
HETATM   22  C22 UNL     1       6.224  17.055  12.394  1.00  0.00     0.114 C 
HETATM   23  C23 UNL     1       7.645  16.639  12.255  1.00  0.00     0.259 C 
HETATM   24  O5  UNL     1       8.130  15.907  11.322  1.00  0.00    -0.265 OA
HETATM   25  O6  UNL     1       8.290  17.215  13.338  1.00  0.00    -0.309 OA
HETATM   26  C24 UNL     1       9.021  17.369  17.681  1.00  0.00     0.043 C 
ENDROOT
BRANCH   1  27
HETATM   27  C2  UNL     1      10.643  15.483  18.170  1.00  0.00     0.263 C 
HETATM   28  O2  UNL     1      10.191  14.318  18.452  1.00  0.00    -0.265 OA
BRANCH  27  29
HETATM   29  O1  UNL     1      11.834  15.452  17.460  1.00  0.00    -0.326 OA
HETATM   30  C1  UNL     1      12.422  14.252  16.985  1.00  0.00     0.213 C 
ENDBRANCH  27  29
ENDBRANCH   1  27
TORSDOF 2
ENDMDL
