MODEL 12
REMARK VINA RESULT: -3.854334645      1.251      1.251
REMARK  4 active torsions:
REMARK  status: ('A' for Active; 'I' for Inactive)
REMARK    1  A    between atoms: O1_2  and  C2_3 
REMARK    2  A    between atoms: C5_7  and  O3_8 
REMARK    3  A    between atoms: C6_10  and  O4_11 
REMARK    4  A    between atoms: C7_13  and  O5_14 
ROOT
HETATM    1  C2  UNL     1      -2.831  14.498  -9.787  1.00  0.00     0.290 C 
HETATM    2  O2  UNL     1      -3.049  15.062  -8.560  1.00  0.00    -0.351 OA
HETATM    3  C3  UNL     1      -4.184  15.783  -8.389  1.00  0.00     0.152 C 
HETATM    4  C4  UNL     1      -4.136  16.401  -6.999  1.00  0.00     0.042 C 
HETATM    5  C5  UNL     1      -4.335  16.920  -9.365  1.00  0.00     0.178 C 
HETATM    6  C6  UNL     1      -3.876  16.587 -10.740  1.00  0.00     0.183 C 
HETATM    7  C7  UNL     1      -3.446  15.178 -10.951  1.00  0.00     0.204 C 
ENDROOT
BRANCH   1   8
HETATM    8  O1  UNL     1      -3.066  13.149  -9.708  1.00  0.00    -0.363 OA
HETATM    9  C1  UNL     1      -2.383  12.467  -8.743  1.00  0.00     0.204 C 
ENDBRANCH   1   8
BRANCH   7  10
HETATM   10  O5  UNL     1      -4.552  14.457 -11.468  1.00  0.00    -0.388 OA
ATOM     11  H5  UNL     1      -4.935  14.883 -12.226  1.00  0.00     0.210 HD
ENDBRANCH   7  10
BRANCH   6  12
HETATM   12  O4  UNL     1      -2.873  17.512 -11.108  1.00  0.00    -0.390 OA
ATOM     13  H4  UNL     1      -2.643  18.022 -10.340  1.00  0.00     0.210 HD
ENDBRANCH   6  12
BRANCH   5  14
HETATM   14  O3  UNL     1      -3.616  18.015  -8.834  1.00  0.00    -0.390 OA
ATOM     15  H3  UNL     1      -3.975  18.187  -7.972  1.00  0.00     0.210 HD
ENDBRANCH   5  14
TORSDOF 4
ENDMDL
