MODEL 1
REMARK VINA RESULT: -4.849025181      0.000      0.000
REMARK  4 active torsions:
REMARK  status: ('A' for Active; 'I' for Inactive)
REMARK    1  A    between atoms: O1_2  and  C2_3 
REMARK    2  A    between atoms: C5_7  and  O3_8 
REMARK    3  A    between atoms: C6_10  and  O4_11 
REMARK    4  A    between atoms: C7_13  and  O5_14 
ROOT
HETATM    1  C2  UNL     1      -1.991  15.620  -9.252  1.00  0.00     0.290 C 
HETATM    2  O2  UNL     1      -2.503  16.078  -8.068  1.00  0.00    -0.351 OA
HETATM    3  C3  UNL     1      -3.845  16.243  -7.982  1.00  0.00     0.152 C 
HETATM    4  C4  UNL     1      -4.150  16.870  -6.629  1.00  0.00     0.042 C 
HETATM    5  C5  UNL     1      -4.412  17.168  -9.027  1.00  0.00     0.178 C 
HETATM    6  C6  UNL     1      -3.774  17.018 -10.362  1.00  0.00     0.183 C 
HETATM    7  C7  UNL     1      -2.769  15.927 -10.475  1.00  0.00     0.204 C 
ENDROOT
BRANCH   1   8
HETATM    8  O1  UNL     1      -1.629  14.306  -9.104  1.00  0.00    -0.363 OA
HETATM    9  C1  UNL     1      -0.798  14.016  -8.060  1.00  0.00     0.204 C 
ENDBRANCH   1   8
BRANCH   7  10
HETATM   10  O5  UNL     1      -3.425  14.781 -10.992  1.00  0.00    -0.388 OA
ATOM     11  H5  UNL     1      -4.227  15.004 -11.450  1.00  0.00     0.210 HD
ENDBRANCH   7  10
BRANCH   6  12
HETATM   12  O4  UNL     1      -3.245  18.272 -10.743  1.00  0.00    -0.390 OA
ATOM     13  H4  UNL     1      -3.823  18.652 -11.395  1.00  0.00     0.210 HD
ENDBRANCH   6  12
BRANCH   5  14
HETATM   14  O3  UNL     1      -4.266  18.484  -8.532  1.00  0.00    -0.390 OA
ATOM     15  H3  UNL     1      -5.132  18.781  -8.279  1.00  0.00     0.210 HD
ENDBRANCH   5  14
TORSDOF 4
ENDMDL
