MODEL 7
REMARK VINA RESULT: -4.316553100      2.028      2.235
REMARK  4 active torsions:
REMARK  status: ('A' for Active; 'I' for Inactive)
REMARK    1  A    between atoms: O1_2  and  C2_3 
REMARK    2  A    between atoms: C5_7  and  O3_8 
REMARK    3  A    between atoms: C6_10  and  O4_11 
REMARK    4  A    between atoms: C7_13  and  O5_14 
ROOT
HETATM    1  C2  UNL     1      -2.961  14.167  -7.376  1.00  0.00     0.290 C 
HETATM    2  O2  UNL     1      -3.205  15.383  -6.798  1.00  0.00    -0.351 OA
HETATM    3  C3  UNL     1      -4.168  16.162  -7.347  1.00  0.00     0.152 C 
HETATM    4  C4  UNL     1      -4.164  17.494  -6.612  1.00  0.00     0.042 C 
HETATM    5  C5  UNL     1      -3.945  16.468  -8.805  1.00  0.00     0.178 C 
HETATM    6  C6  UNL     1      -3.399  15.320  -9.576  1.00  0.00     0.183 C 
HETATM    7  C7  UNL     1      -3.262  14.045  -8.822  1.00  0.00     0.204 C 
ENDROOT
BRANCH   1   8
HETATM    8  O1  UNL     1      -3.492  13.181  -6.583  1.00  0.00    -0.363 OA
HETATM    9  C1  UNL     1      -2.605  12.429  -5.869  1.00  0.00     0.204 C 
ENDBRANCH   1   8
BRANCH   7  10
HETATM   10  O5  UNL     1      -4.424  13.269  -9.061  1.00  0.00    -0.388 OA
ATOM     11  H5  UNL     1      -4.294  12.637  -9.759  1.00  0.00     0.210 HD
ENDBRANCH   7  10
BRANCH   6  12
HETATM   12  O4  UNL     1      -2.181  15.724 -10.168  1.00  0.00    -0.390 OA
ATOM     13  H4  UNL     1      -1.962  15.101 -10.851  1.00  0.00     0.210 HD
ENDBRANCH   6  12
BRANCH   5  14
HETATM   14  O3  UNL     1      -3.078  17.584  -8.861  1.00  0.00    -0.390 OA
ATOM     15  H3  UNL     1      -2.192  17.243  -8.859  1.00  0.00     0.210 HD
ENDBRANCH   5  14
TORSDOF 4
ENDMDL
