MODEL 5
REMARK VINA RESULT: -4.451874618      1.102      1.439
REMARK  4 active torsions:
REMARK  status: ('A' for Active; 'I' for Inactive)
REMARK    1  A    between atoms: O1_2  and  C2_3 
REMARK    2  A    between atoms: C5_7  and  O3_8 
REMARK    3  A    between atoms: C6_10  and  O4_11 
REMARK    4  A    between atoms: C7_13  and  O5_14 
ROOT
HETATM    1  C2  UNL     1      -1.962  15.243  -8.772  1.00  0.00     0.290 C 
HETATM    2  O2  UNL     1      -2.663  16.304  -8.269  1.00  0.00    -0.351 OA
HETATM    3  C3  UNL     1      -3.833  16.631  -8.870  1.00  0.00     0.152 C 
HETATM    4  C4  UNL     1      -4.353  17.902  -8.215  1.00  0.00     0.042 C 
HETATM    5  C5  UNL     1      -3.699  16.923 -10.342  1.00  0.00     0.178 C 
HETATM    6  C6  UNL     1      -2.738  16.029 -11.040  1.00  0.00     0.183 C 
HETATM    7  C7  UNL     1      -2.152  14.942 -10.211  1.00  0.00     0.204 C 
ENDROOT
BRANCH   1   8
HETATM    8  O1  UNL     1      -2.104  14.172  -7.927  1.00  0.00    -0.363 OA
HETATM    9  C1  UNL     1      -0.954  13.630  -7.431  1.00  0.00     0.204 C 
ENDBRANCH   1   8
BRANCH   7  10
HETATM   10  O5  UNL     1      -2.927  13.772 -10.413  1.00  0.00    -0.388 OA
ATOM     11  H5  UNL     1      -3.353  13.768 -11.262  1.00  0.00     0.210 HD
ENDBRANCH   7  10
BRANCH   6  12
HETATM   12  O4  UNL     1      -1.745  16.832 -11.645  1.00  0.00    -0.390 OA
ATOM     13  H4  UNL     1      -1.592  16.504 -12.524  1.00  0.00     0.210 HD
ENDBRANCH   6  12
BRANCH   5  14
HETATM   14  O3  UNL     1      -3.316  18.279 -10.457  1.00  0.00    -0.390 OA
ATOM     15  H3  UNL     1      -3.548  18.557 -11.335  1.00  0.00     0.210 HD
ENDBRANCH   5  14
TORSDOF 4
ENDMDL
