MODEL 9
REMARK VINA RESULT: -6.305650491      3.715      5.129
REMARK  9 active torsions:
REMARK  status: ('A' for Active; 'I' for Inactive)
REMARK    1  A    between atoms: N1_5  and  C4_6 
REMARK    2  A    between atoms: C6_8  and  O2_9 
REMARK    3  A    between atoms: C7_11  and  C8_12 
REMARK    4  A    between atoms: C8_12  and  O3_13 
REMARK    5  A    between atoms: O3_13  and  P1_14 
REMARK    6  A    between atoms: P1_14  and  N2_17 
REMARK    7  A    between atoms: N2_17  and  P2_19 
REMARK    8  A    between atoms: P2_19  and  O8_22 
REMARK    9  A    between atoms: O8_22  and  P3_23 
ROOT
HETATM    1  C4  UNL     1      24.652  16.663  28.463  1.00  0.00     0.235 C 
HETATM    2  C5  UNL     1      24.849  15.211  28.883  1.00  0.00     0.088 C 
HETATM    3  C6  UNL     1      23.526  14.930  29.592  1.00  0.00     0.153 C 
HETATM    4  C7  UNL     1      22.702  16.114  29.129  1.00  0.00     0.177 C 
HETATM    5  O12 UNL     1      23.620  17.150  29.296  1.00  0.00    -0.356 OA
ENDROOT
BRANCH   4   6
HETATM    6  C8  UNL     1      21.454  16.307  29.937  1.00  0.00     0.215 C 
BRANCH   6   7
HETATM    7  O3  UNL     1      21.774  16.206  31.275  1.00  0.00    -0.293 OA
BRANCH   7   8
HETATM    8  P1  UNL     1      20.744  15.072  32.029  1.00  0.00     0.368 P 
HETATM    9  O4  UNL     1      19.313  15.260  31.574  1.00  0.00    -0.629 OA
HETATM   10  O5  UNL     1      21.238  13.501  31.625  1.00  0.00    -0.629 OA
BRANCH   8  11
HETATM   11  N2  UNL     1      20.799  15.324  33.750  1.00  0.00    -0.225 N 
ATOM     12  H2  UNL     1      21.264  14.695  34.404  1.00  0.00     0.178 HD
BRANCH  11  13
HETATM   13  P2  UNL     1      19.962  16.784  34.226  1.00  0.00     0.378 P 
HETATM   14  O6  UNL     1      19.508  17.507  32.970  1.00  0.00    -0.629 OA
HETATM   15  O7  UNL     1      18.632  16.376  35.186  1.00  0.00    -0.629 OA
BRANCH  13  16
HETATM   16  O8  UNL     1      21.054  17.774  35.029  1.00  0.00    -0.178 OA
BRANCH  16  17
HETATM   17  P3  UNL     1      22.424  16.937  35.550  1.00  0.00     0.431 P 
HETATM   18  O9  UNL     1      22.018  15.676  36.243  1.00  0.00    -0.616 OA
HETATM   19  O10 UNL     1      23.376  16.615  34.178  1.00  0.00    -0.616 OA
HETATM   20  O11 UNL     1      23.356  17.875  36.595  1.00  0.00    -0.616 OA
ENDBRANCH  16  17
ENDBRANCH  13  16
ENDBRANCH  11  13
ENDBRANCH   8  11
ENDBRANCH   7   8
ENDBRANCH   6   7
ENDBRANCH   4   6
BRANCH   3  21
HETATM   21  O2  UNL     1      22.981  13.715  29.193  1.00  0.00    -0.393 OA
ATOM     22  H2  UNL     1      22.962  13.090  29.908  1.00  0.00     0.210 HD
ENDBRANCH   3  21
BRANCH   1  23
HETATM   23  N1  UNL     1      25.844  17.438  28.560  1.00  0.00    -0.282 N 
HETATM   24  C3  UNL     1      26.723  17.223  29.548  1.00  0.00     0.104 A 
HETATM   25  C2  UNL     1      27.894  17.963  29.668  1.00  0.00     0.092 A 
HETATM   26  C1  UNL     1      28.163  18.947  28.747  1.00  0.00     0.250 A 
HETATM   27  O1  UNL     1      29.216  19.657  28.804  1.00  0.00    -0.268 OA
HETATM   28  N3  UNL     1      27.265  19.150  27.756  1.00  0.00    -0.275 N 
HETATM   29  C9  UNL     1      26.136  18.407  27.675  1.00  0.00     0.331 A 
ATOM     30  H3  UNL     1      27.440  19.874  27.059  1.00  0.00     0.173 HD
HETATM   31  O13 UNL     1      25.328  18.630  26.738  1.00  0.00    -0.246 OA
ENDBRANCH   1  23
TORSDOF 9
ENDMDL
