MODEL 15
REMARK VINA RESULT: -6.199750953      3.513      5.818
REMARK  9 active torsions:
REMARK  status: ('A' for Active; 'I' for Inactive)
REMARK    1  A    between atoms: N1_5  and  C4_6 
REMARK    2  A    between atoms: C6_8  and  O2_9 
REMARK    3  A    between atoms: C7_11  and  C8_12 
REMARK    4  A    between atoms: C8_12  and  O3_13 
REMARK    5  A    between atoms: O3_13  and  P1_14 
REMARK    6  A    between atoms: P1_14  and  N2_17 
REMARK    7  A    between atoms: N2_17  and  P2_19 
REMARK    8  A    between atoms: P2_19  and  O8_22 
REMARK    9  A    between atoms: O8_22  and  P3_23 
ROOT
HETATM    1  C4  UNL     1      23.923  18.204  28.576  1.00  0.00     0.235 C 
HETATM    2  C5  UNL     1      23.100  18.517  27.332  1.00  0.00     0.088 C 
HETATM    3  C6  UNL     1      21.794  17.793  27.655  1.00  0.00     0.153 C 
HETATM    4  C7  UNL     1      21.979  17.531  29.136  1.00  0.00     0.177 C 
HETATM    5  O12 UNL     1      23.298  17.079  29.158  1.00  0.00    -0.356 OA
ENDROOT
BRANCH   4   6
HETATM    6  C8  UNL     1      21.009  16.522  29.674  1.00  0.00     0.215 C 
BRANCH   6   7
HETATM    7  O3  UNL     1      20.694  16.861  30.974  1.00  0.00    -0.293 OA
BRANCH   7   8
HETATM    8  P1  UNL     1      20.050  15.502  31.783  1.00  0.00     0.368 P 
HETATM    9  O4  UNL     1      18.755  15.058  31.138  1.00  0.00    -0.629 OA
HETATM   10  O5  UNL     1      21.158  14.221  31.711  1.00  0.00    -0.629 OA
BRANCH   8  11
HETATM   11  N2  UNL     1      19.705  15.944  33.430  1.00  0.00    -0.225 N 
ATOM     12  H2  UNL     1      18.765  15.997  33.822  1.00  0.00     0.178 HD
BRANCH  11  13
HETATM   13  P2  UNL     1      21.161  16.286  34.336  1.00  0.00     0.378 P 
HETATM   14  O6  UNL     1      22.307  16.454  33.354  1.00  0.00    -0.629 OA
HETATM   15  O7  UNL     1      20.939  17.701  35.234  1.00  0.00    -0.629 OA
BRANCH  13  16
HETATM   16  O8  UNL     1      21.498  14.957  35.305  1.00  0.00    -0.178 OA
BRANCH  16  17
HETATM   17  P3  UNL     1      20.101  14.214  35.893  1.00  0.00     0.431 P 
HETATM   18  O9  UNL     1      19.539  13.294  34.857  1.00  0.00    -0.616 OA
HETATM   19  O10 UNL     1      20.530  13.372  37.307  1.00  0.00    -0.616 OA
HETATM   20  O11 UNL     1      18.935  15.352  36.324  1.00  0.00    -0.616 OA
ENDBRANCH  16  17
ENDBRANCH  13  16
ENDBRANCH  11  13
ENDBRANCH   8  11
ENDBRANCH   7   8
ENDBRANCH   6   7
ENDBRANCH   4   6
BRANCH   3  21
HETATM   21  O2  UNL     1      20.689  18.592  27.391  1.00  0.00    -0.393 OA
ATOM     22  H2  UNL     1      20.852  19.499  27.622  1.00  0.00     0.210 HD
ENDBRANCH   3  21
BRANCH   1  23
HETATM   23  N1  UNL     1      25.301  17.977  28.291  1.00  0.00    -0.282 N 
HETATM   24  C3  UNL     1      25.726  16.778  27.873  1.00  0.00     0.104 A 
HETATM   25  C2  UNL     1      27.063  16.526  27.587  1.00  0.00     0.092 A 
HETATM   26  C1  UNL     1      27.982  17.537  27.737  1.00  0.00     0.250 A 
HETATM   27  O1  UNL     1      29.217  17.368  27.492  1.00  0.00    -0.268 OA
HETATM   28  N3  UNL     1      27.535  18.742  28.160  1.00  0.00    -0.275 N 
HETATM   29  C9  UNL     1      26.224  18.945  28.428  1.00  0.00     0.331 A 
ATOM     30  H3  UNL     1      28.196  19.510  28.279  1.00  0.00     0.173 HD
HETATM   31  O13 UNL     1      25.852  20.080  28.819  1.00  0.00    -0.246 OA
ENDBRANCH   1  23
TORSDOF 9
ENDMDL
