MODEL 1
REMARK VINA RESULT: -6.622737326      0.000      0.000
REMARK  9 active torsions:
REMARK  status: ('A' for Active; 'I' for Inactive)
REMARK    1  A    between atoms: N1_5  and  C4_6 
REMARK    2  A    between atoms: C6_8  and  O2_9 
REMARK    3  A    between atoms: C7_11  and  C8_12 
REMARK    4  A    between atoms: C8_12  and  O3_13 
REMARK    5  A    between atoms: O3_13  and  P1_14 
REMARK    6  A    between atoms: P1_14  and  N2_17 
REMARK    7  A    between atoms: N2_17  and  P2_19 
REMARK    8  A    between atoms: P2_19  and  O8_22 
REMARK    9  A    between atoms: O8_22  and  P3_23 
ROOT
HETATM    1  C4  UNL     1      21.493  13.862  30.809  1.00  0.00     0.235 C 
HETATM    2  C5  UNL     1      22.396  12.983  29.950  1.00  0.00     0.088 C 
HETATM    3  C6  UNL     1      23.160  12.211  31.024  1.00  0.00     0.153 C 
HETATM    4  C7  UNL     1      22.312  12.512  32.243  1.00  0.00     0.177 C 
HETATM    5  O12 UNL     1      22.104  13.881  32.083  1.00  0.00    -0.356 OA
ENDROOT
BRANCH   4   6
HETATM    6  C8  UNL     1      23.002  12.174  33.530  1.00  0.00     0.215 C 
BRANCH   6   7
HETATM    7  O3  UNL     1      22.052  11.787  34.452  1.00  0.00    -0.293 OA
BRANCH   7   8
HETATM    8  P1  UNL     1      22.093  12.840  35.796  1.00  0.00     0.368 P 
HETATM    9  O4  UNL     1      21.205  12.326  36.908  1.00  0.00    -0.629 OA
HETATM   10  O5  UNL     1      23.681  12.953  36.380  1.00  0.00    -0.629 OA
BRANCH   8  11
HETATM   11  N2  UNL     1      21.493  14.398  35.305  1.00  0.00    -0.225 N 
ATOM     12  H2  UNL     1      22.086  15.209  35.130  1.00  0.00     0.178 HD
BRANCH  11  13
HETATM   13  P2  UNL     1      19.751  14.411  35.147  1.00  0.00     0.378 P 
HETATM   14  O6  UNL     1      19.288  12.996  34.847  1.00  0.00    -0.629 OA
HETATM   15  O7  UNL     1      19.064  14.964  36.589  1.00  0.00    -0.629 OA
BRANCH  13  16
HETATM   16  O8  UNL     1      19.353  15.376  33.833  1.00  0.00    -0.178 OA
BRANCH  16  17
HETATM   17  P3  UNL     1      20.193  16.841  33.828  1.00  0.00     0.431 P 
HETATM   18  O9  UNL     1      21.584  16.627  33.322  1.00  0.00    -0.616 OA
HETATM   19  O10 UNL     1      19.329  17.919  32.838  1.00  0.00    -0.616 OA
HETATM   20  O11 UNL     1      20.256  17.518  35.369  1.00  0.00    -0.616 OA
ENDBRANCH  16  17
ENDBRANCH  13  16
ENDBRANCH  11  13
ENDBRANCH   8  11
ENDBRANCH   7   8
ENDBRANCH   6   7
ENDBRANCH   4   6
BRANCH   3  21
HETATM   21  O2  UNL     1      23.212  10.853  30.735  1.00  0.00    -0.393 OA
ATOM     22  H2  UNL     1      23.870  10.410  31.260  1.00  0.00     0.210 HD
ENDBRANCH   3  21
BRANCH   1  23
HETATM   23  N1  UNL     1      21.312  15.169  30.270  1.00  0.00    -0.282 N 
HETATM   24  C3  UNL     1      22.349  15.857  29.776  1.00  0.00     0.104 A 
HETATM   25  C2  UNL     1      22.202  17.134  29.244  1.00  0.00     0.092 A 
HETATM   26  C1  UNL     1      20.955  17.712  29.223  1.00  0.00     0.250 A 
HETATM   27  O1  UNL     1      20.758  18.874  28.751  1.00  0.00    -0.268 OA
HETATM   28  N3  UNL     1      19.919  17.002  29.726  1.00  0.00    -0.275 N 
HETATM   29  C9  UNL     1      20.105  15.761  30.235  1.00  0.00     0.331 A 
ATOM     30  H3  UNL     1      18.983  17.407  29.723  1.00  0.00     0.173 HD
HETATM   31  O13 UNL     1      19.115  15.138  30.694  1.00  0.00    -0.246 OA
ENDBRANCH   1  23
TORSDOF 9
ENDMDL
