MODEL 4
REMARK VINA RESULT: -6.261096484      0.150      4.034
REMARK  3 active torsions:
REMARK  status: ('A' for Active; 'I' for Inactive)
REMARK    1  A    between atoms: C1_2  and  C2_4 
REMARK    2  A    between atoms: C2_4  and  C3_5 
REMARK    3  A    between atoms: C3_5  and  C4_6 
ROOT
HETATM    1  C2  UNL     1      48.180 -68.203  39.782  1.00  0.00     0.123 C 
ENDROOT
BRANCH   1   2
HETATM    2  C1  UNL     1      47.865 -67.425  38.564  1.00  0.00     0.173 C 
HETATM    3  O1  UNL     1      48.445 -67.680  37.485  1.00  0.00    -0.648 OA
HETATM    4  O2  UNL     1      46.936 -66.404  38.571  1.00  0.00    -0.648 OA
ENDBRANCH   1   2
BRANCH   1   5
HETATM    5  C3  UNL     1      47.704 -67.492  41.033  1.00  0.00     0.123 C 
BRANCH   5   6
HETATM    6  C4  UNL     1      48.848 -67.018  41.855  1.00  0.00     0.173 C 
HETATM    7  O3  UNL     1      48.804 -65.927  42.490  1.00  0.00    -0.648 OA
HETATM    8  O4  UNL     1      50.032 -67.741  41.976  1.00  0.00    -0.648 OA
ENDBRANCH   5   6
ENDBRANCH   1   5
TORSDOF 3
ENDMDL
