MODEL 5
REMARK VINA RESULT: -6.249299762      0.077      3.878
REMARK  3 active torsions:
REMARK  status: ('A' for Active; 'I' for Inactive)
REMARK    1  A    between atoms: C1_2  and  C2_4 
REMARK    2  A    between atoms: C2_4  and  C3_5 
REMARK    3  A    between atoms: C3_5  and  C4_6 
ROOT
HETATM    1  C2  UNL     1      48.075 -68.120  39.770  1.00  0.00     0.123 C 
ENDROOT
BRANCH   1   2
HETATM    2  C1  UNL     1      47.795 -67.259  38.601  1.00  0.00     0.173 C 
HETATM    3  O1  UNL     1      46.844 -66.446  38.628  1.00  0.00    -0.648 OA
HETATM    4  O2  UNL     1      48.560 -67.318  37.452  1.00  0.00    -0.648 OA
ENDBRANCH   1   2
BRANCH   1   5
HETATM    5  C3  UNL     1      47.655 -67.454  41.064  1.00  0.00     0.123 C 
BRANCH   5   6
HETATM    6  C4  UNL     1      48.834 -67.013  41.854  1.00  0.00     0.173 C 
HETATM    7  O3  UNL     1      48.844 -65.914  42.477  1.00  0.00    -0.648 OA
HETATM    8  O4  UNL     1      49.994 -67.777  41.956  1.00  0.00    -0.648 OA
ENDBRANCH   5   6
ENDBRANCH   1   5
TORSDOF 3
ENDMDL
