MODEL 1
REMARK VINA RESULT: -6.281036525      0.000      0.000
REMARK  3 active torsions:
REMARK  status: ('A' for Active; 'I' for Inactive)
REMARK    1  A    between atoms: C1_2  and  C2_4 
REMARK    2  A    between atoms: C2_4  and  C3_5 
REMARK    3  A    between atoms: C3_5  and  C4_6 
ROOT
HETATM    1  C2  UNL     1      47.731 -67.493  41.055  1.00  0.00     0.123 C 
ENDROOT
BRANCH   1   2
HETATM    2  C1  UNL     1      48.873 -67.030  41.873  1.00  0.00     0.173 C 
HETATM    3  O1  UNL     1      48.813 -65.937  42.481  1.00  0.00    -0.648 OA
HETATM    4  O2  UNL     1      50.031 -67.773  41.995  1.00  0.00    -0.648 OA
ENDBRANCH   1   2
BRANCH   1   5
HETATM    5  C3  UNL     1      48.196 -68.127  39.760  1.00  0.00     0.123 C 
BRANCH   5   6
HETATM    6  C4  UNL     1      47.861 -67.275  38.589  1.00  0.00     0.173 C 
HETATM    7  O3  UNL     1      48.523 -67.333  37.515  1.00  0.00    -0.648 OA
HETATM    8  O4  UNL     1      46.807 -66.366  38.603  1.00  0.00    -0.648 OA
ENDBRANCH   5   6
ENDBRANCH   1   5
TORSDOF 3
ENDMDL
