MODEL 3
REMARK VINA RESULT: -6.261413624      0.085      1.128
REMARK  3 active torsions:
REMARK  status: ('A' for Active; 'I' for Inactive)
REMARK    1  A    between atoms: C1_2  and  C2_4 
REMARK    2  A    between atoms: C2_4  and  C3_5 
REMARK    3  A    between atoms: C3_5  and  C4_6 
ROOT
HETATM    1  C2  UNL     1      47.664 -67.468  41.107  1.00  0.00     0.123 C 
ENDROOT
BRANCH   1   2
HETATM    2  C1  UNL     1      48.852 -67.007  41.858  1.00  0.00     0.173 C 
HETATM    3  O1  UNL     1      48.839 -65.900  42.442  1.00  0.00    -0.648 OA
HETATM    4  O2  UNL     1      50.001 -67.768  41.942  1.00  0.00    -0.648 OA
ENDBRANCH   1   2
BRANCH   1   5
HETATM    5  C3  UNL     1      48.056 -68.146  39.809  1.00  0.00     0.123 C 
BRANCH   5   6
HETATM    6  C4  UNL     1      47.812 -67.260  38.641  1.00  0.00     0.173 C 
HETATM    7  O3  UNL     1      46.878 -66.408  38.637  1.00  0.00    -0.648 OA
HETATM    8  O4  UNL     1      48.588 -67.313  37.486  1.00  0.00    -0.648 OA
ENDBRANCH   5   6
ENDBRANCH   1   5
TORSDOF 3
ENDMDL
