MODEL 2
REMARK VINA RESULT: -6.265541691      0.090      1.131
REMARK  3 active torsions:
REMARK  status: ('A' for Active; 'I' for Inactive)
REMARK    1  A    between atoms: C1_2  and  C2_4 
REMARK    2  A    between atoms: C2_4  and  C3_5 
REMARK    3  A    between atoms: C3_5  and  C4_6 
ROOT
HETATM    1  C2  UNL     1      47.782 -67.627  41.030  1.00  0.00     0.123 C 
ENDROOT
BRANCH   1   2
HETATM    2  C1  UNL     1      48.887 -67.084  41.848  1.00  0.00     0.173 C 
HETATM    3  O1  UNL     1      49.963 -67.715  41.955  1.00  0.00    -0.648 OA
HETATM    4  O2  UNL     1      48.777 -65.880  42.515  1.00  0.00    -0.648 OA
ENDBRANCH   1   2
BRANCH   1   5
HETATM    5  C3  UNL     1      48.286 -68.182  39.713  1.00  0.00     0.123 C 
BRANCH   5   6
HETATM    6  C4  UNL     1      47.911 -67.301  38.575  1.00  0.00     0.173 C 
HETATM    7  O3  UNL     1      48.565 -67.298  37.494  1.00  0.00    -0.648 OA
HETATM    8  O4  UNL     1      46.827 -66.428  38.631  1.00  0.00    -0.648 OA
ENDBRANCH   5   6
ENDBRANCH   1   5
TORSDOF 3
ENDMDL
