MODEL 6
REMARK VINA RESULT: -8.007308654      2.210      2.749
REMARK  8 active torsions:
REMARK  status: ('A' for Active; 'I' for Inactive)
REMARK    1  A    between atoms: N1_1  and  S1_4 
REMARK    2  A    between atoms: S1_4  and  C1_7 
REMARK    3  A    between atoms: C4_10  and  C5_11 
REMARK    4  A    between atoms: C5_11  and  O3_12 
REMARK    5  A    between atoms: C5_11  and  N2_14 
REMARK    6  A    between atoms: C10_19  and  O4_20 
REMARK    7  A    between atoms: C11_22  and  O5_23 
REMARK    8  A    between atoms: C14_27  and  C15_28 
ROOT
HETATM    1  N2  UNL     1      -4.103   6.261  12.171  1.00  0.00    -0.348 N 
HETATM    2  C6  UNL     1      -4.038   7.151  11.066  1.00  0.00     0.130 C 
HETATM    3  C7  UNL     1      -2.629   7.786  10.988  1.00  0.00     0.059 C 
HETATM    4  C8  UNL     1      -1.696   6.673  10.815  1.00  0.00    -0.045 A 
HETATM    5  C9  UNL     1      -0.774   6.546   9.846  1.00  0.00     0.047 A 
HETATM    6  C10 UNL     1       0.084   5.430   9.766  1.00  0.00     0.099 A 
HETATM    7  C11 UNL     1      -0.014   4.430  10.702  1.00  0.00     0.099 A 
HETATM    8  C12 UNL     1      -0.983   4.558  11.724  1.00  0.00     0.049 A 
HETATM    9  C13 UNL     1      -1.791   5.653  11.764  1.00  0.00    -0.022 A 
HETATM   10  C14 UNL     1      -2.831   5.852  12.807  1.00  0.00     0.153 C 
ENDROOT
BRANCH   1  11
HETATM   11  C5  UNL     1      -5.257   5.691  12.729  1.00  0.00     0.149 C 
BRANCH  11  12
HETATM   12  C4  UNL     1      -5.372   4.600  13.634  1.00  0.00     0.015 A 
HETATM   13  C3  UNL     1      -6.153   4.796  14.798  1.00  0.00     0.017 A 
HETATM   14  C2  UNL     1      -6.276   3.814  15.730  1.00  0.00     0.026 A 
HETATM   15  C1  UNL     1      -5.663   2.598  15.600  1.00  0.00     0.079 A 
HETATM   16  C22 UNL     1      -4.910   2.411  14.479  1.00  0.00     0.026 A 
HETATM   17  C21 UNL     1      -4.757   3.395  13.498  1.00  0.00     0.017 A 
BRANCH  15  18
HETATM   18  S1  UNL     1      -5.847   1.345  16.832  1.00  0.00     0.256 S 
HETATM   19  O1  UNL     1      -4.538   0.623  16.940  1.00  0.00    -0.201 OA
HETATM   20  O2  UNL     1      -6.967   0.442  16.433  1.00  0.00    -0.201 OA
BRANCH  18  21
HETATM   21  N1  UNL     1      -6.208   2.107  18.339  1.00  0.00    -0.324 N 
ATOM     22  H12 UNL     1      -6.410   1.608  19.206  1.00  0.00     0.169 HD
ATOM     23  H11 UNL     1      -6.185   3.120  18.220  1.00  0.00     0.169 HD
ENDBRANCH  18  21
ENDBRANCH  15  18
ENDBRANCH  11  12
BRANCH  11  24
HETATM   24  O3  UNL     1      -6.392   6.253  12.352  1.00  0.00    -0.346 OA
ATOM     25  H3  UNL     1      -6.916   6.641  13.044  1.00  0.00     0.219 HD
ENDBRANCH  11  24
ENDBRANCH   1  11
BRANCH  10  26
HETATM   26  C15 UNL     1      -2.339   6.839  13.786  1.00  0.00    -0.031 A 
HETATM   27  C16 UNL     1      -1.178   7.551  13.603  1.00  0.00     0.009 A 
HETATM   28  C17 UNL     1      -0.743   8.496  14.541  1.00  0.00     0.001 A 
HETATM   29  C18 UNL     1      -1.501   8.714  15.670  1.00  0.00     0.000 A 
HETATM   30  C19 UNL     1      -2.660   8.022  15.883  1.00  0.00     0.001 A 
HETATM   31  C20 UNL     1      -3.057   7.113  14.957  1.00  0.00     0.009 A 
ENDBRANCH  10  26
BRANCH   7  32
HETATM   32  O5  UNL     1       0.791   3.297  10.696  1.00  0.00    -0.358 OA
ATOM     33  H5  UNL     1       1.069   2.849  11.487  1.00  0.00     0.217 HD
ENDBRANCH   7  32
BRANCH   6  34
HETATM   34  O4  UNL     1       1.013   5.345   8.755  1.00  0.00    -0.358 OA
ATOM     35  H4  UNL     1       1.938   5.284   8.963  1.00  0.00     0.217 HD
ENDBRANCH   6  34
TORSDOF 8
ENDMDL
