MODEL 5
REMARK VINA RESULT: -8.102071310      1.865      2.400
REMARK  8 active torsions:
REMARK  status: ('A' for Active; 'I' for Inactive)
REMARK    1  A    between atoms: N1_1  and  S1_4 
REMARK    2  A    between atoms: S1_4  and  C1_7 
REMARK    3  A    between atoms: C4_10  and  C5_11 
REMARK    4  A    between atoms: C5_11  and  O3_12 
REMARK    5  A    between atoms: C5_11  and  N2_14 
REMARK    6  A    between atoms: C10_19  and  O4_20 
REMARK    7  A    between atoms: C11_22  and  O5_23 
REMARK    8  A    between atoms: C14_27  and  C15_28 
ROOT
HETATM    1  N2  UNL     1      -3.349   4.238  11.252  1.00  0.00    -0.348 N 
HETATM    2  C6  UNL     1      -3.503   5.136  10.164  1.00  0.00     0.130 C 
HETATM    3  C7  UNL     1      -2.549   6.341  10.340  1.00  0.00     0.059 C 
HETATM    4  C8  UNL     1      -1.197   5.783  10.365  1.00  0.00    -0.045 A 
HETATM    5  C9  UNL     1      -0.164   6.153   9.590  1.00  0.00     0.047 A 
HETATM    6  C10 UNL     1       1.106   5.551   9.693  1.00  0.00     0.099 A 
HETATM    7  C11 UNL     1       1.312   4.551  10.612  1.00  0.00     0.099 A 
HETATM    8  C12 UNL     1       0.229   4.158  11.431  1.00  0.00     0.049 A 
HETATM    9  C13 UNL     1      -0.982   4.766  11.298  1.00  0.00    -0.022 A 
HETATM   10  C14 UNL     1      -2.163   4.402  12.123  1.00  0.00     0.153 C 
ENDROOT
BRANCH   1  11
HETATM   11  C5  UNL     1      -4.194   3.172  11.595  1.00  0.00     0.149 C 
BRANCH  11  12
HETATM   12  C4  UNL     1      -4.675   2.782  12.875  1.00  0.00     0.015 A 
HETATM   13  C3  UNL     1      -4.236   1.539  13.387  1.00  0.00     0.017 A 
HETATM   14  C2  UNL     1      -4.683   1.079  14.586  1.00  0.00     0.026 A 
HETATM   15  C1  UNL     1      -5.570   1.781  15.355  1.00  0.00     0.079 A 
HETATM   16  C22 UNL     1      -5.994   2.978  14.861  1.00  0.00     0.026 A 
HETATM   17  C21 UNL     1      -5.558   3.486  13.633  1.00  0.00     0.017 A 
BRANCH  15  18
HETATM   18  S1  UNL     1      -6.128   1.152  16.909  1.00  0.00     0.256 S 
HETATM   19  O1  UNL     1      -5.037   0.288  17.463  1.00  0.00    -0.201 OA
HETATM   20  O2  UNL     1      -7.400   0.401  16.693  1.00  0.00    -0.201 OA
BRANCH  18  21
HETATM   21  N1  UNL     1      -6.400   2.485  17.974  1.00  0.00    -0.324 N 
ATOM     22  H12 UNL     1      -5.999   3.415  17.850  1.00  0.00     0.169 HD
ATOM     23  H11 UNL     1      -7.016   2.192  18.732  1.00  0.00     0.169 HD
ENDBRANCH  18  21
ENDBRANCH  15  18
ENDBRANCH  11  12
BRANCH  11  24
HETATM   24  O3  UNL     1      -4.591   2.430  10.576  1.00  0.00    -0.346 OA
ATOM     25  H3  UNL     1      -5.152   1.693  10.789  1.00  0.00     0.219 HD
ENDBRANCH  11  24
ENDBRANCH   1  11
BRANCH  10  26
HETATM   26  C15 UNL     1      -2.356   5.435  13.160  1.00  0.00    -0.031 A 
HETATM   27  C16 UNL     1      -3.509   5.536  13.899  1.00  0.00     0.009 A 
HETATM   28  C17 UNL     1      -3.660   6.515  14.890  1.00  0.00     0.001 A 
HETATM   29  C18 UNL     1      -2.624   7.393  15.124  1.00  0.00     0.000 A 
HETATM   30  C19 UNL     1      -1.464   7.320  14.405  1.00  0.00     0.001 A 
HETATM   31  C20 UNL     1      -1.346   6.361  13.452  1.00  0.00     0.009 A 
ENDBRANCH  10  26
BRANCH   7  32
HETATM   32  O5  UNL     1       2.532   3.906  10.778  1.00  0.00    -0.358 OA
ATOM     33  H5  UNL     1       3.309   4.338  11.116  1.00  0.00     0.217 HD
ENDBRANCH   7  32
BRANCH   6  34
HETATM   34  O4  UNL     1       2.134   5.964   8.876  1.00  0.00    -0.358 OA
ATOM     35  H4  UNL     1       3.017   5.645   9.023  1.00  0.00     0.217 HD
ENDBRANCH   6  34
TORSDOF 8
ENDMDL
