MODEL 2
REMARK VINA RESULT: -8.474954220      1.794      2.230
REMARK  8 active torsions:
REMARK  status: ('A' for Active; 'I' for Inactive)
REMARK    1  A    between atoms: N1_1  and  S1_4 
REMARK    2  A    between atoms: S1_4  and  C1_7 
REMARK    3  A    between atoms: C4_10  and  C5_11 
REMARK    4  A    between atoms: C5_11  and  O3_12 
REMARK    5  A    between atoms: C5_11  and  N2_14 
REMARK    6  A    between atoms: C10_19  and  O4_20 
REMARK    7  A    between atoms: C11_22  and  O5_23 
REMARK    8  A    between atoms: C14_27  and  C15_28 
ROOT
HETATM    1  N2  UNL     1      -2.911   6.410  11.614  1.00  0.00    -0.348 N 
HETATM    2  C6  UNL     1      -2.734   7.288  10.512  1.00  0.00     0.130 C 
HETATM    3  C7  UNL     1      -1.408   8.068  10.672  1.00  0.00     0.059 C 
HETATM    4  C8  UNL     1      -0.350   7.059  10.708  1.00  0.00    -0.045 A 
HETATM    5  C9  UNL     1       0.744   7.019   9.929  1.00  0.00     0.047 A 
HETATM    6  C10 UNL     1       1.711   5.999  10.043  1.00  0.00     0.099 A 
HETATM    7  C11 UNL     1       1.544   5.006  10.978  1.00  0.00     0.099 A 
HETATM    8  C12 UNL     1       0.395   5.044  11.801  1.00  0.00     0.049 A 
HETATM    9  C13 UNL     1      -0.514   6.047  11.657  1.00  0.00    -0.022 A 
HETATM   10  C14 UNL     1      -1.743   6.147  12.485  1.00  0.00     0.153 C 
ENDROOT
BRANCH   1  11
HETATM   11  C5  UNL     1      -4.084   5.728  11.971  1.00  0.00     0.149 C 
BRANCH  11  12
HETATM   12  C4  UNL     1      -4.232   4.527  12.719  1.00  0.00     0.015 A 
HETATM   13  C3  UNL     1      -4.727   4.637  14.040  1.00  0.00     0.017 A 
HETATM   14  C2  UNL     1      -4.857   3.540  14.831  1.00  0.00     0.026 A 
HETATM   15  C1  UNL     1      -4.524   2.284  14.403  1.00  0.00     0.079 A 
HETATM   16  C22 UNL     1      -4.047   2.179  13.131  1.00  0.00     0.026 A 
HETATM   17  C21 UNL     1      -3.897   3.282  12.286  1.00  0.00     0.017 A 
BRANCH  15  18
HETATM   18  S1  UNL     1      -4.709   0.880  15.460  1.00  0.00     0.256 S 
HETATM   19  O1  UNL     1      -3.514   0.836  16.364  1.00  0.00    -0.201 OA
HETATM   20  O2  UNL     1      -4.831  -0.344  14.614  1.00  0.00    -0.201 OA
BRANCH  18  21
HETATM   21  N1  UNL     1      -6.138   1.092  16.408  1.00  0.00    -0.324 N 
ATOM     22  H12 UNL     1      -6.153   1.479  17.351  1.00  0.00     0.169 HD
ATOM     23  H11 UNL     1      -6.946   0.770  15.876  1.00  0.00     0.169 HD
ENDBRANCH  18  21
ENDBRANCH  15  18
ENDBRANCH  11  12
BRANCH  11  24
HETATM   24  O3  UNL     1      -5.203   6.286  11.543  1.00  0.00    -0.346 OA
ATOM     25  H3  UNL     1      -5.233   6.506  10.619  1.00  0.00     0.219 HD
ENDBRANCH  11  24
ENDBRANCH   1  11
BRANCH  10  26
HETATM   26  C15 UNL     1      -1.546   7.194  13.505  1.00  0.00    -0.031 A 
HETATM   27  C16 UNL     1      -0.475   8.054  13.487  1.00  0.00     0.009 A 
HETATM   28  C17 UNL     1      -0.319   9.052  14.458  1.00  0.00     0.001 A 
HETATM   29  C18 UNL     1      -1.266   9.168  15.452  1.00  0.00     0.000 A 
HETATM   30  C19 UNL     1      -2.343   8.328  15.500  1.00  0.00     0.001 A 
HETATM   31  C20 UNL     1      -2.467   7.372  14.545  1.00  0.00     0.009 A 
ENDBRANCH  10  26
BRANCH   7  32
HETATM   32  O5  UNL     1       2.449   3.966  11.155  1.00  0.00    -0.358 OA
ATOM     33  H5  UNL     1       2.460   3.186  10.612  1.00  0.00     0.217 HD
ENDBRANCH   7  32
BRANCH   6  34
HETATM   34  O4  UNL     1       2.816   6.001   9.223  1.00  0.00    -0.358 OA
ATOM     35  H4  UNL     1       2.722   5.804   8.298  1.00  0.00     0.217 HD
ENDBRANCH   6  34
TORSDOF 8
ENDMDL
