MODEL 10
REMARK VINA RESULT: -7.823588253      3.217      8.093
REMARK  8 active torsions:
REMARK  status: ('A' for Active; 'I' for Inactive)
REMARK    1  A    between atoms: N1_1  and  S1_4 
REMARK    2  A    between atoms: S1_4  and  C1_7 
REMARK    3  A    between atoms: C4_10  and  C5_11 
REMARK    4  A    between atoms: C5_11  and  O3_12 
REMARK    5  A    between atoms: C5_11  and  N2_14 
REMARK    6  A    between atoms: C10_19  and  O4_20 
REMARK    7  A    between atoms: C11_22  and  O5_23 
REMARK    8  A    between atoms: C14_27  and  C15_28 
ROOT
HETATM    1  N2  UNL     1      -3.264   3.950  13.859  1.00  0.00    -0.348 N 
HETATM    2  C6  UNL     1      -4.367   4.842  13.918  1.00  0.00     0.130 C 
HETATM    3  C7  UNL     1      -5.690   4.045  13.830  1.00  0.00     0.059 C 
HETATM    4  C8  UNL     1      -5.691   3.140  14.980  1.00  0.00    -0.045 A 
HETATM    5  C9  UNL     1      -6.659   3.022  15.904  1.00  0.00     0.047 A 
HETATM    6  C10 UNL     1      -6.565   2.114  16.978  1.00  0.00     0.099 A 
HETATM    7  C11 UNL     1      -5.453   1.317  17.099  1.00  0.00     0.099 A 
HETATM    8  C12 UNL     1      -4.432   1.437  16.130  1.00  0.00     0.049 A 
HETATM    9  C13 UNL     1      -4.563   2.327  15.108  1.00  0.00    -0.022 A 
HETATM   10  C14 UNL     1      -3.528   2.507  14.056  1.00  0.00     0.153 C 
ENDROOT
BRANCH   1  11
HETATM   11  C5  UNL     1      -1.916   4.284  13.654  1.00  0.00     0.149 C 
BRANCH  11  12
HETATM   12  C4  UNL     1      -1.194   4.396  12.434  1.00  0.00     0.015 A 
HETATM   13  C3  UNL     1      -0.698   3.203  11.857  1.00  0.00     0.017 A 
HETATM   14  C2  UNL     1       0.037   3.233  10.714  1.00  0.00     0.026 A 
HETATM   15  C1  UNL     1       0.334   4.399  10.064  1.00  0.00     0.079 A 
HETATM   16  C22 UNL     1      -0.144   5.548  10.620  1.00  0.00     0.026 A 
HETATM   17  C21 UNL     1      -0.902   5.560  11.795  1.00  0.00     0.017 A 
BRANCH  15  18
HETATM   18  S1  UNL     1       1.291   4.398   8.578  1.00  0.00     0.256 S 
HETATM   19  O1  UNL     1       2.461   3.489   8.796  1.00  0.00    -0.201 OA
HETATM   20  O2  UNL     1       1.704   5.800   8.274  1.00  0.00    -0.201 OA
BRANCH  18  21
HETATM   21  N1  UNL     1       0.313   3.777   7.297  1.00  0.00    -0.324 N 
ATOM     22  H12 UNL     1       0.533   3.868   6.305  1.00  0.00     0.169 HD
ATOM     23  H11 UNL     1      -0.505   3.312   7.691  1.00  0.00     0.169 HD
ENDBRANCH  18  21
ENDBRANCH  15  18
ENDBRANCH  11  12
BRANCH  11  24
HETATM   24  O3  UNL     1      -1.231   4.524  14.758  1.00  0.00    -0.346 OA
ATOM     25  H3  UNL     1      -1.398   5.359  15.180  1.00  0.00     0.219 HD
ENDBRANCH  11  24
ENDBRANCH   1  11
BRANCH  10  26
HETATM   26  C15 UNL     1      -3.982   1.836  12.823  1.00  0.00    -0.031 A 
HETATM   27  C16 UNL     1      -4.202   2.514  11.649  1.00  0.00     0.009 A 
HETATM   28  C17 UNL     1      -4.616   1.851  10.486  1.00  0.00     0.001 A 
HETATM   29  C18 UNL     1      -4.805   0.487  10.528  1.00  0.00     0.000 A 
HETATM   30  C19 UNL     1      -4.595  -0.218  11.680  1.00  0.00     0.001 A 
HETATM   31  C20 UNL     1      -4.194   0.452  12.791  1.00  0.00     0.009 A 
ENDBRANCH  10  26
BRANCH   7  32
HETATM   32  O5  UNL     1      -5.282   0.397  18.128  1.00  0.00    -0.358 OA
ATOM     33  H5  UNL     1      -5.987   0.116  18.699  1.00  0.00     0.217 HD
ENDBRANCH   7  32
BRANCH   6  34
HETATM   34  O4  UNL     1      -7.583   2.029  17.900  1.00  0.00    -0.358 OA
ATOM     35  H4  UNL     1      -7.391   1.801  18.802  1.00  0.00     0.217 HD
ENDBRANCH   6  34
TORSDOF 8
ENDMDL
