MODEL 12
REMARK VINA RESULT: -7.803259182      2.964      5.209
REMARK  8 active torsions:
REMARK  status: ('A' for Active; 'I' for Inactive)
REMARK    1  A    between atoms: N1_1  and  S1_4 
REMARK    2  A    between atoms: S1_4  and  C1_7 
REMARK    3  A    between atoms: C4_10  and  C5_11 
REMARK    4  A    between atoms: C5_11  and  O3_12 
REMARK    5  A    between atoms: C5_11  and  N2_14 
REMARK    6  A    between atoms: C10_19  and  O4_20 
REMARK    7  A    between atoms: C11_22  and  O5_23 
REMARK    8  A    between atoms: C14_27  and  C15_28 
ROOT
HETATM    1  N2  UNL     1      -2.541   4.480  12.462  1.00  0.00    -0.348 N 
HETATM    2  C6  UNL     1      -1.309   4.762  11.815  1.00  0.00     0.130 C 
HETATM    3  C7  UNL     1      -1.321   4.170  10.386  1.00  0.00     0.059 C 
HETATM    4  C8  UNL     1      -2.433   4.819   9.691  1.00  0.00    -0.045 A 
HETATM    5  C9  UNL     1      -2.373   5.468   8.516  1.00  0.00     0.047 A 
HETATM    6  C10 UNL     1      -3.507   6.062   7.927  1.00  0.00     0.099 A 
HETATM    7  C11 UNL     1      -4.723   5.983   8.562  1.00  0.00     0.099 A 
HETATM    8  C12 UNL     1      -4.792   5.301   9.798  1.00  0.00     0.049 A 
HETATM    9  C13 UNL     1      -3.672   4.742  10.332  1.00  0.00    -0.022 A 
HETATM   10  C14 UNL     1      -3.671   4.014  11.627  1.00  0.00     0.153 C 
ENDROOT
BRANCH   1  11
HETATM   11  C5  UNL     1      -2.829   4.618  13.828  1.00  0.00     0.149 C 
BRANCH  11  12
HETATM   12  C4  UNL     1      -3.750   3.889  14.630  1.00  0.00     0.015 A 
HETATM   13  C3  UNL     1      -3.261   2.755  15.320  1.00  0.00     0.017 A 
HETATM   14  C2  UNL     1      -4.089   1.984  16.073  1.00  0.00     0.026 A 
HETATM   15  C1  UNL     1      -5.423   2.255  16.206  1.00  0.00     0.079 A 
HETATM   16  C22 UNL     1      -5.894   3.347  15.540  1.00  0.00     0.026 A 
HETATM   17  C21 UNL     1      -5.076   4.165  14.755  1.00  0.00     0.017 A 
BRANCH  15  18
HETATM   18  S1  UNL     1      -6.469   1.231  17.196  1.00  0.00     0.256 S 
HETATM   19  O1  UNL     1      -5.914  -0.160  17.147  1.00  0.00    -0.201 OA
HETATM   20  O2  UNL     1      -7.861   1.310  16.662  1.00  0.00    -0.201 OA
BRANCH  18  21
HETATM   21  N1  UNL     1      -6.424   1.810  18.822  1.00  0.00    -0.324 N 
ATOM     22  H12 UNL     1      -6.342   1.214  19.646  1.00  0.00     0.169 HD
ATOM     23  H11 UNL     1      -6.490   2.828  18.821  1.00  0.00     0.169 HD
ENDBRANCH  18  21
ENDBRANCH  15  18
ENDBRANCH  11  12
BRANCH  11  24
HETATM   24  O3  UNL     1      -2.144   5.564  14.446  1.00  0.00    -0.346 OA
ATOM     25  H3  UNL     1      -2.506   6.441  14.398  1.00  0.00     0.219 HD
ENDBRANCH  11  24
ENDBRANCH   1  11
BRANCH  10  26
HETATM   26  C15 UNL     1      -3.620   2.564  11.357  1.00  0.00    -0.031 A 
HETATM   27  C16 UNL     1      -2.465   1.829  11.470  1.00  0.00     0.009 A 
HETATM   28  C17 UNL     1      -2.448   0.450  11.225  1.00  0.00     0.001 A 
HETATM   29  C18 UNL     1      -3.619  -0.179  10.864  1.00  0.00     0.000 A 
HETATM   30  C19 UNL     1      -4.785   0.523  10.742  1.00  0.00     0.001 A 
HETATM   31  C20 UNL     1      -4.772   1.858  10.986  1.00  0.00     0.009 A 
ENDBRANCH  10  26
BRANCH   7  32
HETATM   32  O5  UNL     1      -5.889   6.541   8.049  1.00  0.00    -0.358 OA
ATOM     33  H5  UNL     1      -6.701   6.057   7.957  1.00  0.00     0.217 HD
ENDBRANCH   7  32
BRANCH   6  34
HETATM   34  O4  UNL     1      -3.396   6.716   6.721  1.00  0.00    -0.358 OA
ATOM     35  H4  UNL     1      -2.923   7.538   6.667  1.00  0.00     0.217 HD
ENDBRANCH   6  34
TORSDOF 8
ENDMDL
