MODEL 7
REMARK VINA RESULT: -7.946419182      1.252      1.616
REMARK  8 active torsions:
REMARK  status: ('A' for Active; 'I' for Inactive)
REMARK    1  A    between atoms: N1_1  and  S1_4 
REMARK    2  A    between atoms: S1_4  and  C1_7 
REMARK    3  A    between atoms: C4_10  and  C5_11 
REMARK    4  A    between atoms: C5_11  and  O3_12 
REMARK    5  A    between atoms: C5_11  and  N2_14 
REMARK    6  A    between atoms: C10_19  and  O4_20 
REMARK    7  A    between atoms: C11_22  and  O5_23 
REMARK    8  A    between atoms: C14_27  and  C15_28 
ROOT
HETATM    1  N2  UNL     1      -3.108   5.491  10.491  1.00  0.00    -0.348 N 
HETATM    2  C6  UNL     1      -3.068   6.256   9.297  1.00  0.00     0.130 C 
HETATM    3  C7  UNL     1      -1.768   7.093   9.254  1.00  0.00     0.059 C 
HETATM    4  C8  UNL     1      -0.668   6.129   9.290  1.00  0.00    -0.045 A 
HETATM    5  C9  UNL     1       0.352   6.046   8.420  1.00  0.00     0.047 A 
HETATM    6  C10 UNL     1       1.368   5.076   8.543  1.00  0.00     0.099 A 
HETATM    7  C11 UNL     1       1.329   4.179   9.582  1.00  0.00     0.099 A 
HETATM    8  C12 UNL     1       0.258   4.262  10.501  1.00  0.00     0.049 A 
HETATM    9  C13 UNL     1      -0.703   5.214  10.345  1.00  0.00    -0.022 A 
HETATM   10  C14 UNL     1      -1.856   5.357  11.271  1.00  0.00     0.153 C 
ENDROOT
BRANCH   1  11
HETATM   11  C5  UNL     1      -4.214   4.809  11.022  1.00  0.00     0.149 C 
BRANCH  11  12
HETATM   12  C4  UNL     1      -4.280   3.949  12.153  1.00  0.00     0.015 A 
HETATM   13  C3  UNL     1      -4.201   2.556  11.920  1.00  0.00     0.017 A 
HETATM   14  C2  UNL     1      -4.299   1.669  12.945  1.00  0.00     0.026 A 
HETATM   15  C1  UNL     1      -4.476   2.065  14.242  1.00  0.00     0.079 A 
HETATM   16  C22 UNL     1      -4.553   3.407  14.466  1.00  0.00     0.026 A 
HETATM   17  C21 UNL     1      -4.458   4.352  13.440  1.00  0.00     0.017 A 
BRANCH  15  18
HETATM   18  S1  UNL     1      -4.597   0.883  15.550  1.00  0.00     0.256 S 
HETATM   19  O1  UNL     1      -3.358   1.006  16.384  1.00  0.00    -0.201 OA
HETATM   20  O2  UNL     1      -4.753  -0.477  14.954  1.00  0.00    -0.201 OA
BRANCH  18  21
HETATM   21  N1  UNL     1      -5.977   1.271  16.514  1.00  0.00    -0.324 N 
ATOM     22  H12 UNL     1      -5.938   1.756  17.410  1.00  0.00     0.169 HD
ATOM     23  H11 UNL     1      -6.820   0.939  16.045  1.00  0.00     0.169 HD
ENDBRANCH  18  21
ENDBRANCH  15  18
ENDBRANCH  11  12
BRANCH  11  24
HETATM   24  O3  UNL     1      -5.347   4.997  10.369  1.00  0.00    -0.346 OA
ATOM     25  H3  UNL     1      -5.794   5.818  10.538  1.00  0.00     0.219 HD
ENDBRANCH  11  24
ENDBRANCH   1  11
BRANCH  10  26
HETATM   26  C15 UNL     1      -1.612   6.509  12.160  1.00  0.00    -0.031 A 
HETATM   27  C16 UNL     1      -2.630   7.243  12.717  1.00  0.00     0.009 A 
HETATM   28  C17 UNL     1      -2.372   8.322  13.573  1.00  0.00     0.001 A 
HETATM   29  C18 UNL     1      -1.064   8.649  13.859  1.00  0.00     0.000 A 
HETATM   30  C19 UNL     1      -0.028   7.938  13.320  1.00  0.00     0.001 A 
HETATM   31  C20 UNL     1      -0.309   6.898  12.495  1.00  0.00     0.009 A 
ENDBRANCH  10  26
BRANCH   7  32
HETATM   32  O5  UNL     1       2.290   3.193   9.776  1.00  0.00    -0.358 OA
ATOM     33  H5  UNL     1       3.020   3.288  10.376  1.00  0.00     0.217 HD
ENDBRANCH   7  32
BRANCH   6  34
HETATM   34  O4  UNL     1       2.394   5.031   7.626  1.00  0.00    -0.358 OA
ATOM     35  H4  UNL     1       3.046   4.342   7.675  1.00  0.00     0.217 HD
ENDBRANCH   6  34
TORSDOF 8
ENDMDL
