MODEL 1
REMARK VINA RESULT: -8.384439313      0.000      0.000
REMARK  8 active torsions:
REMARK  status: ('A' for Active; 'I' for Inactive)
REMARK    1  A    between atoms: N1_1  and  S1_4 
REMARK    2  A    between atoms: S1_4  and  C1_7 
REMARK    3  A    between atoms: C4_10  and  C5_11 
REMARK    4  A    between atoms: C5_11  and  O3_12 
REMARK    5  A    between atoms: C5_11  and  N2_14 
REMARK    6  A    between atoms: C10_19  and  O4_20 
REMARK    7  A    between atoms: C11_22  and  O5_23 
REMARK    8  A    between atoms: C14_27  and  C15_28 
ROOT
HETATM    1  N2  UNL     1      -4.319   4.892  12.282  1.00  0.00    -0.348 N 
HETATM    2  C6  UNL     1      -4.158   3.882  11.279  1.00  0.00     0.130 C 
HETATM    3  C7  UNL     1      -3.408   2.634  11.838  1.00  0.00     0.059 C 
HETATM    4  C8  UNL     1      -3.850   2.499  13.236  1.00  0.00    -0.045 A 
HETATM    5  C9  UNL     1      -4.344   1.328  13.754  1.00  0.00     0.047 A 
HETATM    6  C10 UNL     1      -4.772   1.258  15.076  1.00  0.00     0.099 A 
HETATM    7  C11 UNL     1      -4.714   2.359  15.898  1.00  0.00     0.099 A 
HETATM    8  C12 UNL     1      -4.211   3.563  15.376  1.00  0.00     0.049 A 
HETATM    9  C13 UNL     1      -3.790   3.633  14.088  1.00  0.00    -0.022 A 
HETATM   10  C14 UNL     1      -3.274   4.790  13.353  1.00  0.00     0.153 C 
ENDROOT
BRANCH   1  11
HETATM   11  C5  UNL     1      -5.275   5.873  12.357  1.00  0.00     0.149 C 
BRANCH  11  12
HETATM   12  C4  UNL     1      -5.407   7.075  11.609  1.00  0.00     0.015 A 
HETATM   13  C3  UNL     1      -6.697   7.578  11.354  1.00  0.00     0.017 A 
HETATM   14  C2  UNL     1      -6.915   8.741  10.679  1.00  0.00     0.026 A 
HETATM   15  C1  UNL     1      -5.864   9.478  10.214  1.00  0.00     0.079 A 
HETATM   16  C22 UNL     1      -4.603   9.013  10.449  1.00  0.00     0.026 A 
HETATM   17  C21 UNL     1      -4.384   7.827  11.138  1.00  0.00     0.017 A 
BRANCH  15  18
HETATM   18  S1  UNL     1      -6.170  10.972   9.346  1.00  0.00     0.256 S 
HETATM   19  O1  UNL     1      -4.960  11.304   8.533  1.00  0.00    -0.201 OA
HETATM   20  O2  UNL     1      -6.504  12.045  10.315  1.00  0.00    -0.201 OA
BRANCH  18  21
HETATM   21  N1  UNL     1      -7.498  10.728   8.277  1.00  0.00    -0.324 N 
ATOM     22  H12 UNL     1      -7.629   9.906   7.688  1.00  0.00     0.169 HD
ATOM     23  H11 UNL     1      -8.117  11.536   8.339  1.00  0.00     0.169 HD
ENDBRANCH  18  21
ENDBRANCH  15  18
ENDBRANCH  11  12
BRANCH  11  24
HETATM   24  O3  UNL     1      -6.241   5.703  13.253  1.00  0.00    -0.346 OA
ATOM     25  H3  UNL     1      -6.629   4.837  13.228  1.00  0.00     0.219 HD
ENDBRANCH  11  24
ENDBRANCH   1  11
BRANCH  10  26
HETATM   26  C15 UNL     1      -2.829   5.992  13.931  1.00  0.00    -0.031 A 
HETATM   27  C16 UNL     1      -1.674   6.575  13.373  1.00  0.00     0.009 A 
HETATM   28  C17 UNL     1      -1.096   7.716  13.849  1.00  0.00     0.001 A 
HETATM   29  C18 UNL     1      -1.648   8.361  14.937  1.00  0.00     0.000 A 
HETATM   30  C19 UNL     1      -2.776   7.814  15.504  1.00  0.00     0.001 A 
HETATM   31  C20 UNL     1      -3.355   6.645  15.006  1.00  0.00     0.009 A 
ENDBRANCH  10  26
BRANCH   7  32
HETATM   32  O5  UNL     1      -5.136   2.300  17.208  1.00  0.00    -0.358 OA
ATOM     33  H5  UNL     1      -5.247   3.087  17.728  1.00  0.00     0.217 HD
ENDBRANCH   7  32
BRANCH   6  34
HETATM   34  O4  UNL     1      -5.268   0.065  15.585  1.00  0.00    -0.358 OA
ATOM     35  H4  UNL     1      -5.280  -0.083  16.523  1.00  0.00     0.217 HD
ENDBRANCH   6  34
TORSDOF 8
ENDMDL
