MODEL 2
REMARK VINA RESULT: -8.332120290      0.699      1.201
REMARK  8 active torsions:
REMARK  status: ('A' for Active; 'I' for Inactive)
REMARK    1  A    between atoms: N1_1  and  S1_4 
REMARK    2  A    between atoms: S1_4  and  C1_7 
REMARK    3  A    between atoms: C4_10  and  C5_11 
REMARK    4  A    between atoms: C5_11  and  O3_12 
REMARK    5  A    between atoms: C5_11  and  N2_14 
REMARK    6  A    between atoms: C10_19  and  O4_20 
REMARK    7  A    between atoms: C11_22  and  O5_23 
REMARK    8  A    between atoms: C14_27  and  C15_28 
ROOT
HETATM    1  N2  UNL     1      -4.415   4.877  12.272  1.00  0.00    -0.348 N 
HETATM    2  C6  UNL     1      -4.286   3.904  11.229  1.00  0.00     0.130 C 
HETATM    3  C7  UNL     1      -3.484   2.655  11.707  1.00  0.00     0.059 C 
HETATM    4  C8  UNL     1      -3.851   2.465  13.121  1.00  0.00    -0.045 A 
HETATM    5  C9  UNL     1      -4.294   1.267  13.623  1.00  0.00     0.047 A 
HETATM    6  C10 UNL     1      -4.652   1.146  14.962  1.00  0.00     0.099 A 
HETATM    7  C11 UNL     1      -4.574   2.221  15.817  1.00  0.00     0.099 A 
HETATM    8  C12 UNL     1      -4.122   3.452  15.310  1.00  0.00     0.049 A 
HETATM    9  C13 UNL     1      -3.770   3.572  14.006  1.00  0.00    -0.022 A 
HETATM   10  C14 UNL     1      -3.315   4.763  13.284  1.00  0.00     0.153 C 
ENDROOT
BRANCH   1  11
HETATM   11  C5  UNL     1      -5.386   5.834  12.428  1.00  0.00     0.149 C 
BRANCH  11  12
HETATM   12  C4  UNL     1      -5.612   7.030  11.691  1.00  0.00     0.015 A 
HETATM   13  C3  UNL     1      -4.501   7.752  11.212  1.00  0.00     0.017 A 
HETATM   14  C2  UNL     1      -4.624   8.885  10.467  1.00  0.00     0.026 A 
HETATM   15  C1  UNL     1      -5.860   9.374  10.150  1.00  0.00     0.079 A 
HETATM   16  C22 UNL     1      -6.951   8.692  10.601  1.00  0.00     0.026 A 
HETATM   17  C21 UNL     1      -6.823   7.537  11.361  1.00  0.00     0.017 A 
BRANCH  15  18
HETATM   18  S1  UNL     1      -5.992  10.836   9.190  1.00  0.00     0.256 S 
HETATM   19  O1  UNL     1      -7.193  10.716   8.307  1.00  0.00    -0.201 OA
HETATM   20  O2  UNL     1      -4.744  11.029   8.411  1.00  0.00    -0.201 OA
BRANCH  18  21
HETATM   21  N1  UNL     1      -6.222  12.174  10.249  1.00  0.00    -0.324 N 
ATOM     22  H12 UNL     1      -5.472  12.694  10.704  1.00  0.00     0.169 HD
ATOM     23  H11 UNL     1      -7.224  12.349  10.338  1.00  0.00     0.169 HD
ENDBRANCH  18  21
ENDBRANCH  15  18
ENDBRANCH  11  12
BRANCH  11  24
HETATM   24  O3  UNL     1      -6.266   5.644  13.404  1.00  0.00    -0.346 OA
ATOM     25  H3  UNL     1      -5.983   5.004  14.046  1.00  0.00     0.219 HD
ENDBRANCH  11  24
ENDBRANCH   1  11
BRANCH  10  26
HETATM   26  C15 UNL     1      -2.865   5.955  13.878  1.00  0.00    -0.031 A 
HETATM   27  C16 UNL     1      -1.703   6.537  13.334  1.00  0.00     0.009 A 
HETATM   28  C17 UNL     1      -1.120   7.668  13.826  1.00  0.00     0.001 A 
HETATM   29  C18 UNL     1      -1.673   8.304  14.918  1.00  0.00     0.000 A 
HETATM   30  C19 UNL     1      -2.809   7.759  15.473  1.00  0.00     0.001 A 
HETATM   31  C20 UNL     1      -3.393   6.600  14.958  1.00  0.00     0.009 A 
ENDBRANCH  10  26
BRANCH   7  32
HETATM   32  O5  UNL     1      -4.927   2.111  17.143  1.00  0.00    -0.358 OA
ATOM     33  H5  UNL     1      -5.825   1.939  17.404  1.00  0.00     0.217 HD
ENDBRANCH   7  32
BRANCH   6  34
HETATM   34  O4  UNL     1      -5.097  -0.073  15.456  1.00  0.00    -0.358 OA
ATOM     35  H4  UNL     1      -5.705  -0.097  16.186  1.00  0.00     0.217 HD
ENDBRANCH   6  34
TORSDOF 8
ENDMDL
