MODEL 14
REMARK VINA RESULT: -7.130405042      4.223      7.286
REMARK  8 active torsions:
REMARK  status: ('A' for Active; 'I' for Inactive)
REMARK    1  A    between atoms: N1_1  and  S1_4 
REMARK    2  A    between atoms: S1_4  and  C1_7 
REMARK    3  A    between atoms: C4_10  and  C5_11 
REMARK    4  A    between atoms: C5_11  and  O3_12 
REMARK    5  A    between atoms: C5_11  and  N2_14 
REMARK    6  A    between atoms: C10_19  and  O4_20 
REMARK    7  A    between atoms: C11_22  and  O5_23 
REMARK    8  A    between atoms: C14_27  and  C15_28 
ROOT
HETATM    1  N2  UNL     1      -3.195   5.201  12.413  1.00  0.00    -0.348 N 
HETATM    2  C6  UNL     1      -4.122   4.885  11.368  1.00  0.00     0.130 C 
HETATM    3  C7  UNL     1      -3.746   5.600  10.034  1.00  0.00     0.059 C 
HETATM    4  C8  UNL     1      -2.274   5.628  10.000  1.00  0.00    -0.045 A 
HETATM    5  C9  UNL     1      -1.543   5.178   8.929  1.00  0.00     0.047 A 
HETATM    6  C10 UNL     1      -0.152   5.202   8.956  1.00  0.00     0.099 A 
HETATM    7  C11 UNL     1       0.527   5.676  10.055  1.00  0.00     0.099 A 
HETATM    8  C12 UNL     1      -0.214   6.138  11.156  1.00  0.00     0.049 A 
HETATM    9  C13 UNL     1      -1.570   6.117  11.131  1.00  0.00    -0.022 A 
HETATM   10  C14 UNL     1      -2.513   6.515  12.179  1.00  0.00     0.153 C 
ENDROOT
BRANCH   1  11
HETATM   11  C5  UNL     1      -2.887   4.464  13.529  1.00  0.00     0.149 C 
BRANCH  11  12
HETATM   12  C4  UNL     1      -3.748   3.834  14.470  1.00  0.00     0.015 A 
HETATM   13  C3  UNL     1      -3.296   2.678  15.134  1.00  0.00     0.017 A 
HETATM   14  C2  UNL     1      -4.038   2.032  16.077  1.00  0.00     0.026 A 
HETATM   15  C1  UNL     1      -5.277   2.494  16.419  1.00  0.00     0.079 A 
HETATM   16  C22 UNL     1      -5.737   3.613  15.790  1.00  0.00     0.026 A 
HETATM   17  C21 UNL     1      -4.978   4.270  14.830  1.00  0.00     0.017 A 
BRANCH  15  18
HETATM   18  S1  UNL     1      -6.213   1.644  17.635  1.00  0.00     0.256 S 
HETATM   19  O1  UNL     1      -6.429   2.563  18.795  1.00  0.00    -0.201 OA
HETATM   20  O2  UNL     1      -5.498   0.405  18.030  1.00  0.00    -0.201 OA
BRANCH  18  21
HETATM   21  N1  UNL     1      -7.746   1.235  16.966  1.00  0.00    -0.324 N 
ATOM     22  H12 UNL     1      -8.639   1.340  17.447  1.00  0.00     0.169 HD
ATOM     23  H11 UNL     1      -7.603   0.877  16.021  1.00  0.00     0.169 HD
ENDBRANCH  18  21
ENDBRANCH  15  18
ENDBRANCH  11  12
BRANCH  11  24
HETATM   24  O3  UNL     1      -1.598   4.292  13.799  1.00  0.00    -0.346 OA
ATOM     25  H3  UNL     1      -1.095   3.988  13.053  1.00  0.00     0.219 HD
ENDBRANCH  11  24
ENDBRANCH   1  11
BRANCH  10  26
HETATM   26  C15 UNL     1      -2.196   7.284  13.313  1.00  0.00    -0.031 A 
HETATM   27  C16 UNL     1      -0.994   8.017  13.268  1.00  0.00     0.009 A 
HETATM   28  C17 UNL     1      -0.529   8.775  14.303  1.00  0.00     0.001 A 
HETATM   29  C18 UNL     1      -1.252   8.850  15.476  1.00  0.00     0.000 A 
HETATM   30  C19 UNL     1      -2.431   8.144  15.550  1.00  0.00     0.001 A 
HETATM   31  C20 UNL     1      -2.892   7.371  14.483  1.00  0.00     0.009 A 
ENDBRANCH  10  26
BRANCH   7  32
HETATM   32  O5  UNL     1       1.903   5.703  10.090  1.00  0.00    -0.358 OA
ATOM     33  H5  UNL     1       2.393   5.190  10.723  1.00  0.00     0.217 HD
ENDBRANCH   7  32
BRANCH   6  34
HETATM   34  O4  UNL     1       0.573   4.744   7.864  1.00  0.00    -0.358 OA
ATOM     35  H4  UNL     1       1.329   4.184   7.996  1.00  0.00     0.217 HD
ENDBRANCH   6  34
TORSDOF 8
ENDMDL
