MODEL 3
REMARK VINA RESULT: -7.762680313      3.391      5.051
REMARK  8 active torsions:
REMARK  status: ('A' for Active; 'I' for Inactive)
REMARK    1  A    between atoms: N1_1  and  S1_4 
REMARK    2  A    between atoms: S1_4  and  C1_7 
REMARK    3  A    between atoms: C4_10  and  C5_11 
REMARK    4  A    between atoms: C5_11  and  O3_12 
REMARK    5  A    between atoms: C5_11  and  N2_14 
REMARK    6  A    between atoms: C10_19  and  O4_20 
REMARK    7  A    between atoms: C11_22  and  O5_23 
REMARK    8  A    between atoms: C14_27  and  C15_28 
ROOT
HETATM    1  N2  UNL     1      -4.241   5.180  14.742  1.00  0.00    -0.348 N 
HETATM    2  C6  UNL     1      -5.146   5.690  15.728  1.00  0.00     0.130 C 
HETATM    3  C7  UNL     1      -6.422   4.802  15.848  1.00  0.00     0.059 C 
HETATM    4  C8  UNL     1      -5.966   3.419  15.626  1.00  0.00    -0.045 A 
HETATM    5  C9  UNL     1      -6.251   2.391  16.488  1.00  0.00     0.047 A 
HETATM    6  C10 UNL     1      -5.775   1.106  16.246  1.00  0.00     0.099 A 
HETATM    7  C11 UNL     1      -5.005   0.832  15.139  1.00  0.00     0.099 A 
HETATM    8  C12 UNL     1      -4.707   1.881  14.251  1.00  0.00     0.049 A 
HETATM    9  C13 UNL     1      -5.173   3.133  14.483  1.00  0.00    -0.022 A 
HETATM   10  C14 UNL     1      -4.946   4.355  13.707  1.00  0.00     0.153 C 
ENDROOT
BRANCH   1  11
HETATM   11  C5  UNL     1      -2.883   5.356  14.661  1.00  0.00     0.149 C 
BRANCH  11  12
HETATM   12  C4  UNL     1      -2.134   6.511  14.302  1.00  0.00     0.015 A 
HETATM   13  C3  UNL     1      -2.297   7.687  15.059  1.00  0.00     0.017 A 
HETATM   14  C2  UNL     1      -1.594   8.827  14.810  1.00  0.00     0.026 A 
HETATM   15  C1  UNL     1      -0.684   8.871  13.793  1.00  0.00     0.079 A 
HETATM   16  C22 UNL     1      -0.506   7.744  13.046  1.00  0.00     0.026 A 
HETATM   17  C21 UNL     1      -1.224   6.582  13.302  1.00  0.00     0.017 A 
BRANCH  15  18
HETATM   18  S1  UNL     1       0.209  10.351  13.492  1.00  0.00     0.256 S 
HETATM   19  O1  UNL     1      -0.579  11.498  14.040  1.00  0.00    -0.201 OA
HETATM   20  O2  UNL     1       0.456  10.489  12.035  1.00  0.00    -0.201 OA
BRANCH  18  21
HETATM   21  N1  UNL     1       1.713  10.269  14.326  1.00  0.00    -0.324 N 
ATOM     22  H12 UNL     1       1.837   9.905  15.270  1.00  0.00     0.169 HD
ATOM     23  H11 UNL     1       2.442  10.643  13.718  1.00  0.00     0.169 HD
ENDBRANCH  18  21
ENDBRANCH  15  18
ENDBRANCH  11  12
BRANCH  11  24
HETATM   24  O3  UNL     1      -2.122   4.309  14.960  1.00  0.00    -0.346 OA
ATOM     25  H3  UNL     1      -2.509   3.479  14.708  1.00  0.00     0.219 HD
ENDBRANCH  11  24
ENDBRANCH   1  11
BRANCH  10  26
HETATM   26  C15 UNL     1      -4.444   4.407  12.395  1.00  0.00    -0.031 A 
HETATM   27  C16 UNL     1      -4.663   5.600  11.678  1.00  0.00     0.009 A 
HETATM   28  C17 UNL     1      -4.275   5.788  10.384  1.00  0.00     0.001 A 
HETATM   29  C18 UNL     1      -3.629   4.773   9.708  1.00  0.00     0.000 A 
HETATM   30  C19 UNL     1      -3.401   3.595  10.382  1.00  0.00     0.001 A 
HETATM   31  C20 UNL     1      -3.806   3.418  11.706  1.00  0.00     0.009 A 
ENDBRANCH  10  26
BRANCH   7  32
HETATM   32  O5  UNL     1      -4.529  -0.436  14.892  1.00  0.00    -0.358 OA
ATOM     33  H5  UNL     1      -4.646  -0.853  14.046  1.00  0.00     0.217 HD
ENDBRANCH   7  32
BRANCH   6  34
HETATM   34  O4  UNL     1      -6.073   0.075  17.127  1.00  0.00    -0.358 OA
ATOM     35  H4  UNL     1      -6.234   0.265  18.044  1.00  0.00     0.217 HD
ENDBRANCH   6  34
TORSDOF 8
ENDMDL
