MODEL 1
REMARK VINA RESULT: -6.188688909      0.000      0.000
REMARK  10 active torsions:
REMARK  status: ('A' for Active; 'I' for Inactive)
REMARK    1  A    between atoms: O1_1  and  C1_3 
REMARK    2  A    between atoms: C1_3  and  C2_4 
REMARK    3  A    between atoms: C3_6  and  S1_7 
REMARK    4  A    between atoms: S1_7  and  C4_8 
REMARK    5  A    between atoms: C4_8  and  C5_9 
REMARK    6  A    between atoms: C8_15  and  O3_16 
REMARK    7  A    between atoms: C9_18  and  O4_19 
REMARK    8  A    between atoms: C10_21  and  O5_22 
REMARK    9  A    between atoms: C11_24  and  O6_25 
REMARK   10  A    between atoms: C12_27  and  O7_28 
ROOT
HETATM    1  C2  UNL     1       4.821 -32.043 -15.998  1.00  0.00     0.178 C 
HETATM    2  O2  UNL     1       6.027 -32.243 -15.308  1.00  0.00    -0.363 OA
HETATM    3  C3  UNL     1       6.103 -31.483 -14.155  1.00  0.00     0.214 C 
HETATM    4  C10 UNL     1       5.664 -30.061 -14.396  1.00  0.00     0.188 C 
HETATM    5  C11 UNL     1       5.739 -29.735 -15.883  1.00  0.00     0.181 C 
HETATM    6  C12 UNL     1       4.822 -30.674 -16.649  1.00  0.00     0.180 C 
ENDROOT
BRANCH   3   7
HETATM    7  S1  UNL     1       5.143 -32.309 -12.873  1.00  0.00    -0.134 SA
BRANCH   7   8
HETATM    8  C4  UNL     1       3.733 -31.251 -12.401  1.00  0.00     0.085 C 
BRANCH   8   9
HETATM    9  C5  UNL     1       3.428 -31.568 -10.969  1.00  0.00     0.052 C 
HETATM   10  C6  UNL     1       4.609 -32.055 -10.189  1.00  0.00     0.240 C 
HETATM   11  N1  UNL     1       5.079 -31.152  -9.180  1.00  0.00    -0.072 N 
HETATM   12  C7  UNL     1       4.083 -30.737  -8.234  1.00  0.00     0.266 C 
ATOM     13  H12 UNL     1       5.883 -31.550  -8.695  1.00  0.00     0.277 HD
ATOM     14  H11 UNL     1       5.518 -30.338  -9.611  1.00  0.00     0.277 HD
HETATM   15  C8  UNL     1       2.683 -30.925  -8.792  1.00  0.00     0.172 C 
HETATM   16  C9  UNL     1       2.757 -30.421 -10.231  1.00  0.00     0.154 C 
BRANCH  15  17
HETATM   17  O3  UNL     1       1.718 -30.281  -8.052  1.00  0.00    -0.391 OA
ATOM     18  H3  UNL     1       0.862 -30.295  -8.465  1.00  0.00     0.210 HD
ENDBRANCH  15  17
BRANCH  16  19
HETATM   19  O4  UNL     1       1.507 -30.126 -10.747  1.00  0.00    -0.393 OA
ATOM     20  H4  UNL     1       1.548 -29.487 -11.449  1.00  0.00     0.210 HD
ENDBRANCH  16  19
ENDBRANCH   8   9
ENDBRANCH   7   8
ENDBRANCH   3   7
BRANCH   4  21
HETATM   21  O5  UNL     1       6.484 -29.134 -13.755  1.00  0.00    -0.389 OA
ATOM     22  H5  UNL     1       6.203 -28.238 -13.903  1.00  0.00     0.210 HD
ENDBRANCH   4  21
BRANCH   1  23
HETATM   23  C1  UNL     1       4.758 -33.155 -17.038  1.00  0.00     0.198 C 
BRANCH  23  24
HETATM   24  O1  UNL     1       3.601 -33.093 -17.793  1.00  0.00    -0.398 OA
ATOM     25  H1  UNL     1       3.740 -33.395 -18.683  1.00  0.00     0.209 HD
ENDBRANCH  23  24
ENDBRANCH   1  23
BRANCH   5  26
HETATM   26  O6  UNL     1       7.035 -29.748 -16.362  1.00  0.00    -0.390 OA
ATOM     27  H6  UNL     1       7.075 -29.914 -17.297  1.00  0.00     0.210 HD
ENDBRANCH   5  26
BRANCH   6  28
HETATM   28  O7  UNL     1       3.541 -30.111 -16.591  1.00  0.00    -0.390 OA
ATOM     29  H7  UNL     1       2.998 -30.461 -17.288  1.00  0.00     0.210 HD
ENDBRANCH   6  28
TORSDOF 10
ENDMDL
