MODEL 6
REMARK VINA RESULT: -5.841804203      3.965      8.479
REMARK  10 active torsions:
REMARK  status: ('A' for Active; 'I' for Inactive)
REMARK    1  A    between atoms: O1_1  and  C1_3 
REMARK    2  A    between atoms: C1_3  and  C2_4 
REMARK    3  A    between atoms: C3_6  and  S1_7 
REMARK    4  A    between atoms: S1_7  and  C4_8 
REMARK    5  A    between atoms: C4_8  and  C5_9 
REMARK    6  A    between atoms: C8_15  and  O3_16 
REMARK    7  A    between atoms: C9_18  and  O4_19 
REMARK    8  A    between atoms: C10_21  and  O5_22 
REMARK    9  A    between atoms: C11_24  and  O6_25 
REMARK   10  A    between atoms: C12_27  and  O7_28 
ROOT
HETATM    1  C2  UNL     1       4.327 -29.818  -5.758  1.00  0.00     0.178 C 
HETATM    2  O2  UNL     1       4.558 -30.797  -6.738  1.00  0.00    -0.363 OA
HETATM    3  C3  UNL     1       3.431 -31.556  -6.994  1.00  0.00     0.214 C 
HETATM    4  C10 UNL     1       2.750 -31.989  -5.721  1.00  0.00     0.188 C 
HETATM    5  C11 UNL     1       3.724 -31.907  -4.552  1.00  0.00     0.181 C 
HETATM    6  C12 UNL     1       4.201 -30.473  -4.397  1.00  0.00     0.180 C 
ENDROOT
BRANCH   3   7
HETATM    7  S1  UNL     1       2.351 -30.610  -8.083  1.00  0.00    -0.134 SA
BRANCH   7   8
HETATM    8  C4  UNL     1       3.301 -30.057  -9.540  1.00  0.00     0.085 C 
BRANCH   8   9
HETATM    9  C5  UNL     1       3.701 -31.298 -10.278  1.00  0.00     0.052 C 
HETATM   10  C6  UNL     1       2.908 -31.547 -11.523  1.00  0.00     0.240 C 
HETATM   11  N1  UNL     1       3.644 -31.401 -12.745  1.00  0.00    -0.072 N 
HETATM   12  C7  UNL     1       4.834 -32.198 -12.828  1.00  0.00     0.266 C 
ATOM     13  H12 UNL     1       3.040 -31.583 -13.545  1.00  0.00     0.277 HD
ATOM     14  H11 UNL     1       3.864 -30.419 -12.909  1.00  0.00     0.277 HD
HETATM   15  C8  UNL     1       5.316 -32.612 -11.448  1.00  0.00     0.172 C 
HETATM   16  C9  UNL     1       5.187 -31.357 -10.589  1.00  0.00     0.154 C 
BRANCH  15  17
HETATM   17  O3  UNL     1       6.594 -33.122 -11.456  1.00  0.00    -0.391 OA
ATOM     18  H3  UNL     1       6.617 -34.064 -11.580  1.00  0.00     0.210 HD
ENDBRANCH  15  17
BRANCH  16  19
HETATM   19  O4  UNL     1       5.960 -31.427  -9.444  1.00  0.00    -0.393 OA
ATOM     20  H4  UNL     1       6.858 -31.676  -9.629  1.00  0.00     0.210 HD
ENDBRANCH  16  19
ENDBRANCH   8   9
ENDBRANCH   7   8
ENDBRANCH   3   7
BRANCH   4  21
HETATM   21  O5  UNL     1       2.317 -33.314  -5.771  1.00  0.00    -0.389 OA
ATOM     22  H5  UNL     1       2.847 -33.889  -5.232  1.00  0.00     0.210 HD
ENDBRANCH   4  21
BRANCH   1  23
HETATM   23  C1  UNL     1       5.533 -28.888  -5.821  1.00  0.00     0.198 C 
BRANCH  23  24
HETATM   24  O1  UNL     1       6.555 -29.416  -6.588  1.00  0.00    -0.398 OA
ATOM     25  H1  UNL     1       7.409 -29.258  -6.201  1.00  0.00     0.209 HD
ENDBRANCH  23  24
ENDBRANCH   1  23
BRANCH   5  26
HETATM   26  O6  UNL     1       4.769 -32.805  -4.671  1.00  0.00    -0.390 OA
ATOM     27  H6  UNL     1       4.806 -33.418  -3.945  1.00  0.00     0.210 HD
ENDBRANCH   5  26
BRANCH   6  28
HETATM   28  O7  UNL     1       3.231 -29.814  -3.632  1.00  0.00    -0.390 OA
ATOM     29  H7  UNL     1       2.805 -30.427  -3.045  1.00  0.00     0.210 HD
ENDBRANCH   6  28
TORSDOF 10
ENDMDL
