MODEL 3
REMARK VINA RESULT: -6.081453768      2.323      7.080
REMARK  10 active torsions:
REMARK  status: ('A' for Active; 'I' for Inactive)
REMARK    1  A    between atoms: O1_1  and  C1_3 
REMARK    2  A    between atoms: C1_3  and  C2_4 
REMARK    3  A    between atoms: C3_6  and  S1_7 
REMARK    4  A    between atoms: S1_7  and  C4_8 
REMARK    5  A    between atoms: C4_8  and  C5_9 
REMARK    6  A    between atoms: C8_15  and  O3_16 
REMARK    7  A    between atoms: C9_18  and  O4_19 
REMARK    8  A    between atoms: C10_21  and  O5_22 
REMARK    9  A    between atoms: C11_24  and  O6_25 
REMARK   10  A    between atoms: C12_27  and  O7_28 
ROOT
HETATM    1  C2  UNL     1       2.397 -30.391  -9.465  1.00  0.00     0.178 C 
HETATM    2  O2  UNL     1       3.486 -29.854 -10.170  1.00  0.00    -0.363 OA
HETATM    3  C3  UNL     1       4.316 -30.837 -10.677  1.00  0.00     0.214 C 
HETATM    4  C10 UNL     1       4.605 -31.905  -9.653  1.00  0.00     0.188 C 
HETATM    5  C11 UNL     1       4.332 -31.373  -8.251  1.00  0.00     0.181 C 
HETATM    6  C12 UNL     1       2.872 -30.965  -8.146  1.00  0.00     0.180 C 
ENDROOT
BRANCH   3   7
HETATM    7  S1  UNL     1       3.564 -31.488 -12.180  1.00  0.00    -0.134 SA
BRANCH   7   8
HETATM    8  C4  UNL     1       4.875 -32.092 -13.296  1.00  0.00     0.085 C 
BRANCH   8   9
HETATM    9  C5  UNL     1       4.932 -31.128 -14.441  1.00  0.00     0.052 C 
HETATM   10  C6  UNL     1       5.871 -29.983 -14.226  1.00  0.00     0.240 C 
HETATM   11  N1  UNL     1       7.035 -29.994 -15.063  1.00  0.00    -0.072 N 
HETATM   12  C7  UNL     1       6.763 -30.064 -16.470  1.00  0.00     0.266 C 
ATOM     13  H12 UNL     1       7.626 -29.188 -14.858  1.00  0.00     0.277 HD
ATOM     14  H11 UNL     1       7.663 -30.748 -14.786  1.00  0.00     0.277 HD
HETATM   15  C8  UNL     1       5.373 -30.619 -16.733  1.00  0.00     0.172 C 
HETATM   16  C9  UNL     1       5.226 -31.797 -15.774  1.00  0.00     0.154 C 
BRANCH  15  17
HETATM   17  O3  UNL     1       5.176 -30.975 -18.048  1.00  0.00    -0.391 OA
ATOM     18  H3  UNL     1       4.339 -31.400 -18.195  1.00  0.00     0.210 HD
ENDBRANCH  15  17
BRANCH  16  19
HETATM   19  O4  UNL     1       4.218 -32.662 -16.160  1.00  0.00    -0.393 OA
ATOM     20  H4  UNL     1       3.380 -32.223 -16.250  1.00  0.00     0.210 HD
ENDBRANCH  16  19
ENDBRANCH   8   9
ENDBRANCH   7   8
ENDBRANCH   3   7
BRANCH   4  21
HETATM   21  O5  UNL     1       5.941 -32.305  -9.661  1.00  0.00    -0.389 OA
ATOM     22  H5  UNL     1       6.331 -32.285  -8.795  1.00  0.00     0.210 HD
ENDBRANCH   4  21
BRANCH   1  23
HETATM   23  C1  UNL     1       1.436 -29.227  -9.253  1.00  0.00     0.198 C 
BRANCH  23  24
HETATM   24  O1  UNL     1       0.270 -29.379  -9.980  1.00  0.00    -0.398 OA
ATOM     25  H1  UNL     1      -0.379 -29.890  -9.509  1.00  0.00     0.209 HD
ENDBRANCH  23  24
ENDBRANCH   1  23
BRANCH   5  26
HETATM   26  O6  UNL     1       5.196 -30.354  -7.895  1.00  0.00    -0.390 OA
ATOM     27  H6  UNL     1       6.053 -30.448  -8.295  1.00  0.00     0.210 HD
ENDBRANCH   5  26
BRANCH   6  28
HETATM   28  O7  UNL     1       2.157 -32.131  -7.841  1.00  0.00    -0.390 OA
ATOM     29  H7  UNL     1       2.252 -32.342  -6.920  1.00  0.00     0.210 HD
ENDBRANCH   6  28
TORSDOF 10
ENDMDL
