MODEL 4
REMARK VINA RESULT: -6.003046695      2.892      6.595
REMARK  10 active torsions:
REMARK  status: ('A' for Active; 'I' for Inactive)
REMARK    1  A    between atoms: O1_1  and  C1_3 
REMARK    2  A    between atoms: C1_3  and  C2_4 
REMARK    3  A    between atoms: C3_6  and  S1_7 
REMARK    4  A    between atoms: S1_7  and  C4_8 
REMARK    5  A    between atoms: C4_8  and  C5_9 
REMARK    6  A    between atoms: C8_15  and  O3_16 
REMARK    7  A    between atoms: C9_18  and  O4_19 
REMARK    8  A    between atoms: C10_21  and  O5_22 
REMARK    9  A    between atoms: C11_24  and  O6_25 
REMARK   10  A    between atoms: C12_27  and  O7_28 
ROOT
HETATM    1  C2  UNL     1       2.450 -30.445  -9.563  1.00  0.00     0.178 C 
HETATM    2  O2  UNL     1       3.571 -29.954 -10.251  1.00  0.00    -0.363 OA
HETATM    3  C3  UNL     1       4.411 -30.969 -10.673  1.00  0.00     0.214 C 
HETATM    4  C10 UNL     1       4.647 -31.985  -9.585  1.00  0.00     0.188 C 
HETATM    5  C11 UNL     1       4.325 -31.379  -8.224  1.00  0.00     0.181 C 
HETATM    6  C12 UNL     1       2.866 -30.954  -8.198  1.00  0.00     0.180 C 
ENDROOT
BRANCH   3   7
HETATM    7  S1  UNL     1       3.712 -31.691 -12.169  1.00  0.00    -0.134 SA
BRANCH   7   8
HETATM    8  C4  UNL     1       4.975 -31.689 -13.485  1.00  0.00     0.085 C 
BRANCH   8   9
HETATM    9  C5  UNL     1       6.238 -31.182 -12.858  1.00  0.00     0.052 C 
HETATM   10  C6  UNL     1       7.315 -32.213 -12.741  1.00  0.00     0.240 C 
HETATM   11  N1  UNL     1       8.453 -31.994 -13.587  1.00  0.00    -0.072 N 
HETATM   12  C7  UNL     1       9.073 -30.708 -13.439  1.00  0.00     0.266 C 
ATOM     13  H12 UNL     1       9.140 -32.735 -13.454  1.00  0.00     0.277 HD
ATOM     14  H11 UNL     1       8.204 -32.156 -14.562  1.00  0.00     0.277 HD
HETATM   15  C8  UNL     1       8.114 -29.704 -12.822  1.00  0.00     0.172 C 
HETATM   16  C9  UNL     1       6.783 -29.934 -13.533  1.00  0.00     0.154 C 
BRANCH  15  17
HETATM   17  O3  UNL     1       8.556 -28.405 -12.926  1.00  0.00    -0.391 OA
ATOM     18  H3  UNL     1       8.216 -27.841 -12.241  1.00  0.00     0.210 HD
ENDBRANCH  15  17
BRANCH  16  19
HETATM   19  O4  UNL     1       5.929 -28.853 -13.406  1.00  0.00    -0.393 OA
ATOM     20  H4  UNL     1       6.004 -28.432 -12.558  1.00  0.00     0.210 HD
ENDBRANCH  16  19
ENDBRANCH   8   9
ENDBRANCH   7   8
ENDBRANCH   3   7
BRANCH   4  21
HETATM   21  O5  UNL     1       5.978 -32.396  -9.519  1.00  0.00    -0.389 OA
ATOM     22  H5  UNL     1       6.315 -32.672 -10.363  1.00  0.00     0.210 HD
ENDBRANCH   4  21
BRANCH   1  23
HETATM   23  C1  UNL     1       1.493 -29.264  -9.450  1.00  0.00     0.198 C 
BRANCH  23  24
HETATM   24  O1  UNL     1       0.282 -29.517 -10.067  1.00  0.00    -0.398 OA
ATOM     25  H1  UNL     1      -0.363 -28.847  -9.873  1.00  0.00     0.209 HD
ENDBRANCH  23  24
ENDBRANCH   1  23
BRANCH   5  26
HETATM   26  O6  UNL     1       5.185 -30.350  -7.887  1.00  0.00    -0.390 OA
ATOM     27  H6  UNL     1       5.709 -30.552  -7.120  1.00  0.00     0.210 HD
ENDBRANCH   5  26
BRANCH   6  28
HETATM   28  O7  UNL     1       2.128 -32.096  -7.863  1.00  0.00    -0.390 OA
ATOM     29  H7  UNL     1       1.216 -31.978  -8.101  1.00  0.00     0.210 HD
ENDBRANCH   6  28
TORSDOF 10
ENDMDL
