MODEL 2
REMARK VINA RESULT: -7.062061670      1.659      1.822
REMARK  2 active torsions:
REMARK  status: ('A' for Active; 'I' for Inactive)
REMARK    1  A    between atoms: C11_14  and  N2_15 
REMARK       I    between atoms: N2_15  and  C12_17 
REMARK    2  A    between atoms: C12_17  and  C13_19 
ROOT
HETATM    1  C1  UNL     1      -2.902 -29.934 -26.034  1.00  0.00     0.159 C 
HETATM    2  N1  UNL     1      -2.990 -28.504 -26.274  1.00  0.00    -0.317 N 
HETATM    3  C2  UNL     1      -4.036 -27.832 -25.588  1.00  0.00     0.259 C 
HETATM    4  O1  UNL     1      -4.854 -28.572 -24.942  1.00  0.00    -0.267 OA
HETATM    5  C3  UNL     1      -4.363 -26.417 -25.478  1.00  0.00     0.049 A 
HETATM    6  C4  UNL     1      -5.072 -26.117 -24.314  1.00  0.00     0.018 A 
HETATM    7  C5  UNL     1      -5.464 -24.823 -24.043  1.00  0.00     0.001 A 
HETATM    8  C6  UNL     1      -5.176 -23.779 -24.896  1.00  0.00     0.001 A 
HETATM    9  C7  UNL     1      -4.477 -24.069 -26.046  1.00  0.00     0.020 A 
HETATM   10  C8  UNL     1      -4.076 -25.380 -26.327  1.00  0.00     0.021 A 
HETATM   11  S1  UNL     1      -3.193 -25.489 -27.866  1.00  0.00    -0.087 SA
HETATM   12  C9  UNL     1      -1.987 -26.770 -27.853  1.00  0.00     0.034 A 
HETATM   13  C10 UNL     1      -0.922 -26.461 -28.660  1.00  0.00     0.050 A 
HETATM   14  C11 UNL     1       0.179 -27.309 -28.830  1.00  0.00     0.036 A 
HETATM   15  C17 UNL     1       0.141 -28.494 -28.135  1.00  0.00     0.032 A 
HETATM   16  C18 UNL     1      -0.952 -28.793 -27.318  1.00  0.00     0.033 A 
HETATM   17  C19 UNL     1      -2.027 -27.949 -27.161  1.00  0.00     0.054 A 
ENDROOT
BRANCH  14  18
HETATM   18  N2  UNL     1       1.202 -26.876 -29.682  1.00  0.00    -0.325 N 
HETATM   19  C12 UNL     1       1.252 -26.977 -31.089  1.00  0.00     0.251 C 
HETATM   20  O2  UNL     1       0.295 -27.511 -31.692  1.00  0.00    -0.270 OA
ATOM     21  H2  UNL     1       2.005 -26.434 -29.234  1.00  0.00     0.169 HD
BRANCH  19  22
HETATM   22  C13 UNL     1       2.439 -26.454 -31.862  1.00  0.00     0.213 C 
HETATM   23  C14 UNL     1       2.836 -25.088 -31.418  1.00  0.00     0.044 C 
HETATM   24  C15 UNL     1       3.096 -24.387 -32.756  1.00  0.00     0.029 C 
HETATM   25  C16 UNL     1       2.130 -25.141 -33.646  1.00  0.00     0.168 C 
HETATM   26  O3  UNL     1       2.197 -26.436 -33.207  1.00  0.00    -0.376 OA
ENDBRANCH  19  22
ENDBRANCH  14  18
TORSDOF 2
ENDMDL
