MODEL 1
REMARK VINA RESULT: -7.108892814      0.000      0.000
REMARK  2 active torsions:
REMARK  status: ('A' for Active; 'I' for Inactive)
REMARK    1  A    between atoms: C11_14  and  N2_15 
REMARK       I    between atoms: N2_15  and  C12_17 
REMARK    2  A    between atoms: C12_17  and  C13_19 
ROOT
HETATM    1  C1  UNL     1      -0.139 -28.782 -24.768  1.00  0.00     0.159 C 
HETATM    2  N1  UNL     1      -0.913 -27.742 -25.424  1.00  0.00    -0.317 N 
HETATM    3  C2  UNL     1      -1.858 -27.072 -24.601  1.00  0.00     0.259 C 
HETATM    4  O1  UNL     1      -2.010 -27.540 -23.421  1.00  0.00    -0.267 OA
HETATM    5  C3  UNL     1      -2.711 -25.920 -24.856  1.00  0.00     0.049 A 
HETATM    6  C4  UNL     1      -3.054 -25.236 -23.688  1.00  0.00     0.018 A 
HETATM    7  C5  UNL     1      -3.856 -24.116 -23.739  1.00  0.00     0.001 A 
HETATM    8  C6  UNL     1      -4.349 -23.624 -24.929  1.00  0.00     0.001 A 
HETATM    9  C7  UNL     1      -4.014 -24.294 -26.085  1.00  0.00     0.020 A 
HETATM   10  C8  UNL     1      -3.200 -25.432 -26.039  1.00  0.00     0.021 A 
HETATM   11  S1  UNL     1      -2.917 -26.111 -27.658  1.00  0.00    -0.087 SA
HETATM   12  C9  UNL     1      -1.345 -26.889 -27.789  1.00  0.00     0.034 A 
HETATM   13  C10 UNL     1      -0.851 -26.804 -29.065  1.00  0.00     0.050 A 
HETATM   14  C11 UNL     1       0.386 -27.342 -29.443  1.00  0.00     0.036 A 
HETATM   15  C17 UNL     1       1.097 -27.974 -28.452  1.00  0.00     0.032 A 
HETATM   16  C18 UNL     1       0.579 -28.051 -27.157  1.00  0.00     0.033 A 
HETATM   17  C19 UNL     1      -0.638 -27.518 -26.801  1.00  0.00     0.054 A 
ENDROOT
BRANCH  14  18
HETATM   18  N2  UNL     1       0.775 -27.187 -30.779  1.00  0.00    -0.325 N 
HETATM   19  C12 UNL     1       1.691 -26.251 -31.306  1.00  0.00     0.251 C 
HETATM   20  O2  UNL     1       2.245 -25.443 -30.529  1.00  0.00    -0.270 OA
ATOM     21  H2  UNL     1       0.347 -27.825 -31.450  1.00  0.00     0.169 HD
BRANCH  19  22
HETATM   22  C13 UNL     1       2.002 -26.218 -32.784  1.00  0.00     0.213 C 
HETATM   23  C14 UNL     1       2.365 -24.848 -33.246  1.00  0.00     0.044 C 
HETATM   24  C15 UNL     1       1.588 -24.748 -34.565  1.00  0.00     0.029 C 
HETATM   25  C16 UNL     1       0.414 -25.652 -34.255  1.00  0.00     0.168 C 
HETATM   26  O3  UNL     1       0.954 -26.680 -33.529  1.00  0.00    -0.376 OA
ENDBRANCH  19  22
ENDBRANCH  14  18
TORSDOF 2
ENDMDL
