MODEL 3
REMARK VINA RESULT: -6.909882610      2.260      2.613
REMARK  2 active torsions:
REMARK  status: ('A' for Active; 'I' for Inactive)
REMARK    1  A    between atoms: C11_14  and  N2_15 
REMARK       I    between atoms: N2_15  and  C12_17 
REMARK    2  A    between atoms: C12_17  and  C13_19 
ROOT
HETATM    1  C1  UNL     1      -3.325 -30.098 -26.272  1.00  0.00     0.159 C 
HETATM    2  N1  UNL     1      -3.357 -28.661 -26.482  1.00  0.00    -0.317 N 
HETATM    3  C2  UNL     1      -4.506 -27.995 -25.977  1.00  0.00     0.259 C 
HETATM    4  O1  UNL     1      -5.433 -28.743 -25.511  1.00  0.00    -0.267 OA
HETATM    5  C3  UNL     1      -4.837 -26.580 -25.887  1.00  0.00     0.049 A 
HETATM    6  C4  UNL     1      -5.743 -26.303 -24.861  1.00  0.00     0.018 A 
HETATM    7  C5  UNL     1      -6.168 -25.013 -24.628  1.00  0.00     0.001 A 
HETATM    8  C6  UNL     1      -5.724 -23.949 -25.384  1.00  0.00     0.001 A 
HETATM    9  C7  UNL     1      -4.830 -24.216 -26.397  1.00  0.00     0.020 A 
HETATM   10  C8  UNL     1      -4.394 -25.523 -26.639  1.00  0.00     0.021 A 
HETATM   11  S1  UNL     1      -3.248 -25.601 -27.996  1.00  0.00    -0.087 SA
HETATM   12  C9  UNL     1      -2.073 -26.897 -27.803  1.00  0.00     0.034 A 
HETATM   13  C10 UNL     1      -0.878 -26.579 -28.394  1.00  0.00     0.050 A 
HETATM   14  C11 UNL     1       0.229 -27.436 -28.387  1.00  0.00     0.036 A 
HETATM   15  C17 UNL     1       0.058 -28.638 -27.746  1.00  0.00     0.032 A 
HETATM   16  C18 UNL     1      -1.167 -28.946 -27.148  1.00  0.00     0.033 A 
HETATM   17  C19 UNL     1      -2.246 -28.094 -27.163  1.00  0.00     0.054 A 
ENDROOT
BRANCH  14  18
HETATM   18  N2  UNL     1       1.393 -26.991 -29.028  1.00  0.00    -0.325 N 
HETATM   19  C12 UNL     1       1.725 -27.115 -30.394  1.00  0.00     0.251 C 
HETATM   20  O2  UNL     1       0.919 -27.682 -31.164  1.00  0.00    -0.270 OA
ATOM     21  H2  UNL     1       2.081 -26.523 -28.438  1.00  0.00     0.169 HD
BRANCH  19  22
HETATM   22  C13 UNL     1       3.032 -26.576 -30.926  1.00  0.00     0.213 C 
HETATM   23  C14 UNL     1       3.895 -26.034 -29.839  1.00  0.00     0.044 C 
HETATM   24  C15 UNL     1       4.412 -24.735 -30.469  1.00  0.00     0.029 C 
HETATM   25  C16 UNL     1       3.249 -24.396 -31.378  1.00  0.00     0.168 C 
HETATM   26  O3  UNL     1       2.831 -25.606 -31.866  1.00  0.00    -0.376 OA
ENDBRANCH  19  22
ENDBRANCH  14  18
TORSDOF 2
ENDMDL
