MODEL 17
REMARK VINA RESULT: -7.315897404      1.383      2.434
REMARK  4 active torsions:
REMARK  status: ('A' for Active; 'I' for Inactive)
REMARK    1  A    between atoms: C5_5  and  N1_6 
REMARK    2  A    between atoms: N1_6  and  C6_8 
REMARK    3  A    between atoms: C7_9  and  C8_10 
REMARK    4  A    between atoms: C11_13  and  O1_14 
ROOT
HETATM    1  C6  UNL     1      60.476   8.669  32.598  1.00  0.00     0.141 A 
HETATM    2  C7  UNL     1      59.484   9.049  33.528  1.00  0.00     0.089 A 
HETATM    3  N2  UNL     1      58.929   7.897  33.925  1.00  0.00    -0.338 N 
ATOM      4  H2  UNL     1      58.169   7.816  34.602  1.00  0.00     0.167 HD
HETATM    5  C14 UNL     1      59.516   6.873  33.303  1.00  0.00     0.119 A 
HETATM    6  C15 UNL     1      59.258   5.517  33.412  1.00  0.00    -0.017 A 
HETATM    7  C16 UNL     1      58.193   5.055  34.333  1.00  0.00     0.052 C 
HETATM    8  C17 UNL     1      59.995   4.613  32.662  1.00  0.00     0.012 A 
HETATM    9  C18 UNL     1      60.976   5.086  31.819  1.00  0.00     0.018 A 
HETATM   10  C19 UNL     1      61.202   6.436  31.739  1.00  0.00     0.100 A 
HETATM   11  N3  UNL     1      60.483   7.314  32.470  1.00  0.00    -0.292 N 
ENDROOT
BRANCH   1  12
HETATM   12  N1  UNL     1      61.269   9.592  31.932  1.00  0.00    -0.340 N 
ATOM     13  H1  UNL     1      60.796  10.270  31.333  1.00  0.00     0.167 HD
BRANCH  12  14
HETATM   14  C5  UNL     1      62.663   9.670  32.014  1.00  0.00     0.033 A 
HETATM   15  C4  UNL     1      63.418   8.848  32.858  1.00  0.00     0.030 A 
HETATM   16  C3  UNL     1      64.773   8.924  32.965  1.00  0.00     0.009 A 
HETATM   17  C2  UNL     1      65.470   9.837  32.226  1.00  0.00    -0.062 A 
HETATM   18  C1  UNL     1      66.947   9.874  32.384  1.00  0.00     0.048 C 
HETATM   19  C21 UNL     1      64.780  10.664  31.384  1.00  0.00     0.009 A 
HETATM   20  C20 UNL     1      63.408  10.595  31.269  1.00  0.00     0.030 A 
ENDBRANCH  12  14
ENDBRANCH   1  12
BRANCH   2  21
HETATM   21  C8  UNL     1      59.138  10.406  33.952  1.00  0.00    -0.005 A 
HETATM   22  C9  UNL     1      60.068  11.149  34.647  1.00  0.00     0.016 A 
HETATM   23  C10 UNL     1      59.800  12.446  35.060  1.00  0.00     0.037 A 
HETATM   24  C11 UNL     1      58.573  13.022  34.776  1.00  0.00     0.065 A 
HETATM   25  C12 UNL     1      57.643  12.304  34.091  1.00  0.00     0.037 A 
HETATM   26  C13 UNL     1      57.939  11.014  33.692  1.00  0.00     0.016 A 
BRANCH  24  27
HETATM   27  O1  UNL     1      58.310  14.339  35.200  1.00  0.00    -0.361 OA
ATOM     28  H1  UNL     1      59.019  14.970  35.237  1.00  0.00     0.217 HD
ENDBRANCH  24  27
ENDBRANCH   2  21
TORSDOF 4
ENDMDL
