MODEL 6
REMARK VINA RESULT: -8.628285077      1.378      5.252
REMARK  4 active torsions:
REMARK  status: ('A' for Active; 'I' for Inactive)
REMARK    1  A    between atoms: C5_5  and  N1_6 
REMARK    2  A    between atoms: N1_6  and  C6_8 
REMARK    3  A    between atoms: C7_9  and  C8_10 
REMARK    4  A    between atoms: C11_13  and  O1_14 
ROOT
HETATM    1  C6  UNL     1      59.645   9.193  33.439  1.00  0.00     0.141 A 
HETATM    2  C7  UNL     1      59.979  10.559  33.564  1.00  0.00     0.089 A 
HETATM    3  N2  UNL     1      61.273  10.626  33.227  1.00  0.00    -0.338 N 
ATOM      4  H2  UNL     1      61.831  11.481  33.212  1.00  0.00     0.167 HD
HETATM    5  C14 UNL     1      61.723   9.410  32.914  1.00  0.00     0.119 A 
HETATM    6  C15 UNL     1      62.991   9.020  32.513  1.00  0.00    -0.017 A 
HETATM    7  C16 UNL     1      64.055  10.044  32.387  1.00  0.00     0.052 C 
HETATM    8  C17 UNL     1      63.246   7.686  32.237  1.00  0.00     0.012 A 
HETATM    9  C18 UNL     1      62.228   6.769  32.367  1.00  0.00     0.018 A 
HETATM   10  C19 UNL     1      60.987   7.193  32.766  1.00  0.00     0.100 A 
HETATM   11  N3  UNL     1      60.740   8.493  33.034  1.00  0.00    -0.292 N 
ENDROOT
BRANCH   1  12
HETATM   12  N1  UNL     1      58.380   8.704  33.729  1.00  0.00    -0.340 N 
ATOM     13  H1  UNL     1      57.651   8.844  33.028  1.00  0.00     0.167 HD
BRANCH  12  14
HETATM   14  C5  UNL     1      58.020   8.033  34.902  1.00  0.00     0.033 A 
HETATM   15  C4  UNL     1      57.832   8.692  36.123  1.00  0.00     0.030 A 
HETATM   16  C3  UNL     1      57.503   8.052  37.279  1.00  0.00     0.009 A 
HETATM   17  C2  UNL     1      57.336   6.697  37.290  1.00  0.00    -0.062 A 
HETATM   18  C1  UNL     1      56.976   6.054  38.580  1.00  0.00     0.048 C 
HETATM   19  C21 UNL     1      57.507   6.004  36.124  1.00  0.00     0.009 A 
HETATM   20  C20 UNL     1      57.842   6.643  34.949  1.00  0.00     0.030 A 
ENDBRANCH  12  14
ENDBRANCH   1  12
BRANCH   2  21
HETATM   21  C8  UNL     1      59.101  11.653  33.980  1.00  0.00    -0.005 A 
HETATM   22  C9  UNL     1      59.652  12.764  34.582  1.00  0.00     0.016 A 
HETATM   23  C10 UNL     1      58.870  13.836  34.983  1.00  0.00     0.037 A 
HETATM   24  C11 UNL     1      57.500  13.805  34.784  1.00  0.00     0.065 A 
HETATM   25  C12 UNL     1      56.938  12.716  34.193  1.00  0.00     0.037 A 
HETATM   26  C13 UNL     1      57.743  11.663  33.802  1.00  0.00     0.016 A 
BRANCH  24  27
HETATM   27  O1  UNL     1      56.713  14.898  35.196  1.00  0.00    -0.361 OA
ATOM     28  H1  UNL     1      56.988  15.418  35.941  1.00  0.00     0.217 HD
ENDBRANCH  24  27
ENDBRANCH   2  21
TORSDOF 4
ENDMDL
