MODEL 7
REMARK VINA RESULT: -8.085572236      1.379      5.224
REMARK  4 active torsions:
REMARK  status: ('A' for Active; 'I' for Inactive)
REMARK    1  A    between atoms: C5_5  and  N1_6 
REMARK    2  A    between atoms: N1_6  and  C6_8 
REMARK    3  A    between atoms: C7_9  and  C8_10 
REMARK    4  A    between atoms: C11_13  and  O1_14 
ROOT
HETATM    1  C6  UNL     1      59.899   8.883  33.272  1.00  0.00     0.141 A 
HETATM    2  C7  UNL     1      60.225  10.233  33.525  1.00  0.00     0.089 A 
HETATM    3  N2  UNL     1      61.542  10.315  33.298  1.00  0.00    -0.338 N 
ATOM      4  H2  UNL     1      62.101  11.163  33.393  1.00  0.00     0.167 HD
HETATM    5  C14 UNL     1      62.013   9.121  32.930  1.00  0.00     0.119 A 
HETATM    6  C15 UNL     1      63.307   8.753  32.603  1.00  0.00    -0.017 A 
HETATM    7  C16 UNL     1      64.381   9.773  32.640  1.00  0.00     0.052 C 
HETATM    8  C17 UNL     1      63.581   7.441  32.248  1.00  0.00     0.012 A 
HETATM    9  C18 UNL     1      62.553   6.525  32.226  1.00  0.00     0.018 A 
HETATM   10  C19 UNL     1      61.285   6.928  32.557  1.00  0.00     0.100 A 
HETATM   11  N3  UNL     1      61.021   8.206  32.903  1.00  0.00    -0.292 N 
ENDROOT
BRANCH   1  12
HETATM   12  N1  UNL     1      58.613   8.384  33.422  1.00  0.00    -0.340 N 
ATOM     13  H1  UNL     1      57.935   8.610  32.694  1.00  0.00     0.167 HD
BRANCH  12  14
HETATM   14  C5  UNL     1      58.170   7.596  34.489  1.00  0.00     0.033 A 
HETATM   15  C4  UNL     1      58.047   6.205  34.403  1.00  0.00     0.030 A 
HETATM   16  C3  UNL     1      57.598   5.426  35.425  1.00  0.00     0.009 A 
HETATM   17  C2  UNL     1      57.239   5.993  36.614  1.00  0.00    -0.062 A 
HETATM   18  C1  UNL     1      56.756   5.093  37.693  1.00  0.00     0.048 C 
HETATM   19  C21 UNL     1      57.340   7.349  36.752  1.00  0.00     0.009 A 
HETATM   20  C20 UNL     1      57.794   8.146  35.722  1.00  0.00     0.030 A 
ENDBRANCH  12  14
ENDBRANCH   1  12
BRANCH   2  21
HETATM   21  C8  UNL     1      59.319  11.299  33.953  1.00  0.00    -0.005 A 
HETATM   22  C9  UNL     1      59.840  12.411  34.580  1.00  0.00     0.016 A 
HETATM   23  C10 UNL     1      59.031  13.458  34.993  1.00  0.00     0.037 A 
HETATM   24  C11 UNL     1      57.664  13.401  34.780  1.00  0.00     0.065 A 
HETATM   25  C12 UNL     1      57.132  12.312  34.163  1.00  0.00     0.037 A 
HETATM   26  C13 UNL     1      57.963  11.283  33.761  1.00  0.00     0.016 A 
BRANCH  24  27
HETATM   27  O1  UNL     1      56.849  14.469  35.203  1.00  0.00    -0.361 OA
ATOM     28  H1  UNL     1      55.921  14.324  35.341  1.00  0.00     0.217 HD
ENDBRANCH  24  27
ENDBRANCH   2  21
TORSDOF 4
ENDMDL
