MODEL 8
REMARK VINA RESULT: -8.001786674      2.446      6.555
REMARK  4 active torsions:
REMARK  status: ('A' for Active; 'I' for Inactive)
REMARK    1  A    between atoms: C5_5  and  N1_6 
REMARK    2  A    between atoms: N1_6  and  C6_8 
REMARK    3  A    between atoms: C7_9  and  C8_10 
REMARK    4  A    between atoms: C11_13  and  O1_14 
ROOT
HETATM    1  C6  UNL     1      58.497  10.284  34.158  1.00  0.00     0.141 A 
HETATM    2  C7  UNL     1      59.818  10.700  33.884  1.00  0.00     0.089 A 
HETATM    3  N2  UNL     1      59.810  12.022  34.095  1.00  0.00    -0.338 N 
ATOM      4  H2  UNL     1      60.616  12.638  33.983  1.00  0.00     0.167 HD
HETATM    5  C14 UNL     1      58.591  12.414  34.471  1.00  0.00     0.119 A 
HETATM    6  C15 UNL     1      58.137  13.684  34.787  1.00  0.00    -0.017 A 
HETATM    7  C16 UNL     1      59.080  14.825  34.725  1.00  0.00     0.052 C 
HETATM    8  C17 UNL     1      56.814  13.870  35.155  1.00  0.00     0.012 A 
HETATM    9  C18 UNL     1      55.972  12.781  35.200  1.00  0.00     0.018 A 
HETATM   10  C19 UNL     1      56.458  11.540  34.880  1.00  0.00     0.100 A 
HETATM   11  N3  UNL     1      57.748  11.361  34.522  1.00  0.00    -0.292 N 
ENDROOT
BRANCH   1  12
HETATM   12  N1  UNL     1      58.087   8.965  34.030  1.00  0.00    -0.340 N 
ATOM     13  H1  UNL     1      57.892   8.625  33.088  1.00  0.00     0.167 HD
BRANCH  12  14
HETATM   14  C5  UNL     1      57.918   8.064  35.086  1.00  0.00     0.033 A 
HETATM   15  C4  UNL     1      57.746   8.475  36.412  1.00  0.00     0.030 A 
HETATM   16  C3  UNL     1      57.601   7.612  37.455  1.00  0.00     0.009 A 
HETATM   17  C2  UNL     1      57.618   6.264  37.236  1.00  0.00    -0.062 A 
HETATM   18  C1  UNL     1      57.454   5.370  38.412  1.00  0.00     0.048 C 
HETATM   19  C21 UNL     1      57.782   5.807  35.958  1.00  0.00     0.009 A 
HETATM   20  C20 UNL     1      57.930   6.675  34.897  1.00  0.00     0.030 A 
ENDBRANCH  12  14
ENDBRANCH   1  12
BRANCH   2  21
HETATM   21  C8  UNL     1      60.940   9.865  33.455  1.00  0.00    -0.005 A 
HETATM   22  C9  UNL     1      60.834   9.153  32.279  1.00  0.00     0.016 A 
HETATM   23  C10 UNL     1      61.872   8.357  31.816  1.00  0.00     0.037 A 
HETATM   24  C11 UNL     1      63.048   8.263  32.541  1.00  0.00     0.065 A 
HETATM   25  C12 UNL     1      63.170   8.959  33.704  1.00  0.00     0.037 A 
HETATM   26  C13 UNL     1      62.119   9.744  34.140  1.00  0.00     0.016 A 
BRANCH  24  27
HETATM   27  O1  UNL     1      64.095   7.453  32.064  1.00  0.00    -0.361 OA
ATOM     28  H1  UNL     1      64.269   7.413  31.131  1.00  0.00     0.217 HD
ENDBRANCH  24  27
ENDBRANCH   2  21
TORSDOF 4
ENDMDL
