MODEL 1
REMARK VINA RESULT: -9.339880044      0.000      0.000
REMARK  4 active torsions:
REMARK  status: ('A' for Active; 'I' for Inactive)
REMARK    1  A    between atoms: C5_5  and  N1_6 
REMARK    2  A    between atoms: N1_6  and  C6_8 
REMARK    3  A    between atoms: C7_9  and  C8_10 
REMARK    4  A    between atoms: C11_13  and  O1_14 
ROOT
HETATM    1  C6  UNL     1      58.889   8.567  33.724  1.00  0.00     0.141 A 
HETATM    2  C7  UNL     1      58.257   9.431  34.644  1.00  0.00     0.089 A 
HETATM    3  N2  UNL     1      57.632   8.617  35.503  1.00  0.00    -0.338 N 
ATOM      4  H2  UNL     1      57.073   8.924  36.300  1.00  0.00     0.167 HD
HETATM    5  C14 UNL     1      57.849   7.346  35.161  1.00  0.00     0.119 A 
HETATM    6  C15 UNL     1      57.395   6.185  35.767  1.00  0.00    -0.017 A 
HETATM    7  C16 UNL     1      56.543   6.287  36.975  1.00  0.00     0.052 C 
HETATM    8  C17 UNL     1      57.741   4.952  35.239  1.00  0.00     0.012 A 
HETATM    9  C18 UNL     1      58.535   4.904  34.114  1.00  0.00     0.018 A 
HETATM   10  C19 UNL     1      58.964   6.074  33.543  1.00  0.00     0.100 A 
HETATM   11  N3  UNL     1      58.626   7.275  34.060  1.00  0.00    -0.292 N 
ENDROOT
BRANCH   1  12
HETATM   12  N1  UNL     1      59.630   9.033  32.647  1.00  0.00    -0.340 N 
ATOM     13  H1  UNL     1      59.117   9.312  31.811  1.00  0.00     0.167 HD
BRANCH  12  14
HETATM   14  C5  UNL     1      61.024   9.152  32.615  1.00  0.00     0.033 A 
HETATM   15  C4  UNL     1      61.751   9.202  31.420  1.00  0.00     0.030 A 
HETATM   16  C3  UNL     1      63.108   9.296  31.370  1.00  0.00     0.009 A 
HETATM   17  C2  UNL     1      63.835   9.349  32.524  1.00  0.00    -0.062 A 
HETATM   18  C1  UNL     1      65.313   9.452  32.408  1.00  0.00     0.048 C 
HETATM   19  C21 UNL     1      63.174   9.305  33.720  1.00  0.00     0.009 A 
HETATM   20  C20 UNL     1      61.800   9.209  33.781  1.00  0.00     0.030 A 
ENDBRANCH  12  14
ENDBRANCH   1  12
BRANCH   2  21
HETATM   21  C8  UNL     1      58.276  10.894  34.644  1.00  0.00    -0.005 A 
HETATM   22  C9  UNL     1      57.113  11.581  34.370  1.00  0.00     0.016 A 
HETATM   23  C10 UNL     1      57.069  12.967  34.371  1.00  0.00     0.037 A 
HETATM   24  C11 UNL     1      58.214  13.694  34.650  1.00  0.00     0.065 A 
HETATM   25  C12 UNL     1      59.372  13.034  34.922  1.00  0.00     0.037 A 
HETATM   26  C13 UNL     1      59.385  11.652  34.915  1.00  0.00     0.016 A 
BRANCH  24  27
HETATM   27  O1  UNL     1      58.161  15.101  34.648  1.00  0.00    -0.361 OA
ATOM     28  H1  UNL     1      58.680  15.590  35.275  1.00  0.00     0.217 HD
ENDBRANCH  24  27
ENDBRANCH   2  21
TORSDOF 4
ENDMDL
