MODEL 2
REMARK VINA RESULT: -9.292899416      0.240      1.349
REMARK  4 active torsions:
REMARK  status: ('A' for Active; 'I' for Inactive)
REMARK    1  A    between atoms: C5_5  and  N1_6 
REMARK    2  A    between atoms: N1_6  and  C6_8 
REMARK    3  A    between atoms: C7_9  and  C8_10 
REMARK    4  A    between atoms: C11_13  and  O1_14 
ROOT
HETATM    1  C6  UNL     1      59.001   8.737  33.611  1.00  0.00     0.141 A 
HETATM    2  C7  UNL     1      58.305   9.543  34.537  1.00  0.00     0.089 A 
HETATM    3  N2  UNL     1      57.683   8.676  35.345  1.00  0.00    -0.338 N 
ATOM      4  H2  UNL     1      57.086   8.933  36.132  1.00  0.00     0.167 HD
HETATM    5  C14 UNL     1      57.960   7.427  34.968  1.00  0.00     0.119 A 
HETATM    6  C15 UNL     1      57.531   6.230  35.517  1.00  0.00    -0.017 A 
HETATM    7  C16 UNL     1      56.635   6.256  36.697  1.00  0.00     0.052 C 
HETATM    8  C17 UNL     1      57.943   5.029  34.959  1.00  0.00     0.012 A 
HETATM    9  C18 UNL     1      58.776   5.051  33.863  1.00  0.00     0.018 A 
HETATM   10  C19 UNL     1      59.179   6.257  33.348  1.00  0.00     0.100 A 
HETATM   11  N3  UNL     1      58.777   7.425  33.893  1.00  0.00    -0.292 N 
ENDROOT
BRANCH   1  12
HETATM   12  N1  UNL     1      59.760   9.269  32.578  1.00  0.00    -0.340 N 
ATOM     13  H1  UNL     1      59.257   9.706  31.805  1.00  0.00     0.167 HD
BRANCH  12  14
HETATM   14  C5  UNL     1      61.157   9.255  32.510  1.00  0.00     0.033 A 
HETATM   15  C4  UNL     1      61.971   9.436  33.633  1.00  0.00     0.030 A 
HETATM   16  C3  UNL     1      63.332   9.446  33.581  1.00  0.00     0.009 A 
HETATM   17  C2  UNL     1      63.974   9.273  32.389  1.00  0.00    -0.062 A 
HETATM   18  C1  UNL     1      65.460   9.293  32.393  1.00  0.00     0.048 C 
HETATM   19  C21 UNL     1      63.225   9.092  31.259  1.00  0.00     0.009 A 
HETATM   20  C20 UNL     1      61.847   9.081  31.303  1.00  0.00     0.030 A 
ENDBRANCH  12  14
ENDBRANCH   1  12
BRANCH   2  21
HETATM   21  C8  UNL     1      58.267  11.005  34.588  1.00  0.00    -0.005 A 
HETATM   22  C9  UNL     1      59.419  11.695  34.903  1.00  0.00     0.016 A 
HETATM   23  C10 UNL     1      59.445  13.081  34.951  1.00  0.00     0.037 A 
HETATM   24  C11 UNL     1      58.295  13.804  34.681  1.00  0.00     0.065 A 
HETATM   25  C12 UNL     1      57.150  13.140  34.369  1.00  0.00     0.037 A 
HETATM   26  C13 UNL     1      57.154  11.759  34.327  1.00  0.00     0.016 A 
BRANCH  24  27
HETATM   27  O1  UNL     1      58.331  15.211  34.733  1.00  0.00    -0.361 OA
ATOM     28  H1  UNL     1      58.713  15.697  34.012  1.00  0.00     0.217 HD
ENDBRANCH  24  27
ENDBRANCH   2  21
TORSDOF 4
ENDMDL
