MODEL 4
REMARK VINA RESULT: -8.834525629      0.807      1.322
REMARK  4 active torsions:
REMARK  status: ('A' for Active; 'I' for Inactive)
REMARK    1  A    between atoms: C5_5  and  N1_6 
REMARK    2  A    between atoms: N1_6  and  C6_8 
REMARK    3  A    between atoms: C7_9  and  C8_10 
REMARK    4  A    between atoms: C11_13  and  O1_14 
ROOT
HETATM    1  C6  UNL     1      59.566   8.835  33.160  1.00  0.00     0.141 A 
HETATM    2  C7  UNL     1      58.705   9.499  34.061  1.00  0.00     0.089 A 
HETATM    3  N2  UNL     1      58.054   8.518  34.698  1.00  0.00    -0.338 N 
ATOM      4  H2  UNL     1      57.349   8.657  35.422  1.00  0.00     0.167 HD
HETATM    5  C14 UNL     1      58.465   7.332  34.244  1.00  0.00     0.119 A 
HETATM    6  C15 UNL     1      58.061   6.062  34.619  1.00  0.00    -0.017 A 
HETATM    7  C16 UNL     1      57.028   5.913  35.671  1.00  0.00     0.052 C 
HETATM    8  C17 UNL     1      58.623   4.951  34.008  1.00  0.00     0.012 A 
HETATM    9  C18 UNL     1      59.579   5.135  33.034  1.00  0.00     0.018 A 
HETATM   10  C19 UNL     1      59.953   6.409  32.690  1.00  0.00     0.100 A 
HETATM   11  N3  UNL     1      59.404   7.489  33.287  1.00  0.00    -0.292 N 
ENDROOT
BRANCH   1  12
HETATM   12  N1  UNL     1      60.403   9.514  32.287  1.00  0.00    -0.340 N 
ATOM     13  H1  UNL     1      59.964  10.064  31.549  1.00  0.00     0.167 HD
BRANCH  12  14
HETATM   14  C5  UNL     1      61.801   9.506  32.337  1.00  0.00     0.033 A 
HETATM   15  C4  UNL     1      62.599   9.592  31.190  1.00  0.00     0.030 A 
HETATM   16  C3  UNL     1      63.960   9.565  31.218  1.00  0.00     0.009 A 
HETATM   17  C2  UNL     1      64.620   9.450  32.408  1.00  0.00    -0.062 A 
HETATM   18  C1  UNL     1      66.105   9.427  32.377  1.00  0.00     0.048 C 
HETATM   19  C21 UNL     1      63.888   9.363  33.560  1.00  0.00     0.009 A 
HETATM   20  C20 UNL     1      62.509   9.389  33.541  1.00  0.00     0.030 A 
ENDBRANCH  12  14
ENDBRANCH   1  12
BRANCH   2  21
HETATM   21  C8  UNL     1      58.556  10.943  34.243  1.00  0.00    -0.005 A 
HETATM   22  C9  UNL     1      59.602  11.663  34.779  1.00  0.00     0.016 A 
HETATM   23  C10 UNL     1      59.522  13.035  34.961  1.00  0.00     0.037 A 
HETATM   24  C11 UNL     1      58.369  13.714  34.602  1.00  0.00     0.065 A 
HETATM   25  C12 UNL     1      57.327  13.020  34.071  1.00  0.00     0.037 A 
HETATM   26  C13 UNL     1      57.436  11.653  33.901  1.00  0.00     0.016 A 
BRANCH  24  27
HETATM   27  O1  UNL     1      58.297  15.107  34.791  1.00  0.00    -0.361 OA
ATOM     28  H1  UNL     1      57.843  15.454  35.549  1.00  0.00     0.217 HD
ENDBRANCH  24  27
ENDBRANCH   2  21
TORSDOF 4
ENDMDL
