MODEL 9
REMARK VINA RESULT: -7.995370192      1.161      1.755
REMARK  4 active torsions:
REMARK  status: ('A' for Active; 'I' for Inactive)
REMARK    1  A    between atoms: C5_5  and  N1_6 
REMARK    2  A    between atoms: N1_6  and  C6_8 
REMARK    3  A    between atoms: C7_9  and  C8_10 
REMARK    4  A    between atoms: C11_13  and  O1_14 
ROOT
HETATM    1  C6  UNL     1      60.252   9.164  32.871  1.00  0.00     0.141 A 
HETATM    2  C7  UNL     1      59.198   9.641  33.680  1.00  0.00     0.089 A 
HETATM    3  N2  UNL     1      58.539   8.542  34.067  1.00  0.00    -0.338 N 
ATOM      4  H2  UNL     1      57.713   8.534  34.667  1.00  0.00     0.167 HD
HETATM    5  C14 UNL     1      59.123   7.459  33.551  1.00  0.00     0.119 A 
HETATM    6  C15 UNL     1      58.776   6.125  33.690  1.00  0.00    -0.017 A 
HETATM    7  C16 UNL     1      57.600   5.767  34.518  1.00  0.00     0.052 C 
HETATM    8  C17 UNL     1      59.528   5.148  33.057  1.00  0.00     0.012 A 
HETATM    9  C18 UNL     1      60.613   5.525  32.298  1.00  0.00     0.018 A 
HETATM   10  C19 UNL     1      60.925   6.856  32.184  1.00  0.00     0.100 A 
HETATM   11  N3  UNL     1      60.191   7.806  32.802  1.00  0.00    -0.292 N 
ENDROOT
BRANCH   1  12
HETATM   12  N1  UNL     1      61.160  10.009  32.250  1.00  0.00    -0.340 N 
ATOM     13  H1  UNL     1      60.800  10.885  31.870  1.00  0.00     0.167 HD
BRANCH  12  14
HETATM   14  C5  UNL     1      62.528   9.759  32.102  1.00  0.00     0.033 A 
HETATM   15  C4  UNL     1      63.153   9.688  30.852  1.00  0.00     0.030 A 
HETATM   16  C3  UNL     1      64.479   9.425  30.689  1.00  0.00     0.009 A 
HETATM   17  C2  UNL     1      65.275   9.214  31.778  1.00  0.00    -0.062 A 
HETATM   18  C1  UNL     1      66.715   8.932  31.538  1.00  0.00     0.048 C 
HETATM   19  C21 UNL     1      64.715   9.273  33.023  1.00  0.00     0.009 A 
HETATM   20  C20 UNL     1      63.373   9.538  33.198  1.00  0.00     0.030 A 
ENDBRANCH  12  14
ENDBRANCH   1  12
BRANCH   2  21
HETATM   21  C8  UNL     1      58.893  11.034  34.009  1.00  0.00    -0.005 A 
HETATM   22  C9  UNL     1      57.596  11.485  33.883  1.00  0.00     0.016 A 
HETATM   23  C10 UNL     1      57.247  12.790  34.195  1.00  0.00     0.037 A 
HETATM   24  C11 UNL     1      58.213  13.676  34.643  1.00  0.00     0.065 A 
HETATM   25  C12 UNL     1      59.498  13.249  34.773  1.00  0.00     0.037 A 
HETATM   26  C13 UNL     1      59.816  11.942  34.455  1.00  0.00     0.016 A 
BRANCH  24  27
HETATM   27  O1  UNL     1      57.850  14.999  34.956  1.00  0.00    -0.361 OA
ATOM     28  H1  UNL     1      58.371  15.720  34.622  1.00  0.00     0.217 HD
ENDBRANCH  24  27
ENDBRANCH   2  21
TORSDOF 4
ENDMDL
