MODEL 1
REMARK VINA RESULT: -7.306037525      0.000      0.000
REMARK  2 active torsions:
REMARK  status: ('A' for Active; 'I' for Inactive)
REMARK       I    between atoms: C1_2  and  N1_3 
REMARK    1  A    between atoms: C1_2  and  C2_7 
REMARK    2  A    between atoms: N1_3  and  O2_5 
ROOT
HETATM    1  C2  UNL     1     -36.572  11.673  45.228  1.00  0.00     0.045 A 
HETATM    2  C3  UNL     1     -35.953  10.438  45.008  1.00  0.00     0.018 A 
HETATM    3  C4  UNL     1     -35.449  10.034  43.810  1.00  0.00     0.002 A 
HETATM    4  C5  UNL     1     -35.556  10.902  42.748  1.00  0.00     0.012 A 
HETATM    5  C6  UNL     1     -36.161  12.149  42.892  1.00  0.00    -0.025 A 
HETATM    6  C7  UNL     1     -36.274  12.959  41.788  1.00  0.00     0.012 A 
HETATM    7  C8  UNL     1     -36.896  14.175  41.877  1.00  0.00     0.001 A 
HETATM    8  C9  UNL     1     -37.394  14.533  43.121  1.00  0.00     0.001 A 
HETATM    9  C10 UNL     1     -37.291  13.733  44.237  1.00  0.00     0.013 A 
HETATM   10  C11 UNL     1     -36.664  12.512  44.150  1.00  0.00    -0.010 A 
ENDROOT
BRANCH   1  11
HETATM   11  C1  UNL     1     -36.990  12.041  46.566  1.00  0.00     0.275 C 
HETATM   12  O1  UNL     1     -36.207  11.716  47.551  1.00  0.00    -0.265 OA
HETATM   13  N1  UNL     1     -38.148  12.724  46.935  1.00  0.00    -0.233 N 
ATOM     14  H1  UNL     1     -38.802  13.033  46.216  1.00  0.00     0.197 HD
BRANCH  13  15
HETATM   15  O2  UNL     1     -38.418  12.988  48.260  1.00  0.00    -0.287 OA
ATOM     16  H2  UNL     1     -39.282  12.825  48.621  1.00  0.00     0.244 HD
ENDBRANCH  13  15
ENDBRANCH   1  11
TORSDOF 2
ENDMDL
