MODEL 3
REMARK VINA RESULT: -6.870265730      2.126      2.582
REMARK  2 active torsions:
REMARK  status: ('A' for Active; 'I' for Inactive)
REMARK       I    between atoms: C1_2  and  N1_3 
REMARK    1  A    between atoms: C1_2  and  C2_7 
REMARK    2  A    between atoms: N1_3  and  O2_5 
ROOT
HETATM    1  C2  UNL     1     -36.362   9.928  44.169  1.00  0.00     0.045 A 
HETATM    2  C3  UNL     1     -35.735   9.223  43.135  1.00  0.00     0.018 A 
HETATM    3  C4  UNL     1     -35.327   9.782  41.963  1.00  0.00     0.002 A 
HETATM    4  C5  UNL     1     -35.547  11.128  41.788  1.00  0.00     0.012 A 
HETATM    5  C6  UNL     1     -36.167  11.894  42.772  1.00  0.00    -0.025 A 
HETATM    6  C7  UNL     1     -36.395  13.226  42.527  1.00  0.00     0.012 A 
HETATM    7  C8  UNL     1     -37.036  14.005  43.453  1.00  0.00     0.001 A 
HETATM    8  C9  UNL     1     -37.433  13.383  44.627  1.00  0.00     0.001 A 
HETATM    9  C10 UNL     1     -37.214  12.049  44.888  1.00  0.00     0.013 A 
HETATM   10  C11 UNL     1     -36.568  11.265  43.961  1.00  0.00    -0.010 A 
ENDROOT
BRANCH   1  11
HETATM   11  C1  UNL     1     -36.671   9.255  45.415  1.00  0.00     0.275 C 
HETATM   12  O1  UNL     1     -37.802   8.619  45.489  1.00  0.00    -0.265 OA
HETATM   13  N1  UNL     1     -35.885   9.195  46.564  1.00  0.00    -0.233 N 
ATOM     14  H1  UNL     1     -34.973   9.651  46.576  1.00  0.00     0.197 HD
BRANCH  13  15
HETATM   15  O2  UNL     1     -36.327   8.526  47.685  1.00  0.00    -0.287 OA
ATOM     16  H2  UNL     1     -37.243   8.294  47.782  1.00  0.00     0.244 HD
ENDBRANCH  13  15
ENDBRANCH   1  11
TORSDOF 2
ENDMDL
