MODEL 4
REMARK VINA RESULT: -6.669234811      3.369      4.872
REMARK  2 active torsions:
REMARK  status: ('A' for Active; 'I' for Inactive)
REMARK       I    between atoms: C1_2  and  N1_3 
REMARK    1  A    between atoms: C1_2  and  C2_7 
REMARK    2  A    between atoms: N1_3  and  O2_5 
ROOT
HETATM    1  C2  UNL     1     -35.642  11.505  42.705  1.00  0.00     0.045 A 
HETATM    2  C3  UNL     1     -35.948  12.516  41.788  1.00  0.00     0.018 A 
HETATM    3  C4  UNL     1     -36.689  13.620  42.081  1.00  0.00     0.002 A 
HETATM    4  C5  UNL     1     -37.166  13.744  43.365  1.00  0.00     0.012 A 
HETATM    5  C6  UNL     1     -36.903  12.777  44.331  1.00  0.00    -0.025 A 
HETATM    6  C7  UNL     1     -37.436  12.935  45.587  1.00  0.00     0.012 A 
HETATM    7  C8  UNL     1     -37.234  11.988  46.555  1.00  0.00     0.001 A 
HETATM    8  C9  UNL     1     -36.475  10.883  46.200  1.00  0.00     0.001 A 
HETATM    9  C10 UNL     1     -35.934  10.708  44.946  1.00  0.00     0.013 A 
HETATM   10  C11 UNL     1     -36.134  11.659  43.973  1.00  0.00    -0.010 A 
ENDROOT
BRANCH   1  11
HETATM   11  C1  UNL     1     -34.765  10.418  42.313  1.00  0.00     0.275 C 
HETATM   12  O1  UNL     1     -35.319   9.332  41.863  1.00  0.00    -0.265 OA
HETATM   13  N1  UNL     1     -33.372  10.397  42.351  1.00  0.00    -0.233 N 
ATOM     14  H1  UNL     1     -32.863  11.221  42.672  1.00  0.00     0.197 HD
BRANCH  13  15
HETATM   15  O2  UNL     1     -32.674   9.275  41.959  1.00  0.00    -0.287 OA
ATOM     16  H2  UNL     1     -32.753   8.940  41.074  1.00  0.00     0.244 HD
ENDBRANCH  13  15
ENDBRANCH   1  11
TORSDOF 2
ENDMDL
