MODEL 1
REMARK VINA RESULT: -7.383927130      0.000      0.000
REMARK  5 active torsions:
REMARK  status: ('A' for Active; 'I' for Inactive)
REMARK    1  A    between atoms: N1_1  and  S1_4 
REMARK    2  A    between atoms: S1_4  and  C1_7 
REMARK    3  A    between atoms: C4_10  and  C5_11 
REMARK    4  A    between atoms: C8_14  and  C9_15 
REMARK    5  A    between atoms: C9_15  and  N2_16 
ROOT
HETATM    1  C5  UNL     1      -3.629   5.719  14.184  1.00  0.00    -0.026 A 
HETATM    2  C6  UNL     1      -3.037   6.732  14.903  1.00  0.00     0.013 A 
HETATM    3  C7  UNL     1      -2.459   7.826  14.290  1.00  0.00     0.010 A 
HETATM    4  C8  UNL     1      -2.454   7.945  12.919  1.00  0.00    -0.038 A 
HETATM    5  C13 UNL     1      -3.043   6.941  12.185  1.00  0.00     0.010 A 
HETATM    6  C14 UNL     1      -3.615   5.856  12.814  1.00  0.00     0.013 A 
ENDROOT
BRANCH   1   7
HETATM    7  C4  UNL     1      -4.232   4.574  14.846  1.00  0.00    -0.026 A 
HETATM    8  C3  UNL     1      -5.576   4.529  15.148  1.00  0.00     0.014 A 
HETATM    9  C2  UNL     1      -6.086   3.417  15.775  1.00  0.00     0.026 A 
HETATM   10  C1  UNL     1      -5.287   2.344  16.111  1.00  0.00     0.079 A 
HETATM   11  C16 UNL     1      -3.944   2.379  15.812  1.00  0.00     0.026 A 
HETATM   12  C15 UNL     1      -3.443   3.496  15.184  1.00  0.00     0.014 A 
BRANCH  10  13
HETATM   13  S1  UNL     1      -5.963   0.942  16.909  1.00  0.00     0.256 S 
HETATM   14  O1  UNL     1      -5.535  -0.262  16.101  1.00  0.00    -0.201 OA
HETATM   15  O2  UNL     1      -5.405   0.832  18.286  1.00  0.00    -0.201 OA
BRANCH  13  16
HETATM   16  N1  UNL     1      -7.667   0.958  16.950  1.00  0.00    -0.324 N 
ATOM     17  H12 UNL     1      -8.268   0.137  16.877  1.00  0.00     0.169 HD
ATOM     18  H11 UNL     1      -7.964   1.928  17.058  1.00  0.00     0.169 HD
ENDBRANCH  13  16
ENDBRANCH  10  13
ENDBRANCH   1   7
BRANCH   4  19
HETATM   19  C9  UNL     1      -1.831   9.123  12.251  1.00  0.00     0.186 C 
BRANCH  19  20
HETATM   20  N2  UNL     1      -0.412   9.098  12.630  1.00  0.00    -0.299 N 
HETATM   21  C10 UNL     1       0.510   8.209  12.262  1.00  0.00     0.112 A 
HETATM   22  C11 UNL     1       1.695   8.557  12.838  1.00  0.00     0.037 A 
HETATM   23  C12 UNL     1       1.443   9.697  13.569  1.00  0.00     0.108 A 
HETATM   24  N3  UNL     1       0.158   9.989  13.416  1.00  0.00    -0.310 N 
ATOM     25  H3  UNL     1      -0.318  10.785  13.842  1.00  0.00     0.186 HD
ENDBRANCH  19  20
ENDBRANCH   4  19
TORSDOF 5
ENDMDL
