MODEL 3
REMARK VINA RESULT: -7.361752205      1.390      1.904
REMARK  5 active torsions:
REMARK  status: ('A' for Active; 'I' for Inactive)
REMARK    1  A    between atoms: N1_1  and  S1_4 
REMARK    2  A    between atoms: S1_4  and  C1_7 
REMARK    3  A    between atoms: C4_10  and  C5_11 
REMARK    4  A    between atoms: C8_14  and  C9_15 
REMARK    5  A    between atoms: C9_15  and  N2_16 
ROOT
HETATM    1  C5  UNL     1      -3.483   5.486  13.902  1.00  0.00    -0.026 A 
HETATM    2  C6  UNL     1      -2.179   5.850  14.153  1.00  0.00     0.013 A 
HETATM    3  C7  UNL     1      -1.553   6.866  13.458  1.00  0.00     0.010 A 
HETATM    4  C8  UNL     1      -2.219   7.562  12.476  1.00  0.00    -0.038 A 
HETATM    5  C13 UNL     1      -3.524   7.212  12.213  1.00  0.00     0.010 A 
HETATM    6  C14 UNL     1      -4.132   6.195  12.916  1.00  0.00     0.013 A 
ENDROOT
BRANCH   1   7
HETATM    7  C4  UNL     1      -4.125   4.413  14.642  1.00  0.00    -0.026 A 
HETATM    8  C3  UNL     1      -5.482   4.406  14.887  1.00  0.00     0.014 A 
HETATM    9  C2  UNL     1      -6.029   3.361  15.595  1.00  0.00     0.026 A 
HETATM   10  C1  UNL     1      -5.257   2.321  16.065  1.00  0.00     0.079 A 
HETATM   11  C16 UNL     1      -3.901   2.319  15.824  1.00  0.00     0.026 A 
HETATM   12  C15 UNL     1      -3.362   3.369  15.116  1.00  0.00     0.014 A 
BRANCH  10  13
HETATM   13  S1  UNL     1      -5.980   1.005  16.963  1.00  0.00     0.256 S 
HETATM   14  O1  UNL     1      -5.530  -0.273  16.292  1.00  0.00    -0.201 OA
HETATM   15  O2  UNL     1      -5.483   1.023  18.367  1.00  0.00    -0.201 OA
BRANCH  13  16
HETATM   16  N1  UNL     1      -7.685   1.036  16.927  1.00  0.00    -0.324 N 
ATOM     17  H12 UNL     1      -8.266   0.684  16.167  1.00  0.00     0.169 HD
ATOM     18  H11 UNL     1      -8.004   1.465  17.796  1.00  0.00     0.169 HD
ENDBRANCH  13  16
ENDBRANCH  10  13
ENDBRANCH   1   7
BRANCH   4  19
HETATM   19  C9  UNL     1      -1.550   8.660  11.722  1.00  0.00     0.186 C 
BRANCH  19  20
HETATM   20  N2  UNL     1      -1.932   9.906  12.400  1.00  0.00    -0.299 N 
HETATM   21  C10 UNL     1      -1.812  10.194  13.696  1.00  0.00     0.112 A 
HETATM   22  C11 UNL     1      -2.286  11.455  13.901  1.00  0.00     0.037 A 
HETATM   23  C12 UNL     1      -2.694  11.913  12.668  1.00  0.00     0.108 A 
HETATM   24  N3  UNL     1      -2.462  10.946  11.790  1.00  0.00    -0.310 N 
ATOM     25  H3  UNL     1      -2.664  11.000  10.791  1.00  0.00     0.186 HD
ENDBRANCH  19  20
ENDBRANCH   4  19
TORSDOF 5
ENDMDL
