MODEL 2
REMARK VINA RESULT: -7.375670281      0.034      1.001
REMARK  5 active torsions:
REMARK  status: ('A' for Active; 'I' for Inactive)
REMARK    1  A    between atoms: N1_1  and  S1_4 
REMARK    2  A    between atoms: S1_4  and  C1_7 
REMARK    3  A    between atoms: C4_10  and  C5_11 
REMARK    4  A    between atoms: C8_14  and  C9_15 
REMARK    5  A    between atoms: C9_15  and  N2_16 
ROOT
HETATM    1  C5  UNL     1      -3.609   5.738  14.217  1.00  0.00    -0.026 A 
HETATM    2  C6  UNL     1      -3.573   5.847  12.846  1.00  0.00     0.013 A 
HETATM    3  C7  UNL     1      -3.001   6.931  12.210  1.00  0.00     0.010 A 
HETATM    4  C8  UNL     1      -2.437   7.956  12.935  1.00  0.00    -0.038 A 
HETATM    5  C13 UNL     1      -2.464   7.862  14.308  1.00  0.00     0.010 A 
HETATM    6  C14 UNL     1      -3.040   6.773  14.925  1.00  0.00     0.013 A 
ENDROOT
BRANCH   1   7
HETATM    7  C4  UNL     1      -4.217   4.590  14.869  1.00  0.00    -0.026 A 
HETATM    8  C3  UNL     1      -5.563   4.546  15.165  1.00  0.00     0.014 A 
HETATM    9  C2  UNL     1      -6.077   3.431  15.784  1.00  0.00     0.026 A 
HETATM   10  C1  UNL     1      -5.282   2.354  16.115  1.00  0.00     0.079 A 
HETATM   11  C16 UNL     1      -3.937   2.389  15.823  1.00  0.00     0.026 A 
HETATM   12  C15 UNL     1      -3.431   3.509  15.204  1.00  0.00     0.014 A 
BRANCH  10  13
HETATM   13  S1  UNL     1      -5.963   0.948  16.902  1.00  0.00     0.256 S 
HETATM   14  O1  UNL     1      -5.527  -0.252  16.093  1.00  0.00    -0.201 OA
HETATM   15  O2  UNL     1      -5.417   0.833  18.283  1.00  0.00    -0.201 OA
BRANCH  13  16
HETATM   16  N1  UNL     1      -7.668   0.963  16.928  1.00  0.00    -0.324 N 
ATOM     17  H12 UNL     1      -8.259   0.241  17.339  1.00  0.00     0.169 HD
ATOM     18  H11 UNL     1      -7.976   1.817  16.462  1.00  0.00     0.169 HD
ENDBRANCH  13  16
ENDBRANCH  10  13
ENDBRANCH   1   7
BRANCH   4  19
HETATM   19  C9  UNL     1      -1.818   9.129  12.255  1.00  0.00     0.186 C 
BRANCH  19  20
HETATM   20  N2  UNL     1      -0.401   9.118  12.644  1.00  0.00    -0.299 N 
HETATM   21  C10 UNL     1       0.529   8.230  12.294  1.00  0.00     0.112 A 
HETATM   22  C11 UNL     1       1.708   8.594  12.872  1.00  0.00     0.037 A 
HETATM   23  C12 UNL     1       1.445   9.742  13.585  1.00  0.00     0.108 A 
HETATM   24  N3  UNL     1       0.159  10.024  13.419  1.00  0.00    -0.310 N 
ATOM     25  H3  UNL     1      -0.324  10.823  13.831  1.00  0.00     0.186 HD
ENDBRANCH  19  20
ENDBRANCH   4  19
TORSDOF 5
ENDMDL
