MODEL 11
REMARK VINA RESULT: -7.065408196      3.483      4.190
REMARK  5 active torsions:
REMARK  status: ('A' for Active; 'I' for Inactive)
REMARK    1  A    between atoms: N1_1  and  S1_4 
REMARK    2  A    between atoms: S1_4  and  C1_7 
REMARK    3  A    between atoms: C4_10  and  C5_11 
REMARK    4  A    between atoms: C8_14  and  C9_15 
REMARK    5  A    between atoms: C9_15  and  N2_16 
ROOT
HETATM    1  C5  UNL     1      -3.115   2.625  12.325  1.00  0.00    -0.026 A 
HETATM    2  C6  UNL     1      -2.459   1.688  11.560  1.00  0.00     0.013 A 
HETATM    3  C7  UNL     1      -1.722   2.034  10.445  1.00  0.00     0.010 A 
HETATM    4  C8  UNL     1      -1.614   3.349  10.053  1.00  0.00    -0.038 A 
HETATM    5  C13 UNL     1      -2.263   4.300  10.808  1.00  0.00     0.010 A 
HETATM    6  C14 UNL     1      -2.994   3.935  11.916  1.00  0.00     0.013 A 
ENDROOT
BRANCH   1   7
HETATM    7  C4  UNL     1      -3.887   2.242  13.495  1.00  0.00    -0.026 A 
HETATM    8  C3  UNL     1      -4.559   3.169  14.262  1.00  0.00     0.014 A 
HETATM    9  C2  UNL     1      -5.272   2.741  15.358  1.00  0.00     0.026 A 
HETATM   10  C1  UNL     1      -5.334   1.410  15.708  1.00  0.00     0.079 A 
HETATM   11  C16 UNL     1      -4.667   0.476  14.947  1.00  0.00     0.026 A 
HETATM   12  C15 UNL     1      -3.955   0.913  13.853  1.00  0.00     0.014 A 
BRANCH  10  13
HETATM   13  S1  UNL     1      -6.249   0.894  17.108  1.00  0.00     0.256 S 
HETATM   14  O1  UNL     1      -7.704   0.896  16.696  1.00  0.00    -0.201 OA
HETATM   15  O2  UNL     1      -5.848  -0.489  17.487  1.00  0.00    -0.201 OA
BRANCH  13  16
HETATM   16  N1  UNL     1      -6.086   1.954  18.434  1.00  0.00    -0.324 N 
ATOM     17  H12 UNL     1      -6.844   2.481  18.866  1.00  0.00     0.169 HD
ATOM     18  H11 UNL     1      -5.102   1.959  18.706  1.00  0.00     0.169 HD
ENDBRANCH  13  16
ENDBRANCH  10  13
ENDBRANCH   1   7
BRANCH   4  19
HETATM   19  C9  UNL     1      -0.820   3.731   8.851  1.00  0.00     0.186 C 
BRANCH  19  20
HETATM   20  N2  UNL     1       0.425   4.323   9.361  1.00  0.00    -0.299 N 
HETATM   21  C10 UNL     1       0.802   5.599   9.294  1.00  0.00     0.112 A 
HETATM   22  C11 UNL     1       2.023   5.716   9.889  1.00  0.00     0.037 A 
HETATM   23  C12 UNL     1       2.360   4.452  10.318  1.00  0.00     0.108 A 
HETATM   24  N3  UNL     1       1.367   3.640   9.979  1.00  0.00    -0.310 N 
ATOM     25  H3  UNL     1       1.338   2.638  10.168  1.00  0.00     0.186 HD
ENDBRANCH  19  20
ENDBRANCH   4  19
TORSDOF 5
ENDMDL
