MODEL 20
REMARK VINA RESULT: -6.701029636      5.219      8.534
REMARK  5 active torsions:
REMARK  status: ('A' for Active; 'I' for Inactive)
REMARK    1  A    between atoms: N1_1  and  S1_4 
REMARK    2  A    between atoms: S1_4  and  C1_7 
REMARK    3  A    between atoms: C4_10  and  C5_11 
REMARK    4  A    between atoms: C8_14  and  C9_15 
REMARK    5  A    between atoms: C9_15  and  N2_16 
ROOT
HETATM    1  C5  UNL     1      -2.642   3.988  12.948  1.00  0.00    -0.026 A 
HETATM    2  C6  UNL     1      -3.621   3.172  12.429  1.00  0.00     0.013 A 
HETATM    3  C7  UNL     1      -4.844   3.007  13.048  1.00  0.00     0.010 A 
HETATM    4  C8  UNL     1      -5.133   3.662  14.223  1.00  0.00    -0.038 A 
HETATM    5  C13 UNL     1      -4.165   4.483  14.756  1.00  0.00     0.010 A 
HETATM    6  C14 UNL     1      -2.950   4.635  14.124  1.00  0.00     0.013 A 
ENDROOT
BRANCH   1   7
HETATM    7  C4  UNL     1      -1.360   4.148  12.283  1.00  0.00    -0.026 A 
HETATM    8  C3  UNL     1      -0.579   5.270  12.463  1.00  0.00     0.014 A 
HETATM    9  C2  UNL     1       0.625   5.361  11.804  1.00  0.00     0.026 A 
HETATM   10  C1  UNL     1       1.071   4.361  10.968  1.00  0.00     0.079 A 
HETATM   11  C16 UNL     1       0.299   3.236  10.782  1.00  0.00     0.026 A 
HETATM   12  C15 UNL     1      -0.904   3.153  11.445  1.00  0.00     0.014 A 
BRANCH  10  13
HETATM   13  S1  UNL     1       2.607   4.504  10.142  1.00  0.00     0.256 S 
HETATM   14  O1  UNL     1       3.664   4.629  11.216  1.00  0.00    -0.201 OA
HETATM   15  O2  UNL     1       2.863   3.275   9.341  1.00  0.00    -0.201 OA
BRANCH  13  16
HETATM   16  N1  UNL     1       2.703   5.894   9.159  1.00  0.00    -0.324 N 
ATOM     17  H12 UNL     1       1.995   6.625   9.097  1.00  0.00     0.169 HD
ATOM     18  H11 UNL     1       3.589   5.854   8.654  1.00  0.00     0.169 HD
ENDBRANCH  13  16
ENDBRANCH  10  13
ENDBRANCH   1   7
BRANCH   4  19
HETATM   19  C9  UNL     1      -6.451   3.489  14.898  1.00  0.00     0.186 C 
BRANCH  19  20
HETATM   20  N2  UNL     1      -6.213   2.563  16.014  1.00  0.00    -0.299 N 
HETATM   21  C10 UNL     1      -6.475   2.765  17.305  1.00  0.00     0.112 A 
HETATM   22  C11 UNL     1      -6.101   1.653  17.998  1.00  0.00     0.037 A 
HETATM   23  C12 UNL     1      -5.605   0.772  17.064  1.00  0.00     0.108 A 
HETATM   24  N3  UNL     1      -5.691   1.362  15.878  1.00  0.00    -0.310 N 
ATOM     25  H3  UNL     1      -5.397   0.946  14.994  1.00  0.00     0.186 HD
ENDBRANCH  19  20
ENDBRANCH   4  19
TORSDOF 5
ENDMDL
