MODEL 4
REMARK VINA RESULT: -7.355012559      0.345      1.070
REMARK  5 active torsions:
REMARK  status: ('A' for Active; 'I' for Inactive)
REMARK    1  A    between atoms: N1_1  and  S1_4 
REMARK    2  A    between atoms: S1_4  and  C1_7 
REMARK    3  A    between atoms: C4_10  and  C5_11 
REMARK    4  A    between atoms: C8_14  and  C9_15 
REMARK    5  A    between atoms: C9_15  and  N2_16 
ROOT
HETATM    1  C5  UNL     1      -3.416   5.853  14.189  1.00  0.00    -0.026 A 
HETATM    2  C6  UNL     1      -2.987   6.925  14.938  1.00  0.00     0.013 A 
HETATM    3  C7  UNL     1      -2.457   8.061  14.359  1.00  0.00     0.010 A 
HETATM    4  C8  UNL     1      -2.338   8.165  12.991  1.00  0.00    -0.038 A 
HETATM    5  C13 UNL     1      -2.764   7.102  12.227  1.00  0.00     0.010 A 
HETATM    6  C14 UNL     1      -3.290   5.976  12.823  1.00  0.00     0.013 A 
ENDROOT
BRANCH   1   7
HETATM    7  C4  UNL     1      -3.970   4.665  14.816  1.00  0.00    -0.026 A 
HETATM    8  C3  UNL     1      -3.184   3.585  15.157  1.00  0.00     0.014 A 
HETATM    9  C2  UNL     1      -3.769   2.490  15.748  1.00  0.00     0.026 A 
HETATM   10  C1  UNL     1      -5.122   2.444  16.009  1.00  0.00     0.079 A 
HETATM   11  C16 UNL     1      -5.915   3.518  15.673  1.00  0.00     0.026 A 
HETATM   12  C15 UNL     1      -5.321   4.609  15.082  1.00  0.00     0.014 A 
BRANCH  10  13
HETATM   13  S1  UNL     1      -5.840   1.037  16.761  1.00  0.00     0.256 S 
HETATM   14  O1  UNL     1      -5.366  -0.163  15.972  1.00  0.00    -0.201 OA
HETATM   15  O2  UNL     1      -5.360   0.920  18.166  1.00  0.00    -0.201 OA
BRANCH  13  16
HETATM   16  N1  UNL     1      -7.544   1.051  16.705  1.00  0.00    -0.324 N 
ATOM     17  H12 UNL     1      -8.155   1.479  17.402  1.00  0.00     0.169 HD
ATOM     18  H11 UNL     1      -7.830   0.560  15.858  1.00  0.00     0.169 HD
ENDBRANCH  13  16
ENDBRANCH  10  13
ENDBRANCH   1   7
BRANCH   4  19
HETATM   19  C9  UNL     1      -1.767   9.388  12.359  1.00  0.00     0.186 C 
BRANCH  19  20
HETATM   20  N2  UNL     1      -0.378   9.474  12.830  1.00  0.00    -0.299 N 
HETATM   21  C10 UNL     1       0.630   8.654  12.536  1.00  0.00     0.112 A 
HETATM   22  C11 UNL     1       1.745   9.096  13.183  1.00  0.00     0.037 A 
HETATM   23  C12 UNL     1       1.361  10.221  13.878  1.00  0.00     0.108 A 
HETATM   24  N3  UNL     1       0.070  10.414  13.637  1.00  0.00    -0.310 N 
ATOM     25  H3  UNL     1      -0.490  11.176  14.019  1.00  0.00     0.186 HD
ENDBRANCH  19  20
ENDBRANCH   4  19
TORSDOF 5
ENDMDL
