MODEL 5
REMARK VINA RESULT: -7.270676750      1.427      2.159
REMARK  5 active torsions:
REMARK  status: ('A' for Active; 'I' for Inactive)
REMARK    1  A    between atoms: N1_1  and  S1_4 
REMARK    2  A    between atoms: S1_4  and  C1_7 
REMARK    3  A    between atoms: C4_10  and  C5_11 
REMARK    4  A    between atoms: C8_14  and  C9_15 
REMARK    5  A    between atoms: C9_15  and  N2_16 
ROOT
HETATM    1  C5  UNL     1      -3.378   5.375  13.891  1.00  0.00    -0.026 A 
HETATM    2  C6  UNL     1      -2.039   5.673  14.000  1.00  0.00     0.013 A 
HETATM    3  C7  UNL     1      -1.455   6.703  13.289  1.00  0.00     0.010 A 
HETATM    4  C8  UNL     1      -2.202   7.480  12.434  1.00  0.00    -0.038 A 
HETATM    5  C13 UNL     1      -3.543   7.197  12.314  1.00  0.00     0.010 A 
HETATM    6  C14 UNL     1      -4.108   6.165  13.030  1.00  0.00     0.013 A 
ENDROOT
BRANCH   1   7
HETATM    7  C4  UNL     1      -3.975   4.287  14.646  1.00  0.00    -0.026 A 
HETATM    8  C3  UNL     1      -3.217   3.267  15.181  1.00  0.00     0.014 A 
HETATM    9  C2  UNL     1      -3.843   2.266  15.886  1.00  0.00     0.026 A 
HETATM   10  C1  UNL     1      -5.209   2.255  16.072  1.00  0.00     0.079 A 
HETATM   11  C16 UNL     1      -5.974   3.269  15.543  1.00  0.00     0.026 A 
HETATM   12  C15 UNL     1      -5.340   4.267  14.839  1.00  0.00     0.014 A 
BRANCH  10  13
HETATM   13  S1  UNL     1      -5.978   0.967  16.972  1.00  0.00     0.256 S 
HETATM   14  O1  UNL     1      -5.582  -0.327  16.298  1.00  0.00    -0.201 OA
HETATM   15  O2  UNL     1      -5.473   0.964  18.373  1.00  0.00    -0.201 OA
BRANCH  13  16
HETATM   16  N1  UNL     1      -7.680   1.064  16.946  1.00  0.00    -0.324 N 
ATOM     17  H12 UNL     1      -8.298   0.460  16.404  1.00  0.00     0.169 HD
ATOM     18  H11 UNL     1      -7.956   1.827  17.564  1.00  0.00     0.169 HD
ENDBRANCH  13  16
ENDBRANCH  10  13
ENDBRANCH   1   7
BRANCH   4  19
HETATM   19  C9  UNL     1      -1.578   8.594  11.663  1.00  0.00     0.186 C 
BRANCH  19  20
HETATM   20  N2  UNL     1      -1.938   9.828  12.374  1.00  0.00    -0.299 N 
HETATM   21  C10 UNL     1      -1.738  10.109  13.661  1.00  0.00     0.112 A 
HETATM   22  C11 UNL     1      -2.221  11.360  13.906  1.00  0.00     0.037 A 
HETATM   23  C12 UNL     1      -2.720  11.817  12.708  1.00  0.00     0.108 A 
HETATM   24  N3  UNL     1      -2.529  10.860  11.808  1.00  0.00    -0.310 N 
ATOM     25  H3  UNL     1      -2.798  10.916  10.826  1.00  0.00     0.186 HD
ENDBRANCH  19  20
ENDBRANCH   4  19
TORSDOF 5
ENDMDL
