MODEL 10
REMARK VINA RESULT: -7.066239866      3.499      4.154
REMARK  5 active torsions:
REMARK  status: ('A' for Active; 'I' for Inactive)
REMARK    1  A    between atoms: N1_1  and  S1_4 
REMARK    2  A    between atoms: S1_4  and  C1_7 
REMARK    3  A    between atoms: C4_10  and  C5_11 
REMARK    4  A    between atoms: C8_14  and  C9_15 
REMARK    5  A    between atoms: C9_15  and  N2_16 
ROOT
HETATM    1  C5  UNL     1      -3.091   2.552  12.331  1.00  0.00    -0.026 A 
HETATM    2  C6  UNL     1      -2.922   3.868  11.967  1.00  0.00     0.013 A 
HETATM    3  C7  UNL     1      -2.184   4.235  10.859  1.00  0.00     0.010 A 
HETATM    4  C8  UNL     1      -1.581   3.283  10.068  1.00  0.00    -0.038 A 
HETATM    5  C13 UNL     1      -1.741   1.962  10.418  1.00  0.00     0.010 A 
HETATM    6  C14 UNL     1      -2.481   1.615  11.527  1.00  0.00     0.013 A 
ENDROOT
BRANCH   1   7
HETATM    7  C4  UNL     1      -3.871   2.185  13.501  1.00  0.00    -0.026 A 
HETATM    8  C3  UNL     1      -4.543   3.123  14.255  1.00  0.00     0.014 A 
HETATM    9  C2  UNL     1      -5.264   2.711  15.351  1.00  0.00     0.026 A 
HETATM   10  C1  UNL     1      -5.333   1.384  15.716  1.00  0.00     0.079 A 
HETATM   11  C16 UNL     1      -4.666   0.439  14.969  1.00  0.00     0.026 A 
HETATM   12  C15 UNL     1      -3.947   0.860  13.874  1.00  0.00     0.014 A 
BRANCH  10  13
HETATM   13  S1  UNL     1      -6.257   0.889  17.117  1.00  0.00     0.256 S 
HETATM   14  O1  UNL     1      -7.711   0.899  16.699  1.00  0.00    -0.201 OA
HETATM   15  O2  UNL     1      -5.870  -0.494  17.510  1.00  0.00    -0.201 OA
BRANCH  13  16
HETATM   16  N1  UNL     1      -6.090   1.958  18.434  1.00  0.00    -0.324 N 
ATOM     17  H12 UNL     1      -6.843   2.250  19.058  1.00  0.00     0.169 HD
ATOM     18  H11 UNL     1      -5.112   2.244  18.478  1.00  0.00     0.169 HD
ENDBRANCH  13  16
ENDBRANCH  10  13
ENDBRANCH   1   7
BRANCH   4  19
HETATM   19  C9  UNL     1      -0.782   3.672   8.871  1.00  0.00     0.186 C 
BRANCH  19  20
HETATM   20  N2  UNL     1       0.444   4.293   9.390  1.00  0.00    -0.299 N 
HETATM   21  C10 UNL     1       0.817   5.568   9.279  1.00  0.00     0.112 A 
HETATM   22  C11 UNL     1       2.019   5.718   9.903  1.00  0.00     0.037 A 
HETATM   23  C12 UNL     1       2.352   4.476  10.394  1.00  0.00     0.108 A 
HETATM   24  N3  UNL     1       1.373   3.644  10.062  1.00  0.00    -0.310 N 
ATOM     25  H3  UNL     1       1.343   2.651  10.293  1.00  0.00     0.186 HD
ENDBRANCH  19  20
ENDBRANCH   4  19
TORSDOF 5
ENDMDL
