MODEL 6
REMARK VINA RESULT: -7.201852726      4.675      7.583
REMARK  3 active torsions:
REMARK  status: ('A' for Active; 'I' for Inactive)
REMARK    1  A    between atoms: N1_1  and  S1_4 
REMARK    2  A    between atoms: S1_4  and  C1_7 
REMARK    3  A    between atoms: C4_10  and  C5_11 
ROOT
HETATM    1  C1  UNL     1      -1.704   7.042  13.339  1.00  0.00     0.079 A 
HETATM    2  C2  UNL     1      -1.382   5.708  13.223  1.00  0.00     0.026 A 
HETATM    3  C3  UNL     1      -2.202   4.790  13.817  1.00  0.00     0.015 A 
HETATM    4  C4  UNL     1      -3.346   5.121  14.536  1.00  0.00    -0.009 A 
HETATM    5  C13 UNL     1      -3.655   6.460  14.643  1.00  0.00     0.015 A 
HETATM    6  C14 UNL     1      -2.838   7.402  14.048  1.00  0.00     0.026 A 
ENDROOT
BRANCH   4   7
HETATM    7  C5  UNL     1      -4.174   4.096  15.143  1.00  0.00     0.043 A 
HETATM    8  C6  UNL     1      -5.517   4.227  15.404  1.00  0.00     0.044 A 
HETATM    9  C7  UNL     1      -5.885   3.007  15.982  1.00  0.00    -0.007 A 
HETATM   10  C8  UNL     1      -7.095   2.528  16.459  1.00  0.00     0.014 A 
HETATM   11  C12 UNL     1      -4.798   2.186  16.059  1.00  0.00     0.043 A 
HETATM   12  C9  UNL     1      -7.165   1.261  16.985  1.00  0.00     0.001 A 
HETATM   13  C10 UNL     1      -6.044   0.456  17.048  1.00  0.00     0.002 A 
HETATM   14  C11 UNL     1      -4.827   0.909  16.580  1.00  0.00     0.030 A 
HETATM   15  N2  UNL     1      -3.755   2.890  15.531  1.00  0.00    -0.355 N 
ATOM     16  H2  UNL     1      -2.798   2.546  15.446  1.00  0.00     0.166 HD
ENDBRANCH   4   7
BRANCH   1  17
HETATM   17  S1  UNL     1      -0.704   8.262  12.607  1.00  0.00     0.256 S 
HETATM   18  O1  UNL     1       0.462   7.656  11.860  1.00  0.00    -0.201 OA
HETATM   19  O2  UNL     1      -1.513   9.137  11.669  1.00  0.00    -0.201 OA
BRANCH  17  20
HETATM   20  N1  UNL     1      -0.048   9.265  13.858  1.00  0.00    -0.324 N 
ATOM     21  H12 UNL     1      -0.280   9.207  14.849  1.00  0.00     0.169 HD
ATOM     22  H11 UNL     1       0.604   9.913  13.414  1.00  0.00     0.169 HD
ENDBRANCH  17  20
ENDBRANCH   1  17
TORSDOF 3
ENDMDL
