MODEL 3
REMARK VINA RESULT: -7.895041667      0.619      1.327
REMARK  3 active torsions:
REMARK  status: ('A' for Active; 'I' for Inactive)
REMARK    1  A    between atoms: N1_1  and  S1_4 
REMARK    2  A    between atoms: S1_4  and  C1_7 
REMARK    3  A    between atoms: C4_10  and  C5_11 
ROOT
HETATM    1  C1  UNL     1      -5.283   2.348  16.098  1.00  0.00     0.079 A 
HETATM    2  C2  UNL     1      -3.940   2.474  15.819  1.00  0.00     0.026 A 
HETATM    3  C3  UNL     1      -3.505   3.635  15.242  1.00  0.00     0.015 A 
HETATM    4  C4  UNL     1      -4.338   4.700  14.917  1.00  0.00    -0.009 A 
HETATM    5  C13 UNL     1      -5.679   4.559  15.202  1.00  0.00     0.015 A 
HETATM    6  C14 UNL     1      -6.136   3.393  15.786  1.00  0.00     0.026 A 
ENDROOT
BRANCH   4   7
HETATM    7  C5  UNL     1      -3.811   5.905  14.305  1.00  0.00     0.043 A 
HETATM    8  C6  UNL     1      -3.817   6.164  12.955  1.00  0.00     0.044 A 
HETATM    9  C7  UNL     1      -3.217   7.423  12.834  1.00  0.00    -0.007 A 
HETATM   10  C8  UNL     1      -2.934   8.221  11.736  1.00  0.00     0.014 A 
HETATM   11  C12 UNL     1      -2.868   7.888  14.068  1.00  0.00     0.043 A 
HETATM   12  C9  UNL     1      -2.325   9.438  11.919  1.00  0.00     0.001 A 
HETATM   13  C10 UNL     1      -1.986   9.878  13.184  1.00  0.00     0.002 A 
HETATM   14  C11 UNL     1      -2.255   9.103  14.294  1.00  0.00     0.030 A 
HETATM   15  N2  UNL     1      -3.250   6.925  14.957  1.00  0.00    -0.355 N 
ATOM     16  H2  UNL     1      -3.126   6.977  15.968  1.00  0.00     0.166 HD
ENDBRANCH   4   7
BRANCH   1  17
HETATM   17  S1  UNL     1      -5.903   0.899  16.832  1.00  0.00     0.256 S 
HETATM   18  O1  UNL     1      -5.527  -0.334  16.042  1.00  0.00    -0.201 OA
HETATM   19  O2  UNL     1      -5.412   0.760  18.260  1.00  0.00    -0.201 OA
BRANCH  17  20
HETATM   20  N1  UNL     1      -7.633   0.986  16.856  1.00  0.00    -0.324 N 
ATOM     21  H12 UNL     1      -8.268   0.276  16.491  1.00  0.00     0.169 HD
ATOM     22  H11 UNL     1      -7.885   1.869  17.299  1.00  0.00     0.169 HD
ENDBRANCH  17  20
ENDBRANCH   1  17
TORSDOF 3
ENDMDL
