MODEL 4
REMARK VINA RESULT: -7.864589113      0.595      1.711
REMARK  3 active torsions:
REMARK  status: ('A' for Active; 'I' for Inactive)
REMARK    1  A    between atoms: N1_1  and  S1_4 
REMARK    2  A    between atoms: S1_4  and  C1_7 
REMARK    3  A    between atoms: C4_10  and  C5_11 
ROOT
HETATM    1  C1  UNL     1      -5.328   2.411  16.107  1.00  0.00     0.079 A 
HETATM    2  C2  UNL     1      -6.177   3.444  15.777  1.00  0.00     0.026 A 
HETATM    3  C3  UNL     1      -5.646   4.552  15.176  1.00  0.00     0.015 A 
HETATM    4  C4  UNL     1      -4.296   4.701  14.878  1.00  0.00    -0.009 A 
HETATM    5  C13 UNL     1      -3.459   3.658  15.214  1.00  0.00     0.015 A 
HETATM    6  C14 UNL     1      -3.979   2.531  15.821  1.00  0.00     0.026 A 
ENDROOT
BRANCH   4   7
HETATM    7  C5  UNL     1      -3.797   5.904  14.239  1.00  0.00     0.043 A 
HETATM    8  C6  UNL     1      -3.869   6.163  12.891  1.00  0.00     0.044 A 
HETATM    9  C7  UNL     1      -3.272   7.419  12.739  1.00  0.00    -0.007 A 
HETATM   10  C8  UNL     1      -3.043   8.216  11.628  1.00  0.00     0.014 A 
HETATM   11  C12 UNL     1      -2.862   7.884  13.954  1.00  0.00     0.043 A 
HETATM   12  C9  UNL     1      -2.422   9.432  11.779  1.00  0.00     0.001 A 
HETATM   13  C10 UNL     1      -2.020   9.872  13.026  1.00  0.00     0.002 A 
HETATM   14  C11 UNL     1      -2.235   9.098  14.148  1.00  0.00     0.030 A 
HETATM   15  N2  UNL     1      -3.202   6.923  14.862  1.00  0.00    -0.355 N 
ATOM     16  H2  UNL     1      -3.027   6.976  15.866  1.00  0.00     0.166 HD
ENDBRANCH   4   7
BRANCH   1  17
HETATM   17  S1  UNL     1      -5.938   0.974  16.872  1.00  0.00     0.256 S 
HETATM   18  O1  UNL     1      -5.521  -0.275  16.130  1.00  0.00    -0.201 OA
HETATM   19  O2  UNL     1      -5.479   0.889  18.315  1.00  0.00    -0.201 OA
BRANCH  17  20
HETATM   20  N1  UNL     1      -7.670   1.028  16.854  1.00  0.00    -0.324 N 
ATOM     21  H12 UNL     1      -8.256   0.998  16.019  1.00  0.00     0.169 HD
ATOM     22  H11 UNL     1      -7.980   1.096  17.823  1.00  0.00     0.169 HD
ENDBRANCH  17  20
ENDBRANCH   1  17
TORSDOF 3
ENDMDL
