MODEL 1
REMARK VINA RESULT: -7.928459117      0.000      0.000
REMARK  3 active torsions:
REMARK  status: ('A' for Active; 'I' for Inactive)
REMARK    1  A    between atoms: N1_1  and  S1_4 
REMARK    2  A    between atoms: S1_4  and  C1_7 
REMARK    3  A    between atoms: C4_10  and  C5_11 
ROOT
HETATM    1  C1  UNL     1      -5.331   2.422  16.118  1.00  0.00     0.079 A 
HETATM    2  C2  UNL     1      -3.992   2.526  15.811  1.00  0.00     0.026 A 
HETATM    3  C3  UNL     1      -3.552   3.676  15.217  1.00  0.00     0.015 A 
HETATM    4  C4  UNL     1      -4.376   4.752  14.902  1.00  0.00    -0.009 A 
HETATM    5  C13 UNL     1      -5.713   4.632  15.216  1.00  0.00     0.015 A 
HETATM    6  C14 UNL     1      -6.175   3.477  15.817  1.00  0.00     0.026 A 
ENDROOT
BRANCH   4   7
HETATM    7  C5  UNL     1      -3.845   5.945  14.271  1.00  0.00     0.043 A 
HETATM    8  C6  UNL     1      -3.200   6.961  14.935  1.00  0.00     0.044 A 
HETATM    9  C7  UNL     1      -2.870   7.883  13.936  1.00  0.00    -0.007 A 
HETATM   10  C8  UNL     1      -2.217   9.105  13.972  1.00  0.00     0.014 A 
HETATM   11  C12 UNL     1      -3.305   7.427  12.726  1.00  0.00     0.043 A 
HETATM   12  C9  UNL     1      -2.027   9.810  12.808  1.00  0.00     0.001 A 
HETATM   13  C10 UNL     1      -2.481   9.318  11.600  1.00  0.00     0.002 A 
HETATM   14  C11 UNL     1      -3.135   8.104  11.536  1.00  0.00     0.030 A 
HETATM   15  N2  UNL     1      -3.904   6.225  12.968  1.00  0.00    -0.355 N 
ATOM     16  H2  UNL     1      -4.332   5.629  12.258  1.00  0.00     0.166 HD
ENDBRANCH   4   7
BRANCH   1  17
HETATM   17  S1  UNL     1      -5.957   0.987  16.875  1.00  0.00     0.256 S 
HETATM   18  O1  UNL     1      -5.539  -0.263  16.136  1.00  0.00    -0.201 OA
HETATM   19  O2  UNL     1      -5.512   0.898  18.322  1.00  0.00    -0.201 OA
BRANCH  17  20
HETATM   20  N1  UNL     1      -7.688   1.051  16.839  1.00  0.00    -0.324 N 
ATOM     21  H12 UNL     1      -8.311   0.245  16.782  1.00  0.00     0.169 HD
ATOM     22  H11 UNL     1      -7.955   2.034  16.886  1.00  0.00     0.169 HD
ENDBRANCH  17  20
ENDBRANCH   1  17
TORSDOF 3
ENDMDL
