MODEL 2
REMARK VINA RESULT: -7.912735923      0.060      1.090
REMARK  3 active torsions:
REMARK  status: ('A' for Active; 'I' for Inactive)
REMARK    1  A    between atoms: N1_1  and  S1_4 
REMARK    2  A    between atoms: S1_4  and  C1_7 
REMARK    3  A    between atoms: C4_10  and  C5_11 
ROOT
HETATM    1  C1  UNL     1      -5.345   2.414  16.130  1.00  0.00     0.079 A 
HETATM    2  C2  UNL     1      -6.191   3.458  15.825  1.00  0.00     0.026 A 
HETATM    3  C3  UNL     1      -5.662   4.564  15.221  1.00  0.00     0.015 A 
HETATM    4  C4  UNL     1      -4.317   4.702  14.894  1.00  0.00    -0.009 A 
HETATM    5  C13 UNL     1      -3.484   3.649  15.205  1.00  0.00     0.015 A 
HETATM    6  C14 UNL     1      -4.001   2.523  15.816  1.00  0.00     0.026 A 
ENDROOT
BRANCH   4   7
HETATM    7  C5  UNL     1      -3.820   5.904  14.253  1.00  0.00     0.043 A 
HETATM    8  C6  UNL     1      -3.171   6.927  14.903  1.00  0.00     0.044 A 
HETATM    9  C7  UNL     1      -2.882   7.858  13.898  1.00  0.00    -0.007 A 
HETATM   10  C8  UNL     1      -2.246   9.089  13.921  1.00  0.00     0.014 A 
HETATM   11  C12 UNL     1      -3.346   7.400  12.699  1.00  0.00     0.043 A 
HETATM   12  C9  UNL     1      -2.099   9.801  12.756  1.00  0.00     0.001 A 
HETATM   13  C10 UNL     1      -2.580   9.307  11.558  1.00  0.00     0.002 A 
HETATM   14  C11 UNL     1      -3.219   8.084  11.508  1.00  0.00     0.030 A 
HETATM   15  N2  UNL     1      -3.920   6.189  12.953  1.00  0.00    -0.355 N 
ATOM     16  H2  UNL     1      -4.360   5.590  12.254  1.00  0.00     0.166 HD
ENDBRANCH   4   7
BRANCH   1  17
HETATM   17  S1  UNL     1      -5.953   0.978  16.898  1.00  0.00     0.256 S 
HETATM   18  O1  UNL     1      -5.529  -0.273  16.163  1.00  0.00    -0.201 OA
HETATM   19  O2  UNL     1      -5.499   0.900  18.343  1.00  0.00    -0.201 OA
BRANCH  17  20
HETATM   20  N1  UNL     1      -7.685   1.026  16.874  1.00  0.00    -0.324 N 
ATOM     21  H12 UNL     1      -8.303   0.447  17.442  1.00  0.00     0.169 HD
ATOM     22  H11 UNL     1      -7.958   1.733  16.191  1.00  0.00     0.169 HD
ENDBRANCH  17  20
ENDBRANCH   1  17
TORSDOF 3
ENDMDL
