MODEL 10
REMARK VINA RESULT: -7.089843832      1.007      1.658
REMARK  3 active torsions:
REMARK  status: ('A' for Active; 'I' for Inactive)
REMARK    1  A    between atoms: N1_1  and  S1_4 
REMARK    2  A    between atoms: S1_4  and  C1_7 
REMARK    3  A    between atoms: C4_10  and  C5_11 
ROOT
HETATM    1  C1  UNL     1      -5.676   2.697  16.191  1.00  0.00     0.079 A 
HETATM    2  C2  UNL     1      -6.429   3.803  15.865  1.00  0.00     0.026 A 
HETATM    3  C3  UNL     1      -5.835   4.801  15.145  1.00  0.00     0.015 A 
HETATM    4  C4  UNL     1      -4.510   4.769  14.719  1.00  0.00    -0.009 A 
HETATM    5  C13 UNL     1      -3.770   3.655  15.052  1.00  0.00     0.015 A 
HETATM    6  C14 UNL     1      -4.355   2.636  15.780  1.00  0.00     0.026 A 
ENDROOT
BRANCH   4   7
HETATM    7  C5  UNL     1      -3.940   5.864  13.957  1.00  0.00     0.043 A 
HETATM    8  C6  UNL     1      -3.256   6.924  14.502  1.00  0.00     0.044 A 
HETATM    9  C7  UNL     1      -2.900   7.716  13.405  1.00  0.00    -0.007 A 
HETATM   10  C8  UNL     1      -2.204   8.911  13.302  1.00  0.00     0.014 A 
HETATM   11  C12 UNL     1      -3.358   7.144  12.254  1.00  0.00     0.043 A 
HETATM   12  C9  UNL     1      -1.996   9.474  12.066  1.00  0.00     0.001 A 
HETATM   13  C10 UNL     1      -2.475   8.866  10.921  1.00  0.00     0.002 A 
HETATM   14  C11 UNL     1      -3.172   7.677  10.995  1.00  0.00     0.030 A 
HETATM   15  N2  UNL     1      -3.997   5.998  12.631  1.00  0.00    -0.355 N 
ATOM     16  H2  UNL     1      -4.451   5.343  11.994  1.00  0.00     0.166 HD
ENDBRANCH   4   7
BRANCH   1  17
HETATM   17  S1  UNL     1      -6.370   1.391  17.105  1.00  0.00     0.256 S 
HETATM   18  O1  UNL     1      -6.455   1.721  18.577  1.00  0.00    -0.201 OA
HETATM   19  O2  UNL     1      -7.748   1.033  16.581  1.00  0.00    -0.201 OA
BRANCH  17  20
HETATM   20  N1  UNL     1      -5.349  -0.000  16.948  1.00  0.00    -0.324 N 
ATOM     21  H12 UNL     1      -4.359  -0.041  17.192  1.00  0.00     0.169 HD
ATOM     22  H11 UNL     1      -5.923  -0.755  16.571  1.00  0.00     0.169 HD
ENDBRANCH  17  20
ENDBRANCH   1  17
TORSDOF 3
ENDMDL
