MODEL 7
REMARK VINA RESULT: -7.191134947      4.683      7.650
REMARK  3 active torsions:
REMARK  status: ('A' for Active; 'I' for Inactive)
REMARK    1  A    between atoms: N1_1  and  S1_4 
REMARK    2  A    between atoms: S1_4  and  C1_7 
REMARK    3  A    between atoms: C4_10  and  C5_11 
ROOT
HETATM    1  C1  UNL     1      -1.686   6.979  13.255  1.00  0.00     0.079 A 
HETATM    2  C2  UNL     1      -2.809   7.352  13.961  1.00  0.00     0.026 A 
HETATM    3  C3  UNL     1      -3.565   6.371  14.539  1.00  0.00     0.015 A 
HETATM    4  C4  UNL     1      -3.270   5.014  14.458  1.00  0.00    -0.009 A 
HETATM    5  C13 UNL     1      -2.143   4.657  13.748  1.00  0.00     0.015 A 
HETATM    6  C14 UNL     1      -1.367   5.635  13.158  1.00  0.00     0.026 A 
ENDROOT
BRANCH   4   7
HETATM    7  C5  UNL     1      -4.116   4.023  15.095  1.00  0.00     0.043 A 
HETATM    8  C6  UNL     1      -5.453   4.193  15.368  1.00  0.00     0.044 A 
HETATM    9  C7  UNL     1      -5.845   2.995  15.975  1.00  0.00    -0.007 A 
HETATM   10  C8  UNL     1      -7.061   2.557  16.475  1.00  0.00     0.014 A 
HETATM   11  C12 UNL     1      -4.778   2.149  16.058  1.00  0.00     0.043 A 
HETATM   12  C9  UNL     1      -7.157   1.303  17.029  1.00  0.00     0.001 A 
HETATM   13  C10 UNL     1      -6.056   0.472  17.097  1.00  0.00     0.002 A 
HETATM   14  C11 UNL     1      -4.833   0.884  16.607  1.00  0.00     0.030 A 
HETATM   15  N2  UNL     1      -3.724   2.815  15.504  1.00  0.00    -0.355 N 
ATOM     16  H2  UNL     1      -2.777   2.445  15.417  1.00  0.00     0.166 HD
ENDBRANCH   4   7
BRANCH   1  17
HETATM   17  S1  UNL     1      -0.679   8.177  12.496  1.00  0.00     0.256 S 
HETATM   18  O1  UNL     1      -1.499   9.281  11.870  1.00  0.00    -0.201 OA
HETATM   19  O2  UNL     1       0.304   8.768  13.487  1.00  0.00    -0.201 OA
BRANCH  17  20
HETATM   20  N1  UNL     1       0.219   7.419  11.222  1.00  0.00    -0.324 N 
ATOM     21  H12 UNL     1       0.558   7.881  10.378  1.00  0.00     0.169 HD
ATOM     22  H11 UNL     1       0.339   6.439  11.479  1.00  0.00     0.169 HD
ENDBRANCH  17  20
ENDBRANCH   1  17
TORSDOF 3
ENDMDL
