MODEL 5
REMARK VINA RESULT: -7.237519005      4.663      7.649
REMARK  3 active torsions:
REMARK  status: ('A' for Active; 'I' for Inactive)
REMARK    1  A    between atoms: N1_1  and  S1_4 
REMARK    2  A    between atoms: S1_4  and  C1_7 
REMARK    3  A    between atoms: C4_10  and  C5_11 
ROOT
HETATM    1  C1  UNL     1      -1.723   7.011  13.384  1.00  0.00     0.079 A 
HETATM    2  C2  UNL     1      -2.856   7.366  14.082  1.00  0.00     0.026 A 
HETATM    3  C3  UNL     1      -3.611   6.371  14.638  1.00  0.00     0.015 A 
HETATM    4  C4  UNL     1      -3.306   5.017  14.541  1.00  0.00    -0.009 A 
HETATM    5  C13 UNL     1      -2.168   4.679  13.840  1.00  0.00     0.015 A 
HETATM    6  C14 UNL     1      -1.393   5.671  13.272  1.00  0.00     0.026 A 
ENDROOT
BRANCH   4   7
HETATM    7  C5  UNL     1      -4.152   4.011  15.155  1.00  0.00     0.043 A 
HETATM    8  C6  UNL     1      -5.492   4.169  15.418  1.00  0.00     0.044 A 
HETATM    9  C7  UNL     1      -5.882   2.960  16.003  1.00  0.00    -0.007 A 
HETATM   10  C8  UNL     1      -7.100   2.506  16.484  1.00  0.00     0.014 A 
HETATM   11  C12 UNL     1      -4.811   2.119  16.083  1.00  0.00     0.043 A 
HETATM   12  C9  UNL     1      -7.194   1.244  17.018  1.00  0.00     0.001 A 
HETATM   13  C10 UNL     1      -6.087   0.418  17.083  1.00  0.00     0.002 A 
HETATM   14  C11 UNL     1      -4.863   0.846  16.611  1.00  0.00     0.030 A 
HETATM   15  N2  UNL     1      -3.755   2.800  15.549  1.00  0.00    -0.355 N 
ATOM     16  H2  UNL     1      -2.805   2.437  15.465  1.00  0.00     0.166 HD
ENDBRANCH   4   7
BRANCH   1  17
HETATM   17  S1  UNL     1      -0.717   8.226  12.653  1.00  0.00     0.256 S 
HETATM   18  O1  UNL     1       0.517   7.625  12.019  1.00  0.00    -0.201 OA
HETATM   19  O2  UNL     1      -1.489   9.020  11.616  1.00  0.00    -0.201 OA
BRANCH  17  20
HETATM   20  N1  UNL     1      -0.180   9.318  13.887  1.00  0.00    -0.324 N 
ATOM     21  H12 UNL     1       0.355  10.172  13.732  1.00  0.00     0.169 HD
ATOM     22  H11 UNL     1      -0.500   8.944  14.780  1.00  0.00     0.169 HD
ENDBRANCH  17  20
ENDBRANCH   1  17
TORSDOF 3
ENDMDL
