MODEL 3
REMARK VINA RESULT: -8.829075804      4.133      5.762
REMARK  2 active torsions:
REMARK  status: ('A' for Active; 'I' for Inactive)
REMARK    1  A    between atoms: C11_18  and  C12_19 
REMARK    2  A    between atoms: C12_19  and  O1_20 
ROOT
HETATM    1  N1  UNL     1      11.444 -10.880 -10.106  1.00  0.00    -0.191 NA
HETATM    2  C1  UNL     1      10.390 -10.463  -9.866  1.00  0.00     0.105 C 
HETATM    3  C2  UNL     1       9.088  -9.970  -9.584  1.00  0.00     0.107 A 
HETATM    4  C3  UNL     1       8.173 -10.316  -8.632  1.00  0.00     0.134 A 
HETATM    5  N2  UNL     1       7.118  -9.541  -8.813  1.00  0.00    -0.300 N 
ATOM      6  H2  UNL     1       6.278  -9.584  -8.237  1.00  0.00     0.186 HD
HETATM    7  N3  UNL     1       7.274  -8.691  -9.835  1.00  0.00    -0.222 N 
HETATM    8  C4  UNL     1       6.440  -7.732 -10.351  1.00  0.00     0.133 A 
HETATM    9  C5  UNL     1       6.843  -6.970 -11.427  1.00  0.00     0.098 A 
HETATM   10  C6  UNL     1       8.103  -7.233 -11.939  1.00  0.00     0.108 A 
HETATM   11  N4  UNL     1       8.874  -8.218 -11.355  1.00  0.00    -0.326 N 
ATOM     12  H4  UNL     1       9.799  -8.396 -11.745  1.00  0.00     0.169 HD
HETATM   13  C7  UNL     1       8.486  -8.948 -10.316  1.00  0.00     0.153 A 
HETATM   14  N5  UNL     1       8.793  -6.677 -13.053  1.00  0.00    -0.358 N 
HETATM   15  C8  UNL     1       8.278  -6.616 -14.447  1.00  0.00     0.157 C 
HETATM   16  C9  UNL     1       8.283  -5.060 -14.507  1.00  0.00     0.141 C 
HETATM   17  C10 UNL     1       9.699  -4.749 -14.003  1.00  0.00     0.061 C 
HETATM   18  C11 UNL     1      10.097  -6.021 -13.277  1.00  0.00     0.112 C 
HETATM   19  O2  UNL     1       7.383  -4.497 -13.666  1.00  0.00    -0.381 OA
HETATM   20  C13 UNL     1       6.111  -4.407 -14.164  1.00  0.00     0.195 C 
HETATM   21  C14 UNL     1       5.301  -3.390 -13.419  1.00  0.00    -0.003 C 
HETATM   22  C15 UNL     1       4.012  -3.328 -13.219  1.00  0.00    -0.002 C 
HETATM   23  C16 UNL     1       2.957  -4.264 -13.681  1.00  0.00     0.203 C 
HETATM   24  O3  UNL     1       2.255  -4.719 -12.519  1.00  0.00    -0.345 OA
HETATM   25  C17 UNL     1       2.577  -5.800 -11.686  1.00  0.00     0.098 A 
HETATM   26  C18 UNL     1       3.766  -6.002 -11.006  1.00  0.00     0.068 A 
HETATM   27  C19 UNL     1       3.890  -7.159 -10.269  1.00  0.00     0.036 A 
HETATM   28  C20 UNL     1       2.832  -8.056 -10.215  1.00  0.00     0.039 A 
HETATM   29  C21 UNL     1       1.618  -7.892 -10.866  1.00  0.00    -0.026 A 
HETATM   30  C22 UNL     1       1.517  -6.736 -11.609  1.00  0.00     0.075 A 
HETATM   31  N6  UNL     1       0.264  -6.511 -12.291  1.00  0.00    -0.324 N 
ATOM     32  H6  UNL     1       0.127  -5.674 -12.857  1.00  0.00     0.169 HD
HETATM   33  C23 UNL     1      -0.757  -7.455 -12.167  1.00  0.00     0.222 C 
HETATM   34  O4  UNL     1      -1.926  -7.134 -12.482  1.00  0.00    -0.273 OA
HETATM   35  C24 UNL     1      -0.535  -8.839 -11.675  1.00  0.00     0.108 C 
HETATM   36  C25 UNL     1       0.579  -8.924 -10.707  1.00  0.00     0.050 C 
HETATM   37  N7  UNL     1       5.131  -7.684  -9.682  1.00  0.00    -0.341 N 
ATOM     38  H7  UNL     1       5.080  -8.045  -8.729  1.00  0.00     0.167 HD
ENDROOT
BRANCH  18  39
HETATM   39  C12 UNL     1      10.753  -5.634 -11.985  1.00  0.00     0.189 C 
BRANCH  39  40
HETATM   40  O1  UNL     1      11.551  -6.633 -11.452  1.00  0.00    -0.399 OA
ATOM     41  H1  UNL     1      11.693  -6.543 -10.517  1.00  0.00     0.209 HD
ENDBRANCH  39  40
ENDBRANCH  18  39
TORSDOF 2
ENDMDL
