MODEL 5
REMARK VINA RESULT: -8.611609746      4.203      6.659
REMARK  2 active torsions:
REMARK  status: ('A' for Active; 'I' for Inactive)
REMARK    1  A    between atoms: C11_18  and  C12_19 
REMARK    2  A    between atoms: C12_19  and  O1_20 
ROOT
HETATM    1  N1  UNL     1       0.795  -9.582  -9.287  1.00  0.00    -0.191 NA
HETATM    2  C1  UNL     1       1.122  -8.670  -9.920  1.00  0.00     0.105 C 
HETATM    3  C2  UNL     1       1.521  -7.564 -10.717  1.00  0.00     0.107 A 
HETATM    4  C3  UNL     1       0.798  -6.590 -11.345  1.00  0.00     0.134 A 
HETATM    5  N2  UNL     1       1.665  -5.800 -11.953  1.00  0.00    -0.300 N 
ATOM      6  H2  UNL     1       1.398  -4.984 -12.503  1.00  0.00     0.186 HD
HETATM    7  N3  UNL     1       2.932  -6.187 -11.767  1.00  0.00    -0.222 N 
HETATM    8  C4  UNL     1       4.117  -5.656 -12.211  1.00  0.00     0.133 A 
HETATM    9  C5  UNL     1       5.313  -6.251 -11.872  1.00  0.00     0.098 A 
HETATM   10  C6  UNL     1       5.242  -7.387 -11.082  1.00  0.00     0.108 A 
HETATM   11  N4  UNL     1       4.004  -7.849 -10.681  1.00  0.00    -0.326 N 
ATOM     12  H4  UNL     1       3.973  -8.686 -10.098  1.00  0.00     0.169 HD
HETATM   13  C7  UNL     1       2.853  -7.273 -11.005  1.00  0.00     0.153 A 
HETATM   14  N5  UNL     1       6.262  -8.256 -10.602  1.00  0.00    -0.358 N 
HETATM   15  C8  UNL     1       7.275  -8.947 -11.442  1.00  0.00     0.157 C 
HETATM   16  C9  UNL     1       8.488  -8.232 -10.776  1.00  0.00     0.141 C 
HETATM   17  C10 UNL     1       8.179  -8.450  -9.289  1.00  0.00     0.061 C 
HETATM   18  C11 UNL     1       6.694  -8.761  -9.284  1.00  0.00     0.112 C 
HETATM   19  O2  UNL     1       8.520  -6.902 -11.029  1.00  0.00    -0.381 OA
HETATM   20  C13 UNL     1       9.105  -6.558 -12.219  1.00  0.00     0.195 C 
HETATM   21  C14 UNL     1       9.527  -5.120 -12.226  1.00  0.00    -0.003 C 
HETATM   22  C15 UNL     1       9.649  -4.289 -13.226  1.00  0.00    -0.002 C 
HETATM   23  C16 UNL     1       9.402  -4.532 -14.668  1.00  0.00     0.203 C 
HETATM   24  O3  UNL     1       8.430  -3.573 -15.100  1.00  0.00    -0.345 OA
HETATM   25  C17 UNL     1       7.033  -3.677 -15.043  1.00  0.00     0.098 A 
HETATM   26  C18 UNL     1       6.261  -3.904 -13.916  1.00  0.00     0.068 A 
HETATM   27  C19 UNL     1       4.898  -4.012 -14.088  1.00  0.00     0.036 A 
HETATM   28  C20 UNL     1       4.353  -3.869 -15.357  1.00  0.00     0.039 A 
HETATM   29  C21 UNL     1       5.082  -3.628 -16.512  1.00  0.00    -0.026 A 
HETATM   30  C22 UNL     1       6.444  -3.537 -16.322  1.00  0.00     0.075 A 
HETATM   31  N6  UNL     1       7.245  -3.267 -17.494  1.00  0.00    -0.324 N 
ATOM     32  H6  UNL     1       8.259  -3.187 -17.419  1.00  0.00     0.169 HD
HETATM   33  C23 UNL     1       6.614  -3.117 -18.730  1.00  0.00     0.222 C 
HETATM   34  O4  UNL     1       7.241  -2.584 -19.674  1.00  0.00    -0.273 OA
HETATM   35  C24 UNL     1       5.221  -3.559 -18.995  1.00  0.00     0.108 C 
HETATM   36  C25 UNL     1       4.365  -3.487 -17.792  1.00  0.00     0.050 C 
HETATM   37  N7  UNL     1       3.933  -4.489 -13.088  1.00  0.00    -0.341 N 
ATOM     38  H7  UNL     1       3.062  -3.966 -12.994  1.00  0.00     0.167 HD
ENDROOT
BRANCH  18  39
HETATM   39  C12 UNL     1       6.061  -7.995  -8.160  1.00  0.00     0.189 C 
BRANCH  39  40
HETATM   40  O1  UNL     1       6.855  -6.967  -7.678  1.00  0.00    -0.399 OA
ATOM     41  H1  UNL     1       6.611  -6.113  -8.015  1.00  0.00     0.209 HD
ENDBRANCH  39  40
ENDBRANCH  18  39
TORSDOF 2
ENDMDL
