MODEL 1
REMARK VINA RESULT: -9.444039584      0.000      0.000
REMARK  2 active torsions:
REMARK  status: ('A' for Active; 'I' for Inactive)
REMARK    1  A    between atoms: C11_18  and  C12_19 
REMARK    2  A    between atoms: C12_19  and  O1_20 
ROOT
HETATM    1  N1  UNL     1       9.038   0.243  -6.573  1.00  0.00    -0.191 NA
HETATM    2  C1  UNL     1       8.219  -0.061  -7.334  1.00  0.00     0.105 C 
HETATM    3  C2  UNL     1       7.210  -0.452  -8.254  1.00  0.00     0.107 A 
HETATM    4  C3  UNL     1       5.864  -0.224  -8.275  1.00  0.00     0.134 A 
HETATM    5  N2  UNL     1       5.392  -0.814  -9.360  1.00  0.00    -0.300 N 
ATOM      6  H2  UNL     1       4.408  -0.804  -9.627  1.00  0.00     0.186 HD
HETATM    7  N3  UNL     1       6.347  -1.426 -10.069  1.00  0.00    -0.222 N 
HETATM    8  C4  UNL     1       6.290  -2.140 -11.239  1.00  0.00     0.133 A 
HETATM    9  C5  UNL     1       7.439  -2.678 -11.779  1.00  0.00     0.098 A 
HETATM   10  C6  UNL     1       8.615  -2.460 -11.082  1.00  0.00     0.108 A 
HETATM   11  N4  UNL     1       8.578  -1.728  -9.913  1.00  0.00    -0.326 N 
ATOM     12  H4  UNL     1       9.455  -1.577  -9.415  1.00  0.00     0.169 HD
HETATM   13  C7  UNL     1       7.471  -1.207  -9.395  1.00  0.00     0.153 A 
HETATM   14  N5  UNL     1       9.944  -2.908 -11.330  1.00  0.00    -0.358 N 
HETATM   15  C8  UNL     1      10.358  -4.323 -11.518  1.00  0.00     0.157 C 
HETATM   16  C9  UNL     1      10.865  -4.105 -12.975  1.00  0.00     0.141 C 
HETATM   17  C10 UNL     1      11.757  -2.870 -12.796  1.00  0.00     0.061 C 
HETATM   18  C11 UNL     1      11.267  -2.273 -11.490  1.00  0.00     0.112 C 
HETATM   19  O2  UNL     1       9.867  -3.807 -13.840  1.00  0.00    -0.381 OA
HETATM   20  C13 UNL     1       9.201  -4.892 -14.345  1.00  0.00     0.195 C 
HETATM   21  C14 UNL     1       8.464  -4.545 -15.603  1.00  0.00    -0.003 C 
HETATM   22  C15 UNL     1       7.381  -5.070 -16.111  1.00  0.00    -0.002 C 
HETATM   23  C16 UNL     1       6.554  -6.181 -15.580  1.00  0.00     0.203 C 
HETATM   24  O3  UNL     1       5.220  -5.683 -15.433  1.00  0.00    -0.345 OA
HETATM   25  C17 UNL     1       4.668  -5.007 -14.336  1.00  0.00     0.098 A 
HETATM   26  C18 UNL     1       5.132  -3.837 -13.760  1.00  0.00     0.068 A 
HETATM   27  C19 UNL     1       4.461  -3.359 -12.656  1.00  0.00     0.036 A 
HETATM   28  C20 UNL     1       3.350  -4.041 -12.180  1.00  0.00     0.039 A 
HETATM   29  C21 UNL     1       2.838  -5.208 -12.729  1.00  0.00    -0.026 A 
HETATM   30  C22 UNL     1       3.531  -5.678 -13.824  1.00  0.00     0.075 A 
HETATM   31  N6  UNL     1       3.025  -6.881 -14.443  1.00  0.00    -0.324 N 
ATOM     32  H6  UNL     1       3.493  -7.278 -15.257  1.00  0.00     0.169 HD
HETATM   33  C23 UNL     1       1.888  -7.492 -13.912  1.00  0.00     0.222 C 
HETATM   34  O4  UNL     1       1.267  -8.332 -14.605  1.00  0.00    -0.273 OA
HETATM   35  C24 UNL     1       1.362  -7.202 -12.554  1.00  0.00     0.108 C 
HETATM   36  C25 UNL     1       1.641  -5.816 -12.123  1.00  0.00     0.050 C 
HETATM   37  N7  UNL     1       4.921  -2.292 -11.757  1.00  0.00    -0.341 N 
ATOM     38  H7  UNL     1       4.232  -1.597 -11.466  1.00  0.00     0.167 HD
ENDROOT
BRANCH  18  39
HETATM   39  C12 UNL     1      11.153  -0.787 -11.671  1.00  0.00     0.189 C 
BRANCH  39  40
HETATM   40  O1  UNL     1      11.210  -0.082 -10.480  1.00  0.00    -0.399 OA
ATOM     41  H1  UNL     1      11.880   0.592 -10.472  1.00  0.00     0.209 HD
ENDBRANCH  39  40
ENDBRANCH  18  39
TORSDOF 2
ENDMDL
