MODEL 2
REMARK VINA RESULT: -8.994606975      3.232      5.839
REMARK  2 active torsions:
REMARK  status: ('A' for Active; 'I' for Inactive)
REMARK    1  A    between atoms: C11_18  and  C12_19 
REMARK    2  A    between atoms: C12_19  and  O1_20 
ROOT
HETATM    1  N1  UNL     1       6.413  -0.437 -18.130  1.00  0.00    -0.191 NA
HETATM    2  C1  UNL     1       5.911  -1.441 -17.843  1.00  0.00     0.105 C 
HETATM    3  C2  UNL     1       5.277  -2.659 -17.483  1.00  0.00     0.107 A 
HETATM    4  C3  UNL     1       4.367  -3.438 -18.140  1.00  0.00     0.134 A 
HETATM    5  N2  UNL     1       4.105  -4.468 -17.355  1.00  0.00    -0.300 N 
ATOM      6  H2  UNL     1       3.453  -5.213 -17.598  1.00  0.00     0.186 HD
HETATM    7  N3  UNL     1       4.789  -4.426 -16.206  1.00  0.00    -0.222 N 
HETATM    8  C4  UNL     1       4.813  -5.282 -15.134  1.00  0.00     0.133 A 
HETATM    9  C5  UNL     1       5.621  -5.012 -14.051  1.00  0.00     0.098 A 
HETATM   10  C6  UNL     1       6.378  -3.854 -14.112  1.00  0.00     0.108 A 
HETATM   11  N4  UNL     1       6.290  -3.052 -15.232  1.00  0.00    -0.326 N 
ATOM     12  H4  UNL     1       6.857  -2.204 -15.258  1.00  0.00     0.169 HD
HETATM   13  C7  UNL     1       5.514  -3.315 -16.277  1.00  0.00     0.153 A 
HETATM   14  N5  UNL     1       7.262  -3.265 -13.164  1.00  0.00    -0.358 N 
HETATM   15  C8  UNL     1       6.919  -2.924 -11.757  1.00  0.00     0.157 C 
HETATM   16  C9  UNL     1       7.967  -3.898 -11.141  1.00  0.00     0.141 C 
HETATM   17  C10 UNL     1       9.226  -3.516 -11.931  1.00  0.00     0.061 C 
HETATM   18  C11 UNL     1       8.668  -2.816 -13.156  1.00  0.00     0.112 C 
HETATM   19  O2  UNL     1       7.678  -5.200 -11.375  1.00  0.00    -0.381 OA
HETATM   20  C13 UNL     1       6.793  -5.759 -10.492  1.00  0.00     0.195 C 
HETATM   21  C14 UNL     1       6.876  -7.256 -10.507  1.00  0.00    -0.003 C 
HETATM   22  C15 UNL     1       5.961  -8.148 -10.238  1.00  0.00    -0.002 C 
HETATM   23  C16 UNL     1       4.551  -7.935  -9.830  1.00  0.00     0.203 C 
HETATM   24  O3  UNL     1       3.727  -8.620 -10.779  1.00  0.00    -0.345 OA
HETATM   25  C17 UNL     1       3.241  -8.140 -12.004  1.00  0.00     0.098 A 
HETATM   26  C18 UNL     1       3.988  -7.646 -13.060  1.00  0.00     0.068 A 
HETATM   27  C19 UNL     1       3.306  -7.186 -14.164  1.00  0.00     0.036 A 
HETATM   28  C20 UNL     1       1.920  -7.252 -14.191  1.00  0.00     0.039 A 
HETATM   29  C21 UNL     1       1.128  -7.750 -13.166  1.00  0.00    -0.026 A 
HETATM   30  C22 UNL     1       1.828  -8.193 -12.064  1.00  0.00     0.075 A 
HETATM   31  N6  UNL     1       1.048  -8.738 -10.978  1.00  0.00    -0.324 N 
ATOM     32  H6  UNL     1       1.507  -9.084 -10.135  1.00  0.00     0.169 HD
HETATM   33  C23 UNL     1      -0.342  -8.786 -11.096  1.00  0.00     0.222 C 
HETATM   34  O4  UNL     1      -0.995  -9.525 -10.321  1.00  0.00    -0.273 OA
HETATM   35  C24 UNL     1      -1.105  -8.003 -12.100  1.00  0.00     0.108 C 
HETATM   36  C25 UNL     1      -0.335  -7.769 -13.340  1.00  0.00     0.050 C 
HETATM   37  N7  UNL     1       3.875  -6.407 -15.272  1.00  0.00    -0.341 N 
ATOM     38  H7  UNL     1       3.596  -6.669 -16.218  1.00  0.00     0.167 HD
ENDROOT
BRANCH  18  39
HETATM   39  C12 UNL     1       9.417  -3.314 -14.358  1.00  0.00     0.189 C 
BRANCH  39  40
HETATM   40  O1  UNL     1       9.304  -2.483 -15.460  1.00  0.00    -0.399 OA
ATOM     41  H1  UNL     1      10.121  -2.063 -15.702  1.00  0.00     0.209 HD
ENDBRANCH  39  40
ENDBRANCH  18  39
TORSDOF 2
ENDMDL
