MODEL 2
REMARK VINA RESULT: -7.563521389      0.404      1.176
REMARK  3 active torsions:
REMARK  status: ('A' for Active; 'I' for Inactive)
REMARK    1  A    between atoms: C5_6  and  C6_7 
REMARK    2  A    between atoms: C9_10  and  S1_11 
REMARK    3  A    between atoms: S1_11  and  N2_12 
ROOT
HETATM    1  N1  UNL     1      -1.443   9.904  10.965  1.00  0.00    -0.191 NA
HETATM    2  C1  UNL     1      -1.888   9.040  11.589  1.00  0.00     0.099 C 
HETATM    3  C2  UNL     1      -2.434   7.950  12.357  1.00  0.00     0.044 A 
HETATM    4  C3  UNL     1      -2.119   7.745  13.689  1.00  0.00     0.023 A 
HETATM    5  C4  UNL     1      -2.665   6.697  14.379  1.00  0.00     0.014 A 
HETATM    6  C5  UNL     1      -3.535   5.820  13.782  1.00  0.00    -0.026 A 
HETATM    7  C12 UNL     1      -3.860   6.020  12.438  1.00  0.00     0.014 A 
HETATM    8  C13 UNL     1      -3.307   7.067  11.771  1.00  0.00     0.023 A 
ENDROOT
BRANCH   6   9
HETATM    9  C6  UNL     1      -4.139   4.697  14.487  1.00  0.00    -0.026 A 
HETATM   10  C7  UNL     1      -3.335   3.620  14.844  1.00  0.00     0.014 A 
HETATM   11  C8  UNL     1      -3.862   2.526  15.510  1.00  0.00     0.026 A 
HETATM   12  C9  UNL     1      -5.203   2.467  15.842  1.00  0.00     0.079 A 
HETATM   13  C10 UNL     1      -5.991   3.539  15.484  1.00  0.00     0.026 A 
HETATM   14  C11 UNL     1      -5.477   4.647  14.813  1.00  0.00     0.014 A 
BRANCH  12  15
HETATM   15  S1  UNL     1      -5.819   1.060  16.683  1.00  0.00     0.256 S 
HETATM   16  O1  UNL     1      -5.268  -0.207  16.104  1.00  0.00    -0.201 OA
HETATM   17  O2  UNL     1      -5.341   1.193  18.122  1.00  0.00    -0.201 OA
BRANCH  15  18
HETATM   18  N2  UNL     1      -7.531   1.009  16.715  1.00  0.00    -0.324 N 
ATOM     19  H22 UNL     1      -8.097   0.870  15.877  1.00  0.00     0.169 HD
ATOM     20  H21 UNL     1      -7.910   1.132  17.654  1.00  0.00     0.169 HD
ENDBRANCH  15  18
ENDBRANCH  12  15
ENDBRANCH   6   9
TORSDOF 3
ENDMDL
