MODEL 15
REMARK VINA RESULT: -6.901537177      4.519      7.628
REMARK  3 active torsions:
REMARK  status: ('A' for Active; 'I' for Inactive)
REMARK    1  A    between atoms: C5_6  and  C6_7 
REMARK    2  A    between atoms: C9_10  and  S1_11 
REMARK    3  A    between atoms: S1_11  and  N2_12 
ROOT
HETATM    1  N1  UNL     1      -5.846  -0.263  17.188  1.00  0.00    -0.191 NA
HETATM    2  C1  UNL     1      -5.508   0.704  16.654  1.00  0.00     0.099 C 
HETATM    3  C2  UNL     1      -5.083   1.901  15.975  1.00  0.00     0.044 A 
HETATM    4  C3  UNL     1      -5.963   2.903  15.606  1.00  0.00     0.023 A 
HETATM    5  C4  UNL     1      -5.512   4.023  14.965  1.00  0.00     0.014 A 
HETATM    6  C5  UNL     1      -4.184   4.194  14.667  1.00  0.00    -0.026 A 
HETATM    7  C12 UNL     1      -3.287   3.189  15.036  1.00  0.00     0.014 A 
HETATM    8  C13 UNL     1      -3.755   2.083  15.672  1.00  0.00     0.023 A 
ENDROOT
BRANCH   6   9
HETATM    9  C6  UNL     1      -3.667   5.376  13.989  1.00  0.00    -0.026 A 
HETATM   10  C7  UNL     1      -3.960   5.558  12.643  1.00  0.00     0.014 A 
HETATM   11  C8  UNL     1      -3.488   6.663  11.952  1.00  0.00     0.026 A 
HETATM   12  C9  UNL     1      -2.712   7.620  12.577  1.00  0.00     0.079 A 
HETATM   13  C10 UNL     1      -2.426   7.431  13.912  1.00  0.00     0.026 A 
HETATM   14  C11 UNL     1      -2.893   6.325  14.621  1.00  0.00     0.014 A 
BRANCH  12  15
HETATM   15  S1  UNL     1      -2.139   8.997  11.659  1.00  0.00     0.256 S 
HETATM   16  O1  UNL     1      -0.792   8.731  11.059  1.00  0.00    -0.201 OA
HETATM   17  O2  UNL     1      -3.147   9.196  10.535  1.00  0.00    -0.201 OA
BRANCH  15  18
HETATM   18  N2  UNL     1      -2.109  10.439  12.582  1.00  0.00    -0.324 N 
ATOM     19  H22 UNL     1      -1.571  10.535  13.443  1.00  0.00     0.169 HD
ATOM     20  H21 UNL     1      -2.684  11.177  12.175  1.00  0.00     0.169 HD
ENDBRANCH  15  18
ENDBRANCH  12  15
ENDBRANCH   6   9
TORSDOF 3
ENDMDL
