MODEL 4
REMARK VINA RESULT: -7.497403639      0.344      1.167
REMARK  3 active torsions:
REMARK  status: ('A' for Active; 'I' for Inactive)
REMARK    1  A    between atoms: C5_6  and  C6_7 
REMARK    2  A    between atoms: C9_10  and  S1_11 
REMARK    3  A    between atoms: S1_11  and  N2_12 
ROOT
HETATM    1  N1  UNL     1      -1.449  10.046  11.336  1.00  0.00    -0.191 NA
HETATM    2  C1  UNL     1      -1.894   9.105  11.838  1.00  0.00     0.099 C 
HETATM    3  C2  UNL     1      -2.459   7.943  12.473  1.00  0.00     0.044 A 
HETATM    4  C3  UNL     1      -3.306   7.069  11.814  1.00  0.00     0.023 A 
HETATM    5  C4  UNL     1      -3.817   5.976  12.459  1.00  0.00     0.014 A 
HETATM    6  C5  UNL     1      -3.511   5.708  13.769  1.00  0.00    -0.026 A 
HETATM    7  C12 UNL     1      -2.657   6.584  14.444  1.00  0.00     0.014 A 
HETATM    8  C13 UNL     1      -2.160   7.664  13.784  1.00  0.00     0.023 A 
ENDROOT
BRANCH   6   9
HETATM    9  C6  UNL     1      -4.032   4.552  14.487  1.00  0.00    -0.026 A 
HETATM   10  C7  UNL     1      -5.381   4.524  14.822  1.00  0.00     0.014 A 
HETATM   11  C8  UNL     1      -5.924   3.449  15.508  1.00  0.00     0.026 A 
HETATM   12  C9  UNL     1      -5.144   2.371  15.881  1.00  0.00     0.079 A 
HETATM   13  C10 UNL     1      -3.809   2.408  15.544  1.00  0.00     0.026 A 
HETATM   14  C11 UNL     1      -3.247   3.481  14.855  1.00  0.00     0.014 A 
BRANCH  12  15
HETATM   15  S1  UNL     1      -5.879   1.039  16.749  1.00  0.00     0.256 S 
HETATM   16  O1  UNL     1      -5.431  -0.283  16.203  1.00  0.00    -0.201 OA
HETATM   17  O2  UNL     1      -5.399   1.165  18.189  1.00  0.00    -0.201 OA
BRANCH  15  18
HETATM   18  N2  UNL     1      -7.590   1.129  16.770  1.00  0.00    -0.324 N 
ATOM     19  H22 UNL     1      -8.142   1.360  15.944  1.00  0.00     0.169 HD
ATOM     20  H21 UNL     1      -7.982   0.927  17.689  1.00  0.00     0.169 HD
ENDBRANCH  15  18
ENDBRANCH  12  15
ENDBRANCH   6   9
TORSDOF 3
ENDMDL
