MODEL 6
REMARK VINA RESULT: -7.330254362      0.999      1.032
REMARK  3 active torsions:
REMARK  status: ('A' for Active; 'I' for Inactive)
REMARK    1  A    between atoms: C5_6  and  C6_7 
REMARK    2  A    between atoms: C9_10  and  S1_11 
REMARK    3  A    between atoms: S1_11  and  N2_12 
ROOT
HETATM    1  N1  UNL     1      -1.488   9.738  10.771  1.00  0.00    -0.191 NA
HETATM    2  C1  UNL     1      -1.977   8.873  11.360  1.00  0.00     0.099 C 
HETATM    3  C2  UNL     1      -2.595   7.805  12.103  1.00  0.00     0.044 A 
HETATM    4  C3  UNL     1      -3.568   6.984  11.561  1.00  0.00     0.023 A 
HETATM    5  C4  UNL     1      -4.125   5.980  12.306  1.00  0.00     0.014 A 
HETATM    6  C5  UNL     1      -3.743   5.752  13.603  1.00  0.00    -0.026 A 
HETATM    7  C12 UNL     1      -2.760   6.575  14.159  1.00  0.00     0.014 A 
HETATM    8  C13 UNL     1      -2.220   7.567  13.402  1.00  0.00     0.023 A 
ENDROOT
BRANCH   6   9
HETATM    9  C6  UNL     1      -4.310   4.691  14.424  1.00  0.00    -0.026 A 
HETATM   10  C7  UNL     1      -3.501   3.622  14.791  1.00  0.00     0.014 A 
HETATM   11  C8  UNL     1      -3.995   2.585  15.566  1.00  0.00     0.026 A 
HETATM   12  C9  UNL     1      -5.307   2.578  16.000  1.00  0.00     0.079 A 
HETATM   13  C10 UNL     1      -6.102   3.641  15.631  1.00  0.00     0.026 A 
HETATM   14  C11 UNL     1      -5.620   4.692  14.851  1.00  0.00     0.014 A 
BRANCH  12  15
HETATM   15  S1  UNL     1      -5.882   1.243  16.976  1.00  0.00     0.256 S 
HETATM   16  O1  UNL     1      -7.099   0.609  16.373  1.00  0.00    -0.201 OA
HETATM   17  O2  UNL     1      -4.752   0.222  16.992  1.00  0.00    -0.201 OA
BRANCH  15  18
HETATM   18  N2  UNL     1      -6.186   1.696  18.600  1.00  0.00    -0.324 N 
ATOM     19  H22 UNL     1      -5.695   1.280  19.392  1.00  0.00     0.169 HD
ATOM     20  H21 UNL     1      -6.902   2.417  18.679  1.00  0.00     0.169 HD
ENDBRANCH  15  18
ENDBRANCH  12  15
ENDBRANCH   6   9
TORSDOF 3
ENDMDL
