MODEL 14
REMARK VINA RESULT: -6.930241255      4.581      7.665
REMARK  3 active torsions:
REMARK  status: ('A' for Active; 'I' for Inactive)
REMARK    1  A    between atoms: C5_6  and  C6_7 
REMARK    2  A    between atoms: C9_10  and  S1_11 
REMARK    3  A    between atoms: S1_11  and  N2_12 
ROOT
HETATM    1  N1  UNL     1      -6.658   0.338  16.649  1.00  0.00    -0.191 NA
HETATM    2  C1  UNL     1      -6.157   1.295  16.240  1.00  0.00     0.099 C 
HETATM    3  C2  UNL     1      -5.529   2.481  15.717  1.00  0.00     0.044 A 
HETATM    4  C3  UNL     1      -6.227   3.651  15.477  1.00  0.00     0.023 A 
HETATM    5  C4  UNL     1      -5.587   4.754  14.980  1.00  0.00     0.014 A 
HETATM    6  C5  UNL     1      -4.244   4.740  14.705  1.00  0.00    -0.026 A 
HETATM    7  C12 UNL     1      -3.529   3.564  14.945  1.00  0.00     0.014 A 
HETATM    8  C13 UNL     1      -4.184   2.480  15.438  1.00  0.00     0.023 A 
ENDROOT
BRANCH   6   9
HETATM    9  C6  UNL     1      -3.528   5.896  14.181  1.00  0.00    -0.026 A 
HETATM   10  C7  UNL     1      -2.978   6.807  15.075  1.00  0.00     0.014 A 
HETATM   11  C8  UNL     1      -2.293   7.925  14.627  1.00  0.00     0.026 A 
HETATM   12  C9  UNL     1      -2.134   8.172  13.276  1.00  0.00     0.079 A 
HETATM   13  C10 UNL     1      -2.683   7.264  12.397  1.00  0.00     0.026 A 
HETATM   14  C11 UNL     1      -3.375   6.135  12.832  1.00  0.00     0.014 A 
BRANCH  12  15
HETATM   15  S1  UNL     1      -1.262   9.600  12.761  1.00  0.00     0.256 S 
HETATM   16  O1  UNL     1       0.126   9.627  13.326  1.00  0.00    -0.201 OA
HETATM   17  O2  UNL     1      -1.173   9.509  11.244  1.00  0.00    -0.201 OA
BRANCH  15  18
HETATM   18  N2  UNL     1      -2.091  11.051  13.139  1.00  0.00    -0.324 N 
ATOM     19  H22 UNL     1      -2.561  11.204  14.032  1.00  0.00     0.169 HD
ATOM     20  H21 UNL     1      -2.058  11.731  12.380  1.00  0.00     0.169 HD
ENDBRANCH  15  18
ENDBRANCH  12  15
ENDBRANCH   6   9
TORSDOF 3
ENDMDL
