MODEL 1
REMARK VINA RESULT: -7.573604736      0.000      0.000
REMARK  3 active torsions:
REMARK  status: ('A' for Active; 'I' for Inactive)
REMARK    1  A    between atoms: C5_6  and  C6_7 
REMARK    2  A    between atoms: C9_10  and  S1_11 
REMARK    3  A    between atoms: S1_11  and  N2_12 
ROOT
HETATM    1  N1  UNL     1      -0.954  10.146  11.791  1.00  0.00    -0.191 NA
HETATM    2  C1  UNL     1      -1.476   9.217  12.237  1.00  0.00     0.099 C 
HETATM    3  C2  UNL     1      -2.138   8.068  12.800  1.00  0.00     0.044 A 
HETATM    4  C3  UNL     1      -2.839   7.158  12.029  1.00  0.00     0.023 A 
HETATM    5  C4  UNL     1      -3.451   6.080  12.608  1.00  0.00     0.014 A 
HETATM    6  C5  UNL     1      -3.391   5.863  13.961  1.00  0.00    -0.026 A 
HETATM    7  C12 UNL     1      -2.685   6.776  14.749  1.00  0.00     0.014 A 
HETATM    8  C13 UNL     1      -2.085   7.840  14.153  1.00  0.00     0.023 A 
ENDROOT
BRANCH   6   9
HETATM    9  C6  UNL     1      -4.026   4.725  14.612  1.00  0.00    -0.026 A 
HETATM   10  C7  UNL     1      -3.253   3.609  14.913  1.00  0.00     0.014 A 
HETATM   11  C8  UNL     1      -3.811   2.499  15.527  1.00  0.00     0.026 A 
HETATM   12  C9  UNL     1      -5.152   2.463  15.860  1.00  0.00     0.079 A 
HETATM   13  C10 UNL     1      -5.909   3.573  15.557  1.00  0.00     0.026 A 
HETATM   14  C11 UNL     1      -5.364   4.698  14.940  1.00  0.00     0.014 A 
BRANCH  12  15
HETATM   15  S1  UNL     1      -5.807   1.035  16.633  1.00  0.00     0.256 S 
HETATM   16  O1  UNL     1      -5.272  -0.218  16.010  1.00  0.00    -0.201 OA
HETATM   17  O2  UNL     1      -5.347   1.098  18.083  1.00  0.00    -0.201 OA
BRANCH  15  18
HETATM   18  N2  UNL     1      -7.520   1.017  16.640  1.00  0.00    -0.324 N 
ATOM     19  H22 UNL     1      -8.079   1.172  15.800  1.00  0.00     0.169 HD
ATOM     20  H21 UNL     1      -7.907   0.835  17.566  1.00  0.00     0.169 HD
ENDBRANCH  15  18
ENDBRANCH  12  15
ENDBRANCH   6   9
TORSDOF 3
ENDMDL
