MODEL 13
REMARK VINA RESULT: -6.931725098      4.621      7.666
REMARK  3 active torsions:
REMARK  status: ('A' for Active; 'I' for Inactive)
REMARK    1  A    between atoms: C5_6  and  C6_7 
REMARK    2  A    between atoms: C9_10  and  S1_11 
REMARK    3  A    between atoms: S1_11  and  N2_12 
ROOT
HETATM    1  N1  UNL     1      -6.660   0.334  16.649  1.00  0.00    -0.191 NA
HETATM    2  C1  UNL     1      -6.153   1.291  16.246  1.00  0.00     0.099 C 
HETATM    3  C2  UNL     1      -5.518   2.476  15.731  1.00  0.00     0.044 A 
HETATM    4  C3  UNL     1      -6.213   3.646  15.481  1.00  0.00     0.023 A 
HETATM    5  C4  UNL     1      -5.566   4.748  14.992  1.00  0.00     0.014 A 
HETATM    6  C5  UNL     1      -4.219   4.734  14.735  1.00  0.00    -0.026 A 
HETATM    7  C12 UNL     1      -3.508   3.558  14.985  1.00  0.00     0.014 A 
HETATM    8  C13 UNL     1      -4.170   2.474  15.471  1.00  0.00     0.023 A 
ENDROOT
BRANCH   6   9
HETATM    9  C6  UNL     1      -3.496   5.890  14.220  1.00  0.00    -0.026 A 
HETATM   10  C7  UNL     1      -2.948   6.794  15.122  1.00  0.00     0.014 A 
HETATM   11  C8  UNL     1      -2.256   7.912  14.681  1.00  0.00     0.026 A 
HETATM   12  C9  UNL     1      -2.088   8.164  13.333  1.00  0.00     0.079 A 
HETATM   13  C10 UNL     1      -2.636   7.262  12.447  1.00  0.00     0.026 A 
HETATM   14  C11 UNL     1      -3.335   6.134  12.873  1.00  0.00     0.014 A 
BRANCH  12  15
HETATM   15  S1  UNL     1      -1.208   9.591  12.829  1.00  0.00     0.256 S 
HETATM   16  O1  UNL     1      -0.990   9.605  11.347  1.00  0.00    -0.201 OA
HETATM   17  O2  UNL     1      -2.085  10.777  13.209  1.00  0.00    -0.201 OA
BRANCH  15  18
HETATM   18  N2  UNL     1       0.283   9.772  13.654  1.00  0.00    -0.324 N 
ATOM     19  H22 UNL     1       0.529  10.615  14.174  1.00  0.00     0.169 HD
ATOM     20  H21 UNL     1       0.883   8.952  13.565  1.00  0.00     0.169 HD
ENDBRANCH  15  18
ENDBRANCH  12  15
ENDBRANCH   6   9
TORSDOF 3
ENDMDL
