MODEL 3
REMARK VINA RESULT: -7.537143879      0.623      1.686
REMARK  3 active torsions:
REMARK  status: ('A' for Active; 'I' for Inactive)
REMARK    1  A    between atoms: C5_6  and  C6_7 
REMARK    2  A    between atoms: C9_10  and  S1_11 
REMARK    3  A    between atoms: S1_11  and  N2_12 
ROOT
HETATM    1  N1  UNL     1      -1.874   9.660  10.865  1.00  0.00    -0.191 NA
HETATM    2  C1  UNL     1      -2.236   8.781  11.523  1.00  0.00     0.099 C 
HETATM    3  C2  UNL     1      -2.680   7.676  12.333  1.00  0.00     0.044 A 
HETATM    4  C3  UNL     1      -2.251   7.486  13.635  1.00  0.00     0.023 A 
HETATM    5  C4  UNL     1      -2.701   6.421  14.367  1.00  0.00     0.014 A 
HETATM    6  C5  UNL     1      -3.586   5.513  13.843  1.00  0.00    -0.026 A 
HETATM    7  C12 UNL     1      -4.026   5.697  12.530  1.00  0.00     0.014 A 
HETATM    8  C13 UNL     1      -3.566   6.761  11.820  1.00  0.00     0.023 A 
ENDROOT
BRANCH   6   9
HETATM    9  C6  UNL     1      -4.090   4.371  14.595  1.00  0.00    -0.026 A 
HETATM   10  C7  UNL     1      -5.448   4.306  14.884  1.00  0.00     0.014 A 
HETATM   11  C8  UNL     1      -5.976   3.244  15.600  1.00  0.00     0.026 A 
HETATM   12  C9  UNL     1      -5.171   2.214  16.050  1.00  0.00     0.079 A 
HETATM   13  C10 UNL     1      -3.827   2.287  15.758  1.00  0.00     0.026 A 
HETATM   14  C11 UNL     1      -3.280   3.349  15.039  1.00  0.00     0.014 A 
BRANCH  12  15
HETATM   15  S1  UNL     1      -5.888   0.895  16.952  1.00  0.00     0.256 S 
HETATM   16  O1  UNL     1      -5.376  -0.432  16.480  1.00  0.00    -0.201 OA
HETATM   17  O2  UNL     1      -5.460   1.101  18.399  1.00  0.00    -0.201 OA
BRANCH  15  18
HETATM   18  N2  UNL     1      -7.600   0.925  16.915  1.00  0.00    -0.324 N 
ATOM     19  H22 UNL     1      -8.130   1.471  16.236  1.00  0.00     0.169 HD
ATOM     20  H21 UNL     1      -8.018   0.341  17.640  1.00  0.00     0.169 HD
ENDBRANCH  15  18
ENDBRANCH  12  15
ENDBRANCH   6   9
TORSDOF 3
ENDMDL
