MODEL 5
REMARK VINA RESULT: -6.797155848      1.169      1.989
REMARK  3 active torsions:
REMARK  status: ('A' for Active; 'I' for Inactive)
REMARK    1  A    between atoms: N1_1  and  S1_4 
REMARK    2  A    between atoms: S1_4  and  C1_7 
REMARK    3  A    between atoms: C4_10  and  C5_11 
ROOT
HETATM    1  C1  UNL     1      -5.458   2.591  15.898  1.00  0.00     0.079 A 
HETATM    2  C2  UNL     1      -6.355   3.549  15.483  1.00  0.00     0.026 A 
HETATM    3  C3  UNL     1      -5.950   4.569  14.628  1.00  0.00     0.014 A 
HETATM    4  C4  UNL     1      -4.657   4.662  14.167  1.00  0.00    -0.025 A 
HETATM    5  C10 UNL     1      -3.757   3.704  14.581  1.00  0.00     0.014 A 
HETATM    6  C11 UNL     1      -4.163   2.685  15.436  1.00  0.00     0.026 A 
ENDROOT
BRANCH   4   7
HETATM    7  C5  UNL     1      -4.207   5.731  13.262  1.00  0.00    -0.011 A 
HETATM    8  C6  UNL     1      -4.887   6.031  12.103  1.00  0.00     0.015 A 
HETATM    9  C7  UNL     1      -4.437   7.040  11.279  1.00  0.00     0.018 A 
HETATM   10  C8  UNL     1      -3.298   7.743  11.629  1.00  0.00     0.087 A 
HETATM   11  N2  UNL     1      -2.664   7.419  12.769  1.00  0.00    -0.374 N 
HETATM   12  C9  UNL     1      -3.075   6.450  13.586  1.00  0.00     0.099 A 
ATOM     13  H2  UNL     1      -1.826   7.942  13.022  1.00  0.00     0.164 HD
ENDBRANCH   4   7
BRANCH   1  14
HETATM   14  S1  UNL     1      -5.919   1.282  16.978  1.00  0.00     0.256 S 
HETATM   15  O1  UNL     1      -4.789   0.295  17.064  1.00  0.00    -0.201 OA
HETATM   16  O2  UNL     1      -7.169   0.665  16.419  1.00  0.00    -0.201 OA
BRANCH  14  17
HETATM   17  N1  UNL     1      -6.289   1.918  18.556  1.00  0.00    -0.324 N 
ATOM     18  H12 UNL     1      -6.206   1.384  19.421  1.00  0.00     0.169 HD
ATOM     19  H11 UNL     1      -6.597   2.888  18.483  1.00  0.00     0.169 HD
ENDBRANCH  14  17
ENDBRANCH   1  14
TORSDOF 3
ENDMDL
