MODEL 3
REMARK VINA RESULT: -6.934561737      0.709      1.687
REMARK  3 active torsions:
REMARK  status: ('A' for Active; 'I' for Inactive)
REMARK    1  A    between atoms: N1_1  and  S1_4 
REMARK    2  A    between atoms: S1_4  and  C1_7 
REMARK    3  A    between atoms: C4_10  and  C5_11 
ROOT
HETATM    1  C1  UNL     1      -5.298   2.480  15.885  1.00  0.00     0.079 A 
HETATM    2  C2  UNL     1      -6.122   3.512  15.496  1.00  0.00     0.026 A 
HETATM    3  C3  UNL     1      -5.605   4.600  14.801  1.00  0.00     0.014 A 
HETATM    4  C4  UNL     1      -4.271   4.691  14.478  1.00  0.00    -0.025 A 
HETATM    5  C10 UNL     1      -3.444   3.659  14.866  1.00  0.00     0.014 A 
HETATM    6  C11 UNL     1      -3.961   2.571  15.560  1.00  0.00     0.026 A 
ENDROOT
BRANCH   4   7
HETATM    7  C5  UNL     1      -3.703   5.832  13.743  1.00  0.00    -0.011 A 
HETATM    8  C6  UNL     1      -4.053   6.099  12.439  1.00  0.00     0.015 A 
HETATM    9  C7  UNL     1      -3.502   7.178  11.782  1.00  0.00     0.018 A 
HETATM   10  C8  UNL     1      -2.595   7.984  12.446  1.00  0.00     0.087 A 
HETATM   11  N2  UNL     1      -2.280   7.689  13.719  1.00  0.00    -0.374 N 
HETATM   12  C9  UNL     1      -2.796   6.654  14.380  1.00  0.00     0.099 A 
ATOM     13  H2  UNL     1      -1.612   8.288  14.203  1.00  0.00     0.164 HD
ENDBRANCH   4   7
BRANCH   1  14
HETATM   14  S1  UNL     1      -5.901   1.081  16.765  1.00  0.00     0.256 S 
HETATM   15  O1  UNL     1      -5.432   1.158  18.190  1.00  0.00    -0.201 OA
HETATM   16  O2  UNL     1      -5.385  -0.142  16.062  1.00  0.00    -0.201 OA
BRANCH  14  17
HETATM   17  N1  UNL     1      -7.641   1.047  16.702  1.00  0.00    -0.324 N 
ATOM     18  H12 UNL     1      -8.218   0.384  17.220  1.00  0.00     0.169 HD
ATOM     19  H11 UNL     1      -7.987   1.777  16.079  1.00  0.00     0.169 HD
ENDBRANCH  14  17
ENDBRANCH   1  14
TORSDOF 3
ENDMDL
