MODEL 15
REMARK VINA RESULT: -6.460499105      3.974      6.611
REMARK  3 active torsions:
REMARK  status: ('A' for Active; 'I' for Inactive)
REMARK    1  A    between atoms: N1_1  and  S1_4 
REMARK    2  A    between atoms: S1_4  and  C1_7 
REMARK    3  A    between atoms: C4_10  and  C5_11 
ROOT
HETATM    1  C1  UNL     1      -2.805   5.591  13.872  1.00  0.00     0.079 A 
HETATM    2  C2  UNL     1      -4.174   5.709  13.951  1.00  0.00     0.026 A 
HETATM    3  C3  UNL     1      -4.929   4.727  14.584  1.00  0.00     0.014 A 
HETATM    4  C4  UNL     1      -4.351   3.613  15.147  1.00  0.00    -0.025 A 
HETATM    5  C10 UNL     1      -2.980   3.493  15.069  1.00  0.00     0.014 A 
HETATM    6  C11 UNL     1      -2.226   4.475  14.437  1.00  0.00     0.026 A 
ENDROOT
BRANCH   4   7
HETATM    7  C5  UNL     1      -5.130   2.563  15.821  1.00  0.00    -0.011 A 
HETATM    8  C6  UNL     1      -6.439   2.762  16.197  1.00  0.00     0.015 A 
HETATM    9  C7  UNL     1      -7.139   1.754  16.825  1.00  0.00     0.018 A 
HETATM   10  C8  UNL     1      -6.510   0.547  17.073  1.00  0.00     0.087 A 
HETATM   11  N2  UNL     1      -5.232   0.393  16.690  1.00  0.00    -0.374 N 
HETATM   12  C9  UNL     1      -4.530   1.347  16.080  1.00  0.00     0.099 A 
ATOM     13  H2  UNL     1      -4.775  -0.500  16.874  1.00  0.00     0.164 HD
ENDBRANCH   4   7
BRANCH   1  14
HETATM   14  S1  UNL     1      -1.805   6.805  13.085  1.00  0.00     0.256 S 
HETATM   15  O1  UNL     1      -0.625   6.129  12.445  1.00  0.00    -0.201 OA
HETATM   16  O2  UNL     1      -1.391   7.790  14.140  1.00  0.00    -0.201 OA
BRANCH  14  17
HETATM   17  N1  UNL     1      -2.739   7.656  11.887  1.00  0.00    -0.324 N 
ATOM     18  H12 UNL     1      -2.985   7.270  10.975  1.00  0.00     0.169 HD
ATOM     19  H11 UNL     1      -2.996   8.581  12.230  1.00  0.00     0.169 HD
ENDBRANCH  14  17
ENDBRANCH   1  14
TORSDOF 3
ENDMDL
