MODEL 2
REMARK VINA RESULT: -7.083386384      0.206      1.196
REMARK  3 active torsions:
REMARK  status: ('A' for Active; 'I' for Inactive)
REMARK    1  A    between atoms: N1_1  and  S1_4 
REMARK    2  A    between atoms: S1_4  and  C1_7 
REMARK    3  A    between atoms: C4_10  and  C5_11 
ROOT
HETATM    1  C1  UNL     1      -5.294   2.443  15.938  1.00  0.00     0.079 A 
HETATM    2  C2  UNL     1      -6.108   3.489  15.568  1.00  0.00     0.026 A 
HETATM    3  C3  UNL     1      -5.581   4.582  14.886  1.00  0.00     0.014 A 
HETATM    4  C4  UNL     1      -4.247   4.663  14.559  1.00  0.00    -0.025 A 
HETATM    5  C10 UNL     1      -3.431   3.617  14.929  1.00  0.00     0.014 A 
HETATM    6  C11 UNL     1      -3.957   2.524  15.610  1.00  0.00     0.026 A 
ENDROOT
BRANCH   4   7
HETATM    7  C5  UNL     1      -3.670   5.809  13.839  1.00  0.00    -0.011 A 
HETATM    8  C6  UNL     1      -2.728   6.628  14.420  1.00  0.00     0.015 A 
HETATM    9  C7  UNL     1      -2.208   7.692  13.715  1.00  0.00     0.018 A 
HETATM   10  C8  UNL     1      -2.644   7.926  12.423  1.00  0.00     0.087 A 
HETATM   11  N2  UNL     1      -3.564   7.102  11.893  1.00  0.00    -0.374 N 
HETATM   12  C9  UNL     1      -4.085   6.066  12.549  1.00  0.00     0.099 A 
ATOM     13  H2  UNL     1      -3.880   7.279  10.940  1.00  0.00     0.164 HD
ENDBRANCH   4   7
BRANCH   1  14
HETATM   14  S1  UNL     1      -5.909   1.038  16.800  1.00  0.00     0.256 S 
HETATM   15  O1  UNL     1      -5.435   1.090  18.225  1.00  0.00    -0.201 OA
HETATM   16  O2  UNL     1      -5.407  -0.180  16.078  1.00  0.00    -0.201 OA
BRANCH  14  17
HETATM   17  N1  UNL     1      -7.649   1.022  16.740  1.00  0.00    -0.324 N 
ATOM     18  H12 UNL     1      -8.194   0.414  16.129  1.00  0.00     0.169 HD
ATOM     19  H11 UNL     1      -8.032   1.702  17.397  1.00  0.00     0.169 HD
ENDBRANCH  14  17
ENDBRANCH   1  14
TORSDOF 3
ENDMDL
