MODEL 1
REMARK VINA RESULT: -7.096977256      0.000      0.000
REMARK  3 active torsions:
REMARK  status: ('A' for Active; 'I' for Inactive)
REMARK    1  A    between atoms: N1_1  and  S1_4 
REMARK    2  A    between atoms: S1_4  and  C1_7 
REMARK    3  A    between atoms: C4_10  and  C5_11 
ROOT
HETATM    1  C1  UNL     1      -5.223   2.233  15.972  1.00  0.00     0.079 A 
HETATM    2  C2  UNL     1      -3.874   2.319  15.709  1.00  0.00     0.026 A 
HETATM    3  C3  UNL     1      -3.360   3.418  15.028  1.00  0.00     0.014 A 
HETATM    4  C4  UNL     1      -4.163   4.448  14.596  1.00  0.00    -0.025 A 
HETATM    5  C10 UNL     1      -5.513   4.363  14.858  1.00  0.00     0.014 A 
HETATM    6  C11 UNL     1      -6.027   3.265  15.539  1.00  0.00     0.026 A 
ENDROOT
BRANCH   4   7
HETATM    7  C5  UNL     1      -3.641   5.619  13.875  1.00  0.00    -0.011 A 
HETATM    8  C6  UNL     1      -2.688   6.444  14.429  1.00  0.00     0.015 A 
HETATM    9  C7  UNL     1      -2.221   7.532  13.723  1.00  0.00     0.018 A 
HETATM   10  C8  UNL     1      -2.721   7.784  12.458  1.00  0.00     0.087 A 
HETATM   11  N2  UNL     1      -3.650   6.954  11.954  1.00  0.00    -0.374 N 
HETATM   12  C9  UNL     1      -4.120   5.895  12.610  1.00  0.00     0.099 A 
ATOM     13  H2  UNL     1      -4.013   7.145  11.020  1.00  0.00     0.164 HD
ENDBRANCH   4   7
BRANCH   1  14
HETATM   14  S1  UNL     1      -5.922   0.866  16.830  1.00  0.00     0.256 S 
HETATM   15  O1  UNL     1      -5.400   0.850  18.238  1.00  0.00    -0.201 OA
HETATM   16  O2  UNL     1      -5.545  -0.374  16.071  1.00  0.00    -0.201 OA
BRANCH  14  17
HETATM   17  N1  UNL     1      -7.659   0.992  16.829  1.00  0.00    -0.324 N 
ATOM     18  H12 UNL     1      -8.246   0.787  17.638  1.00  0.00     0.169 HD
ATOM     19  H11 UNL     1      -7.992   1.297  15.915  1.00  0.00     0.169 HD
ENDBRANCH  14  17
ENDBRANCH   1  14
TORSDOF 3
ENDMDL
