MODEL 12
REMARK VINA RESULT: -6.565643438      4.387      6.525
REMARK  3 active torsions:
REMARK  status: ('A' for Active; 'I' for Inactive)
REMARK    1  A    between atoms: N1_1  and  S1_4 
REMARK    2  A    between atoms: S1_4  and  C1_7 
REMARK    3  A    between atoms: C4_10  and  C5_11 
ROOT
HETATM    1  C1  UNL     1      -2.854   2.469  11.877  1.00  0.00     0.079 A 
HETATM    2  C2  UNL     1      -3.568   1.304  12.042  1.00  0.00     0.026 A 
HETATM    3  C3  UNL     1      -4.319   1.098  13.195  1.00  0.00     0.014 A 
HETATM    4  C4  UNL     1      -4.379   2.033  14.203  1.00  0.00    -0.025 A 
HETATM    5  C10 UNL     1      -3.665   3.199  14.039  1.00  0.00     0.014 A 
HETATM    6  C11 UNL     1      -2.914   3.405  12.887  1.00  0.00     0.026 A 
ENDROOT
BRANCH   4   7
HETATM    7  C5  UNL     1      -5.167   1.835  15.429  1.00  0.00    -0.011 A 
HETATM    8  C6  UNL     1      -6.067   2.779  15.870  1.00  0.00     0.015 A 
HETATM    9  C7  UNL     1      -6.790   2.559  17.024  1.00  0.00     0.018 A 
HETATM   10  C8  UNL     1      -6.597   1.386  17.730  1.00  0.00     0.087 A 
HETATM   11  N2  UNL     1      -5.709   0.490  17.265  1.00  0.00    -0.374 N 
HETATM   12  C9  UNL     1      -4.997   0.673  16.154  1.00  0.00     0.099 A 
ATOM     13  H2  UNL     1      -5.573  -0.373  17.790  1.00  0.00     0.164 HD
ENDBRANCH   4   7
BRANCH   1  14
HETATM   14  S1  UNL     1      -1.890   2.779  10.439  1.00  0.00     0.256 S 
HETATM   15  O1  UNL     1      -2.580   3.816   9.600  1.00  0.00    -0.201 OA
HETATM   16  O2  UNL     1      -1.739   1.471   9.716  1.00  0.00    -0.201 OA
BRANCH  14  17
HETATM   17  N1  UNL     1      -0.303   3.329  10.897  1.00  0.00    -0.324 N 
ATOM     18  H12 UNL     1      -0.123   3.981  11.661  1.00  0.00     0.169 HD
ATOM     19  H11 UNL     1       0.406   2.907  10.296  1.00  0.00     0.169 HD
ENDBRANCH  14  17
ENDBRANCH   1  14
TORSDOF 3
ENDMDL
