MODEL 4
REMARK VINA RESULT: -6.822230555      1.483      2.139
REMARK  3 active torsions:
REMARK  status: ('A' for Active; 'I' for Inactive)
REMARK    1  A    between atoms: N1_1  and  S1_4 
REMARK    2  A    between atoms: S1_4  and  C1_7 
REMARK    3  A    between atoms: C4_10  and  C5_11 
ROOT
HETATM    1  C1  UNL     1      -4.163   2.964  15.084  1.00  0.00     0.079 A 
HETATM    2  C2  UNL     1      -5.065   3.957  14.773  1.00  0.00     0.026 A 
HETATM    3  C3  UNL     1      -4.619   5.236  14.454  1.00  0.00     0.014 A 
HETATM    4  C4  UNL     1      -3.282   5.558  14.435  1.00  0.00    -0.025 A 
HETATM    5  C10 UNL     1      -2.378   4.565  14.746  1.00  0.00     0.014 A 
HETATM    6  C11 UNL     1      -2.823   3.287  15.065  1.00  0.00     0.026 A 
ENDROOT
BRANCH   4   7
HETATM    7  C5  UNL     1      -2.789   6.903  14.100  1.00  0.00    -0.011 A 
HETATM    8  C6  UNL     1      -2.374   7.784  15.072  1.00  0.00     0.015 A 
HETATM    9  C7  UNL     1      -1.917   9.036  14.721  1.00  0.00     0.018 A 
HETATM   10  C8  UNL     1      -1.884   9.395  13.385  1.00  0.00     0.087 A 
HETATM   11  N2  UNL     1      -2.298   8.505  12.468  1.00  0.00    -0.374 N 
HETATM   12  C9  UNL     1      -2.744   7.288  12.776  1.00  0.00     0.099 A 
ATOM     13  H2  UNL     1      -2.269   8.775  11.485  1.00  0.00     0.164 HD
ENDBRANCH   4   7
BRANCH   1  14
HETATM   14  S1  UNL     1      -4.674   1.332  15.494  1.00  0.00     0.256 S 
HETATM   15  O1  UNL     1      -3.637   0.701  16.380  1.00  0.00    -0.201 OA
HETATM   16  O2  UNL     1      -4.847   0.584  14.203  1.00  0.00    -0.201 OA
BRANCH  14  17
HETATM   17  N1  UNL     1      -6.215   1.378  16.303  1.00  0.00    -0.324 N 
ATOM     18  H12 UNL     1      -7.040   0.867  15.989  1.00  0.00     0.169 HD
ATOM     19  H11 UNL     1      -6.167   1.984  17.122  1.00  0.00     0.169 HD
ENDBRANCH  14  17
ENDBRANCH   1  14
TORSDOF 3
ENDMDL
