MODEL 10
REMARK VINA RESULT: -6.595319191      4.363      6.538
REMARK  3 active torsions:
REMARK  status: ('A' for Active; 'I' for Inactive)
REMARK    1  A    between atoms: N1_1  and  S1_4 
REMARK    2  A    between atoms: S1_4  and  C1_7 
REMARK    3  A    between atoms: C4_10  and  C5_11 
ROOT
HETATM    1  C1  UNL     1      -2.799   2.552  11.883  1.00  0.00     0.079 A 
HETATM    2  C2  UNL     1      -2.864   3.510  12.870  1.00  0.00     0.026 A 
HETATM    3  C3  UNL     1      -3.628   3.291  14.013  1.00  0.00     0.014 A 
HETATM    4  C4  UNL     1      -4.337   2.128  14.203  1.00  0.00    -0.025 A 
HETATM    5  C10 UNL     1      -4.273   1.168  13.217  1.00  0.00     0.014 A 
HETATM    6  C11 UNL     1      -3.510   1.387  12.075  1.00  0.00     0.026 A 
ENDROOT
BRANCH   4   7
HETATM    7  C5  UNL     1      -5.150   1.876  15.403  1.00  0.00    -0.011 A 
HETATM    8  C6  UNL     1      -6.073   2.791  15.857  1.00  0.00     0.015 A 
HETATM    9  C7  UNL     1      -6.818   2.520  16.985  1.00  0.00     0.018 A 
HETATM   10  C8  UNL     1      -6.625   1.323  17.652  1.00  0.00     0.087 A 
HETATM   11  N2  UNL     1      -5.715   0.457  17.175  1.00  0.00    -0.374 N 
HETATM   12  C9  UNL     1      -4.981   0.690  16.088  1.00  0.00     0.099 A 
ATOM     13  H2  UNL     1      -5.579  -0.423  17.671  1.00  0.00     0.164 HD
ENDBRANCH   4   7
BRANCH   1  14
HETATM   14  S1  UNL     1      -1.848   2.779  10.421  1.00  0.00     0.256 S 
HETATM   15  O1  UNL     1      -2.518   3.808   9.555  1.00  0.00    -0.201 OA
HETATM   16  O2  UNL     1      -1.752   1.442   9.743  1.00  0.00    -0.201 OA
BRANCH  14  17
HETATM   17  N1  UNL     1      -0.237   3.292  10.835  1.00  0.00    -0.324 N 
ATOM     18  H12 UNL     1       0.133   3.299  11.786  1.00  0.00     0.169 HD
ATOM     19  H11 UNL     1       0.270   3.579   9.997  1.00  0.00     0.169 HD
ENDBRANCH  14  17
ENDBRANCH   1  14
TORSDOF 3
ENDMDL
