MODEL 11
REMARK VINA RESULT: -10.091958154      1.553      3.439
REMARK  11 active torsions:
REMARK  status: ('A' for Active; 'I' for Inactive)
REMARK    1  A    between atoms: O1_2  and  C2_3 
REMARK    2  A    between atoms: C4_5  and  O2_6 
REMARK    3  A    between atoms: O2_6  and  C5_7 
REMARK    4  A    between atoms: C5_7  and  C6_8 
REMARK    5  A    between atoms: C10_12  and  C11_13 
REMARK    6  A    between atoms: C20_22  and  O3_23 
REMARK    7  A    between atoms: C22_25  and  C23_26 
REMARK    8  A    between atoms: C23_26  and  N1_27 
REMARK    9  A    between atoms: N1_27  and  C24_30 
REMARK   10  A    between atoms: C24_30  and  C25_31 
REMARK   11  A    between atoms: C25_31  and  N2_32 
REMARK       I    between atoms: N2_32  and  C26_34 
ROOT
HETATM    1  C2  UNL     1      -1.585  12.779 -24.684  1.00  0.00     0.081 A 
HETATM    2  C3  UNL     1      -2.834  12.882 -24.080  1.00  0.00     0.074 A 
HETATM    3  C4  UNL     1      -3.428  11.801 -23.473  1.00  0.00     0.074 A 
HETATM    4  C19 UNL     1      -2.722  10.584 -23.496  1.00  0.00     0.074 A 
HETATM    5  C20 UNL     1      -1.503  10.459 -24.086  1.00  0.00     0.081 A 
HETATM    6  C22 UNL     1      -0.921  11.584 -24.692  1.00  0.00     0.034 A 
ENDROOT
BRANCH   3   7
HETATM    7  O2  UNL     1      -4.618  11.860 -22.878  1.00  0.00    -0.346 OA
BRANCH   7   8
HETATM    8  C5  UNL     1      -5.668  12.571 -22.502  1.00  0.00     0.215 C 
BRANCH   8   9
HETATM    9  C6  UNL     1      -6.685  11.638 -21.881  1.00  0.00    -0.027 A 
HETATM   10  C7  UNL     1      -6.254  10.639 -21.074  1.00  0.00     0.010 A 
HETATM   11  C8  UNL     1      -7.154   9.779 -20.471  1.00  0.00     0.002 A 
HETATM   12  C9  UNL     1      -8.510   9.973 -20.718  1.00  0.00     0.013 A 
HETATM   13  C10 UNL     1      -8.956  10.985 -21.538  1.00  0.00    -0.019 A 
HETATM   14  C17 UNL     1      -8.027  11.827 -22.124  1.00  0.00    -0.043 A 
HETATM   15  C18 UNL     1      -8.465  12.949 -22.992  1.00  0.00     0.049 C 
BRANCH  13  16
HETATM   16  C11 UNL     1     -10.381  11.101 -21.811  1.00  0.00    -0.025 A 
HETATM   17  C12 UNL     1     -10.857  10.506 -22.978  1.00  0.00     0.012 A 
HETATM   18  C13 UNL     1     -12.186  10.565 -23.366  1.00  0.00     0.001 A 
HETATM   19  C14 UNL     1     -13.094  11.242 -22.566  1.00  0.00     0.000 A 
HETATM   20  C15 UNL     1     -12.616  11.825 -21.417  1.00  0.00     0.001 A 
HETATM   21  C16 UNL     1     -11.285  11.766 -21.028  1.00  0.00     0.012 A 
ENDBRANCH  13  16
ENDBRANCH   8   9
ENDBRANCH   7   8
ENDBRANCH   3   7
BRANCH   1  22
HETATM   22  O1  UNL     1      -1.014  13.883 -25.269  1.00  0.00    -0.355 OA
HETATM   23  C1  UNL     1      -1.750  15.076 -25.395  1.00  0.00     0.210 C 
ENDBRANCH   1  22
BRANCH   5  24
HETATM   24  O3  UNL     1      -0.832   9.288 -24.118  1.00  0.00    -0.355 OA
HETATM   25  C21 UNL     1      -1.237   8.032 -24.551  1.00  0.00     0.210 C 
ENDBRANCH   5  24
BRANCH   6  26
HETATM   26  C23 UNL     1       0.343  11.348 -25.366  1.00  0.00     0.276 C 
BRANCH  26  27
HETATM   27  N1  UNL     1       0.291  11.439 -26.812  1.00  0.00    -0.070 N 
ATOM     28  H12 UNL     1      -0.565  11.890 -27.135  1.00  0.00     0.277 HD
ATOM     29  H11 UNL     1       0.963  12.115 -27.175  1.00  0.00     0.277 HD
BRANCH  27  30
HETATM   30  C24 UNL     1       0.475  10.083 -27.424  1.00  0.00     0.252 C 
BRANCH  30  31
HETATM   31  C25 UNL     1      -0.227  10.221 -28.774  1.00  0.00     0.150 C 
BRANCH  31  32
HETATM   32  N2  UNL     1       0.534  10.754 -29.841  1.00  0.00    -0.360 N 
HETATM   33  C26 UNL     1       0.473  12.150 -30.137  1.00  0.00     0.213 C 
HETATM   34  C27 UNL     1       1.270  12.679 -31.272  1.00  0.00     0.117 C 
HETATM   35  O4  UNL     1      -0.240  12.967 -29.470  1.00  0.00    -0.274 OA
ATOM     36  H2  UNL     1       1.128  10.140 -30.399  1.00  0.00     0.162 HD
ENDBRANCH  31  32
ENDBRANCH  30  31
ENDBRANCH  27  30
ENDBRANCH  26  27
ENDBRANCH   6  26
TORSDOF 11
ENDMDL
