MODEL 12
REMARK VINA RESULT: -10.086894100      1.536      2.228
REMARK  11 active torsions:
REMARK  status: ('A' for Active; 'I' for Inactive)
REMARK    1  A    between atoms: O1_2  and  C2_3 
REMARK    2  A    between atoms: C4_5  and  O2_6 
REMARK    3  A    between atoms: O2_6  and  C5_7 
REMARK    4  A    between atoms: C5_7  and  C6_8 
REMARK    5  A    between atoms: C10_12  and  C11_13 
REMARK    6  A    between atoms: C20_22  and  O3_23 
REMARK    7  A    between atoms: C22_25  and  C23_26 
REMARK    8  A    between atoms: C23_26  and  N1_27 
REMARK    9  A    between atoms: N1_27  and  C24_30 
REMARK   10  A    between atoms: C24_30  and  C25_31 
REMARK   11  A    between atoms: C25_31  and  N2_32 
REMARK       I    between atoms: N2_32  and  C26_34 
ROOT
HETATM    1  C2  UNL     1      -1.539  10.587 -24.264  1.00  0.00     0.081 A 
HETATM    2  C3  UNL     1      -2.740  10.607 -23.562  1.00  0.00     0.074 A 
HETATM    3  C4  UNL     1      -3.463  11.766 -23.410  1.00  0.00     0.074 A 
HETATM    4  C19 UNL     1      -2.932  12.934 -23.988  1.00  0.00     0.074 A 
HETATM    5  C20 UNL     1      -1.757  12.939 -24.674  1.00  0.00     0.081 A 
HETATM    6  C22 UNL     1      -1.046  11.736 -24.815  1.00  0.00     0.034 A 
ENDROOT
BRANCH   3   7
HETATM    7  O2  UNL     1      -4.619  11.825 -22.753  1.00  0.00    -0.346 OA
BRANCH   7   8
HETATM    8  C5  UNL     1      -5.648  12.536 -22.321  1.00  0.00     0.215 C 
BRANCH   8   9
HETATM    9  C6  UNL     1      -6.698  11.588 -21.783  1.00  0.00    -0.027 A 
HETATM   10  C7  UNL     1      -6.315  10.580 -20.962  1.00  0.00     0.010 A 
HETATM   11  C8  UNL     1      -7.248   9.706 -20.434  1.00  0.00     0.002 A 
HETATM   12  C9  UNL     1      -8.585   9.894 -20.770  1.00  0.00     0.013 A 
HETATM   13  C10 UNL     1      -8.982  10.915 -21.604  1.00  0.00    -0.019 A 
HETATM   14  C17 UNL     1      -8.021  11.771 -22.115  1.00  0.00    -0.043 A 
HETATM   15  C18 UNL     1      -8.408  12.902 -22.995  1.00  0.00     0.049 C 
BRANCH  13  16
HETATM   16  C11 UNL     1     -10.386  11.026 -21.972  1.00  0.00    -0.025 A 
HETATM   17  C12 UNL     1     -11.213  11.754 -21.119  1.00  0.00     0.012 A 
HETATM   18  C13 UNL     1     -12.572  11.914 -21.341  1.00  0.00     0.001 A 
HETATM   19  C14 UNL     1     -13.147  11.329 -22.459  1.00  0.00     0.000 A 
HETATM   20  C15 UNL     1     -12.324  10.613 -23.295  1.00  0.00     0.001 A 
HETATM   21  C16 UNL     1     -10.963  10.453 -23.073  1.00  0.00     0.012 A 
ENDBRANCH  13  16
ENDBRANCH   8   9
ENDBRANCH   7   8
ENDBRANCH   3   7
BRANCH   1  22
HETATM   22  O1  UNL     1      -0.850   9.408 -24.409  1.00  0.00    -0.355 OA
HETATM   23  C1  UNL     1      -1.346   8.224 -23.831  1.00  0.00     0.210 C 
ENDBRANCH   1  22
BRANCH   5  24
HETATM   24  O3  UNL     1      -1.243  14.062 -25.218  1.00  0.00    -0.355 OA
HETATM   25  C21 UNL     1      -1.842  15.287 -25.487  1.00  0.00     0.210 C 
ENDBRANCH   5  24
BRANCH   6  26
HETATM   26  C23 UNL     1       0.234  11.843 -25.492  1.00  0.00     0.276 C 
BRANCH  26  27
HETATM   27  N1  UNL     1       0.318  11.140 -26.757  1.00  0.00    -0.070 N 
ATOM     28  H12 UNL     1       0.783  10.237 -26.661  1.00  0.00     0.277 HD
ATOM     29  H11 UNL     1      -0.594  10.807 -27.068  1.00  0.00     0.277 HD
BRANCH  27  30
HETATM   30  C24 UNL     1       0.980  12.004 -27.787  1.00  0.00     0.252 C 
BRANCH  30  31
HETATM   31  C25 UNL     1       2.106  11.110 -28.307  1.00  0.00     0.150 C 
BRANCH  31  32
HETATM   32  N2  UNL     1       3.362  11.221 -27.665  1.00  0.00    -0.360 N 
HETATM   33  C26 UNL     1       3.674  10.380 -26.554  1.00  0.00     0.213 C 
HETATM   34  C27 UNL     1       4.993  10.528 -25.889  1.00  0.00     0.117 C 
HETATM   35  O4  UNL     1       2.869   9.504 -26.102  1.00  0.00    -0.274 OA
ATOM     36  H2  UNL     1       4.044  11.903 -27.996  1.00  0.00     0.162 HD
ENDBRANCH  31  32
ENDBRANCH  30  31
ENDBRANCH  27  30
ENDBRANCH  26  27
ENDBRANCH   6  26
TORSDOF 11
ENDMDL
