MODEL 10
REMARK VINA RESULT: -10.135924633      1.505      2.434
REMARK  11 active torsions:
REMARK  status: ('A' for Active; 'I' for Inactive)
REMARK    1  A    between atoms: O1_2  and  C2_3 
REMARK    2  A    between atoms: C4_5  and  O2_6 
REMARK    3  A    between atoms: O2_6  and  C5_7 
REMARK    4  A    between atoms: C5_7  and  C6_8 
REMARK    5  A    between atoms: C10_12  and  C11_13 
REMARK    6  A    between atoms: C20_22  and  O3_23 
REMARK    7  A    between atoms: C22_25  and  C23_26 
REMARK    8  A    between atoms: C23_26  and  N1_27 
REMARK    9  A    between atoms: N1_27  and  C24_30 
REMARK   10  A    between atoms: C24_30  and  C25_31 
REMARK   11  A    between atoms: C25_31  and  N2_32 
REMARK       I    between atoms: N2_32  and  C26_34 
ROOT
HETATM    1  C2  UNL     1      -1.430  10.746 -24.230  1.00  0.00     0.081 A 
HETATM    2  C3  UNL     1      -2.656  10.749 -23.574  1.00  0.00     0.074 A 
HETATM    3  C4  UNL     1      -3.422  11.887 -23.488  1.00  0.00     0.074 A 
HETATM    4  C19 UNL     1      -2.907  13.052 -24.087  1.00  0.00     0.074 A 
HETATM    5  C20 UNL     1      -1.708  13.074 -24.729  1.00  0.00     0.081 A 
HETATM    6  C22 UNL     1      -0.954  11.892 -24.802  1.00  0.00     0.034 A 
ENDROOT
BRANCH   3   7
HETATM    7  O2  UNL     1      -4.604  11.929 -22.877  1.00  0.00    -0.346 OA
BRANCH   7   8
HETATM    8  C5  UNL     1      -5.633  12.633 -22.436  1.00  0.00     0.215 C 
BRANCH   8   9
HETATM    9  C6  UNL     1      -6.663  11.681 -21.868  1.00  0.00    -0.027 A 
HETATM   10  C7  UNL     1      -6.255  10.692 -21.035  1.00  0.00     0.010 A 
HETATM   11  C8  UNL     1      -7.169   9.815 -20.479  1.00  0.00     0.002 A 
HETATM   12  C9  UNL     1      -8.513   9.979 -20.801  1.00  0.00     0.013 A 
HETATM   13  C10 UNL     1      -8.934  10.980 -21.647  1.00  0.00    -0.019 A 
HETATM   14  C17 UNL     1      -7.993  11.840 -22.185  1.00  0.00    -0.043 A 
HETATM   15  C18 UNL     1      -8.406  12.950 -23.080  1.00  0.00     0.049 C 
BRANCH  13  16
HETATM   16  C11 UNL     1     -10.345  11.065 -21.998  1.00  0.00    -0.025 A 
HETATM   17  C12 UNL     1     -11.183  11.737 -21.110  1.00  0.00     0.012 A 
HETATM   18  C13 UNL     1     -12.548  11.867 -21.314  1.00  0.00     0.001 A 
HETATM   19  C14 UNL     1     -13.118  11.308 -22.449  1.00  0.00     0.000 A 
HETATM   20  C15 UNL     1     -12.283  10.648 -23.318  1.00  0.00     0.001 A 
HETATM   21  C16 UNL     1     -10.917  10.518 -23.115  1.00  0.00     0.012 A 
ENDBRANCH  13  16
ENDBRANCH   8   9
ENDBRANCH   7   8
ENDBRANCH   3   7
BRANCH   1  22
HETATM   22  O1  UNL     1      -0.698   9.586 -24.309  1.00  0.00    -0.355 OA
HETATM   23  C1  UNL     1      -1.117   8.437 -23.612  1.00  0.00     0.210 C 
ENDBRANCH   1  22
BRANCH   5  24
HETATM   24  O3  UNL     1      -1.210  14.195 -25.292  1.00  0.00    -0.355 OA
HETATM   25  C21 UNL     1      -1.695  15.497 -25.283  1.00  0.00     0.210 C 
ENDBRANCH   5  24
BRANCH   6  26
HETATM   26  C23 UNL     1       0.347  12.019 -25.434  1.00  0.00     0.276 C 
BRANCH  26  27
HETATM   27  N1  UNL     1       0.331  11.962 -26.883  1.00  0.00    -0.070 N 
ATOM     28  H12 UNL     1      -0.557  12.285 -27.267  1.00  0.00     0.277 HD
ATOM     29  H11 UNL     1       0.941  12.666 -27.298  1.00  0.00     0.277 HD
BRANCH  27  30
HETATM   30  C24 UNL     1       0.673  10.580 -27.350  1.00  0.00     0.252 C 
BRANCH  30  31
HETATM   31  C25 UNL     1      -0.078  10.474 -28.677  1.00  0.00     0.150 C 
BRANCH  31  32
HETATM   32  N2  UNL     1       0.602  10.914 -29.836  1.00  0.00    -0.360 N 
HETATM   33  C26 UNL     1       0.461  12.264 -30.281  1.00  0.00     0.213 C 
HETATM   34  C27 UNL     1       1.173  12.694 -31.510  1.00  0.00     0.117 C 
HETATM   35  O4  UNL     1      -0.255  13.121 -29.671  1.00  0.00    -0.274 OA
ATOM     36  H2  UNL     1       1.195  10.265 -30.355  1.00  0.00     0.162 HD
ENDBRANCH  31  32
ENDBRANCH  30  31
ENDBRANCH  27  30
ENDBRANCH  26  27
ENDBRANCH   6  26
TORSDOF 11
ENDMDL
