MODEL 6
REMARK VINA RESULT: -10.249376334      1.556      3.025
REMARK  11 active torsions:
REMARK  status: ('A' for Active; 'I' for Inactive)
REMARK    1  A    between atoms: O1_2  and  C2_3 
REMARK    2  A    between atoms: C4_5  and  O2_6 
REMARK    3  A    between atoms: O2_6  and  C5_7 
REMARK    4  A    between atoms: C5_7  and  C6_8 
REMARK    5  A    between atoms: C10_12  and  C11_13 
REMARK    6  A    between atoms: C20_22  and  O3_23 
REMARK    7  A    between atoms: C22_25  and  C23_26 
REMARK    8  A    between atoms: C23_26  and  N1_27 
REMARK    9  A    between atoms: N1_27  and  C24_30 
REMARK   10  A    between atoms: C24_30  and  C25_31 
REMARK   11  A    between atoms: C25_31  and  N2_32 
REMARK       I    between atoms: N2_32  and  C26_34 
ROOT
HETATM    1  C2  UNL     1      -1.469  10.540 -24.200  1.00  0.00     0.081 A 
HETATM    2  C3  UNL     1      -2.684  10.569 -23.524  1.00  0.00     0.074 A 
HETATM    3  C4  UNL     1      -3.420  11.726 -23.420  1.00  0.00     0.074 A 
HETATM    4  C19 UNL     1      -2.887  12.881 -24.021  1.00  0.00     0.074 A 
HETATM    5  C20 UNL     1      -1.698  12.877 -24.682  1.00  0.00     0.081 A 
HETATM    6  C22 UNL     1      -0.974  11.678 -24.773  1.00  0.00     0.034 A 
ENDROOT
BRANCH   3   7
HETATM    7  O2  UNL     1      -4.591  11.792 -22.790  1.00  0.00    -0.346 OA
BRANCH   7   8
HETATM    8  C5  UNL     1      -5.601  12.518 -22.339  1.00  0.00     0.215 C 
BRANCH   8   9
HETATM    9  C6  UNL     1      -6.658  11.585 -21.788  1.00  0.00    -0.027 A 
HETATM   10  C7  UNL     1      -6.283  10.586 -20.953  1.00  0.00     0.010 A 
HETATM   11  C8  UNL     1      -7.223   9.726 -20.413  1.00  0.00     0.002 A 
HETATM   12  C9  UNL     1      -8.558   9.919 -20.754  1.00  0.00     0.013 A 
HETATM   13  C10 UNL     1      -8.946  10.931 -21.603  1.00  0.00    -0.019 A 
HETATM   14  C17 UNL     1      -7.980  11.772 -22.124  1.00  0.00    -0.043 A 
HETATM   15  C18 UNL     1      -8.358  12.894 -23.021  1.00  0.00     0.049 C 
BRANCH  13  16
HETATM   16  C11 UNL     1     -10.350  11.045 -21.974  1.00  0.00    -0.025 A 
HETATM   17  C12 UNL     1     -11.186  11.736 -21.099  1.00  0.00     0.012 A 
HETATM   18  C13 UNL     1     -12.545  11.895 -21.323  1.00  0.00     0.001 A 
HETATM   19  C14 UNL     1     -13.110  11.348 -22.465  1.00  0.00     0.000 A 
HETATM   20  C15 UNL     1     -12.278  10.669 -23.321  1.00  0.00     0.001 A 
HETATM   21  C16 UNL     1     -10.917  10.510 -23.098  1.00  0.00     0.012 A 
ENDBRANCH  13  16
ENDBRANCH   8   9
ENDBRANCH   7   8
ENDBRANCH   3   7
BRANCH   1  22
HETATM   22  O1  UNL     1      -0.766   9.364 -24.296  1.00  0.00    -0.355 OA
HETATM   23  C1  UNL     1      -1.304   8.175 -23.768  1.00  0.00     0.210 C 
ENDBRANCH   1  22
BRANCH   5  24
HETATM   24  O3  UNL     1      -1.182  13.989 -25.247  1.00  0.00    -0.355 OA
HETATM   25  C21 UNL     1      -1.750  15.241 -25.448  1.00  0.00     0.210 C 
ENDBRANCH   5  24
BRANCH   6  26
HETATM   26  C23 UNL     1       0.319  11.777 -25.425  1.00  0.00     0.276 C 
BRANCH  26  27
HETATM   27  N1  UNL     1       0.267  11.975 -26.860  1.00  0.00    -0.070 N 
ATOM     28  H12 UNL     1      -0.305  12.781 -27.113  1.00  0.00     0.277 HD
ATOM     29  H11 UNL     1       1.159  12.300 -27.233  1.00  0.00     0.277 HD
BRANCH  27  30
HETATM   30  C24 UNL     1      -0.200  10.723 -27.539  1.00  0.00     0.252 C 
BRANCH  30  31
HETATM   31  C25 UNL     1       1.014   9.802 -27.426  1.00  0.00     0.150 C 
BRANCH  31  32
HETATM   32  N2  UNL     1       0.822   8.564 -26.770  1.00  0.00    -0.360 N 
HETATM   33  C26 UNL     1       1.908   7.940 -26.083  1.00  0.00     0.213 C 
HETATM   34  C27 UNL     1       1.682   6.634 -25.417  1.00  0.00     0.117 C 
HETATM   35  O4  UNL     1       3.071   8.455 -26.018  1.00  0.00    -0.274 OA
ATOM     36  H2  UNL     1      -0.095   8.116 -26.787  1.00  0.00     0.162 HD
ENDBRANCH  31  32
ENDBRANCH  30  31
ENDBRANCH  27  30
ENDBRANCH  26  27
ENDBRANCH   6  26
TORSDOF 11
ENDMDL
