MODEL 9
REMARK VINA RESULT: -10.157096706      1.694      3.998
REMARK  11 active torsions:
REMARK  status: ('A' for Active; 'I' for Inactive)
REMARK    1  A    between atoms: O1_2  and  C2_3 
REMARK    2  A    between atoms: C4_5  and  O2_6 
REMARK    3  A    between atoms: O2_6  and  C5_7 
REMARK    4  A    between atoms: C5_7  and  C6_8 
REMARK    5  A    between atoms: C10_12  and  C11_13 
REMARK    6  A    between atoms: C20_22  and  O3_23 
REMARK    7  A    between atoms: C22_25  and  C23_26 
REMARK    8  A    between atoms: C23_26  and  N1_27 
REMARK    9  A    between atoms: N1_27  and  C24_30 
REMARK   10  A    between atoms: C24_30  and  C25_31 
REMARK   11  A    between atoms: C25_31  and  N2_32 
REMARK       I    between atoms: N2_32  and  C26_34 
ROOT
HETATM    1  C2  UNL     1      -1.566  12.565 -24.777  1.00  0.00     0.081 A 
HETATM    2  C3  UNL     1      -2.779  12.726 -24.115  1.00  0.00     0.074 A 
HETATM    3  C4  UNL     1      -3.391  11.676 -23.473  1.00  0.00     0.074 A 
HETATM    4  C19 UNL     1      -2.741  10.429 -23.521  1.00  0.00     0.074 A 
HETATM    5  C20 UNL     1      -1.558  10.247 -24.167  1.00  0.00     0.081 A 
HETATM    6  C22 UNL     1      -0.957  11.343 -24.808  1.00  0.00     0.034 A 
ENDROOT
BRANCH   3   7
HETATM    7  O2  UNL     1      -4.546  11.791 -22.822  1.00  0.00    -0.346 OA
BRANCH   7   8
HETATM    8  C5  UNL     1      -5.606  12.515 -22.505  1.00  0.00     0.215 C 
BRANCH   8   9
HETATM    9  C6  UNL     1      -6.641  11.608 -21.874  1.00  0.00    -0.027 A 
HETATM   10  C7  UNL     1      -6.229  10.616 -21.048  1.00  0.00     0.010 A 
HETATM   11  C8  UNL     1      -7.146   9.780 -20.437  1.00  0.00     0.002 A 
HETATM   12  C9  UNL     1      -8.497   9.988 -20.696  1.00  0.00     0.013 A 
HETATM   13  C10 UNL     1      -8.923  10.993 -21.536  1.00  0.00    -0.019 A 
HETATM   14  C17 UNL     1      -7.978  11.811 -22.130  1.00  0.00    -0.043 A 
HETATM   15  C18 UNL     1      -8.395  12.924 -23.019  1.00  0.00     0.049 C 
BRANCH  13  16
HETATM   16  C11 UNL     1     -10.344  11.124 -21.820  1.00  0.00    -0.025 A 
HETATM   17  C12 UNL     1     -10.822  10.515 -22.979  1.00  0.00     0.012 A 
HETATM   18  C13 UNL     1     -12.147  10.585 -23.377  1.00  0.00     0.001 A 
HETATM   19  C14 UNL     1     -13.051  11.290 -22.595  1.00  0.00     0.000 A 
HETATM   20  C15 UNL     1     -12.571  11.888 -21.454  1.00  0.00     0.001 A 
HETATM   21  C16 UNL     1     -11.244  11.817 -21.055  1.00  0.00     0.012 A 
ENDBRANCH  13  16
ENDBRANCH   8   9
ENDBRANCH   7   8
ENDBRANCH   3   7
BRANCH   1  22
HETATM   22  O1  UNL     1      -0.975  13.640 -25.396  1.00  0.00    -0.355 OA
HETATM   23  C1  UNL     1      -1.514  14.931 -25.236  1.00  0.00     0.210 C 
ENDBRANCH   1  22
BRANCH   5  24
HETATM   24  O3  UNL     1      -0.941   9.048 -24.222  1.00  0.00    -0.355 OA
HETATM   25  C21 UNL     1      -1.399   7.785 -23.866  1.00  0.00     0.210 C 
ENDBRANCH   5  24
BRANCH   6  26
HETATM   26  C23 UNL     1       0.262  11.047 -25.540  1.00  0.00     0.276 C 
BRANCH  26  27
HETATM   27  N1  UNL     1       0.168  11.213 -26.977  1.00  0.00    -0.070 N 
ATOM     28  H12 UNL     1      -0.248  12.110 -27.230  1.00  0.00     0.277 HD
ATOM     29  H11 UNL     1       1.084  11.346 -27.406  1.00  0.00     0.277 HD
BRANCH  27  30
HETATM   30  C24 UNL     1      -0.573  10.061 -27.584  1.00  0.00     0.252 C 
BRANCH  30  31
HETATM   31  C25 UNL     1       0.532   9.032 -27.820  1.00  0.00     0.150 C 
BRANCH  31  32
HETATM   32  N2  UNL     1       0.566   7.916 -26.950  1.00  0.00    -0.360 N 
HETATM   33  C26 UNL     1       1.702   7.695 -26.113  1.00  0.00     0.213 C 
HETATM   34  C27 UNL     1       1.718   6.508 -25.223  1.00  0.00     0.117 C 
HETATM   35  O4  UNL     1       2.710   8.472 -26.097  1.00  0.00    -0.274 OA
ATOM     36  H2  UNL     1      -0.222   7.269 -26.922  1.00  0.00     0.162 HD
ENDBRANCH  31  32
ENDBRANCH  30  31
ENDBRANCH  27  30
ENDBRANCH  26  27
ENDBRANCH   6  26
TORSDOF 11
ENDMDL
