MODEL 8
REMARK VINA RESULT: -8.272057347      3.180      9.462
REMARK  14 active torsions:
REMARK  status: ('A' for Active; 'I' for Inactive)
REMARK    1  A    between atoms: C2_2  and  C4_4 
REMARK    2  A    between atoms: C4_4  and  C5_5 
REMARK    3  A    between atoms: C5_5  and  N1_6 
REMARK    4  A    between atoms: C5_5  and  C15_24 
REMARK    5  A    between atoms: N1_6  and  P1_8 
REMARK    6  A    between atoms: P1_8  and  C6_11 
REMARK    7  A    between atoms: C6_11  and  N2_12 
REMARK       I    between atoms: N2_12  and  C7_14 
REMARK    8  A    between atoms: C7_14  and  O4_16 
REMARK    9  A    between atoms: O4_16  and  C8_17 
REMARK   10  A    between atoms: C8_17  and  C9_18 
REMARK       I    between atoms: C15_24  and  N3_26 
REMARK   11  A    between atoms: N3_26  and  C16_28 
REMARK   12  A    between atoms: C16_28  and  C17_29 
REMARK   13  A    between atoms: C17_29  and  C18_30 
REMARK   14  A    between atoms: C18_30  and  N4_31 
ROOT
HETATM    1  N1  UNL     1      13.695  42.295  -7.935  1.00  0.00    -0.309 N 
ATOM      2  H1  UNL     1      14.249  42.561  -7.122  1.00  0.00     0.170 HD
ENDROOT
BRANCH   1   3
HETATM    3  C5  UNL     1      14.176  42.488  -9.262  1.00  0.00     0.082 C 
BRANCH   3   4
HETATM    4  C4  UNL     1      15.069  43.634  -9.462  1.00  0.00     0.067 C 
BRANCH   4   5
HETATM    5  C2  UNL     1      16.383  43.655  -8.776  1.00  0.00    -0.017 C 
HETATM    6  C1  UNL     1      16.462  45.010  -8.027  1.00  0.00     0.010 C 
HETATM    7  C3  UNL     1      17.611  43.630  -9.629  1.00  0.00     0.010 C 
ENDBRANCH   4   5
ENDBRANCH   3   4
BRANCH   3   8
HETATM    8  C15 UNL     1      14.544  41.221  -9.885  1.00  0.00     0.267 C 
HETATM    9  O5  UNL     1      15.567  40.545  -9.563  1.00  0.00    -0.266 OA
HETATM   10  N3  UNL     1      13.729  40.629 -10.936  1.00  0.00    -0.336 N 
ATOM     11  H3  UNL     1      12.892  41.112 -11.260  1.00  0.00     0.168 HD
BRANCH  10  12
HETATM   12  C16 UNL     1      14.088  39.394 -11.509  1.00  0.00     0.066 C 
BRANCH  12  13
HETATM   13  C17 UNL     1      13.443  38.144 -11.068  1.00  0.00     0.072 C 
BRANCH  13  14
HETATM   14  C18 UNL     1      14.022  37.436  -9.903  1.00  0.00     0.234 C 
BRANCH  14  15
HETATM   15  N4  UNL     1      13.857  38.039  -8.614  1.00  0.00    -0.079 N 
ATOM     16  H43 UNL     1      14.237  37.417  -7.900  1.00  0.00     0.274 HD
ATOM     17  H42 UNL     1      14.489  38.836  -8.531  1.00  0.00     0.274 HD
ATOM     18  H41 UNL     1      12.915  38.326  -8.345  1.00  0.00     0.274 HD
ENDBRANCH  14  15
ENDBRANCH  13  14
ENDBRANCH  12  13
ENDBRANCH  10  12
ENDBRANCH   3   8
ENDBRANCH   1   3
BRANCH   1  19
HETATM   19  P1  UNL     1      12.151  41.599  -7.771  1.00  0.00     0.250 P 
HETATM   20  O1  UNL     1      10.987  42.456  -6.875  1.00  0.00    -0.648 OA
HETATM   21  O2  UNL     1      11.698  40.366  -8.693  1.00  0.00    -0.648 OA
BRANCH  19  22
HETATM   22  C6  UNL     1      12.539  40.725  -6.446  1.00  0.00     0.190 C 
BRANCH  22  23
HETATM   23  N2  UNL     1      11.505  40.041  -5.705  1.00  0.00    -0.305 N 
HETATM   24  C7  UNL     1      11.187  38.687  -5.711  1.00  0.00     0.365 C 
HETATM   25  O3  UNL     1      11.826  37.877  -6.405  1.00  0.00    -0.238 OA
ATOM     26  H2  UNL     1      10.933  40.628  -5.098  1.00  0.00     0.170 HD
BRANCH  24  27
HETATM   27  O4  UNL     1      10.144  38.185  -4.944  1.00  0.00    -0.299 OA
BRANCH  27  28
HETATM   28  C8  UNL     1       9.333  39.096  -4.207  1.00  0.00     0.219 C 
BRANCH  28  29
HETATM   29  C9  UNL     1       9.526  38.773  -2.771  1.00  0.00    -0.034 A 
HETATM   30  C10 UNL     1       9.488  37.473  -2.336  1.00  0.00     0.009 A 
HETATM   31  C11 UNL     1       9.676  37.181  -0.993  1.00  0.00     0.001 A 
HETATM   32  C12 UNL     1       9.905  38.176  -0.068  1.00  0.00     0.000 A 
HETATM   33  C13 UNL     1       9.943  39.481  -0.511  1.00  0.00     0.001 A 
HETATM   34  C14 UNL     1       9.754  39.775  -1.859  1.00  0.00     0.009 A 
ENDBRANCH  28  29
ENDBRANCH  27  28
ENDBRANCH  24  27
ENDBRANCH  22  23
ENDBRANCH  19  22
ENDBRANCH   1  19
TORSDOF 14
ENDMDL
