MODEL 6
REMARK VINA RESULT: -8.363698313      3.255      9.535
REMARK  14 active torsions:
REMARK  status: ('A' for Active; 'I' for Inactive)
REMARK    1  A    between atoms: C2_2  and  C4_4 
REMARK    2  A    between atoms: C4_4  and  C5_5 
REMARK    3  A    between atoms: C5_5  and  N1_6 
REMARK    4  A    between atoms: C5_5  and  C15_24 
REMARK    5  A    between atoms: N1_6  and  P1_8 
REMARK    6  A    between atoms: P1_8  and  C6_11 
REMARK    7  A    between atoms: C6_11  and  N2_12 
REMARK       I    between atoms: N2_12  and  C7_14 
REMARK    8  A    between atoms: C7_14  and  O4_16 
REMARK    9  A    between atoms: O4_16  and  C8_17 
REMARK   10  A    between atoms: C8_17  and  C9_18 
REMARK       I    between atoms: C15_24  and  N3_26 
REMARK   11  A    between atoms: N3_26  and  C16_28 
REMARK   12  A    between atoms: C16_28  and  C17_29 
REMARK   13  A    between atoms: C17_29  and  C18_30 
REMARK   14  A    between atoms: C18_30  and  N4_31 
ROOT
HETATM    1  N1  UNL     1      12.089  41.069  -9.010  1.00  0.00    -0.309 N 
ATOM      2  H1  UNL     1      11.268  40.991  -9.610  1.00  0.00     0.170 HD
ENDROOT
BRANCH   1   3
HETATM    3  C5  UNL     1      13.389  40.723  -9.477  1.00  0.00     0.082 C 
BRANCH   3   4
HETATM    4  C4  UNL     1      13.454  39.620 -10.441  1.00  0.00     0.067 C 
BRANCH   4   5
HETATM    5  C2  UNL     1      13.161  38.241  -9.984  1.00  0.00    -0.017 C 
HETATM    6  C1  UNL     1      14.192  37.921  -8.873  1.00  0.00     0.010 C 
HETATM    7  C3  UNL     1      13.325  37.133 -10.974  1.00  0.00     0.010 C 
ENDBRANCH   4   5
ENDBRANCH   3   4
BRANCH   3   8
HETATM    8  C15 UNL     1      14.193  41.911  -9.745  1.00  0.00     0.267 C 
HETATM    9  O5  UNL     1      13.874  42.806 -10.585  1.00  0.00    -0.266 OA
HETATM   10  N3  UNL     1      15.440  42.158  -9.037  1.00  0.00    -0.336 N 
ATOM     11  H3  UNL     1      15.774  41.483  -8.349  1.00  0.00     0.168 HD
BRANCH  10  12
HETATM   12  C16 UNL     1      16.190  43.322  -9.293  1.00  0.00     0.066 C 
BRANCH  12  13
HETATM   13  C17 UNL     1      16.376  44.342  -8.246  1.00  0.00     0.072 C 
BRANCH  13  14
HETATM   14  C18 UNL     1      15.278  45.309  -8.013  1.00  0.00     0.234 C 
BRANCH  14  15
HETATM   15  N4  UNL     1      14.270  44.948  -7.061  1.00  0.00    -0.079 N 
ATOM     16  H43 UNL     1      13.787  44.109  -7.383  1.00  0.00     0.274 HD
ATOM     17  H42 UNL     1      14.717  44.599  -6.213  1.00  0.00     0.274 HD
ATOM     18  H41 UNL     1      13.582  45.659  -6.812  1.00  0.00     0.274 HD
ENDBRANCH  14  15
ENDBRANCH  13  14
ENDBRANCH  12  13
ENDBRANCH  10  12
ENDBRANCH   3   8
ENDBRANCH   1   3
BRANCH   1  19
HETATM   19  P1  UNL     1      11.970  41.620  -7.405  1.00  0.00     0.250 P 
HETATM   20  O1  UNL     1      13.411  42.008  -6.591  1.00  0.00    -0.648 OA
HETATM   21  O2  UNL     1      10.559  42.079  -6.791  1.00  0.00    -0.648 OA
BRANCH  19  22
HETATM   22  C6  UNL     1      11.993  40.123  -6.748  1.00  0.00     0.190 C 
BRANCH  22  23
HETATM   23  N2  UNL     1      11.561  39.926  -5.385  1.00  0.00    -0.305 N 
HETATM   24  C7  UNL     1      10.587  39.059  -4.902  1.00  0.00     0.365 C 
HETATM   25  O3  UNL     1       9.958  38.305  -5.665  1.00  0.00    -0.238 OA
ATOM     26  H2  UNL     1      12.032  40.499  -4.684  1.00  0.00     0.170 HD
BRANCH  24  27
HETATM   27  O4  UNL     1      10.277  38.998  -3.550  1.00  0.00    -0.299 OA
BRANCH  27  28
HETATM   28  C8  UNL     1       9.584  37.855  -3.054  1.00  0.00     0.219 C 
BRANCH  28  29
HETATM   29  C9  UNL     1       9.424  38.055  -1.592  1.00  0.00    -0.034 A 
HETATM   30  C10 UNL     1      10.045  39.100  -0.958  1.00  0.00     0.009 A 
HETATM   31  C11 UNL     1       9.885  39.282   0.408  1.00  0.00     0.001 A 
HETATM   32  C12 UNL     1       9.106  38.429   1.159  1.00  0.00     0.000 A 
HETATM   33  C13 UNL     1       8.484  37.380   0.516  1.00  0.00     0.001 A 
HETATM   34  C14 UNL     1       8.645  37.197  -0.855  1.00  0.00     0.009 A 
ENDBRANCH  28  29
ENDBRANCH  27  28
ENDBRANCH  24  27
ENDBRANCH  22  23
ENDBRANCH  19  22
ENDBRANCH   1  19
TORSDOF 14
ENDMDL
