MODEL 9
REMARK VINA RESULT: -8.232764739      3.056     10.151
REMARK  14 active torsions:
REMARK  status: ('A' for Active; 'I' for Inactive)
REMARK    1  A    between atoms: C2_2  and  C4_4 
REMARK    2  A    between atoms: C4_4  and  C5_5 
REMARK    3  A    between atoms: C5_5  and  N1_6 
REMARK    4  A    between atoms: C5_5  and  C15_24 
REMARK    5  A    between atoms: N1_6  and  P1_8 
REMARK    6  A    between atoms: P1_8  and  C6_11 
REMARK    7  A    between atoms: C6_11  and  N2_12 
REMARK       I    between atoms: N2_12  and  C7_14 
REMARK    8  A    between atoms: C7_14  and  O4_16 
REMARK    9  A    between atoms: O4_16  and  C8_17 
REMARK   10  A    between atoms: C8_17  and  C9_18 
REMARK       I    between atoms: C15_24  and  N3_26 
REMARK   11  A    between atoms: N3_26  and  C16_28 
REMARK   12  A    between atoms: C16_28  and  C17_29 
REMARK   13  A    between atoms: C17_29  and  C18_30 
REMARK   14  A    between atoms: C18_30  and  N4_31 
ROOT
HETATM    1  N1  UNL     1      15.141  39.194  -9.610  1.00  0.00    -0.309 N 
ATOM      2  H1  UNL     1      16.053  39.324  -9.171  1.00  0.00     0.170 HD
ENDROOT
BRANCH   1   3
HETATM    3  C5  UNL     1      14.764  39.921 -10.775  1.00  0.00     0.082 C 
BRANCH   3   4
HETATM    4  C4  UNL     1      15.140  41.339 -10.798  1.00  0.00     0.067 C 
BRANCH   4   5
HETATM    5  C2  UNL     1      15.754  41.944  -9.593  1.00  0.00    -0.017 C 
HETATM    6  C1  UNL     1      14.610  42.664  -8.836  1.00  0.00     0.010 C 
HETATM    7  C3  UNL     1      16.788  43.005  -9.799  1.00  0.00     0.010 C 
ENDBRANCH   4   5
ENDBRANCH   3   4
BRANCH   3   8
HETATM    8  C15 UNL     1      14.983  39.139 -11.987  1.00  0.00     0.267 C 
HETATM    9  O5  UNL     1      16.124  38.943 -12.505  1.00  0.00    -0.266 OA
HETATM   10  N3  UNL     1      13.878  38.503 -12.688  1.00  0.00    -0.336 N 
ATOM     11  H3  UNL     1      12.926  38.616 -12.341  1.00  0.00     0.168 HD
BRANCH  10  12
HETATM   12  C16 UNL     1      14.112  37.731 -13.842  1.00  0.00     0.066 C 
BRANCH  12  13
HETATM   13  C17 UNL     1      13.905  36.272 -13.827  1.00  0.00     0.072 C 
BRANCH  13  14
HETATM   14  C18 UNL     1      13.812  35.597 -12.512  1.00  0.00     0.234 C 
BRANCH  14  15
HETATM   15  N4  UNL     1      15.024  35.428 -11.768  1.00  0.00    -0.079 N 
ATOM     16  H43 UNL     1      15.435  36.343 -11.582  1.00  0.00     0.274 HD
ATOM     17  H42 UNL     1      14.799  35.123 -10.821  1.00  0.00     0.274 HD
ATOM     18  H41 UNL     1      15.736  34.812 -12.161  1.00  0.00     0.274 HD
ENDBRANCH  14  15
ENDBRANCH  13  14
ENDBRANCH  12  13
ENDBRANCH  10  12
ENDBRANCH   3   8
ENDBRANCH   1   3
BRANCH   1  19
HETATM   19  P1  UNL     1      13.999  38.099  -8.984  1.00  0.00     0.250 P 
HETATM   20  O1  UNL     1      12.538  37.908  -9.832  1.00  0.00    -0.648 OA
HETATM   21  O2  UNL     1      14.404  37.044  -7.844  1.00  0.00    -0.648 OA
BRANCH  19  22
HETATM   22  C6  UNL     1      13.291  39.194  -7.998  1.00  0.00     0.190 C 
BRANCH  22  23
HETATM   23  N2  UNL     1      12.780  38.782  -6.712  1.00  0.00    -0.305 N 
HETATM   24  C7  UNL     1      11.456  38.605  -6.322  1.00  0.00     0.365 C 
HETATM   25  O3  UNL     1      10.519  38.790  -7.119  1.00  0.00    -0.238 OA
ATOM     26  H2  UNL     1      13.481  38.597  -5.994  1.00  0.00     0.170 HD
BRANCH  24  27
HETATM   27  O4  UNL     1      11.127  38.214  -5.032  1.00  0.00    -0.299 OA
BRANCH  27  28
HETATM   28  C8  UNL     1       9.880  38.634  -4.484  1.00  0.00     0.219 C 
BRANCH  28  29
HETATM   29  C9  UNL     1       9.973  38.439  -3.015  1.00  0.00    -0.034 A 
HETATM   30  C10 UNL     1      10.787  39.238  -2.254  1.00  0.00     0.009 A 
HETATM   31  C11 UNL     1      10.863  39.051  -0.882  1.00  0.00     0.001 A 
HETATM   32  C12 UNL     1      10.130  38.072  -0.250  1.00  0.00     0.000 A 
HETATM   33  C13 UNL     1       9.311  37.272  -1.019  1.00  0.00     0.001 A 
HETATM   34  C14 UNL     1       9.236  37.458  -2.397  1.00  0.00     0.009 A 
ENDBRANCH  28  29
ENDBRANCH  27  28
ENDBRANCH  24  27
ENDBRANCH  22  23
ENDBRANCH  19  22
ENDBRANCH   1  19
TORSDOF 14
ENDMDL
