MODEL 4
REMARK VINA RESULT: -8.097304789      2.863     10.575
REMARK  15 active torsions:
REMARK  status: ('A' for Active; 'I' for Inactive)
REMARK    1  A    between atoms: C2_2  and  C4_4 
REMARK    2  A    between atoms: C4_4  and  C5_5 
REMARK    3  A    between atoms: C5_5  and  N1_6 
REMARK    4  A    between atoms: C5_5  and  C15_24 
REMARK    5  A    between atoms: N1_6  and  P1_8 
REMARK    6  A    between atoms: P1_8  and  C6_11 
REMARK    7  A    between atoms: C6_11  and  N2_12 
REMARK       I    between atoms: N2_12  and  C7_14 
REMARK    8  A    between atoms: C7_14  and  O4_16 
REMARK    9  A    between atoms: O4_16  and  C8_17 
REMARK   10  A    between atoms: C8_17  and  C9_18 
REMARK       I    between atoms: C15_24  and  N3_26 
REMARK   11  A    between atoms: N3_26  and  C16_28 
REMARK   12  A    between atoms: C16_28  and  C17_29 
REMARK   13  A    between atoms: C17_29  and  C18_30 
REMARK   14  A    between atoms: C18_30  and  C19_31 
REMARK   15  A    between atoms: C19_31  and  N4_32 
ROOT
HETATM    1  N1  UNL     1      12.548 -40.102   9.240  1.00  0.00    -0.334 N 
ATOM      2  H1  UNL     1      11.728 -40.444   9.740  1.00  0.00     0.164 HD
ENDROOT
BRANCH   1   3
HETATM    3  C5  UNL     1      13.642 -39.733  10.008  1.00  0.00     0.178 C 
BRANCH   3   4
HETATM    4  C4  UNL     1      14.994 -40.183   9.560  1.00  0.00     0.038 C 
BRANCH   4   5
HETATM    5  C2  UNL     1      15.471 -41.484  10.128  1.00  0.00    -0.020 C 
HETATM    6  C1  UNL     1      15.482 -42.587   9.055  1.00  0.00     0.009 C 
HETATM    7  C3  UNL     1      16.953 -41.355  10.504  1.00  0.00     0.009 C 
ENDBRANCH   4   5
ENDBRANCH   3   4
BRANCH   3   8
HETATM    8  C15 UNL     1      13.709 -38.270  10.261  1.00  0.00     0.240 C 
HETATM    9  O5  UNL     1      12.745 -37.481  10.088  1.00  0.00    -0.271 OA
HETATM   10  N3  UNL     1      14.909 -37.618  10.738  1.00  0.00    -0.359 N 
ATOM     11  H3  UNL     1      15.741 -38.184  10.903  1.00  0.00     0.162 HD
BRANCH  10  12
HETATM   12  C16 UNL     1      14.976 -36.215  10.988  1.00  0.00     0.122 C 
BRANCH  12  13
HETATM   13  C17 UNL     1      14.939 -35.807  12.425  1.00  0.00     0.021 C 
BRANCH  13  14
HETATM   14  C18 UNL     1      13.541 -35.870  13.004  1.00  0.00     0.029 C 
BRANCH  14  15
HETATM   15  C19 UNL     1      13.597 -36.032  14.494  1.00  0.00     0.229 C 
BRANCH  15  16
HETATM   16  N4  UNL     1      14.887 -35.778  15.057  1.00  0.00    -0.079 N 
ATOM     17  H43 UNL     1      15.181 -36.557  15.647  1.00  0.00     0.274 HD
ATOM     18  H42 UNL     1      15.609 -35.828  14.337  1.00  0.00     0.274 HD
ATOM     19  H41 UNL     1      14.950 -34.897  15.568  1.00  0.00     0.274 HD
ENDBRANCH  15  16
ENDBRANCH  14  15
ENDBRANCH  13  14
ENDBRANCH  12  13
ENDBRANCH  10  12
ENDBRANCH   3   8
ENDBRANCH   1   3
BRANCH   1  20
HETATM   20  P1  UNL     1      12.445 -40.041   7.587  1.00  0.00     0.224 P 
HETATM   21  O1  UNL     1      10.980 -40.535   7.570  1.00  0.00    -0.651 OA
HETATM   22  O2  UNL     1      12.757 -41.400   6.632  1.00  0.00    -0.651 OA
BRANCH  20  23
HETATM   23  C6  UNL     1      12.146 -38.513   6.778  1.00  0.00     0.252 C 
BRANCH  23  24
HETATM   24  N2  UNL     1      11.995 -38.554   5.326  1.00  0.00    -0.325 N 
HETATM   25  C7  UNL     1      10.747 -38.472   4.707  1.00  0.00     0.361 C 
HETATM   26  O3  UNL     1       9.725 -38.359   5.428  1.00  0.00    -0.238 OA
ATOM     27  H2  UNL     1      12.829 -38.645   4.746  1.00  0.00     0.165 HD
BRANCH  25  28
HETATM   28  O4  UNL     1      10.582 -38.510   3.317  1.00  0.00    -0.299 OA
BRANCH  28  29
HETATM   29  C8  UNL     1       9.723 -37.592   2.702  1.00  0.00     0.219 C 
BRANCH  29  30
HETATM   30  C9  UNL     1       9.477 -37.865   1.271  1.00  0.00    -0.034 A 
HETATM   31  C10 UNL     1      10.110 -38.845   0.543  1.00  0.00     0.009 A 
HETATM   32  C11 UNL     1       9.807 -39.031  -0.809  1.00  0.00     0.001 A 
HETATM   33  C12 UNL     1       8.874 -38.253  -1.459  1.00  0.00     0.000 A 
HETATM   34  C13 UNL     1       8.238 -37.271  -0.733  1.00  0.00     0.001 A 
HETATM   35  C14 UNL     1       8.540 -37.090   0.600  1.00  0.00     0.009 A 
ENDBRANCH  29  30
ENDBRANCH  28  29
ENDBRANCH  25  28
ENDBRANCH  23  24
ENDBRANCH  20  23
ENDBRANCH   1  20
TORSDOF 15
ENDMDL
