MODEL 10
REMARK VINA RESULT: -7.836191747      2.974     10.642
REMARK  15 active torsions:
REMARK  status: ('A' for Active; 'I' for Inactive)
REMARK    1  A    between atoms: C2_2  and  C4_4 
REMARK    2  A    between atoms: C4_4  and  C5_5 
REMARK    3  A    between atoms: C5_5  and  N1_6 
REMARK    4  A    between atoms: C5_5  and  C15_24 
REMARK    5  A    between atoms: N1_6  and  P1_8 
REMARK    6  A    between atoms: P1_8  and  C6_11 
REMARK    7  A    between atoms: C6_11  and  N2_12 
REMARK       I    between atoms: N2_12  and  C7_14 
REMARK    8  A    between atoms: C7_14  and  O4_16 
REMARK    9  A    between atoms: O4_16  and  C8_17 
REMARK   10  A    between atoms: C8_17  and  C9_18 
REMARK       I    between atoms: C15_24  and  N3_26 
REMARK   11  A    between atoms: N3_26  and  C16_28 
REMARK   12  A    between atoms: C16_28  and  C17_29 
REMARK   13  A    between atoms: C17_29  and  C18_30 
REMARK   14  A    between atoms: C18_30  and  C19_31 
REMARK   15  A    between atoms: C19_31  and  N4_32 
ROOT
HETATM    1  N1  UNL     1      12.787 -40.140   9.161  1.00  0.00    -0.334 N 
ATOM      2  H1  UNL     1      12.169 -40.708   9.740  1.00  0.00     0.164 HD
ENDROOT
BRANCH   1   3
HETATM    3  C5  UNL     1      13.838 -39.505   9.805  1.00  0.00     0.178 C 
BRANCH   3   4
HETATM    4  C4  UNL     1      13.543 -38.777  11.074  1.00  0.00     0.038 C 
BRANCH   4   5
HETATM    5  C2  UNL     1      13.406 -37.289  10.957  1.00  0.00    -0.020 C 
HETATM    6  C1  UNL     1      13.467 -36.616  12.339  1.00  0.00     0.009 C 
HETATM    7  C3  UNL     1      14.644 -36.726  10.246  1.00  0.00     0.009 C 
ENDBRANCH   4   5
ENDBRANCH   3   4
BRANCH   3   8
HETATM    8  C15 UNL     1      14.997 -40.403  10.055  1.00  0.00     0.240 C 
HETATM    9  O5  UNL     1      15.141 -41.531   9.516  1.00  0.00    -0.271 OA
HETATM   10  N3  UNL     1      16.076 -40.050  10.951  1.00  0.00    -0.359 N 
ATOM     11  H3  UNL     1      16.037 -39.151  11.432  1.00  0.00     0.162 HD
BRANCH  10  12
HETATM   12  C16 UNL     1      17.192 -40.906  11.188  1.00  0.00     0.122 C 
BRANCH  12  13
HETATM   13  C17 UNL     1      18.060 -40.538  12.347  1.00  0.00     0.021 C 
BRANCH  13  14
HETATM   14  C18 UNL     1      17.318 -39.720  13.384  1.00  0.00     0.029 C 
BRANCH  14  15
HETATM   15  C19 UNL     1      17.929 -38.356  13.511  1.00  0.00     0.229 C 
BRANCH  15  16
HETATM   16  N4  UNL     1      17.263 -37.348  12.746  1.00  0.00    -0.079 N 
ATOM     17  H43 UNL     1      16.832 -37.754  11.915  1.00  0.00     0.274 HD
ATOM     18  H42 UNL     1      16.426 -37.024  13.232  1.00  0.00     0.274 HD
ATOM     19  H41 UNL     1      17.859 -36.560  12.492  1.00  0.00     0.274 HD
ENDBRANCH  15  16
ENDBRANCH  14  15
ENDBRANCH  13  14
ENDBRANCH  12  13
ENDBRANCH  10  12
ENDBRANCH   3   8
ENDBRANCH   1   3
BRANCH   1  20
HETATM   20  P1  UNL     1      12.438 -40.065   7.543  1.00  0.00     0.224 P 
HETATM   21  O1  UNL     1      10.944 -40.397   7.758  1.00  0.00    -0.651 OA
HETATM   22  O2  UNL     1      12.452 -41.447   6.572  1.00  0.00    -0.651 OA
BRANCH  20  23
HETATM   23  C6  UNL     1      12.184 -38.511   6.768  1.00  0.00     0.252 C 
BRANCH  23  24
HETATM   24  N2  UNL     1      11.991 -38.520   5.320  1.00  0.00    -0.325 N 
HETATM   25  C7  UNL     1      10.723 -38.474   4.740  1.00  0.00     0.361 C 
HETATM   26  O3  UNL     1       9.719 -38.422   5.494  1.00  0.00    -0.238 OA
ATOM     27  H2  UNL     1      12.810 -38.562   4.714  1.00  0.00     0.165 HD
BRANCH  25  28
HETATM   28  O4  UNL     1      10.517 -38.482   3.355  1.00  0.00    -0.299 OA
BRANCH  28  29
HETATM   29  C8  UNL     1       9.661 -37.535   2.783  1.00  0.00     0.219 C 
BRANCH  29  30
HETATM   30  C9  UNL     1       9.369 -37.776   1.354  1.00  0.00    -0.034 A 
HETATM   31  C10 UNL     1       8.477 -37.045   0.605  1.00  0.00     0.009 A 
HETATM   32  C11 UNL     1       8.269 -37.346  -0.743  1.00  0.00     0.001 A 
HETATM   33  C12 UNL     1       8.939 -38.374  -1.371  1.00  0.00     0.000 A 
HETATM   34  C13 UNL     1       9.833 -39.109  -0.624  1.00  0.00     0.001 A 
HETATM   35  C14 UNL     1      10.035 -38.809   0.706  1.00  0.00     0.009 A 
ENDBRANCH  29  30
ENDBRANCH  28  29
ENDBRANCH  25  28
ENDBRANCH  23  24
ENDBRANCH  20  23
ENDBRANCH   1  20
TORSDOF 15
ENDMDL
