MODEL 8
REMARK VINA RESULT: -7.878824020      3.253      9.969
REMARK  15 active torsions:
REMARK  status: ('A' for Active; 'I' for Inactive)
REMARK    1  A    between atoms: C2_2  and  C4_4 
REMARK    2  A    between atoms: C4_4  and  C5_5 
REMARK    3  A    between atoms: C5_5  and  N1_6 
REMARK    4  A    between atoms: C5_5  and  C15_24 
REMARK    5  A    between atoms: N1_6  and  P1_8 
REMARK    6  A    between atoms: P1_8  and  C6_11 
REMARK    7  A    between atoms: C6_11  and  N2_12 
REMARK       I    between atoms: N2_12  and  C7_14 
REMARK    8  A    between atoms: C7_14  and  O4_16 
REMARK    9  A    between atoms: O4_16  and  C8_17 
REMARK   10  A    between atoms: C8_17  and  C9_18 
REMARK       I    between atoms: C15_24  and  N3_26 
REMARK   11  A    between atoms: N3_26  and  C16_28 
REMARK   12  A    between atoms: C16_28  and  C17_29 
REMARK   13  A    between atoms: C17_29  and  C18_30 
REMARK   14  A    between atoms: C18_30  and  C19_31 
REMARK   15  A    between atoms: C19_31  and  N4_32 
ROOT
HETATM    1  N1  UNL     1      12.713 -38.817   9.365  1.00  0.00    -0.334 N 
ATOM      2  H1  UNL     1      11.902 -38.324   9.737  1.00  0.00     0.164 HD
ENDROOT
BRANCH   1   3
HETATM    3  C5  UNL     1      13.772 -39.025  10.236  1.00  0.00     0.178 C 
BRANCH   3   4
HETATM    4  C4  UNL     1      13.729 -38.343  11.564  1.00  0.00     0.038 C 
BRANCH   4   5
HETATM    5  C2  UNL     1      13.583 -36.853  11.528  1.00  0.00    -0.020 C 
HETATM    6  C1  UNL     1      13.388 -36.281  12.943  1.00  0.00     0.009 C 
HETATM    7  C3  UNL     1      14.913 -36.227  11.085  1.00  0.00     0.009 C 
ENDBRANCH   4   5
ENDBRANCH   3   4
BRANCH   3   8
HETATM    8  C15 UNL     1      14.058 -40.465  10.472  1.00  0.00     0.240 C 
HETATM    9  O5  UNL     1      13.478 -41.163  11.343  1.00  0.00    -0.271 OA
HETATM   10  N3  UNL     1      15.043 -41.198   9.707  1.00  0.00    -0.359 N 
ATOM     11  H3  UNL     1      15.563 -40.706   8.980  1.00  0.00     0.162 HD
BRANCH  10  12
HETATM   12  C16 UNL     1      15.316 -42.580   9.928  1.00  0.00     0.122 C 
BRANCH  12  13
HETATM   13  C17 UNL     1      16.618 -43.081   9.392  1.00  0.00     0.021 C 
BRANCH  13  14
HETATM   14  C18 UNL     1      16.432 -44.057   8.249  1.00  0.00     0.029 C 
BRANCH  14  15
HETATM   15  C19 UNL     1      17.585 -45.012   8.182  1.00  0.00     0.229 C 
BRANCH  15  16
HETATM   16  N4  UNL     1      17.630 -45.785   6.979  1.00  0.00    -0.079 N 
ATOM     17  H43 UNL     1      17.096 -46.648   7.086  1.00  0.00     0.274 HD
ATOM     18  H42 UNL     1      17.084 -45.336   6.243  1.00  0.00     0.274 HD
ATOM     19  H41 UNL     1      18.575 -45.987   6.651  1.00  0.00     0.274 HD
ENDBRANCH  15  16
ENDBRANCH  14  15
ENDBRANCH  13  14
ENDBRANCH  12  13
ENDBRANCH  10  12
ENDBRANCH   3   8
ENDBRANCH   1   3
BRANCH   1  20
HETATM   20  P1  UNL     1      12.639 -39.292   7.779  1.00  0.00     0.224 P 
HETATM   21  O1  UNL     1      11.215 -39.873   7.926  1.00  0.00    -0.651 OA
HETATM   22  O2  UNL     1      13.068 -40.855   7.305  1.00  0.00    -0.651 OA
BRANCH  20  23
HETATM   23  C6  UNL     1      12.246 -38.125   6.528  1.00  0.00     0.252 C 
BRANCH  23  24
HETATM   24  N2  UNL     1      11.851 -38.661   5.228  1.00  0.00    -0.325 N 
HETATM   25  C7  UNL     1      10.521 -38.684   4.807  1.00  0.00     0.361 C 
HETATM   26  O3  UNL     1       9.640 -38.225   5.577  1.00  0.00    -0.238 OA
ATOM     27  H2  UNL     1      12.571 -39.031   4.608  1.00  0.00     0.165 HD
BRANCH  25  28
HETATM   28  O4  UNL     1      10.123 -39.193   3.566  1.00  0.00    -0.299 OA
BRANCH  28  29
HETATM   29  C8  UNL     1      10.869 -38.880   2.424  1.00  0.00     0.219 C 
BRANCH  29  30
HETATM   30  C9  UNL     1      10.053 -38.413   1.284  1.00  0.00    -0.034 A 
HETATM   31  C10 UNL     1       9.234 -37.308   1.309  1.00  0.00     0.009 A 
HETATM   32  C11 UNL     1       8.502 -36.942   0.176  1.00  0.00     0.001 A 
HETATM   33  C12 UNL     1       8.570 -37.661  -0.997  1.00  0.00     0.000 A 
HETATM   34  C13 UNL     1       9.388 -38.768  -1.027  1.00  0.00     0.001 A 
HETATM   35  C14 UNL     1      10.109 -39.126   0.092  1.00  0.00     0.009 A 
ENDBRANCH  29  30
ENDBRANCH  28  29
ENDBRANCH  25  28
ENDBRANCH  23  24
ENDBRANCH  20  23
ENDBRANCH   1  20
TORSDOF 15
ENDMDL
