MODEL 10
REMARK VINA RESULT: -8.411497420      3.048      5.319
REMARK  15 active torsions:
REMARK  status: ('A' for Active; 'I' for Inactive)
REMARK    1  A    between atoms: C2_2  and  C3_3 
REMARK    2  A    between atoms: C3_3  and  C4_4 
REMARK    3  A    between atoms: C4_4  and  C5_5 
REMARK    4  A    between atoms: C5_5  and  N1_6 
REMARK    5  A    between atoms: C5_5  and  C21_33 
REMARK       I    between atoms: N1_6  and  C6_8 
REMARK    6  A    between atoms: C6_8  and  C7_10 
REMARK    7  A    between atoms: C7_10  and  C8_11 
REMARK    8  A    between atoms: C7_10  and  N2_15 
REMARK    9  A    between atoms: C8_11  and  C9_12 
REMARK   10  A    between atoms: N2_15  and  P1_17 
REMARK   11  A    between atoms: P1_17  and  C12_20 
REMARK   12  A    between atoms: C12_20  and  N3_21 
REMARK       I    between atoms: N3_21  and  C13_23 
REMARK   13  A    between atoms: C13_23  and  O5_25 
REMARK   14  A    between atoms: O5_25  and  C14_26 
REMARK   15  A    between atoms: C14_26  and  C15_27 
ROOT
HETATM    1  N2  UNL     1      34.269  41.177  -8.130  1.00  0.00    -0.334 N 
ATOM      2  H2  UNL     1      35.150  41.383  -8.601  1.00  0.00     0.164 HD
ENDROOT
BRANCH   1   3
HETATM    3  C7  UNL     1      34.355  40.654  -6.841  1.00  0.00     0.178 C 
BRANCH   3   4
HETATM    4  C6  UNL     1      34.958  41.522  -5.807  1.00  0.00     0.241 C 
HETATM    5  N1  UNL     1      35.519  40.925  -4.656  1.00  0.00    -0.345 N 
ATOM      6  H1  UNL     1      35.513  39.912  -4.529  1.00  0.00     0.163 HD
HETATM    7  O1  UNL     1      34.998  42.771  -5.905  1.00  0.00    -0.271 OA
BRANCH   5   8
HETATM    8  C5  UNL     1      36.124  41.839  -3.626  1.00  0.00     0.185 C 
BRANCH   8   9
HETATM    9  C4  UNL     1      35.816  41.220  -2.302  1.00  0.00     0.036 C 
BRANCH   9  10
HETATM   10  C3  UNL     1      35.661  42.100  -1.151  1.00  0.00     0.002 C 
BRANCH  10  11
HETATM   11  C2  UNL     1      36.824  42.772  -0.531  1.00  0.00    -0.004 C 
HETATM   12  C1  UNL     1      37.080  44.159  -1.068  1.00  0.00     0.005 C 
ENDBRANCH  10  11
ENDBRANCH   9  10
ENDBRANCH   8   9
BRANCH   8  13
HETATM   13  C21 UNL     1      37.574  41.798  -3.908  1.00  0.00     0.196 C 
HETATM   14  O6  UNL     1      38.346  41.069  -3.246  1.00  0.00    -0.646 OA
HETATM   15  O7  UNL     1      38.100  42.564  -4.922  1.00  0.00    -0.646 OA
ENDBRANCH   8  13
ENDBRANCH   5   8
ENDBRANCH   3   4
BRANCH   3  16
HETATM   16  C8  UNL     1      34.929  39.269  -6.837  1.00  0.00     0.038 C 
BRANCH  16  17
HETATM   17  C9  UNL     1      34.251  38.330  -7.778  1.00  0.00    -0.020 C 
HETATM   18  C10 UNL     1      35.170  37.109  -7.914  1.00  0.00     0.009 C 
HETATM   19  C11 UNL     1      32.934  37.811  -7.238  1.00  0.00     0.009 C 
ENDBRANCH  16  17
ENDBRANCH   3  16
ENDBRANCH   1   3
BRANCH   1  20
HETATM   20  P1  UNL     1      32.877  41.497  -8.975  1.00  0.00     0.224 P 
HETATM   21  O2  UNL     1      33.612  42.274 -10.077  1.00  0.00    -0.651 OA
HETATM   22  O3  UNL     1      31.987  42.930  -8.713  1.00  0.00    -0.651 OA
BRANCH  20  23
HETATM   23  C12 UNL     1      32.121  40.298 -10.010  1.00  0.00     0.252 C 
BRANCH  23  24
HETATM   24  N3  UNL     1      30.989  40.916 -10.671  1.00  0.00    -0.325 N 
HETATM   25  C13 UNL     1      30.624  40.643 -12.023  1.00  0.00     0.361 C 
HETATM   26  O4  UNL     1      31.317  39.827 -12.671  1.00  0.00    -0.238 OA
ATOM     27  H3  UNL     1      30.425  41.580 -10.143  1.00  0.00     0.165 HD
BRANCH  25  28
HETATM   28  O5  UNL     1      29.560  41.221 -12.653  1.00  0.00    -0.299 OA
BRANCH  28  29
HETATM   29  C14 UNL     1      29.530  42.467 -13.289  1.00  0.00     0.219 C 
BRANCH  29  30
HETATM   30  C15 UNL     1      30.738  43.288 -13.104  1.00  0.00    -0.034 A 
HETATM   31  C16 UNL     1      31.756  43.302 -14.045  1.00  0.00     0.009 A 
HETATM   32  C17 UNL     1      32.888  44.069 -13.881  1.00  0.00     0.001 A 
HETATM   33  C18 UNL     1      33.062  44.863 -12.772  1.00  0.00     0.000 A 
HETATM   34  C19 UNL     1      32.053  44.864 -11.817  1.00  0.00     0.001 A 
HETATM   35  C20 UNL     1      30.924  44.093 -11.986  1.00  0.00     0.009 A 
ENDBRANCH  29  30
ENDBRANCH  28  29
ENDBRANCH  25  28
ENDBRANCH  23  24
ENDBRANCH  20  23
ENDBRANCH   1  20
TORSDOF 15
ENDMDL
