MODEL 8
REMARK VINA RESULT: -8.594389302      2.196      3.314
REMARK  15 active torsions:
REMARK  status: ('A' for Active; 'I' for Inactive)
REMARK    1  A    between atoms: C2_2  and  C3_3 
REMARK    2  A    between atoms: C3_3  and  C4_4 
REMARK    3  A    between atoms: C4_4  and  C5_5 
REMARK    4  A    between atoms: C5_5  and  N1_6 
REMARK    5  A    between atoms: C5_5  and  C21_33 
REMARK       I    between atoms: N1_6  and  C6_8 
REMARK    6  A    between atoms: C6_8  and  C7_10 
REMARK    7  A    between atoms: C7_10  and  C8_11 
REMARK    8  A    between atoms: C7_10  and  N2_15 
REMARK    9  A    between atoms: C8_11  and  C9_12 
REMARK   10  A    between atoms: N2_15  and  P1_17 
REMARK   11  A    between atoms: P1_17  and  C12_20 
REMARK   12  A    between atoms: C12_20  and  N3_21 
REMARK       I    between atoms: N3_21  and  C13_23 
REMARK   13  A    between atoms: C13_23  and  O5_25 
REMARK   14  A    between atoms: O5_25  and  C14_26 
REMARK   15  A    between atoms: C14_26  and  C15_27 
ROOT
HETATM    1  N2  UNL     1      35.123  41.356  -4.019  1.00  0.00    -0.334 N 
ATOM      2  H2  UNL     1      34.250  41.082  -3.568  1.00  0.00     0.164 HD
ENDROOT
BRANCH   1   3
HETATM    3  C7  UNL     1      36.207  41.617  -3.183  1.00  0.00     0.178 C 
BRANCH   3   4
HETATM    4  C6  UNL     1      37.455  40.872  -3.455  1.00  0.00     0.241 C 
HETATM    5  N1  UNL     1      37.389  39.471  -3.624  1.00  0.00    -0.345 N 
ATOM      6  H1  UNL     1      36.503  38.970  -3.562  1.00  0.00     0.163 HD
HETATM    7  O1  UNL     1      38.574  41.427  -3.544  1.00  0.00    -0.271 OA
BRANCH   5   8
HETATM    8  C5  UNL     1      38.679  38.746  -3.899  1.00  0.00     0.185 C 
BRANCH   8   9
HETATM    9  C4  UNL     1      38.989  37.980  -2.654  1.00  0.00     0.036 C 
BRANCH   9  10
HETATM   10  C3  UNL     1      37.900  37.274  -1.992  1.00  0.00     0.002 C 
BRANCH  10  11
HETATM   11  C2  UNL     1      38.105  35.947  -1.373  1.00  0.00    -0.004 C 
HETATM   12  C1  UNL     1      39.475  35.767  -0.766  1.00  0.00     0.005 C 
ENDBRANCH  10  11
ENDBRANCH   9  10
ENDBRANCH   8   9
BRANCH   8  13
HETATM   13  C21 UNL     1      38.354  37.835  -5.016  1.00  0.00     0.196 C 
HETATM   14  O6  UNL     1      37.169  37.591  -5.335  1.00  0.00    -0.646 OA
HETATM   15  O7  UNL     1      39.365  37.241  -5.736  1.00  0.00    -0.646 OA
ENDBRANCH   8  13
ENDBRANCH   5   8
ENDBRANCH   3   4
BRANCH   3  16
HETATM   16  C8  UNL     1      35.817  41.578  -1.735  1.00  0.00     0.038 C 
BRANCH  16  17
HETATM   17  C9  UNL     1      36.878  42.068  -0.808  1.00  0.00    -0.020 C 
HETATM   18  C10 UNL     1      36.881  43.599  -0.916  1.00  0.00     0.009 C 
HETATM   19  C11 UNL     1      36.581  41.746   0.642  1.00  0.00     0.009 C 
ENDBRANCH  16  17
ENDBRANCH   3  16
ENDBRANCH   1   3
BRANCH   1  20
HETATM   20  P1  UNL     1      35.111  41.446  -5.676  1.00  0.00     0.224 P 
HETATM   21  O2  UNL     1      36.521  42.052  -5.747  1.00  0.00    -0.651 OA
HETATM   22  O3  UNL     1      34.586  42.854  -6.487  1.00  0.00    -0.651 OA
BRANCH  20  23
HETATM   23  C12 UNL     1      35.418  40.044  -6.686  1.00  0.00     0.252 C 
BRANCH  23  24
HETATM   24  N3  UNL     1      34.305  39.889  -7.601  1.00  0.00    -0.325 N 
HETATM   25  C13 UNL     1      34.394  39.179  -8.834  1.00  0.00     0.361 C 
HETATM   26  O4  UNL     1      35.491  38.660  -9.142  1.00  0.00    -0.238 OA
ATOM     27  H3  UNL     1      33.411  40.311  -7.350  1.00  0.00     0.165 HD
BRANCH  25  28
HETATM   28  O5  UNL     1      33.351  39.029  -9.701  1.00  0.00    -0.299 OA
BRANCH  28  29
HETATM   29  C14 UNL     1      32.021  39.411  -9.496  1.00  0.00     0.219 C 
BRANCH  29  30
HETATM   30  C15 UNL     1      31.090  38.302  -9.227  1.00  0.00    -0.034 A 
HETATM   31  C16 UNL     1      29.957  38.103 -10.001  1.00  0.00     0.009 A 
HETATM   32  C17 UNL     1      29.084  37.067  -9.759  1.00  0.00     0.001 A 
HETATM   33  C18 UNL     1      29.295  36.176  -8.734  1.00  0.00     0.000 A 
HETATM   34  C19 UNL     1      30.425  36.357  -7.946  1.00  0.00     0.001 A 
HETATM   35  C20 UNL     1      31.295  37.397  -8.193  1.00  0.00     0.009 A 
ENDBRANCH  29  30
ENDBRANCH  28  29
ENDBRANCH  25  28
ENDBRANCH  23  24
ENDBRANCH  20  23
ENDBRANCH   1  20
TORSDOF 15
ENDMDL
