MODEL 11
REMARK VINA RESULT: -8.288679964      3.084     10.767
REMARK  15 active torsions:
REMARK  status: ('A' for Active; 'I' for Inactive)
REMARK    1  A    between atoms: C2_2  and  C3_3 
REMARK    2  A    between atoms: C3_3  and  C4_4 
REMARK    3  A    between atoms: C4_4  and  C5_5 
REMARK    4  A    between atoms: C5_5  and  N1_6 
REMARK    5  A    between atoms: C5_5  and  C21_33 
REMARK       I    between atoms: N1_6  and  C6_8 
REMARK    6  A    between atoms: C6_8  and  C7_10 
REMARK    7  A    between atoms: C7_10  and  C8_11 
REMARK    8  A    between atoms: C7_10  and  N2_15 
REMARK    9  A    between atoms: C8_11  and  C9_12 
REMARK   10  A    between atoms: N2_15  and  P1_17 
REMARK   11  A    between atoms: P1_17  and  C12_20 
REMARK   12  A    between atoms: C12_20  and  N3_21 
REMARK       I    between atoms: N3_21  and  C13_23 
REMARK   13  A    between atoms: C13_23  and  O5_25 
REMARK   14  A    between atoms: O5_25  and  C14_26 
REMARK   15  A    between atoms: C14_26  and  C15_27 
ROOT
HETATM    1  N2  UNL     1      33.348  38.895  -9.964  1.00  0.00    -0.334 N 
ATOM      2  H2  UNL     1      34.077  38.350 -10.424  1.00  0.00     0.164 HD
ENDROOT
BRANCH   1   3
HETATM    3  C7  UNL     1      32.198  39.158 -10.707  1.00  0.00     0.178 C 
BRANCH   3   4
HETATM    4  C6  UNL     1      32.277  40.259 -11.690  1.00  0.00     0.241 C 
HETATM    5  N1  UNL     1      32.200  41.592 -11.229  1.00  0.00    -0.345 N 
ATOM      6  H1  UNL     1      32.092  41.804 -10.237  1.00  0.00     0.163 HD
HETATM    7  O1  UNL     1      32.410  40.066 -12.921  1.00  0.00    -0.271 OA
BRANCH   5   8
HETATM    8  C5  UNL     1      32.283  42.687 -12.258  1.00  0.00     0.185 C 
BRANCH   8   9
HETATM    9  C4  UNL     1      30.897  43.229 -12.388  1.00  0.00     0.036 C 
BRANCH   9  10
HETATM   10  C3  UNL     1      30.113  42.840 -13.553  1.00  0.00     0.002 C 
BRANCH  10  11
HETATM   11  C2  UNL     1      28.766  42.246 -13.413  1.00  0.00    -0.004 C 
HETATM   12  C1  UNL     1      28.768  40.887 -12.757  1.00  0.00     0.005 C 
ENDBRANCH  10  11
ENDBRANCH   9  10
ENDBRANCH   8   9
BRANCH   8  13
HETATM   13  C21 UNL     1      33.190  43.686 -11.656  1.00  0.00     0.196 C 
HETATM   14  O6  UNL     1      33.653  43.534 -10.503  1.00  0.00    -0.646 OA
HETATM   15  O7  UNL     1      33.549  44.807 -12.367  1.00  0.00    -0.646 OA
ENDBRANCH   8  13
ENDBRANCH   5   8
ENDBRANCH   3   4
BRANCH   3  16
HETATM   16  C8  UNL     1      30.980  39.247  -9.838  1.00  0.00     0.038 C 
BRANCH  16  17
HETATM   17  C9  UNL     1      30.090  38.052  -9.918  1.00  0.00    -0.020 C 
HETATM   18  C10 UNL     1      30.412  37.354 -11.247  1.00  0.00     0.009 C 
HETATM   19  C11 UNL     1      30.373  37.038  -8.828  1.00  0.00     0.009 C 
ENDBRANCH  16  17
ENDBRANCH   3  16
ENDBRANCH   1   3
BRANCH   1  20
HETATM   20  P1  UNL     1      33.647  39.380  -8.405  1.00  0.00     0.224 P 
HETATM   21  O2  UNL     1      35.171  39.285  -8.568  1.00  0.00    -0.651 OA
HETATM   22  O3  UNL     1      33.824  38.248  -7.139  1.00  0.00    -0.651 OA
BRANCH  20  23
HETATM   23  C12 UNL     1      33.575  41.067  -7.927  1.00  0.00     0.252 C 
BRANCH  23  24
HETATM   24  N3  UNL     1      33.900  41.155  -6.517  1.00  0.00    -0.325 N 
HETATM   25  C13 UNL     1      35.173  41.573  -6.029  1.00  0.00     0.361 C 
HETATM   26  O4  UNL     1      36.056  41.881  -6.861  1.00  0.00    -0.238 OA
ATOM     27  H3  UNL     1      33.181  40.905  -5.839  1.00  0.00     0.165 HD
BRANCH  25  28
HETATM   28  O5  UNL     1      35.486  41.659  -4.703  1.00  0.00    -0.299 OA
BRANCH  28  29
HETATM   29  C14 UNL     1      36.764  41.772  -4.143  1.00  0.00     0.219 C 
BRANCH  29  30
HETATM   30  C15 UNL     1      36.788  41.920  -2.678  1.00  0.00    -0.034 A 
HETATM   31  C16 UNL     1      37.121  43.124  -2.077  1.00  0.00     0.009 A 
HETATM   32  C17 UNL     1      37.144  43.272  -0.708  1.00  0.00     0.001 A 
HETATM   33  C18 UNL     1      36.834  42.228   0.131  1.00  0.00     0.000 A 
HETATM   34  C19 UNL     1      36.498  41.012  -0.451  1.00  0.00     0.001 A 
HETATM   35  C20 UNL     1      36.478  40.871  -1.822  1.00  0.00     0.009 A 
ENDBRANCH  29  30
ENDBRANCH  28  29
ENDBRANCH  25  28
ENDBRANCH  23  24
ENDBRANCH  20  23
ENDBRANCH   1  20
TORSDOF 15
ENDMDL
