MODEL 6
REMARK VINA RESULT: -8.632925506      3.605      6.574
REMARK  15 active torsions:
REMARK  status: ('A' for Active; 'I' for Inactive)
REMARK    1  A    between atoms: C2_2  and  C3_3 
REMARK    2  A    between atoms: C3_3  and  C4_4 
REMARK    3  A    between atoms: C4_4  and  C5_5 
REMARK    4  A    between atoms: C5_5  and  N1_6 
REMARK    5  A    between atoms: C5_5  and  C21_33 
REMARK       I    between atoms: N1_6  and  C6_8 
REMARK    6  A    between atoms: C6_8  and  C7_10 
REMARK    7  A    between atoms: C7_10  and  C8_11 
REMARK    8  A    between atoms: C7_10  and  N2_15 
REMARK    9  A    between atoms: C8_11  and  C9_12 
REMARK   10  A    between atoms: N2_15  and  P1_17 
REMARK   11  A    between atoms: P1_17  and  C12_20 
REMARK   12  A    between atoms: C12_20  and  N3_21 
REMARK       I    between atoms: N3_21  and  C13_23 
REMARK   13  A    between atoms: C13_23  and  O5_25 
REMARK   14  A    between atoms: O5_25  and  C14_26 
REMARK   15  A    between atoms: C14_26  and  C15_27 
ROOT
HETATM    1  N2  UNL     1      34.228  41.248  -8.218  1.00  0.00    -0.334 N 
ATOM      2  H2  UNL     1      35.113  41.298  -8.723  1.00  0.00     0.164 HD
ENDROOT
BRANCH   1   3
HETATM    3  C7  UNL     1      34.272  40.731  -6.924  1.00  0.00     0.178 C 
BRANCH   3   4
HETATM    4  C6  UNL     1      34.894  41.580  -5.886  1.00  0.00     0.241 C 
HETATM    5  N1  UNL     1      35.444  40.964  -4.740  1.00  0.00    -0.345 N 
ATOM      6  H1  UNL     1      35.419  39.952  -4.619  1.00  0.00     0.163 HD
HETATM    7  O1  UNL     1      34.958  42.828  -5.976  1.00  0.00    -0.271 OA
BRANCH   5   8
HETATM    8  C5  UNL     1      36.067  41.860  -3.705  1.00  0.00     0.185 C 
BRANCH   8   9
HETATM    9  C4  UNL     1      35.772  41.225  -2.385  1.00  0.00     0.036 C 
BRANCH   9  10
HETATM   10  C3  UNL     1      35.645  42.089  -1.219  1.00  0.00     0.002 C 
BRANCH  10  11
HETATM   11  C2  UNL     1      36.834  42.616  -0.516  1.00  0.00    -0.004 C 
HETATM   12  C1  UNL     1      37.221  44.011  -0.943  1.00  0.00     0.005 C 
ENDBRANCH  10  11
ENDBRANCH   9  10
ENDBRANCH   8   9
BRANCH   8  13
HETATM   13  C21 UNL     1      37.513  41.814  -4.005  1.00  0.00     0.196 C 
HETATM   14  O6  UNL     1      38.013  42.513  -4.915  1.00  0.00    -0.646 OA
HETATM   15  O7  UNL     1      38.343  40.997  -3.273  1.00  0.00    -0.646 OA
ENDBRANCH   8  13
ENDBRANCH   5   8
ENDBRANCH   3   4
BRANCH   3  16
HETATM   16  C8  UNL     1      34.791  39.324  -6.904  1.00  0.00     0.038 C 
BRANCH  16  17
HETATM   17  C9  UNL     1      34.062  38.396  -7.818  1.00  0.00    -0.020 C 
HETATM   18  C10 UNL     1      35.004  37.214  -8.084  1.00  0.00     0.009 C 
HETATM   19  C11 UNL     1      32.817  37.810  -7.184  1.00  0.00     0.009 C 
ENDBRANCH  16  17
ENDBRANCH   3  16
ENDBRANCH   1   3
BRANCH   1  20
HETATM   20  P1  UNL     1      32.879  41.792  -9.017  1.00  0.00     0.224 P 
HETATM   21  O2  UNL     1      33.651  42.882  -9.775  1.00  0.00    -0.651 OA
HETATM   22  O3  UNL     1      31.924  43.060  -8.390  1.00  0.00    -0.651 OA
BRANCH  20  23
HETATM   23  C12 UNL     1      32.231  40.960 -10.420  1.00  0.00     0.252 C 
BRANCH  23  24
HETATM   24  N3  UNL     1      31.061  40.212 -10.006  1.00  0.00    -0.325 N 
HETATM   25  C13 UNL     1      30.046  39.777 -10.908  1.00  0.00     0.361 C 
HETATM   26  O4  UNL     1      30.172  40.056 -12.122  1.00  0.00    -0.238 OA
ATOM     27  H3  UNL     1      30.959  39.983  -9.017  1.00  0.00     0.165 HD
BRANCH  25  28
HETATM   28  O5  UNL     1      28.942  39.072 -10.525  1.00  0.00    -0.299 OA
BRANCH  28  29
HETATM   29  C14 UNL     1      28.615  37.757 -10.875  1.00  0.00     0.219 C 
BRANCH  29  30
HETATM   30  C15 UNL     1      28.638  36.794  -9.763  1.00  0.00    -0.034 A 
HETATM   31  C16 UNL     1      27.578  35.932  -9.529  1.00  0.00     0.009 A 
HETATM   32  C17 UNL     1      27.592  35.026  -8.492  1.00  0.00     0.001 A 
HETATM   33  C18 UNL     1      28.664  34.931  -7.637  1.00  0.00     0.000 A 
HETATM   34  C19 UNL     1      29.738  35.786  -7.853  1.00  0.00     0.001 A 
HETATM   35  C20 UNL     1      29.716  36.692  -8.892  1.00  0.00     0.009 A 
ENDBRANCH  29  30
ENDBRANCH  28  29
ENDBRANCH  25  28
ENDBRANCH  23  24
ENDBRANCH  20  23
ENDBRANCH   1  20
TORSDOF 15
ENDMDL
