MODEL 14
REMARK VINA RESULT: -7.592132650      2.469     10.118
REMARK  13 active torsions:
REMARK  status: ('A' for Active; 'I' for Inactive)
REMARK    1  A    between atoms: C2_2  and  C4_4 
REMARK    2  A    between atoms: C4_4  and  C5_5 
REMARK    3  A    between atoms: C5_5  and  N1_6 
REMARK    4  A    between atoms: C5_5  and  C15_24 
REMARK    5  A    between atoms: N1_6  and  P1_8 
REMARK    6  A    between atoms: P1_8  and  C6_11 
REMARK    7  A    between atoms: C6_11  and  N2_12 
REMARK       I    between atoms: N2_12  and  C7_14 
REMARK    8  A    between atoms: C7_14  and  O4_16 
REMARK    9  A    between atoms: O4_16  and  C8_17 
REMARK   10  A    between atoms: C8_17  and  C9_18 
REMARK       I    between atoms: C15_24  and  N3_26 
REMARK   11  A    between atoms: N3_26  and  C16_28 
REMARK   12  A    between atoms: C16_28  and  C17_29 
REMARK   13  A    between atoms: C17_29  and  N4_30 
ROOT
HETATM    1  N1  UNL     1      13.076  38.263  -8.722  1.00  0.00    -0.334 N 
ATOM      2  H1  UNL     1      13.270  37.266  -8.817  1.00  0.00     0.164 HD
ENDROOT
BRANCH   1   3
HETATM    3  C5  UNL     1      13.336  39.130  -9.865  1.00  0.00     0.178 C 
BRANCH   3   4
HETATM    4  C4  UNL     1      14.379  40.111  -9.631  1.00  0.00     0.038 C 
BRANCH   4   5
HETATM    5  C2  UNL     1      14.174  41.532  -9.919  1.00  0.00    -0.020 C 
HETATM    6  C1  UNL     1      14.873  42.495  -8.988  1.00  0.00     0.009 C 
HETATM    7  C3  UNL     1      12.742  41.983 -10.059  1.00  0.00     0.009 C 
ENDBRANCH   4   5
ENDBRANCH   3   4
BRANCH   3   8
HETATM    8  C15 UNL     1      13.680  38.158 -10.926  1.00  0.00     0.240 C 
HETATM    9  O5  UNL     1      13.783  38.603 -12.122  1.00  0.00    -0.271 OA
HETATM   10  N3  UNL     1      13.923  36.781 -10.728  1.00  0.00    -0.358 N 
ATOM     11  H3  UNL     1      13.823  36.378  -9.796  1.00  0.00     0.162 HD
BRANCH  10  12
HETATM   12  C16 UNL     1      14.309  35.947 -11.823  1.00  0.00     0.150 C 
BRANCH  12  13
HETATM   13  C17 UNL     1      13.213  35.395 -12.653  1.00  0.00     0.249 C 
BRANCH  13  14
HETATM   14  N4  UNL     1      13.472  35.361 -14.067  1.00  0.00    -0.078 N 
ATOM     15  H43 UNL     1      12.594  35.301 -14.584  1.00  0.00     0.274 HD
ATOM     16  H42 UNL     1      13.805  36.270 -14.384  1.00  0.00     0.274 HD
ATOM     17  H41 UNL     1      14.111  34.626 -14.374  1.00  0.00     0.274 HD
ENDBRANCH  13  14
ENDBRANCH  12  13
ENDBRANCH  10  12
ENDBRANCH   3   8
ENDBRANCH   1   3
BRANCH   1  18
HETATM   18  P1  UNL     1      12.484  38.813  -7.281  1.00  0.00     0.224 P 
HETATM   19  O1  UNL     1      11.074  39.189  -7.826  1.00  0.00    -0.651 OA
HETATM   20  O2  UNL     1      12.554  40.492  -6.877  1.00  0.00    -0.651 OA
BRANCH  18  21
HETATM   21  C6  UNL     1      11.936  37.753  -6.016  1.00  0.00     0.252 C 
BRANCH  21  22
HETATM   22  N2  UNL     1      11.488  38.430  -4.816  1.00  0.00    -0.325 N 
HETATM   23  C7  UNL     1      10.109  38.538  -4.465  1.00  0.00     0.361 C 
HETATM   24  O3  UNL     1       9.266  38.023  -5.229  1.00  0.00    -0.238 OA
ATOM     25  H2  UNL     1      12.185  38.845  -4.198  1.00  0.00     0.165 HD
BRANCH  23  26
HETATM   26  O4  UNL     1       9.747  39.198  -3.310  1.00  0.00    -0.299 OA
BRANCH  26  27
HETATM   27  C8  UNL     1      10.522  39.032  -2.148  1.00  0.00     0.219 C 
BRANCH  27  28
HETATM   28  C9  UNL     1       9.774  38.371  -1.072  1.00  0.00    -0.034 A 
HETATM   29  C10 UNL     1       9.691  38.903   0.197  1.00  0.00     0.009 A 
HETATM   30  C11 UNL     1       8.980  38.282   1.221  1.00  0.00     0.001 A 
HETATM   31  C12 UNL     1       8.338  37.092   0.948  1.00  0.00     0.000 A 
HETATM   32  C13 UNL     1       8.418  36.557  -0.322  1.00  0.00     0.001 A 
HETATM   33  C14 UNL     1       9.120  37.167  -1.339  1.00  0.00     0.009 A 
ENDBRANCH  27  28
ENDBRANCH  26  27
ENDBRANCH  23  26
ENDBRANCH  21  22
ENDBRANCH  18  21
ENDBRANCH   1  18
TORSDOF 13
ENDMDL
