MODEL 10
REMARK VINA RESULT: -7.787860054      2.811     10.186
REMARK  13 active torsions:
REMARK  status: ('A' for Active; 'I' for Inactive)
REMARK    1  A    between atoms: C2_2  and  C4_4 
REMARK    2  A    between atoms: C4_4  and  C5_5 
REMARK    3  A    between atoms: C5_5  and  N1_6 
REMARK    4  A    between atoms: C5_5  and  C15_24 
REMARK    5  A    between atoms: N1_6  and  P1_8 
REMARK    6  A    between atoms: P1_8  and  C6_11 
REMARK    7  A    between atoms: C6_11  and  N2_12 
REMARK       I    between atoms: N2_12  and  C7_14 
REMARK    8  A    between atoms: C7_14  and  O4_16 
REMARK    9  A    between atoms: O4_16  and  C8_17 
REMARK   10  A    between atoms: C8_17  and  C9_18 
REMARK       I    between atoms: C15_24  and  N3_26 
REMARK   11  A    between atoms: N3_26  and  C16_28 
REMARK   12  A    between atoms: C16_28  and  C17_29 
REMARK   13  A    between atoms: C17_29  and  N4_30 
ROOT
HETATM    1  N1  UNL     1      14.864  39.003  -9.736  1.00  0.00    -0.334 N 
ATOM      2  H1  UNL     1      15.740  38.882  -9.229  1.00  0.00     0.164 HD
ENDROOT
BRANCH   1   3
HETATM    3  C5  UNL     1      14.901  39.668 -11.033  1.00  0.00     0.178 C 
BRANCH   3   4
HETATM    4  C4  UNL     1      16.067  40.510 -11.227  1.00  0.00     0.038 C 
BRANCH   4   5
HETATM    5  C2  UNL     1      16.582  41.366 -10.156  1.00  0.00    -0.020 C 
HETATM    6  C1  UNL     1      15.582  42.320  -9.545  1.00  0.00     0.009 C 
HETATM    7  C3  UNL     1      17.833  42.146 -10.471  1.00  0.00     0.009 C 
ENDBRANCH   4   5
ENDBRANCH   3   4
BRANCH   3   8
HETATM    8  C15 UNL     1      14.846  38.527 -11.973  1.00  0.00     0.240 C 
HETATM    9  O5  UNL     1      15.947  37.929 -12.239  1.00  0.00    -0.271 OA
HETATM   10  N3  UNL     1      13.678  38.030 -12.591  1.00  0.00    -0.358 N 
ATOM     11  H3  UNL     1      12.784  38.495 -12.431  1.00  0.00     0.162 HD
BRANCH  10  12
HETATM   12  C16 UNL     1      13.737  36.881 -13.438  1.00  0.00     0.150 C 
BRANCH  12  13
HETATM   13  C17 UNL     1      13.409  35.578 -12.812  1.00  0.00     0.249 C 
BRANCH  13  14
HETATM   14  N4  UNL     1      14.472  34.980 -12.050  1.00  0.00    -0.078 N 
ATOM     15  H43 UNL     1      15.256  34.750 -12.661  1.00  0.00     0.274 HD
ATOM     16  H42 UNL     1      14.909  35.679 -11.451  1.00  0.00     0.274 HD
ATOM     17  H41 UNL     1      14.205  34.163 -11.500  1.00  0.00     0.274 HD
ENDBRANCH  13  14
ENDBRANCH  12  13
ENDBRANCH  10  12
ENDBRANCH   3   8
ENDBRANCH   1   3
BRANCH   1  18
HETATM   18  P1  UNL     1      13.474  38.435  -9.047  1.00  0.00     0.224 P 
HETATM   19  O1  UNL     1      14.159  37.311  -8.216  1.00  0.00    -0.651 OA
HETATM   20  O2  UNL     1      12.611  37.113  -9.750  1.00  0.00    -0.651 OA
BRANCH  18  21
HETATM   21  C6  UNL     1      12.690  39.224  -7.710  1.00  0.00     0.252 C 
BRANCH  21  22
HETATM   22  N2  UNL     1      12.002  38.329  -6.802  1.00  0.00    -0.325 N 
HETATM   23  C7  UNL     1      10.983  38.776  -5.908  1.00  0.00     0.361 C 
HETATM   24  O3  UNL     1      10.681  39.988  -5.920  1.00  0.00    -0.238 OA
ATOM     25  H2  UNL     1      12.255  37.340  -6.802  1.00  0.00     0.165 HD
BRANCH  23  26
HETATM   26  O4  UNL     1      10.367  37.874  -5.066  1.00  0.00    -0.299 OA
BRANCH  26  27
HETATM   27  C8  UNL     1       9.227  38.271  -4.346  1.00  0.00     0.219 C 
BRANCH  27  28
HETATM   28  C9  UNL     1       9.431  38.189  -2.894  1.00  0.00    -0.034 A 
HETATM   29  C10 UNL     1       9.395  36.990  -2.215  1.00  0.00     0.009 A 
HETATM   30  C11 UNL     1       9.591  36.906  -0.839  1.00  0.00     0.001 A 
HETATM   31  C12 UNL     1       9.830  38.069  -0.137  1.00  0.00     0.000 A 
HETATM   32  C13 UNL     1       9.867  39.271  -0.813  1.00  0.00     0.001 A 
HETATM   33  C14 UNL     1       9.674  39.361  -2.174  1.00  0.00     0.009 A 
ENDBRANCH  27  28
ENDBRANCH  26  27
ENDBRANCH  23  26
ENDBRANCH  21  22
ENDBRANCH  18  21
ENDBRANCH   1  18
TORSDOF 13
ENDMDL
