MODEL 13
REMARK VINA RESULT: -7.720432893      2.714      9.643
REMARK  13 active torsions:
REMARK  status: ('A' for Active; 'I' for Inactive)
REMARK    1  A    between atoms: C2_2  and  C4_4 
REMARK    2  A    between atoms: C4_4  and  C5_5 
REMARK    3  A    between atoms: C5_5  and  N1_6 
REMARK    4  A    between atoms: C5_5  and  C15_24 
REMARK    5  A    between atoms: N1_6  and  P1_8 
REMARK    6  A    between atoms: P1_8  and  C6_11 
REMARK    7  A    between atoms: C6_11  and  N2_12 
REMARK       I    between atoms: N2_12  and  C7_14 
REMARK    8  A    between atoms: C7_14  and  O4_16 
REMARK    9  A    between atoms: O4_16  and  C8_17 
REMARK   10  A    between atoms: C8_17  and  C9_18 
REMARK       I    between atoms: C15_24  and  N3_26 
REMARK   11  A    between atoms: N3_26  and  C16_28 
REMARK   12  A    between atoms: C16_28  and  C17_29 
REMARK   13  A    between atoms: C17_29  and  N4_30 
ROOT
HETATM    1  N1  UNL     1      12.446  39.754  -9.287  1.00  0.00    -0.334 N 
ATOM      2  H1  UNL     1      11.645  39.170  -9.527  1.00  0.00     0.164 HD
ENDROOT
BRANCH   1   3
HETATM    3  C5  UNL     1      13.672  39.598 -10.060  1.00  0.00     0.178 C 
BRANCH   3   4
HETATM    4  C4  UNL     1      14.843  40.174  -9.424  1.00  0.00     0.038 C 
BRANCH   4   5
HETATM    5  C2  UNL     1      15.569  41.294 -10.025  1.00  0.00    -0.020 C 
HETATM    6  C1  UNL     1      16.927  40.961 -10.598  1.00  0.00     0.009 C 
HETATM    7  C3  UNL     1      15.720  42.526  -9.168  1.00  0.00     0.009 C 
ENDBRANCH   4   5
ENDBRANCH   3   4
BRANCH   3   8
HETATM    8  C15 UNL     1      13.761  38.130 -10.219  1.00  0.00     0.240 C 
HETATM    9  O5  UNL     1      12.859  37.421  -9.651  1.00  0.00    -0.271 OA
HETATM   10  N3  UNL     1      14.748  37.444 -10.960  1.00  0.00    -0.358 N 
ATOM     11  H3  UNL     1      15.502  37.968 -11.404  1.00  0.00     0.162 HD
BRANCH  10  12
HETATM   12  C16 UNL     1      14.698  36.022 -11.093  1.00  0.00     0.150 C 
BRANCH  12  13
HETATM   13  C17 UNL     1      13.921  35.490 -12.237  1.00  0.00     0.249 C 
BRANCH  13  14
HETATM   14  N4  UNL     1      14.559  35.610 -13.520  1.00  0.00    -0.078 N 
ATOM     15  H43 UNL     1      15.546  35.842 -13.401  1.00  0.00     0.274 HD
ATOM     16  H42 UNL     1      14.642  34.693 -13.958  1.00  0.00     0.274 HD
ATOM     17  H41 UNL     1      14.120  36.269 -14.164  1.00  0.00     0.274 HD
ENDBRANCH  13  14
ENDBRANCH  12  13
ENDBRANCH  10  12
ENDBRANCH   3   8
ENDBRANCH   1   3
BRANCH   1  18
HETATM   18  P1  UNL     1      12.288  40.828  -8.042  1.00  0.00     0.224 P 
HETATM   19  O1  UNL     1      10.732  40.873  -8.071  1.00  0.00    -0.651 OA
HETATM   20  O2  UNL     1      12.143  42.523  -8.346  1.00  0.00    -0.651 OA
BRANCH  18  21
HETATM   21  C6  UNL     1      12.446  40.370  -6.371  1.00  0.00     0.252 C 
BRANCH  21  22
HETATM   22  N2  UNL     1      11.228  39.868  -5.768  1.00  0.00    -0.325 N 
HETATM   23  C7  UNL     1      10.921  38.476  -5.704  1.00  0.00     0.361 C 
HETATM   24  O3  UNL     1      11.742  37.669  -6.189  1.00  0.00    -0.238 OA
ATOM     25  H2  UNL     1      10.565  40.535  -5.373  1.00  0.00     0.165 HD
BRANCH  23  26
HETATM   26  O4  UNL     1       9.743  38.061  -5.119  1.00  0.00    -0.299 OA
BRANCH  26  27
HETATM   27  C8  UNL     1       9.088  38.911  -4.209  1.00  0.00     0.219 C 
BRANCH  27  28
HETATM   28  C9  UNL     1       9.358  38.542  -2.814  1.00  0.00    -0.034 A 
HETATM   29  C10 UNL     1       9.396  37.228  -2.397  1.00  0.00     0.009 A 
HETATM   30  C11 UNL     1       9.654  36.873  -1.075  1.00  0.00     0.001 A 
HETATM   31  C12 UNL     1       9.879  37.875  -0.156  1.00  0.00     0.000 A 
HETATM   32  C13 UNL     1       9.841  39.192  -0.570  1.00  0.00     0.001 A 
HETATM   33  C14 UNL     1       9.587  39.550  -1.876  1.00  0.00     0.009 A 
ENDBRANCH  27  28
ENDBRANCH  26  27
ENDBRANCH  23  26
ENDBRANCH  21  22
ENDBRANCH  18  21
ENDBRANCH   1  18
TORSDOF 13
ENDMDL
