MODEL 12
REMARK VINA RESULT: -7.765487095      2.472      3.584
REMARK  13 active torsions:
REMARK  status: ('A' for Active; 'I' for Inactive)
REMARK    1  A    between atoms: C2_2  and  C4_4 
REMARK    2  A    between atoms: C4_4  and  C5_5 
REMARK    3  A    between atoms: C5_5  and  N1_6 
REMARK    4  A    between atoms: C5_5  and  C15_24 
REMARK    5  A    between atoms: N1_6  and  P1_8 
REMARK    6  A    between atoms: P1_8  and  C6_11 
REMARK    7  A    between atoms: C6_11  and  N2_12 
REMARK       I    between atoms: N2_12  and  C7_14 
REMARK    8  A    between atoms: C7_14  and  O4_16 
REMARK    9  A    between atoms: O4_16  and  C8_17 
REMARK   10  A    between atoms: C8_17  and  C9_18 
REMARK       I    between atoms: C15_24  and  N3_26 
REMARK   11  A    between atoms: N3_26  and  C16_28 
REMARK   12  A    between atoms: C16_28  and  C17_29 
REMARK   13  A    between atoms: C17_29  and  N4_30 
ROOT
HETATM    1  N1  UNL     1      10.982  39.380  -4.187  1.00  0.00    -0.334 N 
ATOM      2  H1  UNL     1      11.468  40.242  -3.938  1.00  0.00     0.164 HD
ENDROOT
BRANCH   1   3
HETATM    3  C5  UNL     1      10.094  38.777  -3.201  1.00  0.00     0.178 C 
BRANCH   3   4
HETATM    4  C4  UNL     1      10.649  38.735  -1.861  1.00  0.00     0.038 C 
BRANCH   4   5
HETATM    5  C2  UNL     1      10.227  37.726  -0.887  1.00  0.00    -0.020 C 
HETATM    6  C1  UNL     1       9.547  36.505  -1.463  1.00  0.00     0.009 C 
HETATM    7  C3  UNL     1       9.387  38.221   0.263  1.00  0.00     0.009 C 
ENDBRANCH   4   5
ENDBRANCH   3   4
BRANCH   3   8
HETATM    8  C15 UNL     1       8.887  39.626  -3.302  1.00  0.00     0.240 C 
HETATM    9  O5  UNL     1       7.764  39.036  -3.476  1.00  0.00    -0.271 OA
HETATM   10  N3  UNL     1       8.866  41.035  -3.206  1.00  0.00    -0.358 N 
ATOM     11  H3  UNL     1       9.740  41.548  -3.098  1.00  0.00     0.162 HD
BRANCH  10  12
HETATM   12  C16 UNL     1       7.628  41.748  -3.260  1.00  0.00     0.150 C 
BRANCH  12  13
HETATM   13  C17 UNL     1       7.248  42.319  -4.573  1.00  0.00     0.249 C 
BRANCH  13  14
HETATM   14  N4  UNL     1       8.339  42.833  -5.356  1.00  0.00    -0.078 N 
ATOM     15  H43 UNL     1       8.122  42.760  -6.351  1.00  0.00     0.274 HD
ATOM     16  H42 UNL     1       8.393  43.846  -5.259  1.00  0.00     0.274 HD
ATOM     17  H41 UNL     1       9.249  42.412  -5.163  1.00  0.00     0.274 HD
ENDBRANCH  13  14
ENDBRANCH  12  13
ENDBRANCH  10  12
ENDBRANCH   3   8
ENDBRANCH   1   3
BRANCH   1  18
HETATM   18  P1  UNL     1      11.240  38.739  -5.688  1.00  0.00     0.224 P 
HETATM   19  O1  UNL     1       9.801  38.172  -5.865  1.00  0.00    -0.651 OA
HETATM   20  O2  UNL     1      11.699  37.084  -5.878  1.00  0.00    -0.651 OA
BRANCH  18  21
HETATM   21  C6  UNL     1      11.258  39.700  -7.137  1.00  0.00     0.252 C 
BRANCH  21  22
HETATM   22  N2  UNL     1      12.564  39.844  -7.747  1.00  0.00    -0.325 N 
HETATM   23  C7  UNL     1      13.083  38.900  -8.683  1.00  0.00     0.361 C 
HETATM   24  O3  UNL     1      12.372  37.917  -8.982  1.00  0.00    -0.238 OA
ATOM     25  H2  UNL     1      13.136  40.652  -7.498  1.00  0.00     0.165 HD
BRANCH  23  26
HETATM   26  O4  UNL     1      14.336  39.092  -9.227  1.00  0.00    -0.299 OA
BRANCH  26  27
HETATM   27  C8  UNL     1      14.489  39.975 -10.310  1.00  0.00     0.219 C 
BRANCH  27  28
HETATM   28  C9  UNL     1      15.388  41.092  -9.992  1.00  0.00    -0.034 A 
HETATM   29  C10 UNL     1      16.640  41.209 -10.556  1.00  0.00     0.009 A 
HETATM   30  C11 UNL     1      17.495  42.268 -10.260  1.00  0.00     0.001 A 
HETATM   31  C12 UNL     1      17.067  43.230  -9.369  1.00  0.00     0.000 A 
HETATM   32  C13 UNL     1      15.814  43.115  -8.802  1.00  0.00     0.001 A 
HETATM   33  C14 UNL     1      14.964  42.071  -9.091  1.00  0.00     0.009 A 
ENDBRANCH  27  28
ENDBRANCH  26  27
ENDBRANCH  23  26
ENDBRANCH  21  22
ENDBRANCH  18  21
ENDBRANCH   1  18
TORSDOF 13
ENDMDL
