MODEL 15
REMARK VINA RESULT: -7.591815785      3.138      4.066
REMARK  13 active torsions:
REMARK  status: ('A' for Active; 'I' for Inactive)
REMARK    1  A    between atoms: C2_2  and  C4_4 
REMARK    2  A    between atoms: C4_4  and  C5_5 
REMARK    3  A    between atoms: C5_5  and  N1_6 
REMARK    4  A    between atoms: C5_5  and  C15_24 
REMARK    5  A    between atoms: N1_6  and  P1_8 
REMARK    6  A    between atoms: P1_8  and  C6_11 
REMARK    7  A    between atoms: C6_11  and  N2_12 
REMARK       I    between atoms: N2_12  and  C7_14 
REMARK    8  A    between atoms: C7_14  and  O4_16 
REMARK    9  A    between atoms: O4_16  and  C8_17 
REMARK   10  A    between atoms: C8_17  and  C9_18 
REMARK       I    between atoms: C15_24  and  N3_26 
REMARK   11  A    between atoms: N3_26  and  C16_28 
REMARK   12  A    between atoms: C16_28  and  C17_29 
REMARK   13  A    between atoms: C17_29  and  N4_30 
ROOT
HETATM    1  N1  UNL     1      11.042  38.781  -3.904  1.00  0.00    -0.334 N 
ATOM      2  H1  UNL     1      11.807  39.144  -3.335  1.00  0.00     0.164 HD
ENDROOT
BRANCH   1   3
HETATM    3  C5  UNL     1       9.884  38.214  -3.224  1.00  0.00     0.178 C 
BRANCH   3   4
HETATM    4  C4  UNL     1      10.159  37.768  -1.870  1.00  0.00     0.038 C 
BRANCH   4   5
HETATM    5  C2  UNL     1       9.111  37.191  -1.025  1.00  0.00    -0.020 C 
HETATM    6  C1  UNL     1       8.993  37.780   0.362  1.00  0.00     0.009 C 
HETATM    7  C3  UNL     1       9.116  35.690  -0.890  1.00  0.00     0.009 C 
ENDBRANCH   4   5
ENDBRANCH   3   4
BRANCH   3   8
HETATM    8  C15 UNL     1       8.909  39.324  -3.282  1.00  0.00     0.240 C 
HETATM    9  O5  UNL     1       7.729  39.052  -3.699  1.00  0.00    -0.271 OA
HETATM   10  N3  UNL     1       9.165  40.660  -2.900  1.00  0.00    -0.358 N 
ATOM     11  H3  UNL     1      10.099  40.927  -2.591  1.00  0.00     0.162 HD
BRANCH  10  12
HETATM   12  C16 UNL     1       8.125  41.639  -2.943  1.00  0.00     0.150 C 
BRANCH  12  13
HETATM   13  C17 UNL     1       8.359  42.889  -2.182  1.00  0.00     0.249 C 
BRANCH  13  14
HETATM   14  N4  UNL     1       9.409  42.822  -1.202  1.00  0.00    -0.078 N 
ATOM     15  H43 UNL     1      10.059  43.598  -1.330  1.00  0.00     0.274 HD
ATOM     16  H42 UNL     1       9.041  43.047  -0.278  1.00  0.00     0.274 HD
ATOM     17  H41 UNL     1       9.919  41.938  -1.171  1.00  0.00     0.274 HD
ENDBRANCH  13  14
ENDBRANCH  12  13
ENDBRANCH  10  12
ENDBRANCH   3   8
ENDBRANCH   1   3
BRANCH   1  18
HETATM   18  P1  UNL     1      11.178  38.864  -5.548  1.00  0.00     0.224 P 
HETATM   19  O1  UNL     1       9.881  38.059  -5.853  1.00  0.00    -0.651 OA
HETATM   20  O2  UNL     1      11.937  37.595  -6.441  1.00  0.00    -0.651 OA
BRANCH  18  21
HETATM   21  C6  UNL     1      10.755  40.282  -6.462  1.00  0.00     0.252 C 
BRANCH  21  22
HETATM   22  N2  UNL     1      11.486  40.439  -7.703  1.00  0.00    -0.325 N 
HETATM   23  C7  UNL     1      12.537  41.391  -7.859  1.00  0.00     0.361 C 
HETATM   24  O3  UNL     1      12.831  42.109  -6.879  1.00  0.00    -0.238 OA
ATOM     25  H2  UNL     1      11.240  39.847  -8.496  1.00  0.00     0.165 HD
BRANCH  23  26
HETATM   26  O4  UNL     1      13.194  41.494  -9.067  1.00  0.00    -0.299 OA
BRANCH  26  27
HETATM   27  C8  UNL     1      14.307  40.674  -9.319  1.00  0.00     0.219 C 
BRANCH  27  28
HETATM   28  C9  UNL     1      15.522  41.454  -9.587  1.00  0.00    -0.034 A 
HETATM   29  C10 UNL     1      16.517  40.998 -10.424  1.00  0.00     0.009 A 
HETATM   30  C11 UNL     1      17.670  41.736 -10.684  1.00  0.00     0.001 A 
HETATM   31  C12 UNL     1      17.814  42.966 -10.077  1.00  0.00     0.000 A 
HETATM   32  C13 UNL     1      16.819  43.425  -9.237  1.00  0.00     0.001 A 
HETATM   33  C14 UNL     1      15.677  42.701  -8.977  1.00  0.00     0.009 A 
ENDBRANCH  27  28
ENDBRANCH  26  27
ENDBRANCH  23  26
ENDBRANCH  21  22
ENDBRANCH  18  21
ENDBRANCH   1  18
TORSDOF 13
ENDMDL
