MODEL 6
REMARK VINA RESULT: -8.105029162      2.526      9.603
REMARK  12 active torsions:
REMARK  status: ('A' for Active; 'I' for Inactive)
REMARK    1  A    between atoms: C2_2  and  C4_4 
REMARK    2  A    between atoms: C4_4  and  C5_5 
REMARK    3  A    between atoms: C5_5  and  N1_6 
REMARK    4  A    between atoms: C5_5  and  C15_24 
REMARK    5  A    between atoms: N1_6  and  P1_8 
REMARK    6  A    between atoms: P1_8  and  C6_11 
REMARK    7  A    between atoms: C6_11  and  N2_12 
REMARK       I    between atoms: N2_12  and  C7_14 
REMARK    8  A    between atoms: C7_14  and  O4_16 
REMARK    9  A    between atoms: O4_16  and  C8_17 
REMARK   10  A    between atoms: C8_17  and  C9_18 
REMARK       I    between atoms: C15_24  and  N3_26 
REMARK   11  A    between atoms: N3_26  and  C16_28 
REMARK   12  A    between atoms: C16_28  and  N4_29 
ROOT
HETATM    1  N1  UNL     1      13.108  40.160  -9.791  1.00  0.00    -0.332 N 
ATOM      2  H1  UNL     1      12.665  40.723 -10.516  1.00  0.00     0.164 HD
ENDROOT
BRANCH   1   3
HETATM    3  C5  UNL     1      14.098  39.195 -10.212  1.00  0.00     0.178 C 
BRANCH   3   4
HETATM    4  C4  UNL     1      13.448  38.388 -11.346  1.00  0.00     0.038 C 
BRANCH   4   5
HETATM    5  C2  UNL     1      13.291  36.944 -11.075  1.00  0.00    -0.020 C 
HETATM    6  C1  UNL     1      14.522  36.516 -10.239  1.00  0.00     0.009 C 
HETATM    7  C3  UNL     1      13.375  36.157 -12.361  1.00  0.00     0.009 C 
ENDBRANCH   4   5
ENDBRANCH   3   4
BRANCH   3   8
HETATM    8  C15 UNL     1      15.205  39.982 -10.815  1.00  0.00     0.241 C 
HETATM    9  O5  UNL     1      15.201  40.260 -12.062  1.00  0.00    -0.271 OA
HETATM   10  N3  UNL     1      16.325  40.486 -10.105  1.00  0.00    -0.336 N 
ATOM     11  H3  UNL     1      16.400  40.316  -9.103  1.00  0.00     0.164 HD
BRANCH  10  12
HETATM   12  C16 UNL     1      17.375  41.248 -10.785  1.00  0.00     0.354 C 
BRANCH  12  13
HETATM   13  N4  UNL     1      18.072  40.327 -11.659  1.00  0.00    -0.064 N 
ATOM     14  H43 UNL     1      19.019  40.631 -11.887  1.00  0.00     0.276 HD
ATOM     15  H42 UNL     1      18.323  39.451 -11.200  1.00  0.00     0.276 HD
ATOM     16  H41 UNL     1      17.485  40.193 -12.483  1.00  0.00     0.276 HD
ENDBRANCH  12  13
ENDBRANCH  10  12
ENDBRANCH   3   8
ENDBRANCH   1   3
BRANCH   1  17
HETATM   17  P1  UNL     1      12.655  40.414  -8.301  1.00  0.00     0.246 P 
HETATM   18  O1  UNL     1      11.175  40.965  -8.738  1.00  0.00    -0.648 OA
HETATM   19  O2  UNL     1      13.951  41.487  -8.177  1.00  0.00    -0.648 OA
BRANCH  17  20
HETATM   20  C6  UNL     1      12.864  38.797  -7.701  1.00  0.00     0.190 C 
BRANCH  20  21
HETATM   21  N2  UNL     1      12.578  38.498  -6.312  1.00  0.00    -0.305 N 
HETATM   22  C7  UNL     1      11.235  38.307  -5.869  1.00  0.00     0.365 C 
HETATM   23  O3  UNL     1      10.340  38.417  -6.759  1.00  0.00    -0.238 OA
ATOM     24  H2  UNL     1      13.345  38.423  -5.644  1.00  0.00     0.170 HD
BRANCH  22  25
HETATM   25  O4  UNL     1      10.903  38.020  -4.562  1.00  0.00    -0.299 OA
BRANCH  25  26
HETATM   26  C8  UNL     1       9.601  38.363  -4.121  1.00  0.00     0.219 C 
BRANCH  26  27
HETATM   27  C9  UNL     1       9.563  38.207  -2.652  1.00  0.00    -0.034 A 
HETATM   28  C10 UNL     1       9.891  39.300  -1.876  1.00  0.00     0.009 A 
HETATM   29  C11 UNL     1       9.861  39.181  -0.504  1.00  0.00     0.001 A 
HETATM   30  C12 UNL     1       9.515  38.008   0.122  1.00  0.00     0.000 A 
HETATM   31  C13 UNL     1       9.194  36.942  -0.691  1.00  0.00     0.001 A 
HETATM   32  C14 UNL     1       9.213  37.027  -2.067  1.00  0.00     0.009 A 
ENDBRANCH  26  27
ENDBRANCH  25  26
ENDBRANCH  22  25
ENDBRANCH  20  21
ENDBRANCH  17  20
ENDBRANCH   1  17
TORSDOF 12
ENDMDL
