MODEL 7
REMARK VINA RESULT: -7.973066608      2.940      9.944
REMARK  12 active torsions:
REMARK  status: ('A' for Active; 'I' for Inactive)
REMARK    1  A    between atoms: C2_2  and  C4_4 
REMARK    2  A    between atoms: C4_4  and  C5_5 
REMARK    3  A    between atoms: C5_5  and  N1_6 
REMARK    4  A    between atoms: C5_5  and  C15_24 
REMARK    5  A    between atoms: N1_6  and  P1_8 
REMARK    6  A    between atoms: P1_8  and  C6_11 
REMARK    7  A    between atoms: C6_11  and  N2_12 
REMARK       I    between atoms: N2_12  and  C7_14 
REMARK    8  A    between atoms: C7_14  and  O4_16 
REMARK    9  A    between atoms: O4_16  and  C8_17 
REMARK   10  A    between atoms: C8_17  and  C9_18 
REMARK       I    between atoms: C15_24  and  N3_26 
REMARK   11  A    between atoms: N3_26  and  C16_28 
REMARK   12  A    between atoms: C16_28  and  N4_29 
ROOT
HETATM    1  N1  UNL     1      14.532  38.874  -9.701  1.00  0.00    -0.332 N 
ATOM      2  H1  UNL     1      15.404  39.127  -9.237  1.00  0.00     0.164 HD
ENDROOT
BRANCH   1   3
HETATM    3  C5  UNL     1      14.296  39.427 -11.016  1.00  0.00     0.178 C 
BRANCH   3   4
HETATM    4  C4  UNL     1      14.768  40.888 -10.951  1.00  0.00     0.038 C 
BRANCH   4   5
HETATM    5  C2  UNL     1      15.729  41.187  -9.870  1.00  0.00    -0.020 C 
HETATM    6  C1  UNL     1      15.170  42.414  -9.108  1.00  0.00     0.009 C 
HETATM    7  C3  UNL     1      17.051  41.632 -10.450  1.00  0.00     0.009 C 
ENDBRANCH   4   5
ENDBRANCH   3   4
BRANCH   3   8
HETATM    8  C15 UNL     1      15.219  38.710 -11.933  1.00  0.00     0.241 C 
HETATM    9  O5  UNL     1      15.726  39.307 -12.943  1.00  0.00    -0.271 OA
HETATM   10  N3  UNL     1      15.619  37.357 -11.790  1.00  0.00    -0.336 N 
ATOM     11  H3  UNL     1      15.266  36.812 -11.004  1.00  0.00     0.164 HD
BRANCH  10  12
HETATM   12  C16 UNL     1      16.530  36.728 -12.749  1.00  0.00     0.354 C 
BRANCH  12  13
HETATM   13  N4  UNL     1      15.727  36.279 -13.868  1.00  0.00    -0.064 N 
ATOM     14  H43 UNL     1      16.270  35.785 -14.577  1.00  0.00     0.276 HD
ATOM     15  H42 UNL     1      15.099  35.512 -13.627  1.00  0.00     0.276 HD
ATOM     16  H41 UNL     1      15.239  37.096 -14.235  1.00  0.00     0.276 HD
ENDBRANCH  12  13
ENDBRANCH  10  12
ENDBRANCH   3   8
ENDBRANCH   1   3
BRANCH   1  17
HETATM   17  P1  UNL     1      13.553  37.911  -8.925  1.00  0.00     0.246 P 
HETATM   18  O1  UNL     1      14.728  36.818  -8.595  1.00  0.00    -0.648 OA
HETATM   19  O2  UNL     1      12.669  37.791 -10.357  1.00  0.00    -0.648 OA
BRANCH  17  20
HETATM   20  C6  UNL     1      13.012  39.033  -7.714  1.00  0.00     0.190 C 
BRANCH  20  21
HETATM   21  N2  UNL     1      12.669  38.558  -6.389  1.00  0.00    -0.305 N 
HETATM   22  C7  UNL     1      11.305  38.416  -5.995  1.00  0.00     0.365 C 
HETATM   23  O3  UNL     1      10.444  38.729  -6.870  1.00  0.00    -0.238 OA
ATOM     24  H2  UNL     1      13.411  38.323  -5.730  1.00  0.00     0.170 HD
BRANCH  22  25
HETATM   25  O4  UNL     1      10.919  37.969  -4.750  1.00  0.00    -0.299 OA
BRANCH  25  26
HETATM   26  C8  UNL     1       9.633  38.339  -4.284  1.00  0.00     0.219 C 
BRANCH  26  27
HETATM   27  C9  UNL     1       9.645  38.264  -2.809  1.00  0.00    -0.034 A 
HETATM   28  C10 UNL     1       9.388  37.042  -2.220  1.00  0.00     0.009 A 
HETATM   29  C11 UNL     1       9.396  36.946  -0.846  1.00  0.00     0.001 A 
HETATM   30  C12 UNL     1       9.651  38.027  -0.036  1.00  0.00     0.000 A 
HETATM   31  C13 UNL     1       9.902  39.228  -0.667  1.00  0.00     0.001 A 
HETATM   32  C14 UNL     1       9.903  39.359  -2.039  1.00  0.00     0.009 A 
ENDBRANCH  26  27
ENDBRANCH  25  26
ENDBRANCH  22  25
ENDBRANCH  20  21
ENDBRANCH  17  20
ENDBRANCH   1  17
TORSDOF 12
ENDMDL
