MODEL 5
REMARK VINA RESULT: -8.126254027      2.399      9.769
REMARK  12 active torsions:
REMARK  status: ('A' for Active; 'I' for Inactive)
REMARK    1  A    between atoms: C2_2  and  C4_4 
REMARK    2  A    between atoms: C4_4  and  C5_5 
REMARK    3  A    between atoms: C5_5  and  N1_6 
REMARK    4  A    between atoms: C5_5  and  C15_24 
REMARK    5  A    between atoms: N1_6  and  P1_8 
REMARK    6  A    between atoms: P1_8  and  C6_11 
REMARK    7  A    between atoms: C6_11  and  N2_12 
REMARK       I    between atoms: N2_12  and  C7_14 
REMARK    8  A    between atoms: C7_14  and  O4_16 
REMARK    9  A    between atoms: O4_16  and  C8_17 
REMARK   10  A    between atoms: C8_17  and  C9_18 
REMARK       I    between atoms: C15_24  and  N3_26 
REMARK   11  A    between atoms: N3_26  and  C16_28 
REMARK   12  A    between atoms: C16_28  and  N4_29 
ROOT
HETATM    1  N1  UNL     1      13.272  40.228  -8.146  1.00  0.00    -0.332 N 
ATOM      2  H1  UNL     1      14.033  40.021  -7.499  1.00  0.00     0.164 HD
ENDROOT
BRANCH   1   3
HETATM    3  C5  UNL     1      13.542  40.080  -9.558  1.00  0.00     0.178 C 
BRANCH   3   4
HETATM    4  C4  UNL     1      14.902  40.753  -9.802  1.00  0.00     0.038 C 
BRANCH   4   5
HETATM    5  C2  UNL     1      14.985  42.165  -9.373  1.00  0.00    -0.020 C 
HETATM    6  C1  UNL     1      14.089  42.974 -10.342  1.00  0.00     0.009 C 
HETATM    7  C3  UNL     1      16.386  42.693  -9.574  1.00  0.00     0.009 C 
ENDBRANCH   4   5
ENDBRANCH   3   4
BRANCH   3   8
HETATM    8  C15 UNL     1      13.729  38.624  -9.789  1.00  0.00     0.241 C 
HETATM    9  O5  UNL     1      14.052  37.849  -8.826  1.00  0.00    -0.271 OA
HETATM   10  N3  UNL     1      13.571  37.972 -11.038  1.00  0.00    -0.336 N 
ATOM     11  H3  UNL     1      13.304  38.518 -11.857  1.00  0.00     0.164 HD
BRANCH  10  12
HETATM   12  C16 UNL     1      13.783  36.529 -11.175  1.00  0.00     0.354 C 
BRANCH  12  13
HETATM   13  N4  UNL     1      15.188  36.279 -10.929  1.00  0.00    -0.064 N 
ATOM     14  H43 UNL     1      15.711  37.126 -10.706  1.00  0.00     0.276 HD
ATOM     15  H42 UNL     1      15.359  35.785 -10.053  1.00  0.00     0.276 HD
ATOM     16  H41 UNL     1      15.553  35.786 -11.744  1.00  0.00     0.276 HD
ENDBRANCH  12  13
ENDBRANCH  10  12
ENDBRANCH   3   8
ENDBRANCH   1   3
BRANCH   1  17
HETATM   17  P1  UNL     1      11.897  40.684  -7.522  1.00  0.00     0.246 P 
HETATM   18  O1  UNL     1      11.254  41.082  -8.975  1.00  0.00    -0.648 OA
HETATM   19  O2  UNL     1      12.769  41.829  -6.643  1.00  0.00    -0.648 OA
BRANCH  17  20
HETATM   20  C6  UNL     1      11.475  39.191  -6.738  1.00  0.00     0.190 C 
BRANCH  20  21
HETATM   21  N2  UNL     1      11.509  39.098  -5.293  1.00  0.00    -0.305 N 
HETATM   22  C7  UNL     1      10.423  38.516  -4.573  1.00  0.00     0.365 C 
HETATM   23  O3  UNL     1       9.455  38.101  -5.277  1.00  0.00    -0.238 OA
ATOM     24  H2  UNL     1      12.319  39.452  -4.783  1.00  0.00     0.170 HD
BRANCH  22  25
HETATM   25  O4  UNL     1      10.401  38.400  -3.200  1.00  0.00    -0.299 OA
BRANCH  25  26
HETATM   26  C8  UNL     1       9.633  37.350  -2.638  1.00  0.00     0.219 C 
BRANCH  26  27
HETATM   27  C9  UNL     1       9.403  37.667  -1.214  1.00  0.00    -0.034 A 
HETATM   28  C10 UNL     1       8.400  36.986  -0.553  1.00  0.00     0.009 A 
HETATM   29  C11 UNL     1       8.167  37.261   0.777  1.00  0.00     0.001 A 
HETATM   30  C12 UNL     1       8.900  38.194   1.472  1.00  0.00     0.000 A 
HETATM   31  C13 UNL     1       9.891  38.850   0.773  1.00  0.00     0.001 A 
HETATM   32  C14 UNL     1      10.151  38.598  -0.557  1.00  0.00     0.009 A 
ENDBRANCH  26  27
ENDBRANCH  25  26
ENDBRANCH  22  25
ENDBRANCH  20  21
ENDBRANCH  17  20
ENDBRANCH   1  17
TORSDOF 12
ENDMDL
