MODEL 11
REMARK VINA RESULT: -8.220336370      2.971     10.757
REMARK  14 active torsions:
REMARK  status: ('A' for Active; 'I' for Inactive)
REMARK    1  A    between atoms: C2_2  and  C4_4 
REMARK    2  A    between atoms: C4_4  and  C5_5 
REMARK    3  A    between atoms: C5_5  and  N1_6 
REMARK    4  A    between atoms: C5_5  and  C15_24 
REMARK    5  A    between atoms: N1_6  and  P1_8 
REMARK    6  A    between atoms: P1_8  and  C6_11 
REMARK    7  A    between atoms: C6_11  and  N2_12 
REMARK       I    between atoms: N2_12  and  C7_14 
REMARK    8  A    between atoms: C7_14  and  O4_16 
REMARK    9  A    between atoms: O4_16  and  C8_17 
REMARK   10  A    between atoms: C8_17  and  C9_18 
REMARK       I    between atoms: C15_24  and  N3_26 
REMARK   11  A    between atoms: N3_26  and  C16_28 
REMARK   12  A    between atoms: C16_28  and  C17_29 
REMARK   13  A    between atoms: C16_28  and  C18_34 
REMARK   14  A    between atoms: C17_29  and  N4_30 
ROOT
HETATM    1  C5  UNL     1      14.603  39.812 -10.927  1.00  0.00     0.101 C 
ENDROOT
BRANCH   1   2
HETATM    2  C4  UNL     1      15.422  41.024 -11.012  1.00  0.00     0.012 C 
BRANCH   2   3
HETATM    3  C2  UNL     1      16.583  41.291 -10.170  1.00  0.00     0.002 C 
HETATM    4  C1  UNL     1      16.432  42.788  -9.761  1.00  0.00     0.013 C 
HETATM    5  C3  UNL     1      17.912  41.305 -10.918  1.00  0.00     0.013 C 
ENDBRANCH   2   3
ENDBRANCH   1   2
BRANCH   1   6
HETATM    6  N1  UNL     1      14.761  38.878  -9.913  1.00  0.00    -0.306 N 
ATOM      7  H1  UNL     1      15.675  38.424  -9.937  1.00  0.00     0.170 HD
BRANCH   6   8
HETATM    8  P1  UNL     1      13.838  38.343  -8.707  1.00  0.00     0.250 P 
HETATM    9  O1  UNL     1      12.782  37.602  -9.524  1.00  0.00    -0.648 OA
HETATM   10  O2  UNL     1      14.076  36.818  -7.939  1.00  0.00    -0.648 OA
BRANCH   8  11
HETATM   11  C6  UNL     1      12.680  39.406  -7.876  1.00  0.00     0.190 C 
BRANCH  11  12
HETATM   12  N2  UNL     1      12.442  39.241  -6.480  1.00  0.00    -0.305 N 
HETATM   13  C7  UNL     1      11.201  38.738  -6.007  1.00  0.00     0.365 C 
HETATM   14  O3  UNL     1      10.295  38.436  -6.815  1.00  0.00    -0.238 OA
ATOM     15  H2  UNL     1      13.173  39.487  -5.812  1.00  0.00     0.170 HD
BRANCH  13  16
HETATM   16  O4  UNL     1      10.917  38.553  -4.666  1.00  0.00    -0.299 OA
BRANCH  16  17
HETATM   17  C8  UNL     1       9.626  38.434  -4.109  1.00  0.00     0.219 C 
BRANCH  17  18
HETATM   18  C9  UNL     1       9.592  38.386  -2.644  1.00  0.00    -0.034 A 
HETATM   19  C10 UNL     1       9.825  39.485  -1.846  1.00  0.00     0.009 A 
HETATM   20  C11 UNL     1       9.785  39.394  -0.454  1.00  0.00     0.001 A 
HETATM   21  C12 UNL     1       9.512  38.201   0.168  1.00  0.00     0.000 A 
HETATM   22  C13 UNL     1       9.277  37.095  -0.624  1.00  0.00     0.001 A 
HETATM   23  C14 UNL     1       9.318  37.193  -1.999  1.00  0.00     0.009 A 
ENDBRANCH  17  18
ENDBRANCH  16  17
ENDBRANCH  13  16
ENDBRANCH  11  12
ENDBRANCH   8  11
ENDBRANCH   6   8
ENDBRANCH   1   6
BRANCH   1  24
HETATM   24  C15 UNL     1      14.324  39.179 -12.277  1.00  0.00     0.268 C 
HETATM   25  O5  UNL     1      14.093  39.858 -13.298  1.00  0.00    -0.266 OA
HETATM   26  N3  UNL     1      14.311  37.777 -12.451  1.00  0.00    -0.340 N 
ATOM     27  H3  UNL     1      14.493  37.172 -11.651  1.00  0.00     0.163 HD
BRANCH  26  28
HETATM   28  C16 UNL     1      14.045  37.189 -13.739  1.00  0.00     0.211 C 
BRANCH  28  29
HETATM   29  C17 UNL     1      15.347  36.749 -14.405  1.00  0.00     0.265 C 
BRANCH  29  30
HETATM   30  N4  UNL     1      16.314  36.243 -13.484  1.00  0.00    -0.077 N 
ATOM     31  H43 UNL     1      15.857  35.832 -12.670  1.00  0.00     0.274 HD
ATOM     32  H42 UNL     1      16.770  35.411 -13.860  1.00  0.00     0.274 HD
ATOM     33  H41 UNL     1      17.005  36.937 -13.199  1.00  0.00     0.274 HD
ENDBRANCH  29  30
ENDBRANCH  28  29
BRANCH  28  34
HETATM   34  C18 UNL     1      13.186  35.995 -13.596  1.00  0.00     0.198 C 
HETATM   35  O6  UNL     1      12.761  35.314 -14.561  1.00  0.00    -0.646 OA
HETATM   36  O7  UNL     1      12.800  35.565 -12.325  1.00  0.00    -0.646 OA
ENDBRANCH  28  34
ENDBRANCH  26  28
ENDBRANCH   1  24
TORSDOF 14
ENDMDL
