MODEL 12
REMARK VINA RESULT: -8.201869876      2.903     10.370
REMARK  14 active torsions:
REMARK  status: ('A' for Active; 'I' for Inactive)
REMARK    1  A    between atoms: C2_2  and  C4_4 
REMARK    2  A    between atoms: C4_4  and  C5_5 
REMARK    3  A    between atoms: C5_5  and  N1_6 
REMARK    4  A    between atoms: C5_5  and  C15_24 
REMARK    5  A    between atoms: N1_6  and  P1_8 
REMARK    6  A    between atoms: P1_8  and  C6_11 
REMARK    7  A    between atoms: C6_11  and  N2_12 
REMARK       I    between atoms: N2_12  and  C7_14 
REMARK    8  A    between atoms: C7_14  and  O4_16 
REMARK    9  A    between atoms: O4_16  and  C8_17 
REMARK   10  A    between atoms: C8_17  and  C9_18 
REMARK       I    between atoms: C15_24  and  N3_26 
REMARK   11  A    between atoms: N3_26  and  C16_28 
REMARK   12  A    between atoms: C16_28  and  C17_29 
REMARK   13  A    between atoms: C16_28  and  C18_34 
REMARK   14  A    between atoms: C17_29  and  N4_30 
ROOT
HETATM    1  C5  UNL     1      14.699  40.988  -9.892  1.00  0.00     0.101 C 
ENDROOT
BRANCH   1   2
HETATM    2  C4  UNL     1      16.045  41.550 -10.019  1.00  0.00     0.012 C 
BRANCH   2   3
HETATM    3  C2  UNL     1      16.356  42.971  -9.911  1.00  0.00     0.002 C 
HETATM    4  C1  UNL     1      17.891  43.056 -10.170  1.00  0.00     0.013 C 
HETATM    5  C3  UNL     1      16.248  43.533  -8.496  1.00  0.00     0.013 C 
ENDBRANCH   2   3
ENDBRANCH   1   2
BRANCH   1   6
HETATM    6  N1  UNL     1      14.135  40.680  -8.661  1.00  0.00    -0.306 N 
ATOM      7  H1  UNL     1      14.782  40.828  -7.886  1.00  0.00     0.170 HD
BRANCH   6   8
HETATM    8  P1  UNL     1      12.698  40.143  -8.172  1.00  0.00     0.250 P 
HETATM    9  O1  UNL     1      12.539  40.996  -6.915  1.00  0.00    -0.648 OA
HETATM   10  O2  UNL     1      11.207  40.864  -8.650  1.00  0.00    -0.648 OA
BRANCH   8  11
HETATM   11  C6  UNL     1      12.521  38.587  -7.331  1.00  0.00     0.190 C 
BRANCH  11  12
HETATM   12  N2  UNL     1      12.287  38.565  -5.924  1.00  0.00    -0.305 N 
HETATM   13  C7  UNL     1      10.972  38.419  -5.407  1.00  0.00     0.365 C 
HETATM   14  O3  UNL     1       9.998  38.311  -6.184  1.00  0.00    -0.238 OA
ATOM     15  H2  UNL     1      13.073  38.656  -5.281  1.00  0.00     0.170 HD
BRANCH  13  16
HETATM   16  O4  UNL     1      10.687  38.388  -4.054  1.00  0.00    -0.299 OA
BRANCH  16  17
HETATM   17  C8  UNL     1       9.412  38.172  -3.489  1.00  0.00     0.219 C 
BRANCH  17  18
HETATM   18  C9  UNL     1       9.374  38.220  -2.024  1.00  0.00    -0.034 A 
HETATM   19  C10 UNL     1       8.812  37.229  -1.249  1.00  0.00     0.009 A 
HETATM   20  C11 UNL     1       8.795  37.316   0.144  1.00  0.00     0.001 A 
HETATM   21  C12 UNL     1       9.340  38.398   0.790  1.00  0.00     0.000 A 
HETATM   22  C13 UNL     1       9.906  39.396   0.021  1.00  0.00     0.001 A 
HETATM   23  C14 UNL     1       9.918  39.302  -1.354  1.00  0.00     0.009 A 
ENDBRANCH  17  18
ENDBRANCH  16  17
ENDBRANCH  13  16
ENDBRANCH  11  12
ENDBRANCH   8  11
ENDBRANCH   6   8
ENDBRANCH   1   6
BRANCH   1  24
HETATM   24  C15 UNL     1      14.367  39.970 -10.967  1.00  0.00     0.268 C 
HETATM   25  O5  UNL     1      13.698  40.261 -11.979  1.00  0.00    -0.266 OA
HETATM   26  N3  UNL     1      14.804  38.629 -10.878  1.00  0.00    -0.340 N 
ATOM     27  H3  UNL     1      15.355  38.334 -10.072  1.00  0.00     0.163 HD
BRANCH  26  28
HETATM   28  C16 UNL     1      14.482  37.673 -11.906  1.00  0.00     0.211 C 
BRANCH  28  29
HETATM   29  C17 UNL     1      15.701  36.816 -12.240  1.00  0.00     0.265 C 
BRANCH  29  30
HETATM   30  N4  UNL     1      15.662  36.259 -13.554  1.00  0.00    -0.077 N 
ATOM     31  H43 UNL     1      15.356  35.287 -13.525  1.00  0.00     0.274 HD
ATOM     32  H42 UNL     1      14.896  36.662 -14.094  1.00  0.00     0.274 HD
ATOM     33  H41 UNL     1      16.545  36.345 -14.058  1.00  0.00     0.274 HD
ENDBRANCH  29  30
ENDBRANCH  28  29
BRANCH  28  34
HETATM   34  C18 UNL     1      13.405  36.767 -11.454  1.00  0.00     0.198 C 
HETATM   35  O6  UNL     1      13.024  35.754 -12.090  1.00  0.00    -0.646 OA
HETATM   36  O7  UNL     1      12.747  37.019 -10.249  1.00  0.00    -0.646 OA
ENDBRANCH  28  34
ENDBRANCH  26  28
ENDBRANCH   1  24
TORSDOF 14
ENDMDL
