MODEL 13
REMARK VINA RESULT: -8.130946741      1.771      2.488
REMARK  14 active torsions:
REMARK  status: ('A' for Active; 'I' for Inactive)
REMARK    1  A    between atoms: C2_2  and  C4_4 
REMARK    2  A    between atoms: C4_4  and  C5_5 
REMARK    3  A    between atoms: C5_5  and  N1_6 
REMARK    4  A    between atoms: C5_5  and  C15_24 
REMARK    5  A    between atoms: N1_6  and  P1_8 
REMARK    6  A    between atoms: P1_8  and  C6_11 
REMARK    7  A    between atoms: C6_11  and  N2_12 
REMARK       I    between atoms: N2_12  and  C7_14 
REMARK    8  A    between atoms: C7_14  and  O4_16 
REMARK    9  A    between atoms: O4_16  and  C8_17 
REMARK   10  A    between atoms: C8_17  and  C9_18 
REMARK       I    between atoms: C15_24  and  N3_26 
REMARK   11  A    between atoms: N3_26  and  C16_28 
REMARK   12  A    between atoms: C16_28  and  C17_29 
REMARK   13  A    between atoms: C16_28  and  C18_34 
REMARK   14  A    between atoms: C17_29  and  N4_30 
ROOT
HETATM    1  C5  UNL     1      10.047  38.550  -3.226  1.00  0.00     0.101 C 
ENDROOT
BRANCH   1   2
HETATM    2  C4  UNL     1      10.260  38.123  -1.841  1.00  0.00     0.012 C 
BRANCH   2   3
HETATM    3  C2  UNL     1       9.191  37.752  -0.922  1.00  0.00     0.002 C 
HETATM    4  C1  UNL     1       9.593  38.413   0.432  1.00  0.00     0.013 C 
HETATM    5  C3  UNL     1       9.165  36.273  -0.550  1.00  0.00     0.013 C 
ENDBRANCH   2   3
ENDBRANCH   1   2
BRANCH   1   6
HETATM    6  N1  UNL     1      11.098  38.814  -4.094  1.00  0.00    -0.306 N 
ATOM      7  H1  UNL     1      12.005  38.796  -3.627  1.00  0.00     0.170 HD
BRANCH   6   8
HETATM    8  P1  UNL     1      11.219  39.140  -5.666  1.00  0.00     0.250 P 
HETATM    9  O1  UNL     1      10.012  38.351  -6.168  1.00  0.00    -0.648 OA
HETATM   10  O2  UNL     1      10.444  40.485  -6.414  1.00  0.00    -0.648 OA
BRANCH   8  11
HETATM   11  C6  UNL     1      12.397  38.305  -6.703  1.00  0.00     0.190 C 
BRANCH  11  12
HETATM   12  N2  UNL     1      12.677  38.812  -8.007  1.00  0.00    -0.305 N 
HETATM   13  C7  UNL     1      13.734  38.273  -8.786  1.00  0.00     0.365 C 
HETATM   14  O3  UNL     1      14.441  37.345  -8.334  1.00  0.00    -0.238 OA
ATOM     15  H2  UNL     1      12.110  39.571  -8.384  1.00  0.00     0.170 HD
BRANCH  13  16
HETATM   16  O4  UNL     1      14.047  38.722 -10.057  1.00  0.00    -0.299 OA
BRANCH  16  17
HETATM   17  C8  UNL     1      14.312  40.062 -10.412  1.00  0.00     0.219 C 
BRANCH  17  18
HETATM   18  C9  UNL     1      15.647  40.295 -10.972  1.00  0.00    -0.034 A 
HETATM   19  C10 UNL     1      16.112  39.663 -12.105  1.00  0.00     0.009 A 
HETATM   20  C11 UNL     1      17.392  39.913 -12.603  1.00  0.00     0.001 A 
HETATM   21  C12 UNL     1      18.232  40.800 -11.976  1.00  0.00     0.000 A 
HETATM   22  C13 UNL     1      17.774  41.437 -10.841  1.00  0.00     0.001 A 
HETATM   23  C14 UNL     1      16.509  41.185 -10.355  1.00  0.00     0.009 A 
ENDBRANCH  17  18
ENDBRANCH  16  17
ENDBRANCH  13  16
ENDBRANCH  11  12
ENDBRANCH   8  11
ENDBRANCH   6   8
ENDBRANCH   1   6
BRANCH   1  24
HETATM   24  C15 UNL     1       8.891  39.520  -3.385  1.00  0.00     0.268 C 
HETATM   25  O5  UNL     1       7.768  39.161  -3.792  1.00  0.00    -0.266 OA
HETATM   26  N3  UNL     1       9.026  40.892  -3.076  1.00  0.00    -0.340 N 
ATOM     27  H3  UNL     1       9.922  41.244  -2.739  1.00  0.00     0.163 HD
BRANCH  26  28
HETATM   28  C16 UNL     1       7.920  41.803  -3.231  1.00  0.00     0.211 C 
BRANCH  28  29
HETATM   29  C17 UNL     1       7.865  42.782  -2.060  1.00  0.00     0.265 C 
BRANCH  29  30
HETATM   30  N4  UNL     1       9.148  43.271  -1.668  1.00  0.00    -0.077 N 
ATOM     31  H43 UNL     1       9.711  42.524  -1.262  1.00  0.00     0.274 HD
ATOM     32  H42 UNL     1       9.718  43.487  -2.487  1.00  0.00     0.274 HD
ATOM     33  H41 UNL     1       9.102  44.073  -1.038  1.00  0.00     0.274 HD
ENDBRANCH  29  30
ENDBRANCH  28  29
BRANCH  28  34
HETATM   34  C18 UNL     1       8.068  42.593  -4.472  1.00  0.00     0.198 C 
HETATM   35  O6  UNL     1       9.108  43.222  -4.785  1.00  0.00    -0.646 OA
HETATM   36  O7  UNL     1       7.009  42.668  -5.377  1.00  0.00    -0.646 OA
ENDBRANCH  28  34
ENDBRANCH  26  28
ENDBRANCH   1  24
TORSDOF 14
ENDMDL
