MODEL 15
REMARK VINA RESULT: -8.074893864      2.689      9.441
REMARK  14 active torsions:
REMARK  status: ('A' for Active; 'I' for Inactive)
REMARK    1  A    between atoms: C2_2  and  C4_4 
REMARK    2  A    between atoms: C4_4  and  C5_5 
REMARK    3  A    between atoms: C5_5  and  N1_6 
REMARK    4  A    between atoms: C5_5  and  C15_24 
REMARK    5  A    between atoms: N1_6  and  P1_8 
REMARK    6  A    between atoms: P1_8  and  C6_11 
REMARK    7  A    between atoms: C6_11  and  N2_12 
REMARK       I    between atoms: N2_12  and  C7_14 
REMARK    8  A    between atoms: C7_14  and  O4_16 
REMARK    9  A    between atoms: O4_16  and  C8_17 
REMARK   10  A    between atoms: C8_17  and  C9_18 
REMARK       I    between atoms: C15_24  and  N3_26 
REMARK   11  A    between atoms: N3_26  and  C16_28 
REMARK   12  A    between atoms: C16_28  and  C17_29 
REMARK   13  A    between atoms: C16_28  and  C18_34 
REMARK   14  A    between atoms: C17_29  and  N4_30 
ROOT
HETATM    1  C5  UNL     1      14.083  38.913 -10.065  1.00  0.00     0.101 C 
ENDROOT
BRANCH   1   2
HETATM    2  C4  UNL     1      13.617  38.206 -11.261  1.00  0.00     0.012 C 
BRANCH   2   3
HETATM    3  C2  UNL     1      13.437  36.762 -11.343  1.00  0.00     0.002 C 
HETATM    4  C1  UNL     1      14.845  36.175 -11.020  1.00  0.00     0.013 C 
HETATM    5  C3  UNL     1      13.198  36.236 -12.755  1.00  0.00     0.013 C 
ENDBRANCH   2   3
ENDBRANCH   1   2
BRANCH   1   6
HETATM    6  N1  UNL     1      13.693  38.545  -8.785  1.00  0.00    -0.306 N 
ATOM      7  H1  UNL     1      14.346  37.894  -8.348  1.00  0.00     0.170 HD
BRANCH   6   8
HETATM    8  P1  UNL     1      12.450  38.906  -7.828  1.00  0.00     0.250 P 
HETATM    9  O1  UNL     1      13.097  40.016  -7.002  1.00  0.00    -0.648 OA
HETATM   10  O2  UNL     1      11.276  40.106  -8.216  1.00  0.00    -0.648 OA
BRANCH   8  11
HETATM   11  C6  UNL     1      12.026  37.894  -6.428  1.00  0.00     0.190 C 
BRANCH  11  12
HETATM   12  N2  UNL     1      11.766  38.505  -5.166  1.00  0.00    -0.305 N 
HETATM   13  C7  UNL     1      10.443  38.586  -4.655  1.00  0.00     0.365 C 
HETATM   14  O3  UNL     1       9.484  38.124  -5.312  1.00  0.00    -0.238 OA
ATOM     15  H2  UNL     1      12.539  38.889  -4.623  1.00  0.00     0.170 HD
BRANCH  13  16
HETATM   16  O4  UNL     1      10.133  39.164  -3.437  1.00  0.00    -0.299 OA
BRANCH  16  17
HETATM   17  C8  UNL     1      10.780  38.894  -2.212  1.00  0.00     0.219 C 
BRANCH  17  18
HETATM   18  C9  UNL     1       9.928  38.279  -1.190  1.00  0.00    -0.034 A 
HETATM   19  C10 UNL     1       9.250  37.094  -1.384  1.00  0.00     0.009 A 
HETATM   20  C11 UNL     1       8.446  36.545  -0.384  1.00  0.00     0.001 A 
HETATM   21  C12 UNL     1       8.304  37.170   0.830  1.00  0.00     0.000 A 
HETATM   22  C13 UNL     1       8.979  38.357   1.032  1.00  0.00     0.001 A 
HETATM   23  C14 UNL     1       9.771  38.893   0.039  1.00  0.00     0.009 A 
ENDBRANCH  17  18
ENDBRANCH  16  17
ENDBRANCH  13  16
ENDBRANCH  11  12
ENDBRANCH   8  11
ENDBRANCH   6   8
ENDBRANCH   1   6
BRANCH   1  24
HETATM   24  C15 UNL     1      14.167  40.417 -10.249  1.00  0.00     0.268 C 
HETATM   25  O5  UNL     1      14.036  40.961 -11.364  1.00  0.00    -0.266 OA
HETATM   26  N3  UNL     1      14.399  41.285  -9.160  1.00  0.00    -0.340 N 
ATOM     27  H3  UNL     1      14.515  40.896  -8.224  1.00  0.00     0.163 HD
BRANCH  26  28
HETATM   28  C16 UNL     1      14.476  42.712  -9.349  1.00  0.00     0.211 C 
BRANCH  28  29
HETATM   29  C17 UNL     1      13.125  43.363  -9.060  1.00  0.00     0.265 C 
BRANCH  29  30
HETATM   30  N4  UNL     1      12.451  42.799  -7.936  1.00  0.00    -0.077 N 
ATOM     31  H43 UNL     1      11.925  41.969  -8.209  1.00  0.00     0.274 HD
ATOM     32  H42 UNL     1      13.117  42.372  -7.291  1.00  0.00     0.274 HD
ATOM     33  H41 UNL     1      11.849  43.463  -7.448  1.00  0.00     0.274 HD
ENDBRANCH  29  30
ENDBRANCH  28  29
BRANCH  28  34
HETATM   34  C18 UNL     1      15.468  43.304  -8.426  1.00  0.00     0.198 C 
HETATM   35  O6  UNL     1      15.239  43.564  -7.220  1.00  0.00    -0.646 OA
HETATM   36  O7  UNL     1      16.749  43.609  -8.887  1.00  0.00    -0.646 OA
ENDBRANCH  28  34
ENDBRANCH  26  28
ENDBRANCH   1  24
TORSDOF 14
ENDMDL
