MODEL 2
REMARK VINA RESULT: -10.038949146      0.057      2.463
REMARK  1 active torsions:
REMARK  status: ('A' for Active; 'I' for Inactive)
REMARK    1  A    between atoms: C7_7  and  N1_8 
ROOT
HETATM    1  N1  UNL     1     -26.483  -8.286  26.481  1.00  0.00    -0.243 N 
HETATM    2  C8  UNL     1     -25.454  -7.733  25.663  1.00  0.00     0.266 A 
HETATM    3  O1  UNL     1     -24.559  -8.503  25.226  1.00  0.00    -0.267 OA
HETATM    4  C9  UNL     1     -25.403  -6.318  25.319  1.00  0.00     0.045 A 
HETATM    5  C10 UNL     1     -24.414  -5.772  24.529  1.00  0.00     0.018 A 
HETATM    6  C11 UNL     1     -24.387  -4.429  24.218  1.00  0.00     0.002 A 
HETATM    7  C12 UNL     1     -25.397  -3.625  24.726  1.00  0.00     0.012 A 
HETATM    8  C13 UNL     1     -26.401  -4.131  25.516  1.00  0.00    -0.024 A 
HETATM    9  C14 UNL     1     -27.379  -3.307  26.000  1.00  0.00     0.012 A 
HETATM   10  C15 UNL     1     -28.403  -3.801  26.800  1.00  0.00     0.002 A 
HETATM   11  C16 UNL     1     -28.407  -5.127  27.093  1.00  0.00     0.018 A 
HETATM   12  C17 UNL     1     -27.415  -5.979  26.608  1.00  0.00     0.045 A 
HETATM   13  C18 UNL     1     -26.398  -5.479  25.810  1.00  0.00     0.006 A 
HETATM   14  C19 UNL     1     -27.480  -7.392  26.960  1.00  0.00     0.266 A 
HETATM   15  O2  UNL     1     -28.416  -7.802  27.684  1.00  0.00    -0.267 OA
ENDROOT
BRANCH   1  16
HETATM   16  C7  UNL     1     -26.517  -9.689  26.811  1.00  0.00     0.054 A 
HETATM   17  C2  UNL     1     -25.927 -10.169  27.962  1.00  0.00    -0.032 A 
HETATM   18  C1  UNL     1     -25.227  -9.270  28.913  1.00  0.00     0.050 C 
HETATM   19  C3  UNL     1     -25.983 -11.519  28.243  1.00  0.00     0.041 A 
HETATM   20  C4  UNL     1     -26.623 -12.414  27.390  1.00  0.00     0.066 A 
HETATM   21  C5  UNL     1     -27.220 -11.944  26.232  1.00  0.00     0.067 A 
HETATM   22  N3  UNL     1     -26.817 -13.744  27.427  1.00  0.00    -0.302 N 
HETATM   23  C6  UNL     1     -27.150 -10.579  25.970  1.00  0.00     0.063 A 
HETATM   24  N2  UNL     1     -27.755 -12.997  25.602  1.00  0.00    -0.302 N 
HETATM   25  C20 UNL     1     -28.471 -12.946  24.354  1.00  0.00     0.161 C 
HETATM   26  C21 UNL     1     -27.511 -14.093  26.330  1.00  0.00     0.329 A 
HETATM   27  O3  UNL     1     -27.879 -15.281  26.027  1.00  0.00    -0.246 OA
HETATM   28  C22 UNL     1     -26.330 -14.585  28.502  1.00  0.00     0.161 C 
ENDBRANCH   1  16
TORSDOF 1
ENDMDL
