MODEL 4
REMARK VINA RESULT: -9.416997799      2.101      7.789
REMARK  1 active torsions:
REMARK  status: ('A' for Active; 'I' for Inactive)
REMARK    1  A    between atoms: C7_7  and  N1_8 
ROOT
HETATM    1  N1  UNL     1     -25.918  -9.749  26.676  1.00  0.00    -0.243 N 
HETATM    2  C8  UNL     1     -25.330 -10.203  27.894  1.00  0.00     0.266 A 
HETATM    3  O1  UNL     1     -24.636  -9.391  28.561  1.00  0.00    -0.267 OA
HETATM    4  C9  UNL     1     -25.504 -11.563  28.388  1.00  0.00     0.045 A 
HETATM    5  C10 UNL     1     -24.942 -12.012  29.564  1.00  0.00     0.018 A 
HETATM    6  C11 UNL     1     -25.122 -13.304  30.010  1.00  0.00     0.002 A 
HETATM    7  C12 UNL     1     -25.895 -14.157  29.237  1.00  0.00     0.012 A 
HETATM    8  C13 UNL     1     -26.473 -13.747  28.060  1.00  0.00    -0.024 A 
HETATM    9  C14 UNL     1     -27.229 -14.616  27.323  1.00  0.00     0.012 A 
HETATM   10  C15 UNL     1     -27.821 -14.219  26.130  1.00  0.00     0.002 A 
HETATM   11  C16 UNL     1     -27.630 -12.942  25.710  1.00  0.00     0.018 A 
HETATM   12  C17 UNL     1     -26.861 -12.044  26.451  1.00  0.00     0.045 A 
HETATM   13  C18 UNL     1     -26.274 -12.448  27.640  1.00  0.00     0.006 A 
HETATM   14  C19 UNL     1     -26.697 -10.688  25.944  1.00  0.00     0.266 A 
HETATM   15  O2  UNL     1     -27.244 -10.365  24.865  1.00  0.00    -0.267 OA
ENDROOT
BRANCH   1  16
HETATM   16  C7  UNL     1     -25.734  -8.400  26.202  1.00  0.00     0.054 A 
HETATM   17  C2  UNL     1     -26.738  -7.460  26.310  1.00  0.00    -0.032 A 
HETATM   18  C1  UNL     1     -28.054  -7.789  26.914  1.00  0.00     0.050 C 
HETATM   19  C3  UNL     1     -26.523  -6.179  25.846  1.00  0.00     0.041 A 
HETATM   20  C4  UNL     1     -25.311  -5.807  25.269  1.00  0.00     0.066 A 
HETATM   21  C5  UNL     1     -24.296  -6.742  25.155  1.00  0.00     0.067 A 
HETATM   22  N3  UNL     1     -24.853  -4.655  24.750  1.00  0.00    -0.302 N 
HETATM   23  C6  UNL     1     -24.536  -8.028  25.630  1.00  0.00     0.063 A 
HETATM   24  N2  UNL     1     -23.256  -6.134  24.573  1.00  0.00    -0.302 N 
HETATM   25  C20 UNL     1     -21.991  -6.752  24.269  1.00  0.00     0.161 C 
HETATM   26  C21 UNL     1     -23.594  -4.862  24.326  1.00  0.00     0.329 A 
HETATM   27  O3  UNL     1     -22.839  -3.988  23.774  1.00  0.00    -0.246 OA
HETATM   28  C22 UNL     1     -25.644  -3.442  24.695  1.00  0.00     0.161 C 
ENDBRANCH   1  16
TORSDOF 1
ENDMDL
