MODEL 5
REMARK VINA RESULT: -9.189079918      1.572      2.653
REMARK  1 active torsions:
REMARK  status: ('A' for Active; 'I' for Inactive)
REMARK    1  A    between atoms: C7_7  and  N1_8 
ROOT
HETATM    1  N1  UNL     1     -26.235  -8.089  26.681  1.00  0.00    -0.243 N 
HETATM    2  C8  UNL     1     -27.281  -7.214  27.101  1.00  0.00     0.266 A 
HETATM    3  O1  UNL     1     -28.166  -7.669  27.872  1.00  0.00    -0.267 OA
HETATM    4  C9  UNL     1     -27.360  -5.825  26.669  1.00  0.00     0.045 A 
HETATM    5  C10 UNL     1     -28.366  -4.971  27.068  1.00  0.00     0.018 A 
HETATM    6  C11 UNL     1     -28.419  -3.660  26.646  1.00  0.00     0.002 A 
HETATM    7  C12 UNL     1     -27.419  -3.210  25.796  1.00  0.00     0.012 A 
HETATM    8  C13 UNL     1     -26.399  -4.030  25.376  1.00  0.00    -0.024 A 
HETATM    9  C14 UNL     1     -25.431  -3.552  24.537  1.00  0.00     0.012 A 
HETATM   10  C15 UNL     1     -24.392  -4.367  24.102  1.00  0.00     0.002 A 
HETATM   11  C16 UNL     1     -24.361  -5.654  24.531  1.00  0.00     0.018 A 
HETATM   12  C17 UNL     1     -25.343  -6.156  25.387  1.00  0.00     0.045 A 
HETATM   13  C18 UNL     1     -26.375  -5.337  25.816  1.00  0.00     0.006 A 
HETATM   14  C19 UNL     1     -25.249  -7.548  25.809  1.00  0.00     0.266 A 
HETATM   15  O2  UNL     1     -24.300  -8.252  25.398  1.00  0.00    -0.267 OA
ENDROOT
BRANCH   1  16
HETATM   16  C7  UNL     1     -26.173  -9.461  27.118  1.00  0.00     0.054 A 
HETATM   17  C2  UNL     1     -26.736 -10.477  26.373  1.00  0.00    -0.032 A 
HETATM   18  C1  UNL     1     -27.435 -10.209  25.091  1.00  0.00     0.050 C 
HETATM   19  C3  UNL     1     -26.654 -11.777  26.825  1.00  0.00     0.041 A 
HETATM   20  C4  UNL     1     -26.014 -12.094  28.020  1.00  0.00     0.066 A 
HETATM   21  C5  UNL     1     -25.444 -11.084  28.777  1.00  0.00     0.067 A 
HETATM   22  N3  UNL     1     -25.798 -13.250  28.672  1.00  0.00    -0.302 N 
HETATM   23  C6  UNL     1     -25.540  -9.780  28.301  1.00  0.00     0.063 A 
HETATM   24  N2  UNL     1     -24.902 -11.652  29.860  1.00  0.00    -0.302 N 
HETATM   25  C20 UNL     1     -24.208 -10.952  30.910  1.00  0.00     0.161 C 
HETATM   26  C21 UNL     1     -25.117 -12.972  29.797  1.00  0.00     0.329 A 
HETATM   27  O3  UNL     1     -24.735 -13.828  30.669  1.00  0.00    -0.246 OA
HETATM   28  C22 UNL     1     -26.253 -14.534  28.178  1.00  0.00     0.161 C 
ENDBRANCH   1  16
TORSDOF 1
ENDMDL
