MODEL 3
REMARK VINA RESULT: -9.427324044      2.098      7.778
REMARK  1 active torsions:
REMARK  status: ('A' for Active; 'I' for Inactive)
REMARK    1  A    between atoms: C7_7  and  N1_8 
ROOT
HETATM    1  N1  UNL     1     -25.905  -9.737  26.701  1.00  0.00    -0.243 N 
HETATM    2  C8  UNL     1     -26.681 -10.694  25.983  1.00  0.00     0.266 A 
HETATM    3  O1  UNL     1     -27.221 -10.335  24.903  1.00  0.00    -0.267 OA
HETATM    4  C9  UNL     1     -26.870 -12.060  26.452  1.00  0.00     0.045 A 
HETATM    5  C10 UNL     1     -27.617 -12.994  25.766  1.00  0.00     0.018 A 
HETATM    6  C11 UNL     1     -27.781 -14.281  26.231  1.00  0.00     0.002 A 
HETATM    7  C12 UNL     1     -27.165 -14.623  27.425  1.00  0.00     0.012 A 
HETATM    8  C13 UNL     1     -26.411 -13.723  28.138  1.00  0.00    -0.024 A 
HETATM    9  C14 UNL     1     -25.819 -14.096  29.313  1.00  0.00     0.012 A 
HETATM   10  C15 UNL     1     -25.053 -13.198  30.048  1.00  0.00     0.002 A 
HETATM   11  C16 UNL     1     -24.906 -11.936  29.570  1.00  0.00     0.018 A 
HETATM   12  C17 UNL     1     -25.505 -11.541  28.373  1.00  0.00     0.045 A 
HETATM   13  C18 UNL     1     -26.267 -12.442  27.646  1.00  0.00     0.006 A 
HETATM   14  C19 UNL     1     -25.307 -10.171  27.917  1.00  0.00     0.266 A 
HETATM   15  O2  UNL     1     -24.612  -9.389  28.605  1.00  0.00    -0.267 OA
ENDROOT
BRANCH   1  16
HETATM   16  C7  UNL     1     -25.730  -8.389  26.222  1.00  0.00     0.054 A 
HETATM   17  C2  UNL     1     -26.740  -7.455  26.325  1.00  0.00    -0.032 A 
HETATM   18  C1  UNL     1     -28.053  -7.789  26.930  1.00  0.00     0.050 C 
HETATM   19  C3  UNL     1     -26.532  -6.174  25.856  1.00  0.00     0.041 A 
HETATM   20  C4  UNL     1     -25.322  -5.798  25.277  1.00  0.00     0.066 A 
HETATM   21  C5  UNL     1     -24.301  -6.727  25.168  1.00  0.00     0.067 A 
HETATM   22  N3  UNL     1     -24.870  -4.646  24.753  1.00  0.00    -0.302 N 
HETATM   23  C6  UNL     1     -24.534  -8.012  25.648  1.00  0.00     0.063 A 
HETATM   24  N2  UNL     1     -23.265  -6.115  24.583  1.00  0.00    -0.302 N 
HETATM   25  C20 UNL     1     -21.996  -6.727  24.282  1.00  0.00     0.161 C 
HETATM   26  C21 UNL     1     -23.611  -4.847  24.330  1.00  0.00     0.329 A 
HETATM   27  O3  UNL     1     -22.860  -3.971  23.775  1.00  0.00    -0.246 OA
HETATM   28  C22 UNL     1     -25.668  -3.437  24.692  1.00  0.00     0.161 C 
ENDBRANCH   1  16
TORSDOF 1
ENDMDL
