MODEL 1
REMARK VINA RESULT: -10.062244486      0.000      0.000
REMARK  1 active torsions:
REMARK  status: ('A' for Active; 'I' for Inactive)
REMARK    1  A    between atoms: C7_7  and  N1_8 
ROOT
HETATM    1  N1  UNL     1     -26.464  -8.288  26.473  1.00  0.00    -0.243 N 
HETATM    2  C8  UNL     1     -27.463  -7.379  26.933  1.00  0.00     0.266 A 
HETATM    3  O1  UNL     1     -28.400  -7.831  27.642  1.00  0.00    -0.267 OA
HETATM    4  C9  UNL     1     -27.436  -5.958  26.613  1.00  0.00     0.045 A 
HETATM    5  C10 UNL     1     -28.395  -5.071  27.052  1.00  0.00     0.018 A 
HETATM    6  C11 UNL     1     -28.348  -3.730  26.735  1.00  0.00     0.002 A 
HETATM    7  C12 UNL     1     -27.294  -3.285  25.951  1.00  0.00     0.012 A 
HETATM    8  C13 UNL     1     -26.318  -4.137  25.494  1.00  0.00    -0.024 A 
HETATM    9  C14 UNL     1     -25.294  -3.663  24.722  1.00  0.00     0.012 A 
HETATM   10  C15 UNL     1     -24.297  -4.510  24.251  1.00  0.00     0.002 A 
HETATM   11  C16 UNL     1     -24.365  -5.827  24.576  1.00  0.00     0.018 A 
HETATM   12  C17 UNL     1     -25.405  -6.325  25.363  1.00  0.00     0.045 A 
HETATM   13  C18 UNL     1     -26.394  -5.474  25.828  1.00  0.00     0.006 A 
HETATM   14  C19 UNL     1     -25.417  -7.749  25.674  1.00  0.00     0.266 A 
HETATM   15  O2  UNL     1     -24.504  -8.482  25.233  1.00  0.00    -0.267 OA
ENDROOT
BRANCH   1  16
HETATM   16  C7  UNL     1     -26.507  -9.691  26.800  1.00  0.00     0.054 A 
HETATM   17  C2  UNL     1     -25.930 -10.175  27.956  1.00  0.00    -0.032 A 
HETATM   18  C1  UNL     1     -25.236  -9.281  28.916  1.00  0.00     0.050 C 
HETATM   19  C3  UNL     1     -25.994 -11.525  28.234  1.00  0.00     0.041 A 
HETATM   20  C4  UNL     1     -26.630 -12.416  27.373  1.00  0.00     0.066 A 
HETATM   21  C5  UNL     1     -27.212 -11.943  26.210  1.00  0.00     0.067 A 
HETATM   22  N3  UNL     1     -26.829 -13.745  27.406  1.00  0.00    -0.302 N 
HETATM   23  C6  UNL     1     -27.135 -10.577  25.951  1.00  0.00     0.063 A 
HETATM   24  N2  UNL     1     -27.746 -12.992  25.573  1.00  0.00    -0.302 N 
HETATM   25  C20 UNL     1     -28.449 -12.936  24.318  1.00  0.00     0.161 C 
HETATM   26  C21 UNL     1     -27.513 -14.091  26.302  1.00  0.00     0.329 A 
HETATM   27  O3  UNL     1     -27.883 -15.276  25.993  1.00  0.00    -0.246 OA
HETATM   28  C22 UNL     1     -26.357 -14.591  28.485  1.00  0.00     0.161 C 
ENDBRANCH   1  16
TORSDOF 1
ENDMDL
