MODEL 1
REMARK VINA RESULT: -8.401947148      0.000      0.000
REMARK  6 active torsions:
REMARK  status: ('A' for Active; 'I' for Inactive)
REMARK       I    between atoms: C1_2  and  N1_3 
REMARK    1  A    between atoms: C1_2  and  C13_20 
REMARK    2  A    between atoms: N1_3  and  C2_5 
REMARK    3  A    between atoms: C2_5  and  C3_6 
REMARK    4  A    between atoms: C2_5  and  C12_17 
REMARK    5  A    between atoms: C3_6  and  C4_7 
REMARK    6  A    between atoms: C21_31  and  O4_32 
ROOT
HETATM    1  O1  UNL     1      19.731 -22.112 -41.223  1.00  0.00    -0.266 OA
HETATM    2  C1  UNL     1      19.319 -23.286 -41.534  1.00  0.00     0.271 C 
HETATM    3  N1  UNL     1      20.191 -24.038 -42.314  1.00  0.00    -0.341 N 
ATOM      4  H1  UNL     1      19.915 -24.980 -42.592  1.00  0.00     0.163 HD
ENDROOT
BRANCH   3   5
HETATM    5  C2  UNL     1      21.501 -23.522 -42.754  1.00  0.00     0.190 C 
BRANCH   5   6
HETATM    6  C3  UNL     1      21.344 -23.022 -44.154  1.00  0.00     0.077 C 
BRANCH   6   7
HETATM    7  C4  UNL     1      21.697 -21.608 -44.257  1.00  0.00    -0.028 A 
HETATM    8  C5  UNL     1      20.733 -20.594 -44.231  1.00  0.00     0.096 A 
HETATM    9  N2  UNL     1      21.370 -19.432 -44.390  1.00  0.00    -0.365 N 
HETATM   10  C6  UNL     1      22.688 -19.628 -44.517  1.00  0.00     0.042 A 
ATOM     11  H2  UNL     1      20.915 -18.519 -44.411  1.00  0.00     0.165 HD
HETATM   12  C7  UNL     1      23.765 -18.801 -44.687  1.00  0.00     0.030 A 
HETATM   13  C11 UNL     1      22.893 -21.007 -44.431  1.00  0.00    -0.002 A 
HETATM   14  C8  UNL     1      25.058 -19.314 -44.775  1.00  0.00     0.002 A 
HETATM   15  C9  UNL     1      25.282 -20.677 -44.691  1.00  0.00     0.001 A 
HETATM   16  C10 UNL     1      24.182 -21.476 -44.521  1.00  0.00     0.014 A 
ENDBRANCH   6   7
ENDBRANCH   5   6
BRANCH   5  17
HETATM   17  C12 UNL     1      22.503 -24.551 -42.509  1.00  0.00     0.197 C 
HETATM   18  O2  UNL     1      23.396 -24.817 -43.361  1.00  0.00    -0.646 OA
HETATM   19  O3  UNL     1      22.548 -25.304 -41.346  1.00  0.00    -0.646 OA
ENDBRANCH   5  17
ENDBRANCH   3   5
BRANCH   2  20
HETATM   20  C13 UNL     1      18.024 -23.689 -41.050  1.00  0.00     0.136 A 
HETATM   21  N3  UNL     1      17.623 -23.166 -39.879  1.00  0.00    -0.339 N 
HETATM   22  C14 UNL     1      16.451 -23.462 -39.327  1.00  0.00     0.115 A 
ATOM     23  H3  UNL     1      18.243 -22.518 -39.395  1.00  0.00     0.167 HD
HETATM   24 CL1  UNL     1      15.979 -22.753 -37.797  1.00  0.00    -0.064 Cl
HETATM   25  C15 UNL     1      15.572 -24.335 -39.939  1.00  0.00     0.015 A 
HETATM   26  C16 UNL     1      14.354 -24.629 -39.346  1.00  0.00     0.015 A 
HETATM   27  C20 UNL     1      15.930 -24.902 -41.144  1.00  0.00     0.013 A 
HETATM   28  C17 UNL     1      13.488 -25.494 -39.957  1.00  0.00     0.001 A 
HETATM   29  C18 UNL     1      13.796 -26.087 -41.157  1.00  0.00     0.001 A 
HETATM   30  C19 UNL     1      15.034 -25.765 -41.726  1.00  0.00     0.015 A 
HETATM   31  C21 UNL     1      17.159 -24.569 -41.684  1.00  0.00     0.109 A 
BRANCH  31  32
HETATM   32  O4  UNL     1      17.527 -25.119 -42.871  1.00  0.00    -0.357 OA
ATOM     33  H4  UNL     1      16.871 -25.553 -43.403  1.00  0.00     0.217 HD
ENDBRANCH  31  32
ENDBRANCH   2  20
TORSDOF 6
ENDMDL
