MODEL 2
REMARK VINA RESULT: -8.380160753      2.590      3.659
REMARK  6 active torsions:
REMARK  status: ('A' for Active; 'I' for Inactive)
REMARK       I    between atoms: C1_2  and  N1_3 
REMARK    1  A    between atoms: C1_2  and  C13_20 
REMARK    2  A    between atoms: N1_3  and  C2_5 
REMARK    3  A    between atoms: C2_5  and  C3_6 
REMARK    4  A    between atoms: C2_5  and  C12_17 
REMARK    5  A    between atoms: C3_6  and  C4_7 
REMARK    6  A    between atoms: C21_31  and  O4_32 
ROOT
HETATM    1  O1  UNL     1      20.671 -20.848 -42.703  1.00  0.00    -0.266 OA
HETATM    2  C1  UNL     1      20.889 -21.999 -43.224  1.00  0.00     0.271 C 
HETATM    3  N1  UNL     1      22.160 -22.181 -43.759  1.00  0.00    -0.341 N 
ATOM      4  H1  UNL     1      22.390 -23.078 -44.188  1.00  0.00     0.163 HD
ENDROOT
BRANCH   3   5
HETATM    5  C2  UNL     1      23.187 -21.123 -43.730  1.00  0.00     0.190 C 
BRANCH   5   6
HETATM    6  C3  UNL     1      23.625 -20.877 -45.137  1.00  0.00     0.077 C 
BRANCH   6   7
HETATM    7  C4  UNL     1      24.194 -19.539 -45.292  1.00  0.00    -0.028 A 
HETATM    8  C5  UNL     1      23.756 -18.449 -44.531  1.00  0.00     0.096 A 
HETATM    9  N2  UNL     1      24.436 -17.376 -44.940  1.00  0.00    -0.365 N 
HETATM   10  C6  UNL     1      25.290 -17.703 -45.918  1.00  0.00     0.042 A 
ATOM     11  H2  UNL     1      24.322 -16.437 -44.560  1.00  0.00     0.165 HD
HETATM   12  C7  UNL     1      26.204 -17.005 -46.660  1.00  0.00     0.030 A 
HETATM   13  C11 UNL     1      25.136 -19.073 -46.139  1.00  0.00    -0.002 A 
HETATM   14  C8  UNL     1      26.981 -17.641 -47.628  1.00  0.00     0.002 A 
HETATM   15  C9  UNL     1      26.843 -18.999 -47.859  1.00  0.00     0.001 A 
HETATM   16  C10 UNL     1      25.919 -19.667 -47.099  1.00  0.00     0.014 A 
ENDBRANCH   6   7
ENDBRANCH   5   6
BRANCH   5  17
HETATM   17  C12 UNL     1      24.205 -21.503 -42.759  1.00  0.00     0.197 C 
HETATM   18  O2  UNL     1      23.986 -22.390 -41.888  1.00  0.00    -0.646 OA
HETATM   19  O3  UNL     1      25.465 -20.926 -42.715  1.00  0.00    -0.646 OA
ENDBRANCH   5  17
ENDBRANCH   3   5
BRANCH   2  20
HETATM   20  C13 UNL     1      19.815 -22.958 -43.198  1.00  0.00     0.136 A 
HETATM   21  N3  UNL     1      19.119 -23.061 -42.054  1.00  0.00    -0.339 N 
HETATM   22  C14 UNL     1      18.108 -23.910 -41.905  1.00  0.00     0.115 A 
ATOM     23  H3  UNL     1      19.378 -22.463 -41.269  1.00  0.00     0.167 HD
HETATM   24 CL1  UNL     1      17.235 -24.003 -40.389  1.00  0.00    -0.064 Cl
HETATM   25  C15 UNL     1      17.715 -24.743 -42.935  1.00  0.00     0.015 A 
HETATM   26  C16 UNL     1      16.658 -25.622 -42.758  1.00  0.00     0.015 A 
HETATM   27  C20 UNL     1      18.394 -24.681 -44.133  1.00  0.00     0.013 A 
HETATM   28  C17 UNL     1      16.274 -26.443 -43.782  1.00  0.00     0.001 A 
HETATM   29  C18 UNL     1      16.916 -26.423 -44.995  1.00  0.00     0.001 A 
HETATM   30  C19 UNL     1      17.979 -25.523 -45.137  1.00  0.00     0.015 A 
HETATM   31  C21 UNL     1      19.441 -23.785 -44.248  1.00  0.00     0.109 A 
BRANCH  31  32
HETATM   32  O4  UNL     1      20.120 -23.712 -45.423  1.00  0.00    -0.357 OA
ATOM     33  H4  UNL     1      20.057 -24.432 -46.039  1.00  0.00     0.217 HD
ENDBRANCH  31  32
ENDBRANCH   2  20
TORSDOF 6
ENDMDL
