MODEL 3
REMARK VINA RESULT: -8.287002004      3.582      4.261
REMARK  6 active torsions:
REMARK  status: ('A' for Active; 'I' for Inactive)
REMARK       I    between atoms: C1_2  and  N1_3 
REMARK    1  A    between atoms: C1_2  and  C13_20 
REMARK    2  A    between atoms: N1_3  and  C2_5 
REMARK    3  A    between atoms: C2_5  and  C3_6 
REMARK    4  A    between atoms: C2_5  and  C12_17 
REMARK    5  A    between atoms: C3_6  and  C4_7 
REMARK    6  A    between atoms: C21_31  and  O4_32 
ROOT
HETATM    1  O1  UNL     1      20.030 -22.506 -42.886  1.00  0.00    -0.266 OA
HETATM    2  C1  UNL     1      20.410 -23.483 -43.623  1.00  0.00     0.271 C 
HETATM    3  N1  UNL     1      21.753 -23.827 -43.514  1.00  0.00    -0.341 N 
ATOM      4  H1  UNL     1      22.112 -24.597 -44.079  1.00  0.00     0.163 HD
ENDROOT
BRANCH   3   5
HETATM    5  C2  UNL     1      22.679 -23.118 -42.611  1.00  0.00     0.190 C 
BRANCH   5   6
HETATM    6  C3  UNL     1      23.774 -22.540 -43.447  1.00  0.00     0.077 C 
BRANCH   6   7
HETATM    7  C4  UNL     1      23.659 -21.086 -43.547  1.00  0.00    -0.028 A 
HETATM    8  C5  UNL     1      22.859 -20.340 -42.674  1.00  0.00     0.096 A 
HETATM    9  N2  UNL     1      22.935 -19.063 -43.056  1.00  0.00    -0.365 N 
HETATM   10  C6  UNL     1      23.735 -18.935 -44.122  1.00  0.00     0.042 A 
ATOM     11  H2  UNL     1      22.450 -18.291 -42.599  1.00  0.00     0.165 HD
HETATM   12  C7  UNL     1      24.152 -17.875 -44.881  1.00  0.00     0.030 A 
HETATM   13  C11 UNL     1      24.193 -20.217 -44.431  1.00  0.00    -0.002 A 
HETATM   14  C8  UNL     1      25.025 -18.058 -45.953  1.00  0.00     0.002 A 
HETATM   15  C9  UNL     1      25.491 -19.321 -46.273  1.00  0.00     0.001 A 
HETATM   16  C10 UNL     1      25.053 -20.359 -45.493  1.00  0.00     0.014 A 
ENDBRANCH   6   7
ENDBRANCH   5   6
BRANCH   5  17
HETATM   17  C12 UNL     1      23.052 -24.026 -41.535  1.00  0.00     0.197 C 
HETATM   18  O2  UNL     1      22.180 -24.591 -40.817  1.00  0.00    -0.646 OA
HETATM   19  O3  UNL     1      24.368 -24.328 -41.220  1.00  0.00    -0.646 OA
ENDBRANCH   5  17
ENDBRANCH   3   5
BRANCH   2  20
HETATM   20  C13 UNL     1      19.423 -24.105 -44.468  1.00  0.00     0.136 A 
HETATM   21  N3  UNL     1      19.645 -24.064 -45.793  1.00  0.00    -0.339 N 
HETATM   22  C14 UNL     1      18.808 -24.600 -46.675  1.00  0.00     0.115 A 
ATOM     23  H3  UNL     1      20.488 -23.603 -46.134  1.00  0.00     0.167 HD
HETATM   24 CL1  UNL     1      19.146 -24.516 -48.392  1.00  0.00    -0.064 Cl
HETATM   25  C15 UNL     1      17.650 -25.235 -46.269  1.00  0.00     0.015 A 
HETATM   26  C16 UNL     1      16.791 -25.787 -47.207  1.00  0.00     0.015 A 
HETATM   27  C20 UNL     1      17.371 -25.307 -44.921  1.00  0.00     0.013 A 
HETATM   28  C17 UNL     1      15.647 -26.415 -46.798  1.00  0.00     0.001 A 
HETATM   29  C18 UNL     1      15.321 -26.514 -45.468  1.00  0.00     0.001 A 
HETATM   30  C19 UNL     1      16.212 -25.946 -44.550  1.00  0.00     0.015 A 
HETATM   31  C21 UNL     1      18.267 -24.737 -44.035  1.00  0.00     0.109 A 
BRANCH  31  32
HETATM   32  O4  UNL     1      18.006 -24.800 -42.703  1.00  0.00    -0.357 OA
ATOM     33  H4  UNL     1      17.275 -24.306 -42.351  1.00  0.00     0.217 HD
ENDBRANCH  31  32
ENDBRANCH   2  20
TORSDOF 6
ENDMDL
