MODEL 11
REMARK VINA RESULT: -8.888006615      3.457      5.358
REMARK  8 active torsions:
REMARK  status: ('A' for Active; 'I' for Inactive)
REMARK    1  A    between atoms: N5_13  and  C6_14 
REMARK    2  A    between atoms: C7_16  and  C8_17 
REMARK    3  A    between atoms: C8_17  and  O2_18 
REMARK    4  A    between atoms: O2_18  and  P1_19 
REMARK    5  A    between atoms: P1_19  and  O5_22 
REMARK    6  A    between atoms: O5_22  and  P2_23 
REMARK    7  A    between atoms: C9_27  and  O9_28 
REMARK    8  A    between atoms: C10_30  and  O10_31 
ROOT
HETATM    1  C6  UNL     1       0.890  -1.371  51.989  1.00  0.00     0.262 C 
HETATM    2  O1  UNL     1       0.357  -1.796  50.790  1.00  0.00    -0.353 OA
HETATM    3  C7  UNL     1       0.423  -3.156  50.720  1.00  0.00     0.180 C 
HETATM    4  C9  UNL     1       0.680  -3.666  52.117  1.00  0.00     0.182 C 
HETATM    5  C10 UNL     1       1.607  -2.538  52.591  1.00  0.00     0.198 C 
ENDROOT
BRANCH   1   6
HETATM    6  N5  UNL     1      -0.153  -0.829  52.797  1.00  0.00    -0.297 N 
HETATM    7  C3  UNL     1      -0.165  -0.629  54.126  1.00  0.00     0.142 A 
HETATM    8  N3  UNL     1       0.741  -0.858  55.075  1.00  0.00    -0.336 N 
HETATM    9  C4  UNL     1      -1.367  -0.088  54.487  1.00  0.00     0.119 A 
HETATM   10  C2  UNL     1       0.492  -0.568  56.365  1.00  0.00     0.183 A 
ATOM     11  H3  UNL     1       1.643  -1.260  54.818  1.00  0.00     0.168 HD
HETATM   12  N2  UNL     1      -0.676  -0.040  56.736  1.00  0.00    -0.339 N 
HETATM   13  C1  UNL     1      -1.610   0.204  55.813  1.00  0.00     0.148 A 
ATOM     14  H2  UNL     1      -0.854   0.176  57.717  1.00  0.00     0.167 HD
HETATM   15  N1  UNL     1      -2.868   0.761  56.135  1.00  0.00    -0.080 NA
HETATM   16  N4  UNL     1      -2.081   0.039  53.375  1.00  0.00    -0.346 N 
HETATM   17  C5  UNL     1      -1.353  -0.406  52.361  1.00  0.00     0.188 A 
ATOM     18  H4  UNL     1      -3.028   0.413  53.313  1.00  0.00     0.167 HD
ENDBRANCH   1   6
BRANCH   5  19
HETATM   19  O10 UNL     1       2.805  -2.706  51.886  1.00  0.00    -0.388 OA
ATOM     20  H10 UNL     1       3.377  -3.245  52.419  1.00  0.00     0.210 HD
ENDBRANCH   5  19
BRANCH   3  21
HETATM   21  C8  UNL     1      -0.745  -3.819  50.061  1.00  0.00     0.216 C 
BRANCH  21  22
HETATM   22  O2  UNL     1      -1.934  -3.661  50.725  1.00  0.00    -0.287 OA
BRANCH  22  23
HETATM   23  P1  UNL     1      -3.113  -3.260  49.552  1.00  0.00     0.418 P 
HETATM   24  O3  UNL     1      -3.011  -1.782  49.278  1.00  0.00    -0.624 OA
HETATM   25  O4  UNL     1      -4.665  -3.569  50.124  1.00  0.00    -0.624 OA
BRANCH  23  26
HETATM   26  O5  UNL     1      -2.792  -4.118  48.154  1.00  0.00    -0.173 OA
BRANCH  26  27
HETATM   27  P2  UNL     1      -3.446  -5.656  48.143  1.00  0.00     0.431 P 
HETATM   28  O6  UNL     1      -3.683  -6.184  49.545  1.00  0.00    -0.616 OA
HETATM   29  O7  UNL     1      -2.441  -6.779  47.366  1.00  0.00    -0.616 OA
HETATM   30  O8  UNL     1      -4.915  -5.587  47.277  1.00  0.00    -0.616 OA
ENDBRANCH  26  27
ENDBRANCH  23  26
ENDBRANCH  22  23
ENDBRANCH  21  22
ENDBRANCH   3  21
BRANCH   4  31
HETATM   31  O9  UNL     1       1.301  -4.892  52.151  1.00  0.00    -0.390 OA
ATOM     32  H9  UNL     1       0.822  -5.548  52.643  1.00  0.00     0.210 HD
ENDBRANCH   4  31
TORSDOF 8
ENDMDL
