MODEL 10
REMARK VINA RESULT: -9.072729732      3.243      4.770
REMARK  8 active torsions:
REMARK  status: ('A' for Active; 'I' for Inactive)
REMARK    1  A    between atoms: N5_13  and  C6_14 
REMARK    2  A    between atoms: C7_16  and  C8_17 
REMARK    3  A    between atoms: C8_17  and  O2_18 
REMARK    4  A    between atoms: O2_18  and  P1_19 
REMARK    5  A    between atoms: P1_19  and  O5_22 
REMARK    6  A    between atoms: O5_22  and  P2_23 
REMARK    7  A    between atoms: C9_27  and  O9_28 
REMARK    8  A    between atoms: C10_30  and  O10_31 
ROOT
HETATM    1  C6  UNL     1       1.484  -0.948  52.485  1.00  0.00     0.262 C 
HETATM    2  O1  UNL     1       1.029  -0.990  51.184  1.00  0.00    -0.353 OA
HETATM    3  C7  UNL     1       0.889  -2.289  50.793  1.00  0.00     0.180 C 
HETATM    4  C9  UNL     1       0.906  -3.138  52.040  1.00  0.00     0.182 C 
HETATM    5  C10 UNL     1       1.938  -2.330  52.838  1.00  0.00     0.198 C 
ENDROOT
BRANCH   1   6
HETATM    6  N5  UNL     1       0.454  -0.426  53.323  1.00  0.00    -0.297 N 
HETATM    7  C3  UNL     1      -0.550   0.406  52.996  1.00  0.00     0.142 A 
HETATM    8  N3  UNL     1      -0.897   0.985  51.848  1.00  0.00    -0.336 N 
HETATM    9  C4  UNL     1      -1.308   0.652  54.106  1.00  0.00     0.119 A 
HETATM   10  C2  UNL     1      -1.967   1.796  51.768  1.00  0.00     0.183 A 
ATOM     11  H3  UNL     1      -0.340   0.808  51.012  1.00  0.00     0.168 HD
HETATM   12  N2  UNL     1      -2.718   2.047  52.842  1.00  0.00    -0.339 N 
HETATM   13  C1  UNL     1      -2.403   1.485  54.011  1.00  0.00     0.148 A 
ATOM     14  H2  UNL     1      -3.527   2.663  52.770  1.00  0.00     0.167 HD
HETATM   15  N1  UNL     1      -3.153   1.708  55.187  1.00  0.00    -0.080 NA
HETATM   16  N4  UNL     1      -0.761  -0.032  55.105  1.00  0.00    -0.346 N 
HETATM   17  C5  UNL     1       0.297  -0.678  54.635  1.00  0.00     0.188 A 
ATOM     18  H4  UNL     1      -1.097  -0.055  56.067  1.00  0.00     0.167 HD
ENDBRANCH   1   6
BRANCH   5  19
HETATM   19  O10 UNL     1       3.167  -2.544  52.201  1.00  0.00    -0.388 OA
ATOM     20  H10 UNL     1       3.434  -3.436  52.390  1.00  0.00     0.210 HD
ENDBRANCH   5  19
BRANCH   3  21
HETATM   21  C8  UNL     1      -0.286  -2.567  49.911  1.00  0.00     0.216 C 
BRANCH  21  22
HETATM   22  O2  UNL     1      -1.483  -2.654  50.573  1.00  0.00    -0.287 OA
BRANCH  22  23
HETATM   23  P1  UNL     1      -2.593  -3.401  49.508  1.00  0.00     0.418 P 
HETATM   24  O3  UNL     1      -2.575  -2.638  48.209  1.00  0.00    -0.624 OA
HETATM   25  O4  UNL     1      -4.159  -3.334  50.120  1.00  0.00    -0.624 OA
BRANCH  23  26
HETATM   26  O5  UNL     1      -2.105  -4.978  49.244  1.00  0.00    -0.173 OA
BRANCH  26  27
HETATM   27  P2  UNL     1      -3.246  -5.914  48.458  1.00  0.00     0.431 P 
HETATM   28  O6  UNL     1      -4.150  -5.082  47.569  1.00  0.00    -0.616 OA
HETATM   29  O7  UNL     1      -4.257  -6.740  49.539  1.00  0.00    -0.616 OA
HETATM   30  O8  UNL     1      -2.409  -7.080  47.534  1.00  0.00    -0.616 OA
ENDBRANCH  26  27
ENDBRANCH  23  26
ENDBRANCH  22  23
ENDBRANCH  21  22
ENDBRANCH   3  21
BRANCH   4  31
HETATM   31  O9  UNL     1       1.321  -4.430  51.822  1.00  0.00    -0.390 OA
ATOM     32  H9  UNL     1       1.857  -4.782  52.522  1.00  0.00     0.210 HD
ENDBRANCH   4  31
TORSDOF 8
ENDMDL
