MODEL 6
REMARK VINA RESULT: -10.046930618      0.812      1.682
REMARK  8 active torsions:
REMARK  status: ('A' for Active; 'I' for Inactive)
REMARK    1  A    between atoms: N5_13  and  C6_14 
REMARK    2  A    between atoms: C7_16  and  C8_17 
REMARK    3  A    between atoms: C8_17  and  O2_18 
REMARK    4  A    between atoms: O2_18  and  P1_19 
REMARK    5  A    between atoms: P1_19  and  O5_22 
REMARK    6  A    between atoms: O5_22  and  P2_23 
REMARK    7  A    between atoms: C9_27  and  O9_28 
REMARK    8  A    between atoms: C10_30  and  O10_31 
ROOT
HETATM    1  C6  UNL     1       2.355  -1.869  51.536  1.00  0.00     0.262 C 
HETATM    2  O1  UNL     1       1.633  -3.033  51.373  1.00  0.00    -0.353 OA
HETATM    3  C7  UNL     1       0.349  -2.833  51.785  1.00  0.00     0.180 C 
HETATM    4  C9  UNL     1       0.133  -1.342  51.878  1.00  0.00     0.182 C 
HETATM    5  C10 UNL     1       1.530  -0.954  52.384  1.00  0.00     0.198 C 
ENDROOT
BRANCH   1   6
HETATM    6  N5  UNL     1       2.695  -1.349  50.252  1.00  0.00    -0.297 N 
HETATM    7  C3  UNL     1       3.498  -0.313  49.954  1.00  0.00     0.142 A 
HETATM    8  N3  UNL     1       4.202   0.523  50.715  1.00  0.00    -0.336 N 
HETATM    9  C4  UNL     1       3.545  -0.158  48.597  1.00  0.00     0.119 A 
HETATM   10  C2  UNL     1       4.948   1.503  50.173  1.00  0.00     0.183 A 
ATOM     11  H3  UNL     1       4.177   0.417  51.729  1.00  0.00     0.168 HD
HETATM   12  N2  UNL     1       5.005   1.670  48.850  1.00  0.00    -0.339 N 
HETATM   13  C1  UNL     1       4.314   0.851  48.054  1.00  0.00     0.148 A 
ATOM     14  H2  UNL     1       5.574   2.416  48.451  1.00  0.00     0.167 HD
HETATM   15  N1  UNL     1       4.328   0.970  46.646  1.00  0.00    -0.080 NA
HETATM   16  N4  UNL     1       2.770  -1.101  48.075  1.00  0.00    -0.346 N 
HETATM   17  C5  UNL     1       2.259  -1.815  49.068  1.00  0.00     0.188 A 
ATOM     18  H4  UNL     1       2.597  -1.249  47.081  1.00  0.00     0.167 HD
ENDBRANCH   1   6
BRANCH   5  19
HETATM   19  O10 UNL     1       1.602  -1.421  53.702  1.00  0.00    -0.388 OA
ATOM     20  H10 UNL     1       1.755  -0.671  54.263  1.00  0.00     0.210 HD
ENDBRANCH   5  19
BRANCH   3  21
HETATM   21  C8  UNL     1      -0.699  -3.526  50.973  1.00  0.00     0.216 C 
BRANCH  21  22
HETATM   22  O2  UNL     1      -1.921  -2.905  50.977  1.00  0.00    -0.287 OA
BRANCH  22  23
HETATM   23  P1  UNL     1      -2.786  -3.493  49.624  1.00  0.00     0.418 P 
HETATM   24  O3  UNL     1      -2.596  -2.518  48.492  1.00  0.00    -0.624 OA
HETATM   25  O4  UNL     1      -4.434  -3.583  49.952  1.00  0.00    -0.624 OA
BRANCH  23  26
HETATM   26  O5  UNL     1      -2.164  -4.985  49.196  1.00  0.00    -0.173 OA
BRANCH  26  27
HETATM   27  P2  UNL     1      -3.257  -5.967  48.399  1.00  0.00     0.431 P 
HETATM   28  O6  UNL     1      -4.194  -5.171  47.510  1.00  0.00    -0.616 OA
HETATM   29  O7  UNL     1      -4.235  -6.845  49.469  1.00  0.00    -0.616 OA
HETATM   30  O8  UNL     1      -2.364  -7.087  47.472  1.00  0.00    -0.616 OA
ENDBRANCH  26  27
ENDBRANCH  23  26
ENDBRANCH  22  23
ENDBRANCH  21  22
ENDBRANCH   3  21
BRANCH   4  31
HETATM   31  O9  UNL     1      -0.854  -0.981  52.763  1.00  0.00    -0.390 OA
ATOM     32  H9  UNL     1      -1.700  -0.842  52.354  1.00  0.00     0.210 HD
ENDBRANCH   4  31
TORSDOF 8
ENDMDL
