MODEL 4
REMARK VINA RESULT: -10.057763185      0.990      1.765
REMARK  8 active torsions:
REMARK  status: ('A' for Active; 'I' for Inactive)
REMARK    1  A    between atoms: N5_13  and  C6_14 
REMARK    2  A    between atoms: C7_16  and  C8_17 
REMARK    3  A    between atoms: C8_17  and  O2_18 
REMARK    4  A    between atoms: O2_18  and  P1_19 
REMARK    5  A    between atoms: P1_19  and  O5_22 
REMARK    6  A    between atoms: O5_22  and  P2_23 
REMARK    7  A    between atoms: C9_27  and  O9_28 
REMARK    8  A    between atoms: C10_30  and  O10_31 
ROOT
HETATM    1  C6  UNL     1       2.397  -1.534  50.699  1.00  0.00     0.262 C 
HETATM    2  O1  UNL     1       1.760  -2.724  50.981  1.00  0.00    -0.353 OA
HETATM    3  C7  UNL     1       0.496  -2.469  51.425  1.00  0.00     0.180 C 
HETATM    4  C9  UNL     1       0.171  -1.040  51.060  1.00  0.00     0.182 C 
HETATM    5  C10 UNL     1       1.565  -0.438  51.287  1.00  0.00     0.198 C 
ENDROOT
BRANCH   1   6
HETATM    6  N5  UNL     1       2.604  -1.437  49.291  1.00  0.00    -0.297 N 
HETATM    7  C3  UNL     1       3.281  -0.499  48.606  1.00  0.00     0.142 A 
HETATM    8  N3  UNL     1       3.945   0.588  48.993  1.00  0.00    -0.336 N 
HETATM    9  C4  UNL     1       3.228  -0.792  47.273  1.00  0.00     0.119 A 
HETATM   10  C2  UNL     1       4.554   1.391  48.101  1.00  0.00     0.183 A 
ATOM     11  H3  UNL     1       3.993   0.818  49.986  1.00  0.00     0.168 HD
HETATM   12  N2  UNL     1       4.513   1.120  46.795  1.00  0.00    -0.339 N 
HETATM   13  C1  UNL     1       3.857   0.038  46.369  1.00  0.00     0.148 A 
ATOM     14  H2  UNL     1       4.979   1.735  46.128  1.00  0.00     0.167 HD
HETATM   15  N1  UNL     1       3.772  -0.308  45.001  1.00  0.00    -0.080 NA
HETATM   16  N4  UNL     1       2.518  -1.908  47.152  1.00  0.00    -0.346 N 
HETATM   17  C5  UNL     1       2.144  -2.295  48.363  1.00  0.00     0.188 A 
ATOM     18  H4  UNL     1       2.299  -2.385  46.277  1.00  0.00     0.167 HD
ENDBRANCH   1   6
BRANCH   5  19
HETATM   19  O10 UNL     1       1.767  -0.453  52.673  1.00  0.00    -0.388 OA
ATOM     20  H10 UNL     1       1.010  -0.046  53.076  1.00  0.00     0.210 HD
ENDBRANCH   5  19
BRANCH   3  21
HETATM   21  C8  UNL     1      -0.548  -3.440  50.973  1.00  0.00     0.216 C 
BRANCH  21  22
HETATM   22  O2  UNL     1      -1.835  -2.985  51.099  1.00  0.00    -0.287 OA
BRANCH  22  23
HETATM   23  P1  UNL     1      -2.682  -3.484  49.699  1.00  0.00     0.418 P 
HETATM   24  O3  UNL     1      -2.422  -2.471  48.615  1.00  0.00    -0.624 OA
HETATM   25  O4  UNL     1      -4.341  -3.523  49.976  1.00  0.00    -0.624 OA
BRANCH  23  26
HETATM   26  O5  UNL     1      -2.104  -4.979  49.226  1.00  0.00    -0.173 OA
BRANCH  26  27
HETATM   27  P2  UNL     1      -3.239  -5.924  48.444  1.00  0.00     0.431 P 
HETATM   28  O6  UNL     1      -4.142  -5.101  47.545  1.00  0.00    -0.616 OA
HETATM   29  O7  UNL     1      -4.253  -6.744  49.527  1.00  0.00    -0.616 OA
HETATM   30  O8  UNL     1      -2.396  -7.095  47.532  1.00  0.00    -0.616 OA
ENDBRANCH  26  27
ENDBRANCH  23  26
ENDBRANCH  22  23
ENDBRANCH  21  22
ENDBRANCH   3  21
BRANCH   4  31
HETATM   31  O9  UNL     1      -0.777  -0.466  51.874  1.00  0.00    -0.390 OA
ATOM     32  H9  UNL     1      -1.251  -1.092  52.407  1.00  0.00     0.210 HD
ENDBRANCH   4  31
TORSDOF 8
ENDMDL
