MODEL 1
REMARK VINA RESULT: -10.378419223      0.000      0.000
REMARK  8 active torsions:
REMARK  status: ('A' for Active; 'I' for Inactive)
REMARK    1  A    between atoms: N5_13  and  C6_14 
REMARK    2  A    between atoms: C7_16  and  C8_17 
REMARK    3  A    between atoms: C8_17  and  O2_18 
REMARK    4  A    between atoms: O2_18  and  P1_19 
REMARK    5  A    between atoms: P1_19  and  O5_22 
REMARK    6  A    between atoms: O5_22  and  P2_23 
REMARK    7  A    between atoms: C9_27  and  O9_28 
REMARK    8  A    between atoms: C10_30  and  O10_31 
ROOT
HETATM    1  C6  UNL     1       2.738  -1.602  51.602  1.00  0.00     0.262 C 
HETATM    2  O1  UNL     1       1.942  -2.562  51.013  1.00  0.00    -0.353 OA
HETATM    3  C7  UNL     1       0.650  -2.389  51.412  1.00  0.00     0.180 C 
HETATM    4  C9  UNL     1       0.545  -1.007  52.009  1.00  0.00     0.182 C 
HETATM    5  C10 UNL     1       1.924  -0.956  52.679  1.00  0.00     0.198 C 
ENDROOT
BRANCH   1   6
HETATM    6  N5  UNL     1       3.214  -0.709  50.597  1.00  0.00    -0.297 N 
HETATM    7  C3  UNL     1       3.252  -0.891  49.266  1.00  0.00     0.142 A 
HETATM    8  N3  UNL     1       2.880  -1.906  48.488  1.00  0.00    -0.336 N 
HETATM    9  C4  UNL     1       3.786   0.220  48.677  1.00  0.00     0.119 A 
HETATM   10  C2  UNL     1       3.021  -1.853  47.152  1.00  0.00     0.183 A 
ATOM     11  H3  UNL     1       2.478  -2.741  48.916  1.00  0.00     0.168 HD
HETATM   12  N2  UNL     1       3.541  -0.776  46.559  1.00  0.00    -0.339 N 
HETATM   13  C1  UNL     1       3.925   0.263  47.305  1.00  0.00     0.148 A 
ATOM     14  H2  UNL     1       3.642  -0.746  45.545  1.00  0.00     0.167 HD
HETATM   15  N1  UNL     1       4.484   1.433  46.745  1.00  0.00    -0.080 NA
HETATM   16  N4  UNL     1       4.071   1.074  49.653  1.00  0.00    -0.346 N 
HETATM   17  C5  UNL     1       3.728   0.516  50.805  1.00  0.00     0.188 A 
ATOM     18  H4  UNL     1       4.483   1.999  49.536  1.00  0.00     0.167 HD
ENDBRANCH   1   6
BRANCH   5  19
HETATM   19  O10 UNL     1       1.861  -1.853  53.754  1.00  0.00    -0.388 OA
ATOM     20  H10 UNL     1       1.663  -2.711  53.398  1.00  0.00     0.210 HD
ENDBRANCH   5  19
BRANCH   3  21
HETATM   21  C8  UNL     1      -0.384  -2.654  50.364  1.00  0.00     0.216 C 
BRANCH  21  22
HETATM   22  O2  UNL     1      -1.660  -2.783  50.848  1.00  0.00    -0.287 OA
BRANCH  22  23
HETATM   23  P1  UNL     1      -2.616  -3.415  49.577  1.00  0.00     0.418 P 
HETATM   24  O3  UNL     1      -2.428  -2.531  48.372  1.00  0.00    -0.624 OA
HETATM   25  O4  UNL     1      -4.249  -3.392  49.980  1.00  0.00    -0.624 OA
BRANCH  23  26
HETATM   26  O5  UNL     1      -2.091  -4.964  49.230  1.00  0.00    -0.173 OA
BRANCH  26  27
HETATM   27  P2  UNL     1      -3.233  -5.902  48.448  1.00  0.00     0.431 P 
HETATM   28  O6  UNL     1      -4.135  -5.074  47.554  1.00  0.00    -0.616 OA
HETATM   29  O7  UNL     1      -4.246  -6.721  49.533  1.00  0.00    -0.616 OA
HETATM   30  O8  UNL     1      -2.397  -7.074  47.532  1.00  0.00    -0.616 OA
ENDBRANCH  26  27
ENDBRANCH  23  26
ENDBRANCH  22  23
ENDBRANCH  21  22
ENDBRANCH   3  21
BRANCH   4  31
HETATM   31  O9  UNL     1      -0.476  -0.876  52.920  1.00  0.00    -0.390 OA
ATOM     32  H9  UNL     1      -0.947  -0.055  52.850  1.00  0.00     0.210 HD
ENDBRANCH   4  31
TORSDOF 8
ENDMDL
