MODEL 7
REMARK VINA RESULT: -9.624938116      3.665      5.503
REMARK  8 active torsions:
REMARK  status: ('A' for Active; 'I' for Inactive)
REMARK    1  A    between atoms: N5_13  and  C6_14 
REMARK    2  A    between atoms: C7_16  and  C8_17 
REMARK    3  A    between atoms: C8_17  and  O2_18 
REMARK    4  A    between atoms: O2_18  and  P1_19 
REMARK    5  A    between atoms: P1_19  and  O5_22 
REMARK    6  A    between atoms: O5_22  and  P2_23 
REMARK    7  A    between atoms: C9_27  and  O9_28 
REMARK    8  A    between atoms: C10_30  and  O10_31 
ROOT
HETATM    1  C6  UNL     1       1.363  -1.230  52.921  1.00  0.00     0.262 C 
HETATM    2  O1  UNL     1       0.514  -0.834  51.909  1.00  0.00    -0.353 OA
HETATM    3  C7  UNL     1       0.113  -1.927  51.199  1.00  0.00     0.180 C 
HETATM    4  C9  UNL     1       0.433  -3.146  52.030  1.00  0.00     0.182 C 
HETATM    5  C10 UNL     1       1.749  -2.649  52.643  1.00  0.00     0.198 C 
ENDROOT
BRANCH   1   6
HETATM    6  N5  UNL     1       0.720  -1.022  54.177  1.00  0.00    -0.297 N 
HETATM    7  C3  UNL     1      -0.357  -0.266  54.452  1.00  0.00     0.142 A 
HETATM    8  N3  UNL     1      -1.137   0.493  53.686  1.00  0.00    -0.336 N 
HETATM    9  C4  UNL     1      -0.635  -0.351  55.787  1.00  0.00     0.119 A 
HETATM   10  C2  UNL     1      -2.180   1.170  54.202  1.00  0.00     0.183 A 
ATOM     11  H3  UNL     1      -0.941   0.564  52.687  1.00  0.00     0.168 HD
HETATM   12  N2  UNL     1      -2.467   1.099  55.503  1.00  0.00    -0.339 N 
HETATM   13  C1  UNL     1      -1.708   0.347  56.303  1.00  0.00     0.148 A 
ATOM     14  H2  UNL     1      -3.260   1.615  55.883  1.00  0.00     0.167 HD
HETATM   15  N1  UNL     1      -1.953   0.227  57.690  1.00  0.00    -0.080 NA
HETATM   16  N4  UNL     1       0.275  -1.158  56.320  1.00  0.00    -0.346 N 
HETATM   17  C5  UNL     1       1.089  -1.560  55.354  1.00  0.00     0.188 A 
ATOM     18  H4  UNL     1       0.337  -1.422  57.303  1.00  0.00     0.167 HD
ENDBRANCH   1   6
BRANCH   5  19
HETATM   19  O10 UNL     1       2.678  -2.634  51.594  1.00  0.00    -0.388 OA
ATOM     20  H10 UNL     1       2.571  -3.442  51.107  1.00  0.00     0.210 HD
ENDBRANCH   5  19
BRANCH   3  21
HETATM   21  C8  UNL     1      -1.307  -1.897  50.727  1.00  0.00     0.216 C 
BRANCH  21  22
HETATM   22  O2  UNL     1      -2.044  -2.996  51.083  1.00  0.00    -0.287 OA
BRANCH  22  23
HETATM   23  P1  UNL     1      -2.824  -3.555  49.666  1.00  0.00     0.418 P 
HETATM   24  O3  UNL     1      -2.596  -2.538  48.579  1.00  0.00    -0.624 OA
HETATM   25  O4  UNL     1      -4.484  -3.691  49.903  1.00  0.00    -0.624 OA
BRANCH  23  26
HETATM   26  O5  UNL     1      -2.146  -5.018  49.223  1.00  0.00    -0.173 OA
BRANCH  26  27
HETATM   27  P2  UNL     1      -3.202  -6.033  48.417  1.00  0.00     0.431 P 
HETATM   28  O6  UNL     1      -2.473  -7.039  47.548  1.00  0.00    -0.616 OA
HETATM   29  O7  UNL     1      -4.257  -5.186  47.396  1.00  0.00    -0.616 OA
HETATM   30  O8  UNL     1      -4.146  -6.833  49.593  1.00  0.00    -0.616 OA
ENDBRANCH  26  27
ENDBRANCH  23  26
ENDBRANCH  22  23
ENDBRANCH  21  22
ENDBRANCH   3  21
BRANCH   4  31
HETATM   31  O9  UNL     1       0.609  -4.289  51.287  1.00  0.00    -0.390 OA
ATOM     32  H9  UNL     1       0.212  -4.248  50.425  1.00  0.00     0.210 HD
ENDBRANCH   4  31
TORSDOF 8
ENDMDL
