MODEL 1
REMARK VINA RESULT: -7.555356133      0.000      0.000
REMARK  13 active torsions:
REMARK  status: ('A' for Active; 'I' for Inactive)
REMARK    1  A    between atoms: N1_1  and  N2_4 
REMARK    2  A    between atoms: N2_4  and  N3_5 
REMARK    3  A    between atoms: N3_5  and  C1_7 
REMARK    4  A    between atoms: C1_7  and  C2_8 
REMARK    5  A    between atoms: C2_8  and  C3_9 
REMARK    6  A    between atoms: C3_9  and  C4_10 
REMARK    7  A    between atoms: C4_10  and  N4_11 
REMARK       I    between atoms: N4_11  and  C5_13 
REMARK    8  A    between atoms: C5_13  and  C6_15 
REMARK    9  A    between atoms: C8_17  and  O2_18 
REMARK   10  A    between atoms: C9_20  and  O3_21 
REMARK   11  A    between atoms: C10_23  and  O4_24 
REMARK   12  A    between atoms: C11_26  and  C12_27 
REMARK   13  A    between atoms: C12_27  and  O5_28 
ROOT
HETATM    1  C6  UNL     1      -9.206 -10.899   5.288  1.00  0.00     0.090 A 
HETATM    2  C7  UNL     1      -9.920  -9.776   4.589  1.00  0.00     0.036 A 
HETATM    3  C8  UNL     1     -10.776 -10.161   3.439  1.00  0.00     0.154 C 
HETATM    4  C9  UNL     1     -11.540 -11.426   3.605  1.00  0.00     0.176 C 
HETATM    5  C10 UNL     1     -12.140 -11.658   4.933  1.00  0.00     0.156 C 
HETATM    6  C11 UNL     1     -11.706 -10.781   6.037  1.00  0.00     0.046 C 
HETATM    7  C13 UNL     1     -10.340 -10.192   5.913  1.00  0.00     0.015 A 
ENDROOT
BRANCH   1   8
HETATM    8  C5  UNL     1      -7.827 -10.613   5.762  1.00  0.00     0.222 C 
HETATM    9  N4  UNL     1      -7.549 -10.193   7.090  1.00  0.00    -0.361 N 
ATOM     10  H4  UNL     1      -8.329 -10.086   7.738  1.00  0.00     0.162 HD
HETATM   11  O1  UNL     1      -6.842 -10.737   4.988  1.00  0.00    -0.273 OA
BRANCH   9  12
HETATM   12  C4  UNL     1      -6.219  -9.910   7.568  1.00  0.00     0.122 C 
BRANCH  12  13
HETATM   13  C3  UNL     1      -6.108 -10.236   9.038  1.00  0.00     0.021 C 
BRANCH  13  14
HETATM   14  C2  UNL     1      -4.857  -9.708   9.655  1.00  0.00     0.024 C 
BRANCH  14  15
HETATM   15  C1  UNL     1      -5.054  -8.234   9.944  1.00  0.00     0.155 C 
BRANCH  15  16
HETATM   16  N3  UNL     1      -6.412  -7.967  10.355  1.00  0.00    -0.253 N 
ATOM     17  H3  UNL     1      -6.831  -8.591  11.045  1.00  0.00     0.196 HD
BRANCH  16  18
HETATM   18  N2  UNL     1      -7.093  -7.046   9.933  1.00  0.00    -0.249 NA
BRANCH  18  19
HETATM   19  N1  UNL     1      -7.582  -6.191   9.177  1.00  0.00    -0.261 N 
ATOM     20  H12 UNL     1      -6.927  -5.451   9.427  1.00  0.00     0.193 HD
ATOM     21  H11 UNL     1      -8.182  -5.736   8.489  1.00  0.00     0.193 HD
ENDBRANCH  18  19
ENDBRANCH  16  18
ENDBRANCH  15  16
ENDBRANCH  14  15
ENDBRANCH  13  14
ENDBRANCH  12  13
ENDBRANCH   9  12
ENDBRANCH   1   8
BRANCH   3  22
HETATM   22  O2  UNL     1     -11.596  -9.081   3.072  1.00  0.00    -0.392 OA
ATOM     23  H2  UNL     1     -11.416  -8.829   2.174  1.00  0.00     0.210 HD
ENDBRANCH   3  22
BRANCH   6  24
HETATM   24  C12 UNL     1     -11.852 -11.555   7.347  1.00  0.00     0.171 C 
BRANCH  24  25
HETATM   25  O5  UNL     1     -13.106 -11.389   7.907  1.00  0.00    -0.400 OA
ATOM     26  H5  UNL     1     -13.139 -11.704   8.802  1.00  0.00     0.209 HD
ENDBRANCH  24  25
ENDBRANCH   6  24
BRANCH   4  27
HETATM   27  O3  UNL     1     -10.748 -12.518   3.178  1.00  0.00    -0.390 OA
ATOM     28  H3  UNL     1     -10.301 -12.899   3.924  1.00  0.00     0.210 HD
ENDBRANCH   4  27
BRANCH   5  29
HETATM   29  O4  UNL     1     -13.555 -11.618   4.886  1.00  0.00    -0.392 OA
ATOM     30  H4  UNL     1     -13.895 -10.790   5.206  1.00  0.00     0.210 HD
ENDBRANCH   5  29
TORSDOF 13
ENDMDL
