MODEL 3
REMARK VINA RESULT: -7.408035270      1.895      2.238
REMARK  13 active torsions:
REMARK  status: ('A' for Active; 'I' for Inactive)
REMARK    1  A    between atoms: N1_1  and  N2_4 
REMARK    2  A    between atoms: N2_4  and  N3_5 
REMARK    3  A    between atoms: N3_5  and  C1_7 
REMARK    4  A    between atoms: C1_7  and  C2_8 
REMARK    5  A    between atoms: C2_8  and  C3_9 
REMARK    6  A    between atoms: C3_9  and  C4_10 
REMARK    7  A    between atoms: C4_10  and  N4_11 
REMARK       I    between atoms: N4_11  and  C5_13 
REMARK    8  A    between atoms: C5_13  and  C6_15 
REMARK    9  A    between atoms: C8_17  and  O2_18 
REMARK   10  A    between atoms: C9_20  and  O3_21 
REMARK   11  A    between atoms: C10_23  and  O4_24 
REMARK   12  A    between atoms: C11_26  and  C12_27 
REMARK   13  A    between atoms: C12_27  and  O5_28 
ROOT
HETATM    1  C6  UNL     1     -10.127 -10.545   4.870  1.00  0.00     0.090 A 
HETATM    2  C7  UNL     1     -10.295  -9.660   3.667  1.00  0.00     0.036 A 
HETATM    3  C8  UNL     1     -10.801 -10.318   2.436  1.00  0.00     0.154 C 
HETATM    4  C9  UNL     1     -11.850 -11.350   2.648  1.00  0.00     0.176 C 
HETATM    5  C10 UNL     1     -12.882 -11.037   3.655  1.00  0.00     0.156 C 
HETATM    6  C11 UNL     1     -12.634  -9.888   4.546  1.00  0.00     0.046 C 
HETATM    7  C13 UNL     1     -11.203  -9.539   4.790  1.00  0.00     0.015 A 
ENDROOT
BRANCH   1   8
HETATM    8  C5  UNL     1      -8.946 -10.273   5.731  1.00  0.00     0.222 C 
HETATM    9  N4  UNL     1      -8.984  -9.343   6.804  1.00  0.00    -0.361 N 
ATOM     10  H4  UNL     1      -9.857  -8.847   6.986  1.00  0.00     0.162 HD
HETATM   11  O1  UNL     1      -7.856 -10.869   5.535  1.00  0.00    -0.273 OA
BRANCH   9  12
HETATM   12  C4  UNL     1      -7.850  -9.065   7.650  1.00  0.00     0.122 C 
BRANCH  12  13
HETATM   13  C3  UNL     1      -7.102  -7.855   7.143  1.00  0.00     0.021 C 
BRANCH  13  14
HETATM   14  C2  UNL     1      -7.296  -6.652   8.005  1.00  0.00     0.024 C 
BRANCH  14  15
HETATM   15  C1  UNL     1      -6.595  -6.895   9.325  1.00  0.00     0.155 C 
BRANCH  15  16
HETATM   16  N3  UNL     1      -5.169  -7.009   9.138  1.00  0.00    -0.253 N 
ATOM     17  H3  UNL     1      -4.722  -6.364   8.486  1.00  0.00     0.196 HD
BRANCH  16  18
HETATM   18  N2  UNL     1      -4.461  -7.825   9.706  1.00  0.00    -0.249 NA
BRANCH  18  19
HETATM   19  N1  UNL     1      -4.084  -8.740  10.457  1.00  0.00    -0.261 N 
ATOM     20  H12 UNL     1      -4.646  -8.450  11.257  1.00  0.00     0.193 HD
ATOM     21  H11 UNL     1      -3.603  -9.567  10.809  1.00  0.00     0.193 HD
ENDBRANCH  18  19
ENDBRANCH  16  18
ENDBRANCH  15  16
ENDBRANCH  14  15
ENDBRANCH  13  14
ENDBRANCH  12  13
ENDBRANCH   9  12
ENDBRANCH   1   8
BRANCH   3  22
HETATM   22  O2  UNL     1     -11.184  -9.346   1.497  1.00  0.00    -0.392 OA
ATOM     23  H2  UNL     1     -11.043  -9.674   0.617  1.00  0.00     0.210 HD
ENDBRANCH   3  22
BRANCH   6  24
HETATM   24  C12 UNL     1     -13.370 -10.137   5.863  1.00  0.00     0.171 C 
BRANCH  24  25
HETATM   25  O5  UNL     1     -14.721  -9.860   5.758  1.00  0.00    -0.400 OA
ATOM     26  H5  UNL     1     -15.083  -9.549   6.580  1.00  0.00     0.209 HD
ENDBRANCH  24  25
ENDBRANCH   6  24
BRANCH   4  27
HETATM   27  O3  UNL     1     -11.241 -12.607   2.879  1.00  0.00    -0.390 OA
ATOM     28  H3  UNL     1     -11.541 -13.231   2.229  1.00  0.00     0.210 HD
ENDBRANCH   4  27
BRANCH   5  29
HETATM   29  O4  UNL     1     -14.156 -10.853   3.064  1.00  0.00    -0.392 OA
ATOM     30  H4  UNL     1     -14.452  -9.952   3.136  1.00  0.00     0.210 HD
ENDBRANCH   5  29
TORSDOF 13
ENDMDL
