MODEL 2
REMARK VINA RESULT: -7.447773663      1.926      3.174
REMARK  13 active torsions:
REMARK  status: ('A' for Active; 'I' for Inactive)
REMARK    1  A    between atoms: N1_1  and  N2_4 
REMARK    2  A    between atoms: N2_4  and  N3_5 
REMARK    3  A    between atoms: N3_5  and  C1_7 
REMARK    4  A    between atoms: C1_7  and  C2_8 
REMARK    5  A    between atoms: C2_8  and  C3_9 
REMARK    6  A    between atoms: C3_9  and  C4_10 
REMARK    7  A    between atoms: C4_10  and  N4_11 
REMARK       I    between atoms: N4_11  and  C5_13 
REMARK    8  A    between atoms: C5_13  and  C6_15 
REMARK    9  A    between atoms: C8_17  and  O2_18 
REMARK   10  A    between atoms: C9_20  and  O3_21 
REMARK   11  A    between atoms: C10_23  and  O4_24 
REMARK   12  A    between atoms: C11_26  and  C12_27 
REMARK   13  A    between atoms: C12_27  and  O5_28 
ROOT
HETATM    1  C6  UNL     1     -10.758 -10.336   5.075  1.00  0.00     0.090 A 
HETATM    2  C7  UNL     1     -12.034 -10.490   5.853  1.00  0.00     0.036 A 
HETATM    3  C8  UNL     1     -13.184  -9.674   5.391  1.00  0.00     0.154 C 
HETATM    4  C9  UNL     1     -13.323  -9.540   3.917  1.00  0.00     0.176 C 
HETATM    5  C10 UNL     1     -13.064 -10.756   3.123  1.00  0.00     0.156 C 
HETATM    6  C11 UNL     1     -12.430 -11.895   3.812  1.00  0.00     0.046 C 
HETATM    7  C13 UNL     1     -11.575 -11.560   4.990  1.00  0.00     0.015 A 
ENDROOT
BRANCH   1   8
HETATM    8  C5  UNL     1      -9.496 -10.362   5.860  1.00  0.00     0.222 C 
HETATM    9  N4  UNL     1      -9.113  -9.299   6.722  1.00  0.00    -0.361 N 
ATOM     10  H4  UNL     1      -9.731  -8.492   6.801  1.00  0.00     0.162 HD
HETATM   11  O1  UNL     1      -8.713 -11.343   5.787  1.00  0.00    -0.273 OA
BRANCH   9  12
HETATM   12  C4  UNL     1      -7.894  -9.305   7.491  1.00  0.00     0.122 C 
BRANCH  12  13
HETATM   13  C3  UNL     1      -7.150  -8.004   7.306  1.00  0.00     0.021 C 
BRANCH  13  14
HETATM   14  C2  UNL     1      -7.664  -6.914   8.186  1.00  0.00     0.024 C 
BRANCH  14  15
HETATM   15  C1  UNL     1      -6.683  -6.719   9.323  1.00  0.00     0.155 C 
BRANCH  15  16
HETATM   16  N3  UNL     1      -5.352  -7.112   8.928  1.00  0.00    -0.253 N 
ATOM     17  H3  UNL     1      -4.997  -6.763   8.038  1.00  0.00     0.196 HD
BRANCH  16  18
HETATM   18  N2  UNL     1      -4.621  -7.835   9.587  1.00  0.00    -0.249 NA
BRANCH  18  19
HETATM   19  N1  UNL     1      -4.227  -8.708  10.377  1.00  0.00    -0.261 N 
ATOM     20  H12 UNL     1      -5.066  -8.704  10.957  1.00  0.00     0.193 HD
ATOM     21  H11 UNL     1      -3.645  -9.413  10.831  1.00  0.00     0.193 HD
ENDBRANCH  18  19
ENDBRANCH  16  18
ENDBRANCH  15  16
ENDBRANCH  14  15
ENDBRANCH  13  14
ENDBRANCH  12  13
ENDBRANCH   9  12
ENDBRANCH   1   8
BRANCH   3  22
HETATM   22  O2  UNL     1     -14.366 -10.123   6.005  1.00  0.00    -0.392 OA
ATOM     23  H2  UNL     1     -15.117  -9.872   5.481  1.00  0.00     0.210 HD
ENDBRANCH   3  22
BRANCH   6  24
HETATM   24  C12 UNL     1     -11.646 -12.703   2.778  1.00  0.00     0.171 C 
BRANCH  24  25
HETATM   25  O5  UNL     1     -12.384 -13.765   2.287  1.00  0.00    -0.400 OA
ATOM     26  H5  UNL     1     -11.896 -14.269   1.645  1.00  0.00     0.209 HD
ENDBRANCH  24  25
ENDBRANCH   6  24
BRANCH   4  27
HETATM   27  O3  UNL     1     -12.562  -8.435   3.467  1.00  0.00    -0.390 OA
ATOM     28  H3  UNL     1     -13.098  -7.885   2.907  1.00  0.00     0.210 HD
ENDBRANCH   4  27
BRANCH   5  29
HETATM   29  O4  UNL     1     -14.241 -11.236   2.496  1.00  0.00    -0.392 OA
ATOM     30  H4  UNL     1     -14.428 -10.769   1.690  1.00  0.00     0.210 HD
ENDBRANCH   5  29
TORSDOF 13
ENDMDL
