MODEL 4
REMARK VINA RESULT: -7.213644342      4.757      7.162
REMARK  5 active torsions:
REMARK  status: ('A' for Active; 'I' for Inactive)
REMARK    1  A    between atoms: C2_2  and  C4_4 
REMARK    2  A    between atoms: C4_4  and  N1_5 
REMARK    3  A    between atoms: N1_5  and  C5_7 
REMARK    4  A    between atoms: C12_17  and  C13_18 
REMARK       I    between atoms: C13_18  and  N4_20 
REMARK    5  A    between atoms: N4_20  and  C14_22 
ROOT
HETATM    1  C5  UNL     1      38.333  41.888  40.138  1.00  0.00     0.146 A 
HETATM    2  N2  UNL     1      39.106  41.607  39.098  1.00  0.00    -0.348 N 
ATOM      3  H2  UNL     1      39.392  42.360  38.473  1.00  0.00     0.167 HD
HETATM    4  C6  UNL     1      39.515  40.377  38.852  1.00  0.00     0.107 A 
HETATM    5  C7  UNL     1      39.132  39.329  39.703  1.00  0.00     0.116 A 
HETATM    6  N3  UNL     1      38.350  39.549  40.777  1.00  0.00    -0.302 N 
HETATM    7  C8  UNL     1      37.826  38.770  41.724  1.00  0.00     0.066 A 
HETATM    8  C9  UNL     1      37.894  37.354  41.925  1.00  0.00    -0.007 A 
HETATM    9  C10 UNL     1      36.935  36.748  42.764  1.00  0.00     0.015 A 
HETATM   10  C11 UNL     1      36.951  35.413  43.071  1.00  0.00     0.018 A 
HETATM   11  C12 UNL     1      37.921  34.594  42.561  1.00  0.00     0.032 A 
HETATM   12  C17 UNL     1      38.867  35.151  41.745  1.00  0.00     0.018 A 
HETATM   13  C18 UNL     1      38.847  36.528  41.433  1.00  0.00     0.015 A 
HETATM   14  C19 UNL     1      37.081  39.675  42.517  1.00  0.00     0.120 A 
HETATM   15  N5  UNL     1      37.183  40.910  42.042  1.00  0.00    -0.347 N 
ATOM     16  H5  UNL     1      36.745  41.747  42.427  1.00  0.00     0.167 HD
HETATM   17  C20 UNL     1      37.970  40.848  40.959  1.00  0.00     0.157 A 
ENDROOT
BRANCH   1  18
HETATM   18  N1  UNL     1      37.868  43.223  40.373  1.00  0.00    -0.373 N 
ATOM     19  H1  UNL     1      38.129  43.648  41.263  1.00  0.00     0.161 HD
BRANCH  18  20
HETATM   20  C4  UNL     1      37.085  44.015  39.497  1.00  0.00     0.125 C 
BRANCH  20  21
HETATM   21  C2  UNL     1      35.692  44.345  39.927  1.00  0.00    -0.005 C 
HETATM   22  C1  UNL     1      35.303  45.755  39.676  1.00  0.00     0.011 C 
HETATM   23  C3  UNL     1      35.493  44.041  41.421  1.00  0.00     0.011 C 
ENDBRANCH  20  21
ENDBRANCH  18  20
ENDBRANCH   1  18
BRANCH  11  24
HETATM   24  C13 UNL     1      37.950  33.151  42.883  1.00  0.00     0.252 C 
HETATM   25  O1  UNL     1      37.118  32.719  43.732  1.00  0.00    -0.268 OA
HETATM   26  N4  UNL     1      38.839  32.235  42.309  1.00  0.00    -0.352 N 
ATOM     27  H4  UNL     1      39.517  32.566  41.623  1.00  0.00     0.163 HD
BRANCH  26  28
HETATM   28  C14 UNL     1      38.825  30.820  42.660  1.00  0.00     0.084 A 
HETATM   29  C15 UNL     1      39.808  29.899  41.962  1.00  0.00     0.027 A 
HETATM   30  C16 UNL     1      39.987  30.253  43.396  1.00  0.00     0.027 A 
ENDBRANCH  26  28
ENDBRANCH  11  24
TORSDOF 5
ENDMDL
