MODEL 6
REMARK VINA RESULT: -7.125634113      2.892      3.618
REMARK  5 active torsions:
REMARK  status: ('A' for Active; 'I' for Inactive)
REMARK    1  A    between atoms: C2_2  and  C4_4 
REMARK    2  A    between atoms: C4_4  and  N1_5 
REMARK    3  A    between atoms: N1_5  and  C5_7 
REMARK    4  A    between atoms: C12_17  and  C13_18 
REMARK       I    between atoms: C13_18  and  N4_20 
REMARK    5  A    between atoms: N4_20  and  C14_22 
ROOT
HETATM    1  C5  UNL     1      33.568  47.397  42.020  1.00  0.00     0.146 A 
HETATM    2  N2  UNL     1      33.106  47.336  43.260  1.00  0.00    -0.348 N 
ATOM      3  H2  UNL     1      32.647  48.154  43.661  1.00  0.00     0.167 HD
HETATM    4  C6  UNL     1      33.225  46.244  43.990  1.00  0.00     0.107 A 
HETATM    5  C7  UNL     1      33.852  45.109  43.454  1.00  0.00     0.116 A 
HETATM    6  N3  UNL     1      34.341  45.106  42.199  1.00  0.00    -0.302 N 
HETATM    7  C8  UNL     1      34.984  44.209  41.451  1.00  0.00     0.066 A 
HETATM    8  C9  UNL     1      35.424  42.878  41.743  1.00  0.00    -0.007 A 
HETATM    9  C10 UNL     1      36.415  42.302  40.921  1.00  0.00     0.015 A 
HETATM   10  C11 UNL     1      36.858  41.016  41.078  1.00  0.00     0.018 A 
HETATM   11  C12 UNL     1      36.344  40.219  42.064  1.00  0.00     0.032 A 
HETATM   12  C17 UNL     1      35.380  40.747  42.878  1.00  0.00     0.018 A 
HETATM   13  C18 UNL     1      34.926  42.074  42.711  1.00  0.00     0.015 A 
HETATM   14  C19 UNL     1      35.220  44.902  40.239  1.00  0.00     0.120 A 
HETATM   15  N5  UNL     1      34.730  46.134  40.299  1.00  0.00    -0.347 N 
ATOM     16  H5  UNL     1      34.766  46.838  39.563  1.00  0.00     0.167 HD
HETATM   17  C20 UNL     1      34.179  46.276  41.513  1.00  0.00     0.157 A 
ENDROOT
BRANCH   1  18
HETATM   18  N1  UNL     1      33.463  48.603  41.251  1.00  0.00    -0.373 N 
ATOM     19  H1  UNL     1      33.415  48.497  40.238  1.00  0.00     0.161 HD
BRANCH  18  20
HETATM   20  C4  UNL     1      33.419  49.927  41.753  1.00  0.00     0.125 C 
BRANCH  20  21
HETATM   21  C2  UNL     1      34.666  50.474  42.366  1.00  0.00    -0.005 C 
HETATM   22  C1  UNL     1      35.895  49.725  42.001  1.00  0.00     0.011 C 
HETATM   23  C3  UNL     1      34.554  50.509  43.899  1.00  0.00     0.011 C 
ENDBRANCH  20  21
ENDBRANCH  18  20
ENDBRANCH   1  18
BRANCH  11  24
HETATM   24  C13 UNL     1      36.814  38.829  42.245  1.00  0.00     0.252 C 
HETATM   25  O1  UNL     1      37.744  38.417  41.493  1.00  0.00    -0.268 OA
HETATM   26  N4  UNL     1      36.295  37.940  43.195  1.00  0.00    -0.352 N 
ATOM     27  H4  UNL     1      35.544  38.256  43.809  1.00  0.00     0.163 HD
BRANCH  26  28
HETATM   28  C14 UNL     1      36.795  36.578  43.333  1.00  0.00     0.084 A 
HETATM   29  C15 UNL     1      37.452  36.186  44.644  1.00  0.00     0.027 A 
HETATM   30  C16 UNL     1      36.111  35.656  44.280  1.00  0.00     0.027 A 
ENDBRANCH  26  28
ENDBRANCH  11  24
TORSDOF 5
ENDMDL
