MODEL 3
REMARK VINA RESULT: -7.299796053      3.150      4.156
REMARK  5 active torsions:
REMARK  status: ('A' for Active; 'I' for Inactive)
REMARK    1  A    between atoms: C2_2  and  C4_4 
REMARK    2  A    between atoms: C4_4  and  N1_5 
REMARK    3  A    between atoms: N1_5  and  C5_7 
REMARK    4  A    between atoms: C12_17  and  C13_18 
REMARK       I    between atoms: C13_18  and  N4_20 
REMARK    5  A    between atoms: N4_20  and  C14_22 
ROOT
HETATM    1  C5  UNL     1      34.122  46.744  41.291  1.00  0.00     0.146 A 
HETATM    2  N2  UNL     1      34.668  46.818  40.086  1.00  0.00    -0.348 N 
ATOM      3  H2  UNL     1      34.570  47.679  39.548  1.00  0.00     0.167 HD
HETATM    4  C6  UNL     1      35.337  45.808  39.566  1.00  0.00     0.107 A 
HETATM    5  C7  UNL     1      35.484  44.617  40.294  1.00  0.00     0.116 A 
HETATM    6  N3  UNL     1      34.954  44.478  41.524  1.00  0.00    -0.302 N 
HETATM    7  C8  UNL     1      34.917  43.489  42.417  1.00  0.00     0.066 A 
HETATM    8  C9  UNL     1      35.430  42.153  42.367  1.00  0.00    -0.007 A 
HETATM    9  C10 UNL     1      34.914  41.201  43.271  1.00  0.00     0.015 A 
HETATM   10  C11 UNL     1      35.382  39.916  43.347  1.00  0.00     0.018 A 
HETATM   11  C12 UNL     1      36.391  39.494  42.527  1.00  0.00     0.032 A 
HETATM   12  C17 UNL     1      36.914  40.393  41.638  1.00  0.00     0.018 A 
HETATM   13  C18 UNL     1      36.430  41.718  41.565  1.00  0.00     0.015 A 
HETATM   14  C19 UNL     1      34.160  44.036  43.481  1.00  0.00     0.120 A 
HETATM   15  N5  UNL     1      33.789  45.280  43.202  1.00  0.00    -0.347 N 
ATOM     16  H5  UNL     1      33.239  45.898  43.799  1.00  0.00     0.167 HD
HETATM   17  C20 UNL     1      34.277  45.570  41.988  1.00  0.00     0.157 A 
ENDROOT
BRANCH   1  18
HETATM   18  N1  UNL     1      33.368  47.838  41.829  1.00  0.00    -0.373 N 
ATOM     19  H1  UNL     1      32.385  47.891  41.563  1.00  0.00     0.161 HD
BRANCH  18  20
HETATM   20  C4  UNL     1      33.847  48.855  42.692  1.00  0.00     0.125 C 
BRANCH  20  21
HETATM   21  C2  UNL     1      35.315  48.889  42.968  1.00  0.00    -0.005 C 
HETATM   22  C1  UNL     1      35.660  49.342  44.339  1.00  0.00     0.011 C 
HETATM   23  C3  UNL     1      36.042  49.793  41.958  1.00  0.00     0.011 C 
ENDBRANCH  20  21
ENDBRANCH  18  20
ENDBRANCH   1  18
BRANCH  11  24
HETATM   24  C13 UNL     1      36.905  38.109  42.596  1.00  0.00     0.252 C 
HETATM   25  O1  UNL     1      37.850  37.789  41.818  1.00  0.00    -0.268 OA
HETATM   26  N4  UNL     1      36.412  37.130  43.467  1.00  0.00    -0.352 N 
ATOM     27  H4  UNL     1      35.649  37.370  44.101  1.00  0.00     0.163 HD
BRANCH  26  28
HETATM   28  C14 UNL     1      36.954  35.778  43.497  1.00  0.00     0.084 A 
HETATM   29  C15 UNL     1      37.889  35.405  44.632  1.00  0.00     0.027 A 
HETATM   30  C16 UNL     1      36.510  34.850  44.572  1.00  0.00     0.027 A 
ENDBRANCH  26  28
ENDBRANCH  11  24
TORSDOF 5
ENDMDL
