MODEL 2
REMARK VINA RESULT: -8.925977997      2.382      8.656
REMARK  11 active torsions:
REMARK  status: ('A' for Active; 'I' for Inactive)
REMARK    1  A    between atoms: O1_2  and  C2_3 
REMARK    2  A    between atoms: C5_6  and  C6_7 
REMARK    3  A    between atoms: C6_7  and  N1_8 
REMARK    4  A    between atoms: C11_13  and  C12_14 
REMARK    5  A    between atoms: C12_14  and  O2_15 
REMARK    6  A    between atoms: C12_14  and  N2_17 
REMARK    7  A    between atoms: N2_17  and  C13_19 
REMARK    8  A    between atoms: C13_19  and  C14_20 
REMARK    9  A    between atoms: N4_32  and  C24_33 
REMARK   10  A    between atoms: C24_33  and  C25_34 
REMARK   11  A    between atoms: C25_34  and  N5_35 
ROOT
HETATM    1  N1  UNL     1       4.478   5.231  21.188  1.00  0.00    -0.365 N 
HETATM    2  C7  UNL     1       4.527   5.453  19.835  1.00  0.00     0.070 C 
HETATM    3  C8  UNL     1       5.852   5.956  19.264  1.00  0.00     0.104 C 
HETATM    4  C9  UNL     1       6.969   5.198  19.919  1.00  0.00     0.043 A 
HETATM    5  C10 UNL     1       6.803   4.566  21.096  1.00  0.00     0.017 A 
HETATM    6  C11 UNL     1       8.022   3.948  21.442  1.00  0.00     0.108 A 
HETATM    7  N3  UNL     1       8.863   4.251  20.428  1.00  0.00    -0.294 N 
ATOM      8  H3  UNL     1       9.838   3.958  20.355  1.00  0.00     0.187 HD
HETATM    9  N4  UNL     1       8.214   4.992  19.546  1.00  0.00    -0.293 N 
HETATM   10  C26 UNL     1       5.523   4.510  21.826  1.00  0.00     0.170 C 
ENDROOT
BRANCH   6  11
HETATM   11  C12 UNL     1       8.271   3.302  22.702  1.00  0.00     0.165 C 
BRANCH  11  12
HETATM   12  O2  UNL     1       9.359   3.721  23.290  1.00  0.00    -0.345 OA
ATOM     13  H2  UNL     1       9.401   3.488  24.210  1.00  0.00     0.219 HD
ENDBRANCH  11  12
BRANCH  11  14
HETATM   14  N2  UNL     1       7.588   2.329  23.403  1.00  0.00    -0.365 N 
ATOM     15  H2  UNL     1       7.061   1.636  22.873  1.00  0.00     0.162 HD
BRANCH  14  16
HETATM   16  C13 UNL     1       7.576   2.235  24.856  1.00  0.00     0.161 C 
BRANCH  16  17
HETATM   17  C14 UNL     1       6.316   2.619  25.482  1.00  0.00    -0.029 A 
HETATM   18  C15 UNL     1       5.841   3.914  25.395  1.00  0.00     0.010 A 
HETATM   19  C16 UNL     1       4.607   4.230  25.986  1.00  0.00     0.002 A 
HETATM   20  C17 UNL     1       3.891   3.260  26.633  1.00  0.00     0.012 A 
HETATM   21  C18 UNL     1       4.351   1.974  26.726  1.00  0.00    -0.025 A 
HETATM   22  C19 UNL     1       3.660   0.990  27.395  1.00  0.00     0.012 A 
HETATM   23  C23 UNL     1       5.552   1.643  26.163  1.00  0.00    -0.018 A 
HETATM   24  C20 UNL     1       4.127  -0.294  27.513  1.00  0.00     0.001 A 
HETATM   25  C21 UNL     1       5.343  -0.645  26.946  1.00  0.00     0.001 A 
HETATM   26  C22 UNL     1       6.038   0.365  26.270  1.00  0.00     0.013 A 
ENDBRANCH  16  17
ENDBRANCH  14  16
ENDBRANCH  11  14
ENDBRANCH   6  11
BRANCH   9  27
HETATM   27  C24 UNL     1       8.875   5.599  18.389  1.00  0.00     0.176 C 
BRANCH  27  28
HETATM   28  C25 UNL     1      10.095   4.749  18.052  1.00  0.00     0.251 C 
BRANCH  28  29
HETATM   29  N5  UNL     1       9.834   3.765  17.051  1.00  0.00    -0.078 N 
ATOM     30  H53 UNL     1       8.848   3.505  17.046  1.00  0.00     0.274 HD
ATOM     31  H52 UNL     1       9.905   4.170  16.117  1.00  0.00     0.274 HD
ATOM     32  H51 UNL     1      10.428   2.940  17.134  1.00  0.00     0.274 HD
ENDBRANCH  28  29
ENDBRANCH  27  28
ENDBRANCH   9  27
BRANCH   1  33
HETATM   33  C6  UNL     1       3.521   5.698  22.092  1.00  0.00     0.102 C 
BRANCH  33  34
HETATM   34  C5  UNL     1       2.287   6.246  21.497  1.00  0.00    -0.009 A 
HETATM   35  C4  UNL     1       2.153   7.609  21.467  1.00  0.00     0.016 A 
HETATM   36  C3  UNL     1       0.923   8.176  21.111  1.00  0.00     0.038 A 
HETATM   37  C2  UNL     1      -0.142   7.374  20.794  1.00  0.00     0.079 A 
HETATM   38  C32 UNL     1       0.050   6.008  20.836  1.00  0.00     0.008 A 
HETATM   39  C27 UNL     1       1.248   5.408  21.182  1.00  0.00    -0.012 A 
HETATM   40  C31 UNL     1      -1.010   5.179  20.449  1.00  0.00     0.015 A 
HETATM   41  C28 UNL     1       1.422   4.055  21.161  1.00  0.00     0.013 A 
HETATM   42  C29 UNL     1       0.369   3.247  20.776  1.00  0.00     0.001 A 
HETATM   43  C30 UNL     1      -0.822   3.823  20.426  1.00  0.00     0.001 A 
BRANCH  37  44
HETATM   44  O1  UNL     1      -1.356   7.953  20.447  1.00  0.00    -0.355 OA
HETATM   45  C1  UNL     1      -1.439   9.357  20.403  1.00  0.00     0.210 C 
ENDBRANCH  37  44
ENDBRANCH  33  34
ENDBRANCH   1  33
TORSDOF 11
ENDMDL
