MODEL 5
REMARK VINA RESULT: -8.703241240      2.215      9.061
REMARK  11 active torsions:
REMARK  status: ('A' for Active; 'I' for Inactive)
REMARK    1  A    between atoms: O1_2  and  C2_3 
REMARK    2  A    between atoms: C5_6  and  C6_7 
REMARK    3  A    between atoms: C6_7  and  N1_8 
REMARK    4  A    between atoms: C11_13  and  C12_14 
REMARK    5  A    between atoms: C12_14  and  O2_15 
REMARK    6  A    between atoms: C12_14  and  N2_17 
REMARK    7  A    between atoms: N2_17  and  C13_19 
REMARK    8  A    between atoms: C13_19  and  C14_20 
REMARK    9  A    between atoms: N4_32  and  C24_33 
REMARK   10  A    between atoms: C24_33  and  C25_34 
REMARK   11  A    between atoms: C25_34  and  N5_35 
ROOT
HETATM    1  N1  UNL     1       4.270   5.211  21.371  1.00  0.00    -0.365 N 
HETATM    2  C7  UNL     1       4.406   5.440  20.025  1.00  0.00     0.070 C 
HETATM    3  C8  UNL     1       5.788   5.871  19.532  1.00  0.00     0.104 C 
HETATM    4  C9  UNL     1       6.821   5.045  20.240  1.00  0.00     0.043 A 
HETATM    5  C10 UNL     1       6.555   4.415  21.400  1.00  0.00     0.017 A 
HETATM    6  C11 UNL     1       7.715   3.726  21.807  1.00  0.00     0.108 A 
HETATM    7  N3  UNL     1       8.628   3.987  20.843  1.00  0.00    -0.294 N 
ATOM      8  H3  UNL     1       9.587   3.639  20.821  1.00  0.00     0.187 HD
HETATM    9  N4  UNL     1       8.071   4.770  19.934  1.00  0.00    -0.293 N 
HETATM   10  C26 UNL     1       5.235   4.427  22.058  1.00  0.00     0.170 C 
ENDROOT
BRANCH   6  11
HETATM   11  C12 UNL     1       7.857   3.057  23.071  1.00  0.00     0.165 C 
BRANCH  11  12
HETATM   12  O2  UNL     1       9.000   3.297  23.656  1.00  0.00    -0.345 OA
ATOM     13  H2  UNL     1       9.464   2.508  23.909  1.00  0.00     0.219 HD
ENDBRANCH  11  12
BRANCH  11  14
HETATM   14  N2  UNL     1       7.025   2.214  23.780  1.00  0.00    -0.365 N 
ATOM     15  H2  UNL     1       6.599   1.432  23.284  1.00  0.00     0.162 HD
BRANCH  14  16
HETATM   16  C13 UNL     1       6.721   2.377  25.194  1.00  0.00     0.161 C 
BRANCH  16  17
HETATM   17  C14 UNL     1       6.971   1.196  26.012  1.00  0.00    -0.029 A 
HETATM   18  C15 UNL     1       8.250   0.701  26.178  1.00  0.00     0.010 A 
HETATM   19  C16 UNL     1       8.447  -0.419  27.001  1.00  0.00     0.002 A 
HETATM   20  C17 UNL     1       7.380  -1.002  27.630  1.00  0.00     0.012 A 
HETATM   21  C18 UNL     1       6.108  -0.521  27.472  1.00  0.00    -0.025 A 
HETATM   22  C19 UNL     1       5.018  -1.107  28.073  1.00  0.00     0.012 A 
HETATM   23  C23 UNL     1       5.890   0.566  26.672  1.00  0.00    -0.018 A 
HETATM   24  C20 UNL     1       3.739  -0.645  27.900  1.00  0.00     0.001 A 
HETATM   25  C21 UNL     1       3.503   0.457  27.092  1.00  0.00     0.001 A 
HETATM   26  C22 UNL     1       4.619   1.045  26.485  1.00  0.00     0.013 A 
ENDBRANCH  16  17
ENDBRANCH  14  16
ENDBRANCH  11  14
ENDBRANCH   6  11
BRANCH   9  27
HETATM   27  C24 UNL     1       8.829   5.347  18.821  1.00  0.00     0.176 C 
BRANCH  27  28
HETATM   28  C25 UNL     1      10.005   4.420  18.531  1.00  0.00     0.251 C 
BRANCH  28  29
HETATM   29  N5  UNL     1       9.926   3.800  17.247  1.00  0.00    -0.078 N 
ATOM     30  H53 UNL     1       9.261   4.289  16.648  1.00  0.00     0.274 HD
ATOM     31  H52 UNL     1      10.781   3.959  16.714  1.00  0.00     0.274 HD
ATOM     32  H51 UNL     1       9.709   2.805  17.295  1.00  0.00     0.274 HD
ENDBRANCH  28  29
ENDBRANCH  27  28
ENDBRANCH   9  27
BRANCH   1  33
HETATM   33  C6  UNL     1       3.292   5.726  22.225  1.00  0.00     0.102 C 
BRANCH  33  34
HETATM   34  C5  UNL     1       2.074   6.242  21.574  1.00  0.00    -0.009 A 
HETATM   35  C4  UNL     1       1.901   7.601  21.544  1.00  0.00     0.016 A 
HETATM   36  C3  UNL     1       0.675   8.135  21.131  1.00  0.00     0.038 A 
HETATM   37  C2  UNL     1      -0.349   7.305  20.757  1.00  0.00     0.079 A 
HETATM   38  C32 UNL     1      -0.120   5.945  20.800  1.00  0.00     0.008 A 
HETATM   39  C27 UNL     1       1.076   5.377  21.203  1.00  0.00    -0.012 A 
HETATM   40  C31 UNL     1      -1.135   5.088  20.357  1.00  0.00     0.015 A 
HETATM   41  C28 UNL     1       1.291   4.029  21.183  1.00  0.00     0.013 A 
HETATM   42  C29 UNL     1       0.282   3.195  20.741  1.00  0.00     0.001 A 
HETATM   43  C30 UNL     1      -0.906   3.738  20.336  1.00  0.00     0.001 A 
BRANCH  37  44
HETATM   44  O1  UNL     1      -1.561   7.851  20.353  1.00  0.00    -0.355 OA
HETATM   45  C1  UNL     1      -1.691   9.251  20.340  1.00  0.00     0.210 C 
ENDBRANCH  37  44
ENDBRANCH  33  34
ENDBRANCH   1  33
TORSDOF 11
ENDMDL
