MODEL 4
REMARK VINA RESULT: -8.764350540      2.183      9.183
REMARK  11 active torsions:
REMARK  status: ('A' for Active; 'I' for Inactive)
REMARK    1  A    between atoms: O1_2  and  C2_3 
REMARK    2  A    between atoms: C5_6  and  C6_7 
REMARK    3  A    between atoms: C6_7  and  N1_8 
REMARK    4  A    between atoms: C11_13  and  C12_14 
REMARK    5  A    between atoms: C12_14  and  O2_15 
REMARK    6  A    between atoms: C12_14  and  N2_17 
REMARK    7  A    between atoms: N2_17  and  C13_19 
REMARK    8  A    between atoms: C13_19  and  C14_20 
REMARK    9  A    between atoms: N4_32  and  C24_33 
REMARK   10  A    between atoms: C24_33  and  C25_34 
REMARK   11  A    between atoms: C25_34  and  N5_35 
ROOT
HETATM    1  N1  UNL     1       4.045   5.170  21.319  1.00  0.00    -0.365 N 
HETATM    2  C7  UNL     1       4.178   5.426  19.977  1.00  0.00     0.070 C 
HETATM    3  C8  UNL     1       5.533   5.952  19.503  1.00  0.00     0.104 C 
HETATM    4  C9  UNL     1       6.612   5.185  20.210  1.00  0.00     0.043 A 
HETATM    5  C10 UNL     1       6.377   4.524  21.359  1.00  0.00     0.017 A 
HETATM    6  C11 UNL     1       7.577   3.906  21.767  1.00  0.00     0.108 A 
HETATM    7  N3  UNL     1       8.478   4.239  20.815  1.00  0.00    -0.294 N 
ATOM      8  H3  UNL     1       9.458   3.954  20.798  1.00  0.00     0.187 HD
HETATM    9  N4  UNL     1       7.880   4.996  19.911  1.00  0.00    -0.293 N 
HETATM   10  C26 UNL     1       5.054   4.442  22.004  1.00  0.00     0.170 C 
ENDROOT
BRANCH   6  11
HETATM   11  C12 UNL     1       7.751   3.230  23.024  1.00  0.00     0.165 C 
BRANCH  11  12
HETATM   12  O2  UNL     1       8.975   3.288  23.474  1.00  0.00    -0.345 OA
ATOM     13  H2  UNL     1       9.126   4.021  24.059  1.00  0.00     0.219 HD
ENDBRANCH  11  12
BRANCH  11  14
HETATM   14  N2  UNL     1       6.880   2.536  23.839  1.00  0.00    -0.365 N 
ATOM     15  H2  UNL     1       6.246   1.867  23.404  1.00  0.00     0.162 HD
BRANCH  14  16
HETATM   16  C13 UNL     1       6.815   2.703  25.283  1.00  0.00     0.161 C 
BRANCH  16  17
HETATM   17  C14 UNL     1       5.994   1.717  25.976  1.00  0.00    -0.029 A 
HETATM   18  C15 UNL     1       4.636   1.911  26.145  1.00  0.00     0.010 A 
HETATM   19  C16 UNL     1       3.879   0.919  26.789  1.00  0.00     0.002 A 
HETATM   20  C17 UNL     1       4.488  -0.222  27.236  1.00  0.00     0.012 A 
HETATM   21  C18 UNL     1       5.832  -0.426  27.075  1.00  0.00    -0.025 A 
HETATM   22  C19 UNL     1       6.468  -1.553  27.540  1.00  0.00     0.012 A 
HETATM   23  C23 UNL     1       6.591   0.527  26.454  1.00  0.00    -0.018 A 
HETATM   24  C20 UNL     1       7.818  -1.752  27.403  1.00  0.00     0.001 A 
HETATM   25  C21 UNL     1       8.601  -0.794  26.775  1.00  0.00     0.001 A 
HETATM   26  C22 UNL     1       7.943   0.350  26.308  1.00  0.00     0.013 A 
ENDBRANCH  16  17
ENDBRANCH  14  16
ENDBRANCH  11  14
ENDBRANCH   6  11
BRANCH   9  27
HETATM   27  C24 UNL     1       8.608   5.636  18.814  1.00  0.00     0.176 C 
BRANCH  27  28
HETATM   28  C25 UNL     1       9.839   4.788  18.517  1.00  0.00     0.251 C 
BRANCH  28  29
HETATM   29  N5  UNL     1       9.726   4.037  17.308  1.00  0.00    -0.078 N 
ATOM     30  H53 UNL     1      10.079   3.089  17.434  1.00  0.00     0.274 HD
ATOM     31  H52 UNL     1       8.749   3.827  17.102  1.00  0.00     0.274 HD
ATOM     32  H51 UNL     1      10.174   4.490  16.511  1.00  0.00     0.274 HD
ENDBRANCH  28  29
ENDBRANCH  27  28
ENDBRANCH   9  27
BRANCH   1  33
HETATM   33  C6  UNL     1       3.029   5.609  22.171  1.00  0.00     0.102 C 
BRANCH  33  34
HETATM   34  C5  UNL     1       1.821   6.139  21.512  1.00  0.00    -0.009 A 
HETATM   35  C4  UNL     1       1.647   7.498  21.512  1.00  0.00     0.016 A 
HETATM   36  C3  UNL     1       0.427   8.040  21.092  1.00  0.00     0.038 A 
HETATM   37  C2  UNL     1      -0.591   7.219  20.682  1.00  0.00     0.079 A 
HETATM   38  C32 UNL     1      -0.360   5.858  20.698  1.00  0.00     0.008 A 
HETATM   39  C27 UNL     1       0.830   5.283  21.106  1.00  0.00    -0.012 A 
HETATM   40  C31 UNL     1      -1.367   5.011  20.219  1.00  0.00     0.015 A 
HETATM   41  C28 UNL     1       1.047   3.936  21.057  1.00  0.00     0.013 A 
HETATM   42  C29 UNL     1       0.046   3.111  20.581  1.00  0.00     0.001 A 
HETATM   43  C30 UNL     1      -1.137   3.662  20.170  1.00  0.00     0.001 A 
BRANCH  37  44
HETATM   44  O1  UNL     1      -1.796   7.773  20.273  1.00  0.00    -0.355 OA
HETATM   45  C1  UNL     1      -1.922   9.174  20.273  1.00  0.00     0.210 C 
ENDBRANCH  37  44
ENDBRANCH  33  34
ENDBRANCH   1  33
TORSDOF 11
ENDMDL
