MODEL 1
REMARK VINA RESULT: -8.930286318      0.000      0.000
REMARK  11 active torsions:
REMARK  status: ('A' for Active; 'I' for Inactive)
REMARK    1  A    between atoms: O1_2  and  C2_3 
REMARK    2  A    between atoms: C5_6  and  C6_7 
REMARK    3  A    between atoms: C6_7  and  N1_8 
REMARK    4  A    between atoms: C11_13  and  C12_14 
REMARK    5  A    between atoms: C12_14  and  O2_15 
REMARK    6  A    between atoms: C12_14  and  N2_17 
REMARK    7  A    between atoms: N2_17  and  C13_19 
REMARK    8  A    between atoms: C13_19  and  C14_20 
REMARK    9  A    between atoms: N4_32  and  C24_33 
REMARK   10  A    between atoms: C24_33  and  C25_34 
REMARK   11  A    between atoms: C25_34  and  N5_35 
ROOT
HETATM    1  N1  UNL     1       6.316   3.067  26.047  1.00  0.00    -0.365 N 
HETATM    2  C7  UNL     1       7.617   2.970  25.622  1.00  0.00     0.070 C 
HETATM    3  C8  UNL     1       7.841   2.632  24.149  1.00  0.00     0.104 C 
HETATM    4  C9  UNL     1       6.864   3.420  23.328  1.00  0.00     0.043 A 
HETATM    5  C10 UNL     1       5.737   3.929  23.861  1.00  0.00     0.017 A 
HETATM    6  C11 UNL     1       5.037   4.614  22.847  1.00  0.00     0.108 A 
HETATM    7  N3  UNL     1       5.805   4.474  21.742  1.00  0.00    -0.294 N 
ATOM      8  H3  UNL     1       5.594   4.853  20.819  1.00  0.00     0.187 HD
HETATM    9  N4  UNL     1       6.875   3.763  22.057  1.00  0.00    -0.293 N 
HETATM   10  C26 UNL     1       5.376   3.813  25.286  1.00  0.00     0.170 C 
ENDROOT
BRANCH   6  11
HETATM   11  C12 UNL     1       3.719   5.165  23.005  1.00  0.00     0.165 C 
BRANCH  11  12
HETATM   12  O2  UNL     1       3.703   6.275  23.694  1.00  0.00    -0.345 OA
ATOM     13  H2  UNL     1       3.765   7.053  23.153  1.00  0.00     0.219 HD
ENDBRANCH  11  12
BRANCH  11  14
HETATM   14  N2  UNL     1       2.476   4.750  22.575  1.00  0.00    -0.365 N 
ATOM     15  H2  UNL     1       2.258   3.754  22.625  1.00  0.00     0.162 HD
BRANCH  14  16
HETATM   16  C13 UNL     1       1.456   5.648  22.054  1.00  0.00     0.161 C 
BRANCH  16  17
HETATM   17  C14 UNL     1       0.453   5.010  21.210  1.00  0.00    -0.029 A 
HETATM   18  C15 UNL     1       0.520   3.661  20.917  1.00  0.00     0.010 A 
HETATM   19  C16 UNL     1      -0.486   3.082  20.128  1.00  0.00     0.002 A 
HETATM   20  C17 UNL     1      -1.518   3.852  19.663  1.00  0.00     0.012 A 
HETATM   21  C18 UNL     1      -1.595   5.189  19.945  1.00  0.00    -0.025 A 
HETATM   22  C19 UNL     1      -2.609   5.987  19.467  1.00  0.00     0.012 A 
HETATM   23  C23 UNL     1      -0.625   5.777  20.709  1.00  0.00    -0.018 A 
HETATM   24  C20 UNL     1      -2.678   7.332  19.726  1.00  0.00     0.001 A 
HETATM   25  C21 UNL     1      -1.702   7.941  20.499  1.00  0.00     0.001 A 
HETATM   26  C22 UNL     1      -0.675   7.120  20.980  1.00  0.00     0.013 A 
ENDBRANCH  16  17
ENDBRANCH  14  16
ENDBRANCH  11  14
ENDBRANCH   6  11
BRANCH   9  27
HETATM   27  C24 UNL     1       7.847   3.317  21.057  1.00  0.00     0.176 C 
BRANCH  27  28
HETATM   28  C25 UNL     1       8.904   4.407  20.920  1.00  0.00     0.251 C 
BRANCH  28  29
HETATM   29  N5  UNL     1      10.171   4.032  21.460  1.00  0.00    -0.078 N 
ATOM     30  H53 UNL     1      10.388   4.581  22.291  1.00  0.00     0.274 HD
ATOM     31  H52 UNL     1      10.125   3.103  21.880  1.00  0.00     0.274 HD
ATOM     32  H51 UNL     1      10.929   4.086  20.780  1.00  0.00     0.274 HD
ENDBRANCH  28  29
ENDBRANCH  27  28
ENDBRANCH   9  27
BRANCH   1  33
HETATM   33  C6  UNL     1       5.734   2.443  27.153  1.00  0.00     0.102 C 
BRANCH  33  34
HETATM   34  C5  UNL     1       5.250   1.067  26.935  1.00  0.00    -0.009 A 
HETATM   35  C4  UNL     1       3.894   0.879  26.868  1.00  0.00     0.016 A 
HETATM   36  C3  UNL     1       3.375  -0.421  26.874  1.00  0.00     0.038 A 
HETATM   37  C2  UNL     1       4.215  -1.502  26.947  1.00  0.00     0.079 A 
HETATM   38  C32 UNL     1       5.571  -1.254  27.008  1.00  0.00     0.008 A 
HETATM   39  C27 UNL     1       6.125   0.013  27.005  1.00  0.00    -0.012 A 
HETATM   40  C31 UNL     1       6.443  -2.350  27.015  1.00  0.00     0.015 A 
HETATM   41  C28 UNL     1       7.473   0.224  27.010  1.00  0.00     0.013 A 
HETATM   42  C29 UNL     1       8.324  -0.865  27.015  1.00  0.00     0.001 A 
HETATM   43  C30 UNL     1       7.794  -2.127  27.015  1.00  0.00     0.001 A 
BRANCH  37  44
HETATM   44  O1  UNL     1       3.682  -2.784  26.956  1.00  0.00    -0.355 OA
HETATM   45  C1  UNL     1       2.491  -3.019  26.245  1.00  0.00     0.210 C 
ENDBRANCH  37  44
ENDBRANCH  33  34
ENDBRANCH   1  33
TORSDOF 11
ENDMDL
