MODEL 7
REMARK VINA RESULT: -8.661450594      3.047      7.365
REMARK  5 active torsions:
REMARK  status: ('A' for Active; 'I' for Inactive)
REMARK    1  A    between atoms: C2_2  and  N1_5 
REMARK    2  A    between atoms: N1_5  and  C5_7 
REMARK    3  A    between atoms: C6_10  and  N3_11 
REMARK    4  A    between atoms: N3_11  and  C7_13 
REMARK    5  A    between atoms: C10_16  and  C11_17 
ROOT
HETATM    1  C5  UNL     1       0.859  37.024  49.528  1.00  0.00     0.126 A 
HETATM    2  N2  UNL     1       0.944  36.892  48.197  1.00  0.00    -0.328 N 
ATOM      3  H2  UNL     1       0.778  37.721  47.628  1.00  0.00     0.169 HD
HETATM    4  C6  UNL     1       1.236  35.729  47.552  1.00  0.00     0.108 A 
HETATM    5  C14 UNL     1       1.454  34.636  48.356  1.00  0.00     0.076 A 
HETATM    6  C15 UNL     1       1.372  34.744  49.740  1.00  0.00     0.074 A 
HETATM    7  N5  UNL     1       1.597  33.607  50.577  1.00  0.00    -0.101 NA
HETATM    8  C16 UNL     1       1.072  35.941  50.352  1.00  0.00     0.112 A 
HETATM    9  C17 UNL     1       0.987  36.055  51.796  1.00  0.00     0.105 C 
HETATM   10  N6  UNL     1       0.915  36.133  52.952  1.00  0.00    -0.191 NA
ENDROOT
BRANCH   1  11
HETATM   11  N1  UNL     1       0.549  38.267  50.151  1.00  0.00    -0.367 N 
ATOM     12  H1  UNL     1      -0.358  38.367  50.608  1.00  0.00     0.162 HD
BRANCH  11  13
HETATM   13  C2  UNL     1       1.447  39.385  50.168  1.00  0.00     0.021 C 
HETATM   14  C1  UNL     1       0.887  40.405  49.167  1.00  0.00     0.037 C 
HETATM   15  C3  UNL     1       2.847  39.007  49.772  1.00  0.00     0.037 C 
HETATM   16  C4  UNL     1       1.377  40.055  51.520  1.00  0.00     0.037 C 
ENDBRANCH  11  13
ENDBRANCH   1  11
BRANCH   4  17
HETATM   17  N3  UNL     1       1.336  35.713  46.132  1.00  0.00    -0.342 N 
ATOM     18  H3  UNL     1       2.240  35.947  45.724  1.00  0.00     0.167 HD
BRANCH  17  19
HETATM   19  C7  UNL     1       0.312  35.407  45.267  1.00  0.00     0.033 A 
HETATM   20  C8  UNL     1       0.286  34.150  44.672  1.00  0.00     0.030 A 
HETATM   21  C9  UNL     1      -0.667  33.774  43.774  1.00  0.00     0.019 A 
HETATM   22  C10 UNL     1      -1.650  34.658  43.426  1.00  0.00     0.029 A 
HETATM   23  C12 UNL     1      -1.647  35.906  43.999  1.00  0.00     0.019 A 
HETATM   24  C13 UNL     1      -0.668  36.292  44.921  1.00  0.00     0.030 A 
BRANCH  22  25
HETATM   25  C11 UNL     1      -2.687  34.276  42.462  1.00  0.00     0.264 C 
HETATM   26  N4  UNL     1      -3.199  35.257  41.587  1.00  0.00    -0.057 NA
HETATM   27  O1  UNL     1      -3.124  33.106  42.399  1.00  0.00    -0.271 OA
ENDBRANCH  22  25
ENDBRANCH  17  19
ENDBRANCH   4  17
TORSDOF 5
ENDMDL
