MODEL 12
REMARK VINA RESULT: -8.551732697      1.581      2.069
REMARK  5 active torsions:
REMARK  status: ('A' for Active; 'I' for Inactive)
REMARK    1  A    between atoms: C2_2  and  N1_5 
REMARK    2  A    between atoms: N1_5  and  C5_7 
REMARK    3  A    between atoms: C6_10  and  N3_11 
REMARK    4  A    between atoms: N3_11  and  C7_13 
REMARK    5  A    between atoms: C10_16  and  C11_17 
ROOT
HETATM    1  C5  UNL     1      -1.163  35.309  42.892  1.00  0.00     0.126 A 
HETATM    2  N2  UNL     1      -0.401  34.970  43.941  1.00  0.00    -0.328 N 
ATOM      3  H2  UNL     1       0.408  35.555  44.147  1.00  0.00     0.169 HD
HETATM    4  C6  UNL     1      -0.631  33.900  44.750  1.00  0.00     0.108 A 
HETATM    5  C14 UNL     1      -1.731  33.138  44.439  1.00  0.00     0.076 A 
HETATM    6  C15 UNL     1      -2.539  33.466  43.356  1.00  0.00     0.074 A 
HETATM    7  N5  UNL     1      -3.683  32.673  43.029  1.00  0.00    -0.101 NA
HETATM    8  C16 UNL     1      -2.269  34.558  42.561  1.00  0.00     0.112 A 
HETATM    9  C17 UNL     1      -3.111  34.902  41.431  1.00  0.00     0.105 C 
HETATM   10  N6  UNL     1      -3.789  35.164  40.525  1.00  0.00    -0.191 NA
ENDROOT
BRANCH   1  11
HETATM   11  N1  UNL     1      -0.874  36.442  42.077  1.00  0.00    -0.367 N 
ATOM     12  H1  UNL     1      -0.638  36.286  41.096  1.00  0.00     0.162 HD
BRANCH  11  13
HETATM   13  C2  UNL     1      -0.899  37.789  42.565  1.00  0.00     0.021 C 
HETATM   14  C1  UNL     1       0.422  38.001  43.319  1.00  0.00     0.037 C 
HETATM   15  C3  UNL     1      -2.054  38.047  43.491  1.00  0.00     0.037 C 
HETATM   16  C4  UNL     1      -0.859  38.741  41.393  1.00  0.00     0.037 C 
ENDBRANCH  11  13
ENDBRANCH   1  11
BRANCH   4  17
HETATM   17  N3  UNL     1       0.226  33.655  45.861  1.00  0.00    -0.342 N 
ATOM     18  H3  UNL     1       0.634  32.724  45.942  1.00  0.00     0.167 HD
BRANCH  17  19
HETATM   19  C7  UNL     1       0.548  34.572  46.833  1.00  0.00     0.033 A 
HETATM   20  C8  UNL     1       0.199  35.906  46.643  1.00  0.00     0.030 A 
HETATM   21  C9  UNL     1       0.511  36.888  47.534  1.00  0.00     0.019 A 
HETATM   22  C10 UNL     1       1.199  36.571  48.672  1.00  0.00     0.029 A 
HETATM   23  C12 UNL     1       1.555  35.262  48.884  1.00  0.00     0.019 A 
HETATM   24  C13 UNL     1       1.235  34.253  47.969  1.00  0.00     0.030 A 
BRANCH  22  25
HETATM   25  C11 UNL     1       1.546  37.612  49.646  1.00  0.00     0.264 C 
HETATM   26  N4  UNL     1       1.164  37.439  50.993  1.00  0.00    -0.057 NA
HETATM   27  O1  UNL     1       2.169  38.642  49.309  1.00  0.00    -0.271 OA
ENDBRANCH  22  25
ENDBRANCH  17  19
ENDBRANCH   4  17
TORSDOF 5
ENDMDL
