MODEL 1
REMARK VINA RESULT: -9.219520538      0.000      0.000
REMARK  5 active torsions:
REMARK  status: ('A' for Active; 'I' for Inactive)
REMARK    1  A    between atoms: C2_2  and  N1_5 
REMARK    2  A    between atoms: N1_5  and  C5_7 
REMARK    3  A    between atoms: C6_10  and  N3_11 
REMARK    4  A    between atoms: N3_11  and  C7_13 
REMARK    5  A    between atoms: C10_16  and  C11_17 
ROOT
HETATM    1  C5  UNL     1      -1.495  34.518  44.716  1.00  0.00     0.126 A 
HETATM    2  N2  UNL     1      -0.634  34.499  45.743  1.00  0.00    -0.328 N 
ATOM      3  H2  UNL     1      -0.433  35.384  46.208  1.00  0.00     0.169 HD
HETATM    4  C6  UNL     1      -0.010  33.383  46.209  1.00  0.00     0.108 A 
HETATM    5  C14 UNL     1      -0.310  32.212  45.555  1.00  0.00     0.076 A 
HETATM    6  C15 UNL     1      -1.199  32.202  44.486  1.00  0.00     0.074 A 
HETATM    7  N5  UNL     1      -1.510  30.985  43.804  1.00  0.00    -0.101 NA
HETATM    8  C16 UNL     1      -1.808  33.357  44.046  1.00  0.00     0.112 A 
HETATM    9  C17 UNL     1      -2.736  33.348  42.931  1.00  0.00     0.105 C 
HETATM   10  N6  UNL     1      -3.472  33.330  42.033  1.00  0.00    -0.191 NA
ENDROOT
BRANCH   1  11
HETATM   11  N1  UNL     1      -2.120  35.719  44.269  1.00  0.00    -0.367 N 
ATOM     12  H1  UNL     1      -3.116  35.843  44.451  1.00  0.00     0.162 HD
BRANCH  11  13
HETATM   13  C2  UNL     1      -1.418  36.761  43.578  1.00  0.00     0.021 C 
HETATM   14  C1  UNL     1      -2.360  37.973  43.551  1.00  0.00     0.037 C 
HETATM   15  C3  UNL     1      -1.053  36.376  42.171  1.00  0.00     0.037 C 
HETATM   16  C4  UNL     1      -0.225  37.185  44.402  1.00  0.00     0.037 C 
ENDBRANCH  11  13
ENDBRANCH   1  11
BRANCH   4  17
HETATM   17  N3  UNL     1       0.859  33.474  47.333  1.00  0.00    -0.342 N 
ATOM     18  H3  UNL     1       1.369  32.633  47.600  1.00  0.00     0.167 HD
BRANCH  17  19
HETATM   19  C7  UNL     1       1.066  34.604  48.087  1.00  0.00     0.033 A 
HETATM   20  C8  UNL     1       1.430  35.784  47.447  1.00  0.00     0.030 A 
HETATM   21  C9  UNL     1       1.693  36.941  48.116  1.00  0.00     0.019 A 
HETATM   22  C10 UNL     1       1.602  36.965  49.480  1.00  0.00     0.029 A 
HETATM   23  C12 UNL     1       1.245  35.814  50.137  1.00  0.00     0.019 A 
HETATM   24  C13 UNL     1       0.975  34.626  49.449  1.00  0.00     0.030 A 
BRANCH  22  25
HETATM   25  C11 UNL     1       1.881  38.199  50.223  1.00  0.00     0.264 C 
HETATM   26  N4  UNL     1       2.694  39.186  49.625  1.00  0.00    -0.057 NA
HETATM   27  O1  UNL     1       1.415  38.394  51.366  1.00  0.00    -0.271 OA
ENDBRANCH  22  25
ENDBRANCH  17  19
ENDBRANCH   4  17
TORSDOF 5
ENDMDL
