MODEL 9
REMARK VINA RESULT: -8.612141676      2.999      7.484
REMARK  5 active torsions:
REMARK  status: ('A' for Active; 'I' for Inactive)
REMARK    1  A    between atoms: C2_2  and  N1_5 
REMARK    2  A    between atoms: N1_5  and  C5_7 
REMARK    3  A    between atoms: C6_10  and  N3_11 
REMARK    4  A    between atoms: N3_11  and  C7_13 
REMARK    5  A    between atoms: C10_16  and  C11_17 
ROOT
HETATM    1  C5  UNL     1       1.641  37.583  49.499  1.00  0.00     0.126 A 
HETATM    2  N2  UNL     1       1.622  37.372  48.176  1.00  0.00    -0.328 N 
ATOM      3  H2  UNL     1       1.846  38.159  47.568  1.00  0.00     0.169 HD
HETATM    4  C6  UNL     1       1.325  36.181  47.587  1.00  0.00     0.108 A 
HETATM    5  C14 UNL     1       1.030  35.146  48.441  1.00  0.00     0.076 A 
HETATM    6  C15 UNL     1       1.042  35.337  49.819  1.00  0.00     0.074 A 
HETATM    7  N5  UNL     1       0.733  34.262  50.709  1.00  0.00    -0.101 NA
HETATM    8  C16 UNL     1       1.347  36.560  50.373  1.00  0.00     0.112 A 
HETATM    9  C17 UNL     1       1.360  36.761  51.810  1.00  0.00     0.105 C 
HETATM   10  N6  UNL     1       1.361  36.911  52.962  1.00  0.00    -0.191 NA
ENDROOT
BRANCH   1  11
HETATM   11  N1  UNL     1       1.959  38.853  50.062  1.00  0.00    -0.367 N 
ATOM     12  H1  UNL     1       2.912  39.013  50.389  1.00  0.00     0.162 HD
BRANCH  11  13
HETATM   13  C2  UNL     1       1.006  39.916  50.194  1.00  0.00     0.021 C 
HETATM   14  C1  UNL     1       1.366  40.664  51.485  1.00  0.00     0.037 C 
HETATM   15  C3  UNL     1      -0.409  39.417  50.280  1.00  0.00     0.037 C 
HETATM   16  C4  UNL     1       1.214  40.908  49.073  1.00  0.00     0.037 C 
ENDBRANCH  11  13
ENDBRANCH   1  11
BRANCH   4  17
HETATM   17  N3  UNL     1       1.371  36.062  46.169  1.00  0.00    -0.342 N 
ATOM     18  H3  UNL     1       2.242  36.318  45.705  1.00  0.00     0.167 HD
BRANCH  17  19
HETATM   19  C7  UNL     1       0.336  35.630  45.374  1.00  0.00     0.033 A 
HETATM   20  C8  UNL     1       0.460  34.413  44.710  1.00  0.00     0.030 A 
HETATM   21  C9  UNL     1      -0.497  33.925  43.871  1.00  0.00     0.019 A 
HETATM   22  C10 UNL     1      -1.638  34.648  43.659  1.00  0.00     0.029 A 
HETATM   23  C12 UNL     1      -1.785  35.852  44.302  1.00  0.00     0.019 A 
HETATM   24  C13 UNL     1      -0.802  36.353  45.163  1.00  0.00     0.030 A 
BRANCH  22  25
HETATM   25  C11 UNL     1      -2.682  34.142  42.761  1.00  0.00     0.264 C 
HETATM   26  N4  UNL     1      -3.109  34.953  41.688  1.00  0.00    -0.057 NA
HETATM   27  O1  UNL     1      -3.198  33.016  42.926  1.00  0.00    -0.271 OA
ENDBRANCH  22  25
ENDBRANCH  17  19
ENDBRANCH   4  17
TORSDOF 5
ENDMDL
