MODEL 2
REMARK VINA RESULT: -9.157704788      0.757      1.408
REMARK  5 active torsions:
REMARK  status: ('A' for Active; 'I' for Inactive)
REMARK    1  A    between atoms: C2_2  and  N1_5 
REMARK    2  A    between atoms: N1_5  and  C5_7 
REMARK    3  A    between atoms: C6_10  and  N3_11 
REMARK    4  A    between atoms: N3_11  and  C7_13 
REMARK    5  A    between atoms: C10_16  and  C11_17 
ROOT
HETATM    1  C5  UNL     1      -1.616  34.355  44.570  1.00  0.00     0.126 A 
HETATM    2  N2  UNL     1      -0.798  34.388  45.631  1.00  0.00    -0.328 N 
ATOM      3  H2  UNL     1      -0.676  35.281  46.107  1.00  0.00     0.169 HD
HETATM    4  C6  UNL     1      -0.117  33.314  46.117  1.00  0.00     0.108 A 
HETATM    5  C14 UNL     1      -0.308  32.130  45.447  1.00  0.00     0.076 A 
HETATM    6  C15 UNL     1      -1.152  32.066  44.343  1.00  0.00     0.074 A 
HETATM    7  N5  UNL     1      -1.351  30.835  43.644  1.00  0.00    -0.101 NA
HETATM    8  C16 UNL     1      -1.822  33.179  43.884  1.00  0.00     0.112 A 
HETATM    9  C17 UNL     1      -2.702  33.114  42.732  1.00  0.00     0.105 C 
HETATM   10  N6  UNL     1      -3.400  33.051  41.806  1.00  0.00    -0.191 NA
ENDROOT
BRANCH   1  11
HETATM   11  N1  UNL     1      -2.305  35.512  44.104  1.00  0.00    -0.367 N 
ATOM     12  H1  UNL     1      -3.313  35.569  44.252  1.00  0.00     0.162 HD
BRANCH  11  13
HETATM   13  C2  UNL     1      -1.652  36.600  43.436  1.00  0.00     0.021 C 
HETATM   14  C1  UNL     1      -1.939  36.424  41.938  1.00  0.00     0.037 C 
HETATM   15  C3  UNL     1      -0.167  36.612  43.667  1.00  0.00     0.037 C 
HETATM   16  C4  UNL     1      -2.321  37.896  43.832  1.00  0.00     0.037 C 
ENDBRANCH  11  13
ENDBRANCH   1  11
BRANCH   4  17
HETATM   17  N3  UNL     1       0.699  33.458  47.274  1.00  0.00    -0.342 N 
ATOM     18  H3  UNL     1       1.052  32.605  47.707  1.00  0.00     0.167 HD
BRANCH  17  19
HETATM   19  C7  UNL     1       1.049  34.653  47.857  1.00  0.00     0.033 A 
HETATM   20  C8  UNL     1       1.077  34.743  49.245  1.00  0.00     0.030 A 
HETATM   21  C9  UNL     1       1.374  35.896  49.907  1.00  0.00     0.019 A 
HETATM   22  C10 UNL     1       1.660  37.027  49.195  1.00  0.00     0.029 A 
HETATM   23  C12 UNL     1       1.639  36.966  47.824  1.00  0.00     0.019 A 
HETATM   24  C13 UNL     1       1.333  35.781  47.143  1.00  0.00     0.030 A 
BRANCH  22  25
HETATM   25  C11 UNL     1       1.983  38.280  49.887  1.00  0.00     0.264 C 
HETATM   26  N4  UNL     1       1.260  38.623  51.049  1.00  0.00    -0.057 NA
HETATM   27  O1  UNL     1       2.879  39.045  49.471  1.00  0.00    -0.271 OA
ENDBRANCH  22  25
ENDBRANCH  17  19
ENDBRANCH   4  17
TORSDOF 5
ENDMDL
