MODEL 11
REMARK VINA RESULT: -8.551990741      1.466      1.627
REMARK  5 active torsions:
REMARK  status: ('A' for Active; 'I' for Inactive)
REMARK    1  A    between atoms: C2_2  and  N1_5 
REMARK    2  A    between atoms: N1_5  and  C5_7 
REMARK    3  A    between atoms: C6_10  and  N3_11 
REMARK    4  A    between atoms: N3_11  and  C7_13 
REMARK    5  A    between atoms: C10_16  and  C11_17 
ROOT
HETATM    1  C5  UNL     1      -0.999  35.276  44.469  1.00  0.00     0.126 A 
HETATM    2  N2  UNL     1      -0.026  35.630  45.318  1.00  0.00    -0.328 N 
ATOM      3  H2  UNL     1       0.183  36.624  45.411  1.00  0.00     0.169 HD
HETATM    4  C6  UNL     1       0.704  34.758  46.066  1.00  0.00     0.108 A 
HETATM    5  C14 UNL     1       0.391  33.429  45.912  1.00  0.00     0.076 A 
HETATM    6  C15 UNL     1      -0.614  33.032  45.037  1.00  0.00     0.074 A 
HETATM    7  N5  UNL     1      -0.940  31.649  44.875  1.00  0.00    -0.101 NA
HETATM    8  C16 UNL     1      -1.328  33.950  44.298  1.00  0.00     0.112 A 
HETATM    9  C17 UNL     1      -2.378  33.538  43.385  1.00  0.00     0.105 C 
HETATM   10  N6  UNL     1      -3.212  33.196  42.653  1.00  0.00    -0.191 NA
ENDROOT
BRANCH   1  11
HETATM   11  N1  UNL     1      -1.732  36.234  43.709  1.00  0.00    -0.367 N 
ATOM     12  H1  UNL     1      -2.730  36.338  43.895  1.00  0.00     0.162 HD
BRANCH  11  13
HETATM   13  C2  UNL     1      -1.138  37.057  42.697  1.00  0.00     0.021 C 
HETATM   14  C1  UNL     1      -1.899  38.390  42.720  1.00  0.00     0.037 C 
HETATM   15  C3  UNL     1      -1.232  36.447  41.327  1.00  0.00     0.037 C 
HETATM   16  C4  UNL     1       0.281  37.388  43.099  1.00  0.00     0.037 C 
ENDBRANCH  11  13
ENDBRANCH   1  11
BRANCH   4  17
HETATM   17  N3  UNL     1       1.692  35.250  46.965  1.00  0.00    -0.342 N 
ATOM     18  H3  UNL     1       2.633  35.389  46.597  1.00  0.00     0.167 HD
BRANCH  17  19
HETATM   19  C7  UNL     1       1.482  35.551  48.290  1.00  0.00     0.033 A 
HETATM   20  C8  UNL     1       1.459  36.886  48.681  1.00  0.00     0.030 A 
HETATM   21  C9  UNL     1       1.296  37.277  49.976  1.00  0.00     0.019 A 
HETATM   22  C10 UNL     1       1.147  36.330  50.951  1.00  0.00     0.029 A 
HETATM   23  C12 UNL     1       1.165  35.005  50.592  1.00  0.00     0.019 A 
HETATM   24  C13 UNL     1       1.333  34.604  49.261  1.00  0.00     0.030 A 
BRANCH  22  25
HETATM   25  C11 UNL     1       0.970  36.727  52.352  1.00  0.00     0.264 C 
HETATM   26  N4  UNL     1       1.269  38.054  52.728  1.00  0.00    -0.057 NA
HETATM   27  O1  UNL     1       0.561  35.919  53.214  1.00  0.00    -0.271 OA
ENDBRANCH  22  25
ENDBRANCH  17  19
ENDBRANCH   4  17
TORSDOF 5
ENDMDL
