MODEL 5
REMARK VINA RESULT: -8.832687209      3.786      8.029
REMARK  5 active torsions:
REMARK  status: ('A' for Active; 'I' for Inactive)
REMARK    1  A    between atoms: C2_2  and  N1_5 
REMARK    2  A    between atoms: N1_5  and  C5_7 
REMARK    3  A    between atoms: C6_10  and  N3_11 
REMARK    4  A    between atoms: N3_11  and  C7_13 
REMARK    5  A    between atoms: C10_16  and  C11_17 
ROOT
HETATM    1  C5  UNL     1       0.464  34.895  44.778  1.00  0.00     0.126 A 
HETATM    2  N2  UNL     1       0.163  35.559  43.653  1.00  0.00    -0.328 N 
ATOM      3  H2  UNL     1       0.059  35.016  42.796  1.00  0.00     0.169 HD
HETATM    4  C6  UNL     1      -0.012  36.907  43.574  1.00  0.00     0.108 A 
HETATM    5  C14 UNL     1       0.137  37.601  44.750  1.00  0.00     0.076 A 
HETATM    6  C15 UNL     1       0.449  36.937  45.932  1.00  0.00     0.074 A 
HETATM    7  N5  UNL     1       0.605  37.658  47.157  1.00  0.00    -0.101 NA
HETATM    8  C16 UNL     1       0.618  35.571  45.967  1.00  0.00     0.112 A 
HETATM    9  C17 UNL     1       0.943  34.877  47.199  1.00  0.00     0.105 C 
HETATM   10  N6  UNL     1       1.209  34.334  48.190  1.00  0.00    -0.191 NA
ENDROOT
BRANCH   1  11
HETATM   11  N1  UNL     1       0.636  33.480  44.803  1.00  0.00    -0.367 N 
ATOM     12  H1  UNL     1       1.576  33.109  44.950  1.00  0.00     0.162 HD
BRANCH  11  13
HETATM   13  C2  UNL     1      -0.443  32.552  44.630  1.00  0.00     0.021 C 
HETATM   14  C1  UNL     1      -0.127  31.751  43.359  1.00  0.00     0.037 C 
HETATM   15  C3  UNL     1      -1.773  33.236  44.477  1.00  0.00     0.037 C 
HETATM   16  C4  UNL     1      -0.421  31.552  45.762  1.00  0.00     0.037 C 
ENDBRANCH  11  13
ENDBRANCH   1  11
BRANCH   4  17
HETATM   17  N3  UNL     1      -0.365  37.503  42.330  1.00  0.00    -0.342 N 
ATOM     18  H3  UNL     1       0.010  38.430  42.132  1.00  0.00     0.167 HD
BRANCH  17  19
HETATM   19  C7  UNL     1      -1.171  36.931  41.375  1.00  0.00     0.033 A 
HETATM   20  C8  UNL     1      -2.209  36.097  41.781  1.00  0.00     0.030 A 
HETATM   21  C9  UNL     1      -3.032  35.457  40.905  1.00  0.00     0.019 A 
HETATM   22  C10 UNL     1      -2.848  35.626  39.561  1.00  0.00     0.029 A 
HETATM   23  C12 UNL     1      -1.831  36.444  39.133  1.00  0.00     0.019 A 
HETATM   24  C13 UNL     1      -0.985  37.101  40.034  1.00  0.00     0.030 A 
BRANCH  22  25
HETATM   25  C11 UNL     1      -3.722  34.948  38.598  1.00  0.00     0.264 C 
HETATM   26  N4  UNL     1      -4.354  35.712  37.595  1.00  0.00    -0.057 NA
HETATM   27  O1  UNL     1      -3.918  33.714  38.648  1.00  0.00    -0.271 OA
ENDBRANCH  22  25
ENDBRANCH  17  19
ENDBRANCH   4  17
TORSDOF 5
ENDMDL
