MODEL 8
REMARK VINA RESULT: -8.645574545      1.301      1.722
REMARK  5 active torsions:
REMARK  status: ('A' for Active; 'I' for Inactive)
REMARK    1  A    between atoms: C2_2  and  N1_5 
REMARK    2  A    between atoms: N1_5  and  C5_7 
REMARK    3  A    between atoms: C6_10  and  N3_11 
REMARK    4  A    between atoms: N3_11  and  C7_13 
REMARK    5  A    between atoms: C10_16  and  C11_17 
ROOT
HETATM    1  C5  UNL     1      -0.966  35.104  43.540  1.00  0.00     0.126 A 
HETATM    2  N2  UNL     1      -0.115  35.152  44.574  1.00  0.00    -0.328 N 
ATOM      3  H2  UNL     1       0.507  35.957  44.638  1.00  0.00     0.169 HD
HETATM    4  C6  UNL     1      -0.021  34.201  45.543  1.00  0.00     0.108 A 
HETATM    5  C14 UNL     1      -0.877  33.133  45.420  1.00  0.00     0.076 A 
HETATM    6  C15 UNL     1      -1.770  33.057  44.357  1.00  0.00     0.074 A 
HETATM    7  N5  UNL     1      -2.660  31.946  44.227  1.00  0.00    -0.101 NA
HETATM    8  C16 UNL     1      -1.831  34.043  43.396  1.00  0.00     0.112 A 
HETATM    9  C17 UNL     1      -2.763  33.965  42.287  1.00  0.00     0.105 C 
HETATM   10  N6  UNL     1      -3.509  33.890  41.400  1.00  0.00    -0.191 NA
ENDROOT
BRANCH   1  11
HETATM   11  N1  UNL     1      -1.021  36.130  42.552  1.00  0.00    -0.367 N 
ATOM     12  H1  UNL     1      -1.142  35.856  41.576  1.00  0.00     0.162 HD
BRANCH  11  13
HETATM   13  C2  UNL     1      -0.914  37.526  42.859  1.00  0.00     0.021 C 
HETATM   14  C1  UNL     1      -1.117  38.278  41.537  1.00  0.00     0.037 C 
HETATM   15  C3  UNL     1       0.423  37.888  43.444  1.00  0.00     0.037 C 
HETATM   16  C4  UNL     1      -2.072  37.928  43.743  1.00  0.00     0.037 C 
ENDBRANCH  11  13
ENDBRANCH   1  11
BRANCH   4  17
HETATM   17  N3  UNL     1       0.897  34.373  46.618  1.00  0.00    -0.342 N 
ATOM     18  H3  UNL     1       1.614  33.659  46.740  1.00  0.00     0.167 HD
BRANCH  17  19
HETATM   19  C7  UNL     1       0.894  35.424  47.505  1.00  0.00     0.033 A 
HETATM   20  C8  UNL     1       1.249  35.188  48.829  1.00  0.00     0.030 A 
HETATM   21  C9  UNL     1       1.237  36.159  49.785  1.00  0.00     0.019 A 
HETATM   22  C10 UNL     1       0.862  37.429  49.448  1.00  0.00     0.029 A 
HETATM   23  C12 UNL     1       0.506  37.690  48.148  1.00  0.00     0.019 A 
HETATM   24  C13 UNL     1       0.518  36.692  47.166  1.00  0.00     0.030 A 
BRANCH  22  25
HETATM   25  C11 UNL     1       0.841  38.492  50.460  1.00  0.00     0.264 C 
HETATM   26  N4  UNL     1      -0.187  39.457  50.414  1.00  0.00    -0.057 NA
HETATM   27  O1  UNL     1       1.710  38.559  51.356  1.00  0.00    -0.271 OA
ENDBRANCH  22  25
ENDBRANCH  17  19
ENDBRANCH   4  17
TORSDOF 5
ENDMDL
