MODEL 4
REMARK VINA RESULT: -10.191022498      1.285      1.485
REMARK  6 active torsions:
REMARK  status: ('A' for Active; 'I' for Inactive)
REMARK    1  A    between atoms: C2_2  and  C3_3 
REMARK    2  A    between atoms: C2_2  and  C17_27 
REMARK    3  A    between atoms: C3_3  and  C4_4 
REMARK       I    between atoms: C4_4  and  N1_6 
REMARK    4  A    between atoms: C7_9  and  O2_10 
REMARK    5  A    between atoms: C7_9  and  C8_12 
REMARK    6  A    between atoms: C8_12  and  N2_13 
ROOT
HETATM    1  C4  UNL     1      27.793  13.626 -12.136  1.00  0.00     0.220 C 
HETATM    2  O1  UNL     1      27.918  14.591 -12.971  1.00  0.00    -0.273 OA
HETATM    3  N1  UNL     1      28.417  13.670 -10.893  1.00  0.00    -0.352 N 
HETATM    4  C5  UNL     1      29.230  14.782 -10.469  1.00  0.00     0.129 C 
HETATM    5  C6  UNL     1      30.550  14.214 -10.021  1.00  0.00     0.059 C 
HETATM    6  C7  UNL     1      30.343  13.414  -8.755  1.00  0.00     0.077 C 
HETATM    7  C15 UNL     1      28.932  12.999  -8.622  1.00  0.00     0.059 C 
HETATM    8  C16 UNL     1      28.282  12.584  -9.940  1.00  0.00     0.129 C 
ENDROOT
BRANCH   6   9
HETATM    9  O2  UNL     1      30.589  14.344  -7.705  1.00  0.00    -0.388 OA
ATOM     10  H2  UNL     1      30.710  13.803  -6.934  1.00  0.00     0.210 HD
ENDBRANCH   6   9
BRANCH   6  11
HETATM   11  C8  UNL     1      31.356  12.284  -8.669  1.00  0.00     0.171 C 
BRANCH  11  12
HETATM   12  N2  UNL     1      32.675  12.816  -8.790  1.00  0.00    -0.306 N 
HETATM   13  C9  UNL     1      33.330  13.007  -9.938  1.00  0.00     0.186 A 
HETATM   14  N3  UNL     1      34.539  13.518 -10.082  1.00  0.00    -0.350 N 
HETATM   15  C10 UNL     1      35.271  13.923  -8.985  1.00  0.00     0.073 A 
ATOM     16  H3  UNL     1      34.936  13.615 -11.017  1.00  0.00     0.166 HD
HETATM   17  C11 UNL     1      36.515  14.462  -8.959  1.00  0.00     0.045 A 
HETATM   18  C13 UNL     1      34.642  13.748  -7.789  1.00  0.00     0.101 A 
HETATM   19 BR1  UNL     1      37.604  14.805 -10.542  1.00  0.00    -0.048 Br
HETATM   20  C12 UNL     1      37.025  14.782  -7.735  1.00  0.00     0.072 A 
HETATM   21  S1  UNL     1      35.781  14.331  -6.664  1.00  0.00    -0.093 SA
HETATM   22  C14 UNL     1      33.355  13.201  -7.675  1.00  0.00     0.268 A 
HETATM   23  O3  UNL     1      32.870  13.084  -6.526  1.00  0.00    -0.266 OA
ENDBRANCH  11  12
ENDBRANCH   6  11
BRANCH   1  24
HETATM   24  C3  UNL     1      26.947  12.485 -12.596  1.00  0.00     0.111 C 
BRANCH  24  25
HETATM   25  C2  UNL     1      27.684  11.641 -13.578  1.00  0.00     0.023 C 
HETATM   26  C1  UNL     1      28.408  12.562 -14.567  1.00  0.00     0.015 C 
BRANCH  25  27
HETATM   27  C17 UNL     1      28.649  10.721 -12.977  1.00  0.00    -0.054 A 
HETATM   28  C18 UNL     1      29.990  10.767 -13.297  1.00  0.00     0.007 A 
HETATM   29  C19 UNL     1      30.885   9.884 -12.713  1.00  0.00     0.001 A 
HETATM   30  C20 UNL     1      30.468   8.925 -11.791  1.00  0.00     0.000 A 
HETATM   31  C21 UNL     1      29.127   8.879 -11.473  1.00  0.00     0.001 A 
HETATM   32  C22 UNL     1      28.234   9.759 -12.055  1.00  0.00     0.007 A 
ENDBRANCH  25  27
ENDBRANCH  24  25
ENDBRANCH   1  24
TORSDOF 6
ENDMDL
