MODEL 12
REMARK VINA RESULT: -9.032825518      4.149      6.527
REMARK  6 active torsions:
REMARK  status: ('A' for Active; 'I' for Inactive)
REMARK    1  A    between atoms: C2_2  and  C3_3 
REMARK    2  A    between atoms: C2_2  and  C17_27 
REMARK    3  A    between atoms: C3_3  and  C4_4 
REMARK       I    between atoms: C4_4  and  N1_6 
REMARK    4  A    between atoms: C7_9  and  O2_10 
REMARK    5  A    between atoms: C7_9  and  C8_12 
REMARK    6  A    between atoms: C8_12  and  N2_13 
ROOT
HETATM    1  C4  UNL     1      32.990  12.958  -8.656  1.00  0.00     0.220 C 
HETATM    2  O1  UNL     1      32.236  13.443  -7.738  1.00  0.00    -0.273 OA
HETATM    3  N1  UNL     1      34.331  13.317  -8.744  1.00  0.00    -0.352 N 
HETATM    4  C5  UNL     1      34.953  14.240  -7.829  1.00  0.00     0.129 C 
HETATM    5  C6  UNL     1      35.625  15.298  -8.661  1.00  0.00     0.059 C 
HETATM    6  C7  UNL     1      36.791  14.682  -9.401  1.00  0.00     0.077 C 
HETATM    7  C15 UNL     1      36.629  13.219  -9.510  1.00  0.00     0.059 C 
HETATM    8  C16 UNL     1      35.192  12.774  -9.779  1.00  0.00     0.129 C 
ENDROOT
BRANCH   6   9
HETATM    9  O2  UNL     1      37.907  14.899  -8.544  1.00  0.00    -0.388 OA
ATOM     10  H2  UNL     1      38.578  14.316  -8.878  1.00  0.00     0.210 HD
ENDBRANCH   6   9
BRANCH   6  11
HETATM   11  C8  UNL     1      37.025  15.403 -10.718  1.00  0.00     0.171 C 
BRANCH  11  12
HETATM   12  N2  UNL     1      35.852  16.131 -11.078  1.00  0.00    -0.306 N 
HETATM   13  C9  UNL     1      34.683  15.591 -11.430  1.00  0.00     0.186 A 
HETATM   14  N3  UNL     1      33.576  16.238 -11.745  1.00  0.00    -0.350 N 
HETATM   15  C10 UNL     1      33.536  17.617 -11.735  1.00  0.00     0.073 A 
ATOM     16  H3  UNL     1      32.740  15.712 -12.000  1.00  0.00     0.166 HD
HETATM   17  C11 UNL     1      32.490  18.429 -12.029  1.00  0.00     0.045 A 
HETATM   18  C13 UNL     1      34.708  18.215 -11.379  1.00  0.00     0.101 A 
HETATM   19 BR1  UNL     1      30.721  17.801 -12.561  1.00  0.00    -0.048 Br
HETATM   20  C12 UNL     1      32.707  19.772 -11.943  1.00  0.00     0.072 A 
HETATM   21  S1  UNL     1      34.336  19.876 -11.462  1.00  0.00    -0.093 SA
HETATM   22  C14 UNL     1      35.865  17.493 -11.050  1.00  0.00     0.268 A 
HETATM   23  O3  UNL     1      36.890  18.142 -10.738  1.00  0.00    -0.266 OA
ENDBRANCH  11  12
ENDBRANCH   6  11
BRANCH   1  24
HETATM   24  C3  UNL     1      32.325  12.005  -9.593  1.00  0.00     0.111 C 
BRANCH  24  25
HETATM   25  C2  UNL     1      30.924  12.429  -9.876  1.00  0.00     0.023 C 
HETATM   26  C1  UNL     1      30.963  13.714 -10.710  1.00  0.00     0.015 C 
BRANCH  25  27
HETATM   27  C17 UNL     1      30.118  11.425 -10.568  1.00  0.00    -0.054 A 
HETATM   28  C18 UNL     1      30.690  10.310 -11.145  1.00  0.00     0.007 A 
HETATM   29  C19 UNL     1      29.904   9.372 -11.797  1.00  0.00     0.001 A 
HETATM   30  C20 UNL     1      28.521   9.518 -11.894  1.00  0.00     0.000 A 
HETATM   31  C21 UNL     1      27.951  10.634 -11.316  1.00  0.00     0.001 A 
HETATM   32  C22 UNL     1      28.734  11.569 -10.667  1.00  0.00     0.007 A 
ENDBRANCH  25  27
ENDBRANCH  24  25
ENDBRANCH   1  24
TORSDOF 6
ENDMDL
