MODEL 11
REMARK VINA RESULT: -9.099418130      4.028      6.286
REMARK  6 active torsions:
REMARK  status: ('A' for Active; 'I' for Inactive)
REMARK    1  A    between atoms: C2_2  and  C3_3 
REMARK    2  A    between atoms: C2_2  and  C17_27 
REMARK    3  A    between atoms: C3_3  and  C4_4 
REMARK       I    between atoms: C4_4  and  N1_6 
REMARK    4  A    between atoms: C7_9  and  O2_10 
REMARK    5  A    between atoms: C7_9  and  C8_12 
REMARK    6  A    between atoms: C8_12  and  N2_13 
ROOT
HETATM    1  C4  UNL     1      31.467  13.134  -8.249  1.00  0.00     0.220 C 
HETATM    2  O1  UNL     1      31.018  12.874  -7.076  1.00  0.00    -0.273 OA
HETATM    3  N1  UNL     1      32.834  13.131  -8.508  1.00  0.00    -0.352 N 
HETATM    4  C5  UNL     1      33.819  12.843  -7.497  1.00  0.00     0.129 C 
HETATM    5  C6  UNL     1      34.809  13.976  -7.513  1.00  0.00     0.059 C 
HETATM    6  C7  UNL     1      35.594  13.932  -8.804  1.00  0.00     0.077 C 
HETATM    7  C15 UNL     1      34.860  13.176  -9.839  1.00  0.00     0.059 C 
HETATM    8  C16 UNL     1      33.353  13.423  -9.833  1.00  0.00     0.129 C 
ENDROOT
BRANCH   6   9
HETATM    9  O2  UNL     1      36.750  13.162  -8.489  1.00  0.00    -0.388 OA
ATOM     10  H2  UNL     1      37.219  13.092  -9.312  1.00  0.00     0.210 HD
ENDBRANCH   6   9
BRANCH   6  11
HETATM   11  C8  UNL     1      36.023  15.331  -9.214  1.00  0.00     0.171 C 
BRANCH  11  12
HETATM   12  N2  UNL     1      37.357  15.292  -9.718  1.00  0.00    -0.306 N 
HETATM   13  C9  UNL     1      37.700  15.052 -10.986  1.00  0.00     0.186 A 
HETATM   14  N3  UNL     1      38.922  15.033 -11.484  1.00  0.00    -0.350 N 
HETATM   15  C10 UNL     1      40.017  15.275 -10.681  1.00  0.00     0.073 A 
ATOM     16  H3  UNL     1      39.058  14.836 -12.476  1.00  0.00     0.166 HD
HETATM   17  C11 UNL     1      41.328  15.292 -11.031  1.00  0.00     0.045 A 
HETATM   18  C13 UNL     1      39.718  15.526  -9.376  1.00  0.00     0.101 A 
HETATM   19 BR1  UNL     1      41.993  14.962 -12.836  1.00  0.00    -0.048 Br
HETATM   20  C12 UNL     1      42.228  15.560 -10.043  1.00  0.00     0.072 A 
HETATM   21  S1  UNL     1      41.247  15.778  -8.669  1.00  0.00    -0.093 SA
HETATM   22  C14 UNL     1      38.405  15.539  -8.882  1.00  0.00     0.268 A 
HETATM   23  O3  UNL     1      38.241  15.780  -7.664  1.00  0.00    -0.266 OA
ENDBRANCH  11  12
ENDBRANCH   6  11
BRANCH   1  24
HETATM   24  C3  UNL     1      30.430  13.429  -9.281  1.00  0.00     0.111 C 
BRANCH  24  25
HETATM   25  C2  UNL     1      29.264  12.511  -9.137  1.00  0.00     0.023 C 
HETATM   26  C1  UNL     1      28.001  13.356  -8.938  1.00  0.00     0.015 C 
BRANCH  25  27
HETATM   27  C17 UNL     1      29.067  11.604 -10.267  1.00  0.00    -0.054 A 
HETATM   28  C18 UNL     1      27.847  11.490 -10.901  1.00  0.00     0.007 A 
HETATM   29  C19 UNL     1      27.687  10.622 -11.970  1.00  0.00     0.001 A 
HETATM   30  C20 UNL     1      28.740   9.841 -12.441  1.00  0.00     0.000 A 
HETATM   31  C21 UNL     1      29.960   9.956 -11.806  1.00  0.00     0.001 A 
HETATM   32  C22 UNL     1      30.120  10.820 -10.740  1.00  0.00     0.007 A 
ENDBRANCH  25  27
ENDBRANCH  24  25
ENDBRANCH   1  24
TORSDOF 6
ENDMDL
