MODEL 2
REMARK VINA RESULT: -10.727667170      1.583      1.748
REMARK  6 active torsions:
REMARK  status: ('A' for Active; 'I' for Inactive)
REMARK    1  A    between atoms: C2_2  and  C3_3 
REMARK    2  A    between atoms: C2_2  and  C17_27 
REMARK    3  A    between atoms: C3_3  and  C4_4 
REMARK       I    between atoms: C4_4  and  N1_6 
REMARK    4  A    between atoms: C7_9  and  O2_10 
REMARK    5  A    between atoms: C7_9  and  C8_12 
REMARK    6  A    between atoms: C8_12  and  N2_13 
ROOT
HETATM    1  C4  UNL     1      27.872  13.457 -12.812  1.00  0.00     0.220 C 
HETATM    2  O1  UNL     1      28.223  14.301 -13.711  1.00  0.00    -0.273 OA
HETATM    3  N1  UNL     1      28.256  13.624 -11.485  1.00  0.00    -0.352 N 
HETATM    4  C5  UNL     1      29.059  14.735 -11.040  1.00  0.00     0.129 C 
HETATM    5  C6  UNL     1      30.225  14.158 -10.284  1.00  0.00     0.059 C 
HETATM    6  C7  UNL     1      29.726  13.536  -9.000  1.00  0.00     0.077 C 
HETATM    7  C15 UNL     1      28.287  13.218  -9.096  1.00  0.00     0.059 C 
HETATM    8  C16 UNL     1      27.863  12.675 -10.459  1.00  0.00     0.129 C 
ENDROOT
BRANCH   6   9
HETATM    9  O2  UNL     1      29.843  14.576  -8.034  1.00  0.00    -0.388 OA
ATOM     10  H2  UNL     1      29.440  14.219  -7.252  1.00  0.00     0.210 HD
ENDBRANCH   6   9
BRANCH   6  11
HETATM   11  C8  UNL     1      30.615  12.373  -8.591  1.00  0.00     0.171 C 
BRANCH  11  12
HETATM   12  N2  UNL     1      31.945  12.844  -8.377  1.00  0.00    -0.306 N 
HETATM   13  C9  UNL     1      32.345  13.591  -7.345  1.00  0.00     0.186 A 
HETATM   14  N3  UNL     1      33.571  14.021  -7.109  1.00  0.00    -0.350 N 
HETATM   15  C10 UNL     1      34.607  13.710  -7.967  1.00  0.00     0.073 A 
ATOM     16  H3  UNL     1      33.755  14.589  -6.282  1.00  0.00     0.166 HD
HETATM   17  C11 UNL     1      35.912  14.068  -7.871  1.00  0.00     0.045 A 
HETATM   18  C13 UNL     1      34.246  12.946  -9.036  1.00  0.00     0.101 A 
HETATM   19 BR1  UNL     1      36.656  15.155  -6.432  1.00  0.00    -0.048 Br
HETATM   20  C12 UNL     1      36.746  13.630  -8.856  1.00  0.00     0.072 A 
HETATM   21  S1  UNL     1      35.714  12.744  -9.879  1.00  0.00    -0.093 SA
HETATM   22  C14 UNL     1      32.932  12.508  -9.254  1.00  0.00     0.268 A 
HETATM   23  O3  UNL     1      32.709  11.810 -10.270  1.00  0.00    -0.266 OA
ENDBRANCH  11  12
ENDBRANCH   6  11
BRANCH   1  24
HETATM   24  C3  UNL     1      27.041  12.315 -13.295  1.00  0.00     0.111 C 
BRANCH  24  25
HETATM   25  C2  UNL     1      27.878  11.323 -14.028  1.00  0.00     0.023 C 
HETATM   26  C1  UNL     1      28.721  12.069 -15.067  1.00  0.00     0.015 C 
BRANCH  25  27
HETATM   27  C17 UNL     1      28.756  10.526 -13.172  1.00  0.00    -0.054 A 
HETATM   28  C18 UNL     1      30.130  10.592 -13.283  1.00  0.00     0.007 A 
HETATM   29  C19 UNL     1      30.941   9.827 -12.459  1.00  0.00     0.001 A 
HETATM   30  C20 UNL     1      30.406   8.971 -11.499  1.00  0.00     0.000 A 
HETATM   31  C21 UNL     1      29.032   8.906 -11.388  1.00  0.00     0.001 A 
HETATM   32  C22 UNL     1      28.223   9.668 -12.209  1.00  0.00     0.007 A 
ENDBRANCH  25  27
ENDBRANCH  24  25
ENDBRANCH   1  24
TORSDOF 6
ENDMDL
