MODEL 13
REMARK VINA RESULT: -8.992389374      4.380      6.823
REMARK  6 active torsions:
REMARK  status: ('A' for Active; 'I' for Inactive)
REMARK    1  A    between atoms: C2_2  and  C3_3 
REMARK    2  A    between atoms: C2_2  and  C17_27 
REMARK    3  A    between atoms: C3_3  and  C4_4 
REMARK       I    between atoms: C4_4  and  N1_6 
REMARK    4  A    between atoms: C7_9  and  O2_10 
REMARK    5  A    between atoms: C7_9  and  C8_12 
REMARK    6  A    between atoms: C8_12  and  N2_13 
ROOT
HETATM    1  C4  UNL     1      32.276  12.458  -8.008  1.00  0.00     0.220 C 
HETATM    2  O1  UNL     1      31.823  12.396  -6.810  1.00  0.00    -0.273 OA
HETATM    3  N1  UNL     1      33.592  12.834  -8.257  1.00  0.00    -0.352 N 
HETATM    4  C5  UNL     1      34.518  13.172  -7.206  1.00  0.00     0.129 C 
HETATM    5  C6  UNL     1      35.099  14.517  -7.549  1.00  0.00     0.059 C 
HETATM    6  C7  UNL     1      35.976  14.382  -8.773  1.00  0.00     0.077 C 
HETATM    7  C15 UNL     1      35.618  13.175  -9.544  1.00  0.00     0.059 C 
HETATM    8  C16 UNL     1      34.115  12.905  -9.609  1.00  0.00     0.129 C 
ENDROOT
BRANCH   6   9
HETATM    9  O2  UNL     1      37.280  14.151  -8.249  1.00  0.00    -0.388 OA
ATOM     10  H2  UNL     1      37.657  13.502  -8.832  1.00  0.00     0.210 HD
ENDBRANCH   6   9
BRANCH   6  11
HETATM   11  C8  UNL     1      35.980  15.676  -9.570  1.00  0.00     0.171 C 
BRANCH  11  12
HETATM   12  N2  UNL     1      37.303  15.948 -10.031  1.00  0.00    -0.306 N 
HETATM   13  C9  UNL     1      37.841  15.479 -11.159  1.00  0.00     0.186 A 
HETATM   14  N3  UNL     1      39.052  15.732 -11.621  1.00  0.00    -0.350 N 
HETATM   15  C10 UNL     1      39.915  16.556 -10.930  1.00  0.00     0.073 A 
ATOM     16  H3  UNL     1      39.352  15.312 -12.502  1.00  0.00     0.166 HD
HETATM   17  C11 UNL     1      41.181  16.914 -11.262  1.00  0.00     0.045 A 
HETATM   18  C13 UNL     1      39.409  17.060  -9.769  1.00  0.00     0.101 A 
HETATM   19 BR1  UNL     1      42.111  16.318 -12.871  1.00  0.00    -0.048 Br
HETATM   20  C12 UNL     1      41.832  17.749 -10.403  1.00  0.00     0.072 A 
HETATM   21  S1  UNL     1      40.689  18.013  -9.170  1.00  0.00    -0.093 SA
HETATM   22  C14 UNL     1      38.116  16.769  -9.309  1.00  0.00     0.268 A 
HETATM   23  O3  UNL     1      37.750  17.286  -8.229  1.00  0.00    -0.266 OA
ENDBRANCH  11  12
ENDBRANCH   6  11
BRANCH   1  24
HETATM   24  C3  UNL     1      31.300  12.102  -9.081  1.00  0.00     0.111 C 
BRANCH  24  25
HETATM   25  C2  UNL     1      29.940  12.618  -8.753  1.00  0.00     0.023 C 
HETATM   26  C1  UNL     1      29.994  14.149  -8.721  1.00  0.00     0.015 C 
BRANCH  25  27
HETATM   27  C17 UNL     1      28.893  12.188  -9.678  1.00  0.00    -0.054 A 
HETATM   28  C18 UNL     1      29.103  11.170 -10.586  1.00  0.00     0.007 A 
HETATM   29  C19 UNL     1      28.093  10.781 -11.453  1.00  0.00     0.001 A 
HETATM   30  C20 UNL     1      26.842  11.395 -11.440  1.00  0.00     0.000 A 
HETATM   31  C21 UNL     1      26.634  12.412 -10.531  1.00  0.00     0.001 A 
HETATM   32  C22 UNL     1      27.640  12.801  -9.667  1.00  0.00     0.007 A 
ENDBRANCH  25  27
ENDBRANCH  24  25
ENDBRANCH   1  24
TORSDOF 6
ENDMDL
