MODEL 10
REMARK VINA RESULT: -10.610147574      2.892      9.377
REMARK  6 active torsions:
REMARK  status: ('A' for Active; 'I' for Inactive)
REMARK    1  A    between atoms: O1_2  and  C2_3 
REMARK    2  A    between atoms: C7_8  and  O2_9 
REMARK    3  A    between atoms: C10_13  and  C11_14 
REMARK    4  A    between atoms: C11_14  and  C12_15 
REMARK    5  A    between atoms: N1_18  and  C15_19 
REMARK    6  A    between atoms: C15_19  and  C16_20 
ROOT
HETATM    1  C2  UNL     1     172.786  30.930 177.233  1.00  0.00     0.102 A 
HETATM    2  C3  UNL     1     172.732  29.961 178.204  1.00  0.00     0.052 A 
HETATM    3  C4  UNL     1     172.016  30.139 179.395  1.00  0.00    -0.018 A 
HETATM    4  C5  UNL     1     171.360  31.314 179.571  1.00  0.00     0.028 A 
HETATM    5  C6  UNL     1     171.391  32.317 178.613  1.00  0.00     0.056 A 
HETATM    6  C7  UNL     1     172.109  32.113 177.443  1.00  0.00     0.102 A 
HETATM    7  C9  UNL     1     170.697  31.236 180.890  1.00  0.00     0.189 A 
HETATM    8  O3  UNL     1     169.998  32.160 181.372  1.00  0.00    -0.287 OA
HETATM    9  C10 UNL     1     171.017  29.939 181.453  1.00  0.00    -0.006 A 
HETATM   10  C24 UNL     1     171.793  29.308 180.559  1.00  0.00     0.023 A 
ENDROOT
BRANCH   9  11
HETATM   11  C11 UNL     1     170.616  29.305 182.708  1.00  0.00     0.047 C 
BRANCH  11  12
HETATM   12  C12 UNL     1     169.310  28.567 182.710  1.00  0.00    -0.007 C 
HETATM   13  C13 UNL     1     168.190  29.588 182.818  1.00  0.00     0.035 C 
HETATM   14  C14 UNL     1     167.633  29.535 184.185  1.00  0.00     0.273 C 
HETATM   15  N1  UNL     1     166.935  28.287 184.403  1.00  0.00     0.092 N 
HETATM   16  C22 UNL     1     167.751  27.150 184.067  1.00  0.00     0.273 C 
HETATM   17  C23 UNL     1     169.176  27.547 183.765  1.00  0.00     0.035 C 
BRANCH  15  18
HETATM   18  C15 UNL     1     165.702  28.313 183.659  1.00  0.00     0.311 C 
BRANCH  18  19
HETATM   19  C16 UNL     1     164.523  27.925 184.445  1.00  0.00    -0.030 A 
HETATM   20  C17 UNL     1     164.135  28.708 185.508  1.00  0.00     0.009 A 
HETATM   21  C18 UNL     1     163.036  28.391 186.291  1.00  0.00     0.001 A 
HETATM   22  C19 UNL     1     162.338  27.251 185.962  1.00  0.00     0.000 A 
HETATM   23  C20 UNL     1     162.709  26.440 184.890  1.00  0.00     0.001 A 
HETATM   24  C21 UNL     1     163.822  26.791 184.123  1.00  0.00     0.009 A 
ENDBRANCH  18  19
ENDBRANCH  15  18
ENDBRANCH  11  12
ENDBRANCH   9  11
BRANCH   6  25
HETATM   25  O2  UNL     1     172.157  33.095 176.472  1.00  0.00    -0.353 OA
HETATM   26  C8  UNL     1     171.133  34.064 176.392  1.00  0.00     0.210 C 
ENDBRANCH   6  25
BRANCH   1  27
HETATM   27  O1  UNL     1     173.511  30.728 176.049  1.00  0.00    -0.353 OA
HETATM   28  C1  UNL     1     174.393  29.626 175.969  1.00  0.00     0.210 C 
ENDBRANCH   1  27
TORSDOF 6
ENDMDL
