MODEL 17
REMARK VINA RESULT: -10.281358739      1.786      3.188
REMARK  6 active torsions:
REMARK  status: ('A' for Active; 'I' for Inactive)
REMARK    1  A    between atoms: O1_2  and  C2_3 
REMARK    2  A    between atoms: C7_8  and  O2_9 
REMARK    3  A    between atoms: C10_13  and  C11_14 
REMARK    4  A    between atoms: C11_14  and  C12_15 
REMARK    5  A    between atoms: N1_18  and  C15_19 
REMARK    6  A    between atoms: C15_19  and  C16_20 
ROOT
HETATM    1  C2  UNL     1     164.398  30.923 185.806  1.00  0.00     0.102 A 
HETATM    2  C3  UNL     1     165.324  31.891 185.502  1.00  0.00     0.052 A 
HETATM    3  C4  UNL     1     166.537  31.589 184.870  1.00  0.00    -0.018 A 
HETATM    4  C5  UNL     1     166.784  30.292 184.556  1.00  0.00     0.028 A 
HETATM    5  C6  UNL     1     165.873  29.285 184.847  1.00  0.00     0.056 A 
HETATM    6  C7  UNL     1     164.679  29.614 185.474  1.00  0.00     0.102 A 
HETATM    7  C9  UNL     1     168.111  30.257 183.908  1.00  0.00     0.189 A 
HETATM    8  O3  UNL     1     168.652  29.206 183.488  1.00  0.00    -0.287 OA
HETATM    9  C10 UNL     1     168.606  31.619 183.873  1.00  0.00    -0.006 A 
HETATM   10  C24 UNL     1     167.665  32.388 184.442  1.00  0.00     0.023 A 
ENDROOT
BRANCH   9  11
HETATM   11  C11 UNL     1     169.838  32.186 183.327  1.00  0.00     0.047 C 
BRANCH  11  12
HETATM   12  C12 UNL     1     170.310  31.647 182.009  1.00  0.00    -0.007 C 
HETATM   13  C13 UNL     1     171.680  31.024 182.215  1.00  0.00     0.035 C 
HETATM   14  C14 UNL     1     172.698  31.920 181.629  1.00  0.00     0.273 C 
HETATM   15  N1  UNL     1     172.585  31.945 180.187  1.00  0.00     0.092 N 
HETATM   16  C22 UNL     1     171.242  32.239 179.760  1.00  0.00     0.273 C 
HETATM   17  C23 UNL     1     170.355  32.634 180.916  1.00  0.00     0.035 C 
BRANCH  15  18
HETATM   18  C15 UNL     1     173.062  30.691 179.666  1.00  0.00     0.311 C 
BRANCH  18  19
HETATM   19  C16 UNL     1     173.200  30.667 178.203  1.00  0.00    -0.030 A 
HETATM   20  C17 UNL     1     172.392  31.476 177.437  1.00  0.00     0.009 A 
HETATM   21  C18 UNL     1     172.470  31.494 176.053  1.00  0.00     0.001 A 
HETATM   22  C19 UNL     1     173.397  30.664 175.466  1.00  0.00     0.000 A 
HETATM   23  C20 UNL     1     174.229  29.835 176.218  1.00  0.00     0.001 A 
HETATM   24  C21 UNL     1     174.122  29.843 177.610  1.00  0.00     0.009 A 
ENDBRANCH  18  19
ENDBRANCH  15  18
ENDBRANCH  11  12
ENDBRANCH   9  11
BRANCH   6  25
HETATM   25  O2  UNL     1     163.755  28.633 185.776  1.00  0.00    -0.353 OA
HETATM   26  C8  UNL     1     163.757  27.413 185.064  1.00  0.00     0.210 C 
ENDBRANCH   6  25
BRANCH   1  27
HETATM   27  O1  UNL     1     163.191  31.250 186.439  1.00  0.00    -0.353 OA
HETATM   28  C1  UNL     1     163.069  32.514 187.062  1.00  0.00     0.210 C 
ENDBRANCH   1  27
TORSDOF 6
ENDMDL
