MODEL 3
REMARK VINA RESULT: -11.056122767      1.590      3.028
REMARK  6 active torsions:
REMARK  status: ('A' for Active; 'I' for Inactive)
REMARK    1  A    between atoms: O1_2  and  C2_3 
REMARK    2  A    between atoms: C7_8  and  O2_9 
REMARK    3  A    between atoms: C10_13  and  C11_14 
REMARK    4  A    between atoms: C11_14  and  C12_15 
REMARK    5  A    between atoms: N1_18  and  C15_19 
REMARK    6  A    between atoms: C15_19  and  C16_20 
ROOT
HETATM    1  C2  UNL     1     164.235  30.008 185.762  1.00  0.00     0.102 A 
HETATM    2  C3  UNL     1     165.424  30.386 185.188  1.00  0.00     0.052 A 
HETATM    3  C4  UNL     1     166.318  29.454 184.645  1.00  0.00    -0.018 A 
HETATM    4  C5  UNL     1     165.977  28.141 184.698  1.00  0.00     0.028 A 
HETATM    5  C6  UNL     1     164.785  27.720 185.271  1.00  0.00     0.056 A 
HETATM    6  C7  UNL     1     163.918  28.666 185.801  1.00  0.00     0.102 A 
HETATM    7  C9  UNL     1     167.080  27.390 184.064  1.00  0.00     0.189 A 
HETATM    8  O3  UNL     1     167.090  26.142 183.942  1.00  0.00    -0.287 OA
HETATM    9  C10 UNL     1     168.072  28.360 183.645  1.00  0.00    -0.006 A 
HETATM   10  C24 UNL     1     167.606  29.569 183.995  1.00  0.00     0.023 A 
ENDROOT
BRANCH   9  11
HETATM   11  C11 UNL     1     169.346  28.199 182.944  1.00  0.00     0.047 C 
BRANCH  11  12
HETATM   12  C12 UNL     1     169.910  29.416 182.272  1.00  0.00    -0.007 C 
HETATM   13  C13 UNL     1     170.073  29.107 180.794  1.00  0.00     0.035 C 
HETATM   14  C14 UNL     1     171.510  28.915 180.508  1.00  0.00     0.273 C 
HETATM   15  N1  UNL     1     172.228  30.164 180.643  1.00  0.00     0.092 N 
HETATM   16  C22 UNL     1     171.970  30.796 181.911  1.00  0.00     0.273 C 
HETATM   17  C23 UNL     1     171.181  29.903 182.837  1.00  0.00     0.035 C 
BRANCH  15  18
HETATM   18  C15 UNL     1     171.889  31.013 179.531  1.00  0.00     0.311 C 
BRANCH  18  19
HETATM   19  C16 UNL     1     172.609  30.689 178.292  1.00  0.00    -0.030 A 
HETATM   20  C17 UNL     1     173.814  30.028 178.367  1.00  0.00     0.009 A 
HETATM   21  C18 UNL     1     174.544  29.699 177.235  1.00  0.00     0.001 A 
HETATM   22  C19 UNL     1     174.013  30.063 176.018  1.00  0.00     0.000 A 
HETATM   23  C20 UNL     1     172.794  30.732 175.914  1.00  0.00     0.001 A 
HETATM   24  C21 UNL     1     172.086  31.047 177.076  1.00  0.00     0.009 A 
ENDBRANCH  18  19
ENDBRANCH  15  18
ENDBRANCH  11  12
ENDBRANCH   9  11
BRANCH   6  25
HETATM   25  O2  UNL     1     162.725  28.276 186.378  1.00  0.00    -0.353 OA
HETATM   26  C8  UNL     1     162.054  27.126 185.908  1.00  0.00     0.210 C 
ENDBRANCH   6  25
BRANCH   1  27
HETATM   27  O1  UNL     1     163.357  30.960 186.300  1.00  0.00    -0.353 OA
HETATM   28  C1  UNL     1     163.803  32.294 186.444  1.00  0.00     0.210 C 
ENDBRANCH   1  27
TORSDOF 6
ENDMDL
