MODEL 11
REMARK VINA RESULT: -10.452007830      1.807      3.106
REMARK  6 active torsions:
REMARK  status: ('A' for Active; 'I' for Inactive)
REMARK    1  A    between atoms: O1_2  and  C2_3 
REMARK    2  A    between atoms: C7_8  and  O2_9 
REMARK    3  A    between atoms: C10_13  and  C11_14 
REMARK    4  A    between atoms: C11_14  and  C12_15 
REMARK    5  A    between atoms: N1_18  and  C15_19 
REMARK    6  A    between atoms: C15_19  and  C16_20 
ROOT
HETATM    1  C2  UNL     1     165.516  30.933 185.088  1.00  0.00     0.102 A 
HETATM    2  C3  UNL     1     166.769  31.126 184.561  1.00  0.00     0.052 A 
HETATM    3  C4  UNL     1     167.564  30.060 184.119  1.00  0.00    -0.018 A 
HETATM    4  C5  UNL     1     167.058  28.805 184.225  1.00  0.00     0.028 A 
HETATM    5  C6  UNL     1     165.796  28.569 184.753  1.00  0.00     0.056 A 
HETATM    6  C7  UNL     1     165.031  29.645 185.183  1.00  0.00     0.102 A 
HETATM    7  C9  UNL     1     168.087  27.886 183.694  1.00  0.00     0.189 A 
HETATM    8  O3  UNL     1     167.946  26.641 183.642  1.00  0.00    -0.287 OA
HETATM    9  C10 UNL     1     169.213  28.700 183.280  1.00  0.00    -0.006 A 
HETATM   10  C24 UNL     1     168.886  29.975 183.537  1.00  0.00     0.023 A 
ENDROOT
BRANCH   9  11
HETATM   11  C11 UNL     1     170.488  28.341 182.660  1.00  0.00     0.047 C 
BRANCH  11  12
HETATM   12  C12 UNL     1     170.632  28.618 181.192  1.00  0.00    -0.007 C 
HETATM   13  C13 UNL     1     171.699  29.684 181.014  1.00  0.00     0.035 C 
HETATM   14  C14 UNL     1     171.039  30.959 180.665  1.00  0.00     0.273 C 
HETATM   15  N1  UNL     1     170.455  30.884 179.344  1.00  0.00     0.092 N 
HETATM   16  C22 UNL     1     169.602  29.733 179.199  1.00  0.00     0.273 C 
HETATM   17  C23 UNL     1     169.388  29.020 180.512  1.00  0.00     0.035 C 
BRANCH  15  18
HETATM   18  C15 UNL     1     171.514  30.905 178.369  1.00  0.00     0.311 C 
BRANCH  18  19
HETATM   19  C16 UNL     1     171.451  32.046 177.445  1.00  0.00    -0.030 A 
HETATM   20  C17 UNL     1     172.049  31.945 176.209  1.00  0.00     0.009 A 
HETATM   21  C18 UNL     1     172.028  32.988 175.296  1.00  0.00     0.001 A 
HETATM   22  C19 UNL     1     171.381  34.142 175.675  1.00  0.00     0.000 A 
HETATM   23  C20 UNL     1     170.768  34.271 176.921  1.00  0.00     0.001 A 
HETATM   24  C21 UNL     1     170.808  33.199 177.816  1.00  0.00     0.009 A 
ENDBRANCH  18  19
ENDBRANCH  15  18
ENDBRANCH  11  12
ENDBRANCH   9  11
BRANCH   6  25
HETATM   25  O2  UNL     1     163.772  29.440 185.712  1.00  0.00    -0.353 OA
HETATM   26  C8  UNL     1     163.317  28.129 185.973  1.00  0.00     0.210 C 
ENDBRANCH   6  25
BRANCH   1  27
HETATM   27  O1  UNL     1     164.740  32.016 185.524  1.00  0.00    -0.353 OA
HETATM   28  C1  UNL     1     164.597  32.237 186.913  1.00  0.00     0.210 C 
ENDBRANCH   1  27
TORSDOF 6
ENDMDL
