MODEL 13
REMARK VINA RESULT: -10.367371669      2.989      9.467
REMARK  6 active torsions:
REMARK  status: ('A' for Active; 'I' for Inactive)
REMARK    1  A    between atoms: O1_2  and  C2_3 
REMARK    2  A    between atoms: C7_8  and  O2_9 
REMARK    3  A    between atoms: C10_13  and  C11_14 
REMARK    4  A    between atoms: C11_14  and  C12_15 
REMARK    5  A    between atoms: N1_18  and  C15_19 
REMARK    6  A    between atoms: C15_19  and  C16_20 
ROOT
HETATM    1  C2  UNL     1     172.429  30.221 178.482  1.00  0.00     0.102 A 
HETATM    2  C3  UNL     1     172.489  29.827 179.796  1.00  0.00     0.052 A 
HETATM    3  C4  UNL     1     171.356  29.395 180.497  1.00  0.00    -0.018 A 
HETATM    4  C5  UNL     1     170.171  29.373 179.837  1.00  0.00     0.028 A 
HETATM    5  C6  UNL     1     170.069  29.763 178.509  1.00  0.00     0.056 A 
HETATM    6  C7  UNL     1     171.209  30.187 177.839  1.00  0.00     0.102 A 
HETATM    7  C9  UNL     1     169.159  28.883 180.796  1.00  0.00     0.189 A 
HETATM    8  O3  UNL     1     167.946  28.739 180.513  1.00  0.00    -0.287 OA
HETATM    9  C10 UNL     1     169.845  28.628 182.047  1.00  0.00    -0.006 A 
HETATM   10  C24 UNL     1     171.137  28.934 181.852  1.00  0.00     0.023 A 
ENDROOT
BRANCH   9  11
HETATM   11  C11 UNL     1     169.362  28.110 183.326  1.00  0.00     0.047 C 
BRANCH  11  12
HETATM   12  C12 UNL     1     167.876  27.975 183.488  1.00  0.00    -0.007 C 
HETATM   13  C13 UNL     1     167.307  29.350 183.794  1.00  0.00     0.035 C 
HETATM   14  C14 UNL     1     166.940  29.401 185.224  1.00  0.00     0.273 C 
HETATM   15  N1  UNL     1     165.813  28.535 185.493  1.00  0.00     0.092 N 
HETATM   16  C22 UNL     1     166.034  27.200 185.000  1.00  0.00     0.273 C 
HETATM   17  C23 UNL     1     167.450  27.005 184.512  1.00  0.00     0.035 C 
BRANCH  15  18
HETATM   18  C15 UNL     1     164.628  29.134 184.935  1.00  0.00     0.311 C 
BRANCH  18  19
HETATM   19  C16 UNL     1     163.962  30.086 185.834  1.00  0.00    -0.030 A 
HETATM   20  C17 UNL     1     162.988  29.632 186.693  1.00  0.00     0.009 A 
HETATM   21  C18 UNL     1     162.320  30.483 187.561  1.00  0.00     0.001 A 
HETATM   22  C19 UNL     1     162.671  31.814 187.531  1.00  0.00     0.000 A 
HETATM   23  C20 UNL     1     163.655  32.299 186.670  1.00  0.00     0.001 A 
HETATM   24  C21 UNL     1     164.307  31.413 185.810  1.00  0.00     0.009 A 
ENDBRANCH  18  19
ENDBRANCH  15  18
ENDBRANCH  11  12
ENDBRANCH   9  11
BRANCH   6  25
HETATM   25  O2  UNL     1     171.136  30.582 176.518  1.00  0.00    -0.353 OA
HETATM   26  C8  UNL     1     171.457  29.673 175.486  1.00  0.00     0.210 C 
ENDBRANCH   6  25
BRANCH   1  27
HETATM   27  O1  UNL     1     173.577  30.650 177.802  1.00  0.00    -0.353 OA
HETATM   28  C1  UNL     1     174.574  29.699 177.482  1.00  0.00     0.210 C 
ENDBRANCH   1  27
TORSDOF 6
ENDMDL
