MODEL 9
REMARK VINA RESULT: -10.657807447      2.818      8.812
REMARK  6 active torsions:
REMARK  status: ('A' for Active; 'I' for Inactive)
REMARK    1  A    between atoms: O1_2  and  C2_3 
REMARK    2  A    between atoms: C7_8  and  O2_9 
REMARK    3  A    between atoms: C10_13  and  C11_14 
REMARK    4  A    between atoms: C11_14  and  C12_15 
REMARK    5  A    between atoms: N1_18  and  C15_19 
REMARK    6  A    between atoms: C15_19  and  C16_20 
ROOT
HETATM    1  C2  UNL     1     172.814  31.141 176.887  1.00  0.00     0.102 A 
HETATM    2  C3  UNL     1     173.092  30.599 178.117  1.00  0.00     0.052 A 
HETATM    3  C4  UNL     1     172.386  30.967 179.270  1.00  0.00    -0.018 A 
HETATM    4  C5  UNL     1     171.400  31.891 179.143  1.00  0.00     0.028 A 
HETATM    5  C6  UNL     1     171.090  32.462 177.916  1.00  0.00     0.056 A 
HETATM    6  C7  UNL     1     171.806  32.078 176.791  1.00  0.00     0.102 A 
HETATM    7  C9  UNL     1     170.829  32.091 180.491  1.00  0.00     0.189 A 
HETATM    8  O3  UNL     1     169.888  32.884 180.736  1.00  0.00    -0.287 OA
HETATM    9  C10 UNL     1     171.554  31.221 181.396  1.00  0.00    -0.006 A 
HETATM   10  C24 UNL     1     172.465  30.567 180.659  1.00  0.00     0.023 A 
ENDROOT
BRANCH   9  11
HETATM   11  C11 UNL     1     171.404  30.977 182.829  1.00  0.00     0.047 C 
BRANCH  11  12
HETATM   12  C12 UNL     1     170.324  30.023 183.248  1.00  0.00    -0.007 C 
HETATM   13  C13 UNL     1     170.189  28.959 182.173  1.00  0.00     0.035 C 
HETATM   14  C14 UNL     1     168.953  29.216 181.406  1.00  0.00     0.273 C 
HETATM   15  N1  UNL     1     167.786  28.975 182.226  1.00  0.00     0.092 N 
HETATM   16  C22 UNL     1     167.851  29.689 183.474  1.00  0.00     0.273 C 
HETATM   17  C23 UNL     1     169.017  30.648 183.517  1.00  0.00     0.035 C 
BRANCH  15  18
HETATM   18  C15 UNL     1     167.641  27.555 182.416  1.00  0.00     0.311 C 
BRANCH  18  19
HETATM   19  C16 UNL     1     166.604  27.186 183.390  1.00  0.00    -0.030 A 
HETATM   20  C17 UNL     1     166.932  26.364 184.443  1.00  0.00     0.009 A 
HETATM   21  C18 UNL     1     165.996  25.976 185.391  1.00  0.00     0.001 A 
HETATM   22  C19 UNL     1     164.713  26.450 185.237  1.00  0.00     0.000 A 
HETATM   23  C20 UNL     1     164.355  27.285 184.180  1.00  0.00     0.001 A 
HETATM   24  C21 UNL     1     165.324  27.655 183.244  1.00  0.00     0.009 A 
ENDBRANCH  18  19
ENDBRANCH  15  18
ENDBRANCH  11  12
ENDBRANCH   9  11
BRANCH   6  25
HETATM   25  O2  UNL     1     171.519  32.630 175.558  1.00  0.00    -0.353 OA
HETATM   26  C8  UNL     1     171.672  34.018 175.349  1.00  0.00     0.210 C 
ENDBRANCH   6  25
BRANCH   1  27
HETATM   27  O1  UNL     1     173.535  30.756 175.748  1.00  0.00    -0.353 OA
HETATM   28  C1  UNL     1     174.385  29.629 175.827  1.00  0.00     0.210 C 
ENDBRANCH   1  27
TORSDOF 6
ENDMDL
