MODEL 8
REMARK VINA RESULT: -11.241040981      3.308     10.108
REMARK  5 active torsions:
REMARK  status: ('A' for Active; 'I' for Inactive)
REMARK    1  A    between atoms: O1_2  and  C2_3 
REMARK    2  A    between atoms: C9_10  and  C10_11 
REMARK    3  A    between atoms: C10_11  and  C11_12 
REMARK    4  A    between atoms: N1_15  and  C14_16 
REMARK    5  A    between atoms: C14_16  and  C15_17 
ROOT
HETATM    1  C11 UNL     1     112.348 125.730 183.013  1.00  0.00    -0.007 C 
HETATM    2  C12 UNL     1     111.294 124.722 183.299  1.00  0.00     0.035 C 
HETATM    3  C13 UNL     1     109.959 125.389 183.640  1.00  0.00     0.273 C 
HETATM    4  N1  UNL     1     110.037 126.129 184.865  1.00  0.00     0.092 N 
HETATM    5  C21 UNL     1     111.355 126.654 185.136  1.00  0.00     0.273 C 
HETATM    6  C22 UNL     1     112.151 126.955 183.886  1.00  0.00     0.035 C 
ENDROOT
BRANCH   1   7
HETATM    7  C10 UNL     1     113.724 125.193 183.085  1.00  0.00     0.047 C 
BRANCH   7   8
HETATM    8  C9  UNL     1     114.697 125.694 182.090  1.00  0.00    -0.006 A 
HETATM    9  C8  UNL     1     115.127 124.985 181.032  1.00  0.00     0.023 A 
HETATM   10  C6  UNL     1     116.066 125.722 180.233  1.00  0.00    -0.019 A 
HETATM   11  C5  UNL     1     116.219 126.947 180.821  1.00  0.00     0.025 A 
HETATM   12  C7  UNL     1     116.790 125.453 179.066  1.00  0.00     0.049 A 
HETATM   13  C4  UNL     1     117.076 127.909 180.277  1.00  0.00     0.019 A 
HETATM   14  C23 UNL     1     115.356 126.958 182.007  1.00  0.00     0.189 A 
HETATM   15  C3  UNL     1     117.774 127.598 179.120  1.00  0.00     0.038 A 
HETATM   16  C2  UNL     1     117.642 126.381 178.508  1.00  0.00     0.069 A 
HETATM   17  O2  UNL     1     115.290 127.976 182.755  1.00  0.00    -0.287 OA
BRANCH  16  18
HETATM   18  O1  UNL     1     118.331 126.064 177.360  1.00  0.00    -0.356 OA
HETATM   19  C1  UNL     1     118.039 126.693 176.129  1.00  0.00     0.210 C 
ENDBRANCH  16  18
ENDBRANCH   7   8
ENDBRANCH   1   7
BRANCH   4  20
HETATM   20  C14 UNL     1     108.983 127.089 184.924  1.00  0.00     0.311 C 
BRANCH  20  21
HETATM   21  C15 UNL     1     107.870 126.723 185.820  1.00  0.00    -0.030 A 
HETATM   22  C16 UNL     1     107.447 125.423 185.981  1.00  0.00     0.009 A 
HETATM   23  C17 UNL     1     106.385 125.114 186.840  1.00  0.00     0.001 A 
HETATM   24  C18 UNL     1     105.736 126.098 187.545  1.00  0.00     0.000 A 
HETATM   25  C19 UNL     1     106.149 127.395 187.390  1.00  0.00     0.001 A 
HETATM   26  C20 UNL     1     107.193 127.675 186.542  1.00  0.00     0.009 A 
ENDBRANCH  20  21
ENDBRANCH   4  20
TORSDOF 5
ENDMDL
