MODEL 4
REMARK VINA RESULT: -11.475728056      3.390      9.752
REMARK  5 active torsions:
REMARK  status: ('A' for Active; 'I' for Inactive)
REMARK    1  A    between atoms: O1_2  and  C2_3 
REMARK    2  A    between atoms: C9_10  and  C10_11 
REMARK    3  A    between atoms: C10_11  and  C11_12 
REMARK    4  A    between atoms: N1_15  and  C14_16 
REMARK    5  A    between atoms: C14_16  and  C15_17 
ROOT
HETATM    1  C11 UNL     1     112.784 124.815 183.058  1.00  0.00    -0.007 C 
HETATM    2  C12 UNL     1     112.099 123.874 183.981  1.00  0.00     0.035 C 
HETATM    3  C13 UNL     1     110.599 124.169 184.071  1.00  0.00     0.273 C 
HETATM    4  N1  UNL     1     110.347 125.447 184.669  1.00  0.00     0.092 N 
HETATM    5  C21 UNL     1     111.401 126.407 184.437  1.00  0.00     0.273 C 
HETATM    6  C22 UNL     1     112.140 126.186 183.135  1.00  0.00     0.035 C 
ENDROOT
BRANCH   1   7
HETATM    7  C10 UNL     1     114.251 124.863 183.233  1.00  0.00     0.047 C 
BRANCH   7   8
HETATM    8  C9  UNL     1     115.040 125.499 182.156  1.00  0.00    -0.006 A 
HETATM    9  C8  UNL     1     115.395 124.883 181.016  1.00  0.00     0.023 A 
HETATM   10  C6  UNL     1     116.152 125.743 180.150  1.00  0.00    -0.019 A 
HETATM   11  C5  UNL     1     116.268 126.949 180.783  1.00  0.00     0.025 A 
HETATM   12  C7  UNL     1     116.744 125.597 178.890  1.00  0.00     0.049 A 
HETATM   13  C4  UNL     1     116.958 128.013 180.193  1.00  0.00     0.019 A 
HETATM   14  C23 UNL     1     115.566 126.824 182.065  1.00  0.00     0.189 A 
HETATM   15  C3  UNL     1     117.528 127.824 178.943  1.00  0.00     0.038 A 
HETATM   16  C2  UNL     1     117.430 126.628 178.285  1.00  0.00     0.069 A 
HETATM   17  O2  UNL     1     115.504 127.797 182.871  1.00  0.00    -0.287 OA
BRANCH  16  18
HETATM   18  O1  UNL     1     117.993 126.431 177.045  1.00  0.00    -0.356 OA
HETATM   19  C1  UNL     1     117.515 127.112 175.903  1.00  0.00     0.210 C 
ENDBRANCH  16  18
ENDBRANCH   7   8
ENDBRANCH   1   7
BRANCH   4  20
HETATM   20  C14 UNL     1     109.037 125.897 184.328  1.00  0.00     0.311 C 
BRANCH  20  21
HETATM   21  C15 UNL     1     108.408 126.770 185.337  1.00  0.00    -0.030 A 
HETATM   22  C16 UNL     1     107.534 126.292 186.287  1.00  0.00     0.009 A 
HETATM   23  C17 UNL     1     106.955 127.153 187.227  1.00  0.00     0.001 A 
HETATM   24  C18 UNL     1     107.242 128.496 187.229  1.00  0.00     0.000 A 
HETATM   25  C19 UNL     1     108.110 128.981 186.286  1.00  0.00     0.001 A 
HETATM   26  C20 UNL     1     108.667 128.119 185.373  1.00  0.00     0.009 A 
ENDBRANCH  20  21
ENDBRANCH   4  20
TORSDOF 5
ENDMDL
