MODEL 6
REMARK VINA RESULT: -11.364012499      2.953      9.989
REMARK  5 active torsions:
REMARK  status: ('A' for Active; 'I' for Inactive)
REMARK    1  A    between atoms: O1_2  and  C2_3 
REMARK    2  A    between atoms: C9_10  and  C10_11 
REMARK    3  A    between atoms: C10_11  and  C11_12 
REMARK    4  A    between atoms: N1_15  and  C14_16 
REMARK    5  A    between atoms: C14_16  and  C15_17 
ROOT
HETATM    1  C11 UNL     1     113.020 124.840 182.935  1.00  0.00    -0.007 C 
HETATM    2  C12 UNL     1     112.623 123.832 183.951  1.00  0.00     0.035 C 
HETATM    3  C13 UNL     1     111.132 123.496 183.853  1.00  0.00     0.273 C 
HETATM    4  N1  UNL     1     110.313 124.625 184.182  1.00  0.00     0.092 N 
HETATM    5  C21 UNL     1     110.932 125.893 183.870  1.00  0.00     0.273 C 
HETATM    6  C22 UNL     1     111.890 125.823 182.701  1.00  0.00     0.035 C 
ENDROOT
BRANCH   1   7
HETATM    7  C10 UNL     1     114.307 125.508 183.226  1.00  0.00     0.047 C 
BRANCH   7   8
HETATM    8  C9  UNL     1     115.134 125.915 182.070  1.00  0.00    -0.006 A 
HETATM    9  C8  UNL     1     115.362 125.140 180.995  1.00  0.00     0.023 A 
HETATM   10  C6  UNL     1     116.196 125.794 180.025  1.00  0.00    -0.019 A 
HETATM   11  C5  UNL     1     116.494 127.032 180.522  1.00  0.00     0.025 A 
HETATM   12  C7  UNL     1     116.717 125.437 178.776  1.00  0.00     0.049 A 
HETATM   13  C4  UNL     1     117.299 127.924 179.805  1.00  0.00     0.019 A 
HETATM   14  C23 UNL     1     115.829 127.138 181.824  1.00  0.00     0.189 A 
HETATM   15  C3  UNL     1     117.793 127.529 178.571  1.00  0.00     0.038 A 
HETATM   16  C2  UNL     1     117.512 126.296 178.048  1.00  0.00     0.069 A 
HETATM   17  O2  UNL     1     115.927 128.189 182.521  1.00  0.00    -0.287 OA
BRANCH  16  18
HETATM   18  O1  UNL     1     117.999 125.896 176.825  1.00  0.00    -0.356 OA
HETATM   19  C1  UNL     1     118.054 126.785 175.728  1.00  0.00     0.210 C 
ENDBRANCH  16  18
ENDBRANCH   7   8
ENDBRANCH   1   7
BRANCH   4  20
HETATM   20  C14 UNL     1     109.001 124.449 183.651  1.00  0.00     0.311 C 
BRANCH  20  21
HETATM   21  C15 UNL     1     107.923 124.489 184.656  1.00  0.00    -0.030 A 
HETATM   22  C16 UNL     1     107.837 125.477 185.611  1.00  0.00     0.009 A 
HETATM   23  C17 UNL     1     106.799 125.481 186.550  1.00  0.00     0.001 A 
HETATM   24  C18 UNL     1     105.838 124.500 186.546  1.00  0.00     0.000 A 
HETATM   25  C19 UNL     1     105.914 123.511 185.600  1.00  0.00     0.001 A 
HETATM   26  C20 UNL     1     106.942 123.528 184.688  1.00  0.00     0.009 A 
ENDBRANCH  20  21
ENDBRANCH   4  20
TORSDOF 5
ENDMDL
