MODEL 7
REMARK VINA RESULT: -11.331935772      2.214      2.608
REMARK  5 active torsions:
REMARK  status: ('A' for Active; 'I' for Inactive)
REMARK    1  A    between atoms: O1_2  and  C2_3 
REMARK    2  A    between atoms: C9_10  and  C10_11 
REMARK    3  A    between atoms: C10_11  and  C11_12 
REMARK    4  A    between atoms: N1_15  and  C14_16 
REMARK    5  A    between atoms: C14_16  and  C15_17 
ROOT
HETATM    1  C11 UNL     1     114.173 126.524 182.105  1.00  0.00    -0.007 C 
HETATM    2  C12 UNL     1     115.424 127.033 182.724  1.00  0.00     0.035 C 
HETATM    3  C13 UNL     1     116.166 127.988 181.784  1.00  0.00     0.273 C 
HETATM    4  N1  UNL     1     116.638 127.313 180.611  1.00  0.00     0.092 N 
HETATM    5  C21 UNL     1     115.816 126.190 180.224  1.00  0.00     0.273 C 
HETATM    6  C22 UNL     1     114.362 126.348 180.610  1.00  0.00     0.035 C 
ENDROOT
BRANCH   1   7
HETATM    7  C10 UNL     1     113.634 125.311 182.758  1.00  0.00     0.047 C 
BRANCH   7   8
HETATM    8  C9  UNL     1     112.346 125.446 183.473  1.00  0.00    -0.006 A 
HETATM    9  C8  UNL     1     111.741 126.619 183.725  1.00  0.00     0.023 A 
HETATM   10  C6  UNL     1     110.502 126.449 184.430  1.00  0.00    -0.019 A 
HETATM   11  C5  UNL     1     110.330 125.106 184.619  1.00  0.00     0.025 A 
HETATM   12  C7  UNL     1     109.519 127.318 184.918  1.00  0.00     0.049 A 
HETATM   13  C4  UNL     1     109.204 124.607 185.282  1.00  0.00     0.019 A 
HETATM   14  C23 UNL     1     111.490 124.440 184.017  1.00  0.00     0.189 A 
HETATM   15  C3  UNL     1     108.255 125.505 185.749  1.00  0.00     0.038 A 
HETATM   16  C2  UNL     1     108.400 126.855 185.575  1.00  0.00     0.069 A 
HETATM   17  O2  UNL     1     111.602 123.181 184.038  1.00  0.00    -0.287 OA
BRANCH  16  18
HETATM   18  O1  UNL     1     107.465 127.753 186.035  1.00  0.00    -0.356 OA
HETATM   19  C1  UNL     1     107.809 129.094 186.319  1.00  0.00     0.210 C 
ENDBRANCH  16  18
ENDBRANCH   7   8
ENDBRANCH   1   7
BRANCH   4  20
HETATM   20  C14 UNL     1     116.894 128.257 179.573  1.00  0.00     0.311 C 
BRANCH  20  21
HETATM   21  C15 UNL     1     117.383 127.666 178.313  1.00  0.00    -0.030 A 
HETATM   22  C16 UNL     1     118.467 126.818 178.267  1.00  0.00     0.009 A 
HETATM   23  C17 UNL     1     118.903 126.278 177.051  1.00  0.00     0.001 A 
HETATM   24  C18 UNL     1     118.264 126.576 175.873  1.00  0.00     0.000 A 
HETATM   25  C19 UNL     1     117.184 127.420 175.909  1.00  0.00     0.001 A 
HETATM   26  C20 UNL     1     116.773 127.939 177.113  1.00  0.00     0.009 A 
ENDBRANCH  20  21
ENDBRANCH   4  20
TORSDOF 5
ENDMDL
