MODEL 4
REMARK VINA RESULT: -12.655295618      2.327      6.317
REMARK  1 active torsions:
REMARK  status: ('A' for Active; 'I' for Inactive)
REMARK    1  A    between atoms: O1_1  and  C1_3 
ROOT
HETATM    1  C1  UNL     1      11.787 -30.001   9.312  1.00  0.00     0.076 A 
HETATM    2  C2  UNL     1      12.383 -28.935   8.660  1.00  0.00     0.038 A 
HETATM    3  C3  UNL     1      12.857 -29.105   7.398  1.00  0.00     0.015 A 
HETATM    4  C4  UNL     1      12.742 -30.338   6.770  1.00  0.00    -0.024 A 
HETATM    5  C5  UNL     1      13.228 -30.483   5.496  1.00  0.00     0.013 A 
HETATM    6  C6  UNL     1      13.115 -31.716   4.862  1.00  0.00     0.014 A 
HETATM    7  C7  UNL     1      12.536 -32.804   5.454  1.00  0.00    -0.013 A 
HETATM    8  C8  UNL     1      12.422 -34.027   4.829  1.00  0.00    -0.015 A 
HETATM    9  C9  UNL     1      12.900 -34.212   3.548  1.00  0.00     0.013 A 
HETATM   10  C10 UNL     1      12.779 -35.442   2.935  1.00  0.00     0.001 A 
HETATM   11  C11 UNL     1      12.177 -36.527   3.583  1.00  0.00     0.001 A 
HETATM   12  C12 UNL     1      11.722 -36.294   4.850  1.00  0.00     0.012 A 
HETATM   13  C13 UNL     1      11.817 -35.094   5.502  1.00  0.00    -0.024 A 
HETATM   14  C14 UNL     1      11.339 -34.915   6.780  1.00  0.00     0.024 A 
HETATM   15  C15 UNL     1      11.457 -33.684   7.399  1.00  0.00    -0.023 A 
HETATM   16  C16 UNL     1      10.975 -33.514   8.682  1.00  0.00     0.013 A 
HETATM   17  C17 UNL     1      11.080 -32.287   9.332  1.00  0.00     0.016 A 
HETATM   18  C18 UNL     1      11.675 -31.223   8.683  1.00  0.00     0.009 A 
HETATM   19  C19 UNL     1      12.153 -31.406   7.401  1.00  0.00    -0.001 A 
HETATM   20  C20 UNL     1      12.054 -32.615   6.751  1.00  0.00    -0.003 A 
ENDROOT
BRANCH   1  21
HETATM   21  O1  UNL     1      11.334 -29.743  10.588  1.00  0.00    -0.360 OA
ATOM     22  H1  UNL     1      10.607 -30.278  10.883  1.00  0.00     0.217 HD
ENDBRANCH   1  21
TORSDOF 1
ENDMDL
