MODEL 2
REMARK VINA RESULT: -12.727701350      2.248      5.642
REMARK  1 active torsions:
REMARK  status: ('A' for Active; 'I' for Inactive)
REMARK    1  A    between atoms: O1_1  and  C1_3 
ROOT
HETATM    1  C1  UNL     1      12.087 -29.632   8.974  1.00  0.00     0.076 A 
HETATM    2  C2  UNL     1      11.441 -30.211  10.053  1.00  0.00     0.038 A 
HETATM    3  C3  UNL     1      11.058 -31.513   9.981  1.00  0.00     0.015 A 
HETATM    4  C4  UNL     1      11.315 -32.254   8.835  1.00  0.00    -0.024 A 
HETATM    5  C5  UNL     1      10.920 -33.566   8.789  1.00  0.00     0.013 A 
HETATM    6  C6  UNL     1      11.175 -34.312   7.642  1.00  0.00     0.014 A 
HETATM    7  C7  UNL     1      11.809 -33.795   6.548  1.00  0.00    -0.013 A 
HETATM    8  C8  UNL     1      12.064 -34.532   5.411  1.00  0.00    -0.015 A 
HETATM    9  C9  UNL     1      11.680 -35.855   5.326  1.00  0.00     0.013 A 
HETATM   10  C10 UNL     1      11.942 -36.579   4.182  1.00  0.00     0.001 A 
HETATM   11  C11 UNL     1      12.596 -36.006   3.085  1.00  0.00     0.001 A 
HETATM   12  C12 UNL     1      12.954 -34.694   3.217  1.00  0.00     0.012 A 
HETATM   13  C13 UNL     1      12.718 -33.931   4.330  1.00  0.00    -0.024 A 
HETATM   14  C14 UNL     1      13.103 -32.612   4.409  1.00  0.00     0.024 A 
HETATM   15  C15 UNL     1      12.843 -31.881   5.553  1.00  0.00    -0.023 A 
HETATM   16  C16 UNL     1      13.233 -30.558   5.623  1.00  0.00     0.013 A 
HETATM   17  C17 UNL     1      12.985 -29.796   6.763  1.00  0.00     0.016 A 
HETATM   18  C18 UNL     1      12.340 -30.373   7.839  1.00  0.00     0.009 A 
HETATM   19  C19 UNL     1      11.956 -31.695   7.756  1.00  0.00    -0.001 A 
HETATM   20  C20 UNL     1      12.196 -32.457   6.635  1.00  0.00    -0.003 A 
ENDROOT
BRANCH   1  21
HETATM   21  O1  UNL     1      12.440 -28.309   9.130  1.00  0.00    -0.360 OA
ATOM     22  H1  UNL     1      11.770 -27.675   8.903  1.00  0.00     0.217 HD
ENDBRANCH   1  21
TORSDOF 1
ENDMDL
