MODEL 6
REMARK VINA RESULT: -10.476517651      2.163      6.540
REMARK  1 active torsions:
REMARK  status: ('A' for Active; 'I' for Inactive)
REMARK    1  A    between atoms: O1_1  and  C1_3 
ROOT
HETATM    1  C1  UNL     1      11.745 -30.967   7.539  1.00  0.00     0.076 A 
HETATM    2  C2  UNL     1      12.468 -30.115   6.721  1.00  0.00     0.038 A 
HETATM    3  C3  UNL     1      13.029 -30.600   5.583  1.00  0.00     0.015 A 
HETATM    4  C4  UNL     1      12.876 -31.938   5.245  1.00  0.00    -0.024 A 
HETATM    5  C5  UNL     1      13.452 -32.402   4.090  1.00  0.00     0.013 A 
HETATM    6  C6  UNL     1      13.302 -33.742   3.747  1.00  0.00     0.014 A 
HETATM    7  C7  UNL     1      12.600 -34.629   4.513  1.00  0.00    -0.013 A 
HETATM    8  C8  UNL     1      12.448 -35.957   4.175  1.00  0.00    -0.015 A 
HETATM    9  C9  UNL     1      13.013 -36.461   3.022  1.00  0.00     0.013 A 
HETATM   10  C10 UNL     1      12.853 -37.792   2.698  1.00  0.00     0.001 A 
HETATM   11  C11 UNL     1      12.124 -38.663   3.515  1.00  0.00     0.001 A 
HETATM   12  C12 UNL     1      11.585 -38.117   4.646  1.00  0.00     0.012 A 
HETATM   13  C13 UNL     1      11.714 -36.804   5.013  1.00  0.00    -0.024 A 
HETATM   14  C14 UNL     1      11.148 -36.306   6.165  1.00  0.00     0.024 A 
HETATM   15  C15 UNL     1      11.305 -34.973   6.495  1.00  0.00    -0.023 A 
HETATM   16  C16 UNL     1      10.733 -34.483   7.653  1.00  0.00     0.013 A 
HETATM   17  C17 UNL     1      10.874 -33.144   8.012  1.00  0.00     0.016 A 
HETATM   18  C18 UNL     1      11.596 -32.294   7.198  1.00  0.00     0.009 A 
HETATM   19  C19 UNL     1      12.162 -32.797   6.044  1.00  0.00    -0.001 A 
HETATM   20  C20 UNL     1      12.029 -34.118   5.680  1.00  0.00    -0.003 A 
ENDROOT
BRANCH   1  21
HETATM   21  O1  UNL     1      11.210 -30.394   8.673  1.00  0.00    -0.360 OA
ATOM     22  H1  UNL     1      10.288 -30.170   8.625  1.00  0.00     0.217 HD
ENDBRANCH   1  21
TORSDOF 1
ENDMDL
