MODEL 1
REMARK VINA RESULT: -13.060125439      0.000      0.000
REMARK  1 active torsions:
REMARK  status: ('A' for Active; 'I' for Inactive)
REMARK    1  A    between atoms: O1_1  and  C1_3 
ROOT
HETATM    1  C1  UNL     1      12.275 -35.345   4.018  1.00  0.00     0.076 A 
HETATM    2  C2  UNL     1      11.619 -36.372   4.676  1.00  0.00     0.038 A 
HETATM    3  C3  UNL     1      11.124 -36.155   5.923  1.00  0.00     0.015 A 
HETATM    4  C4  UNL     1      11.276 -34.915   6.529  1.00  0.00    -0.024 A 
HETATM    5  C5  UNL     1      10.767 -34.723   7.787  1.00  0.00     0.013 A 
HETATM    6  C6  UNL     1      10.917 -33.482   8.398  1.00  0.00     0.014 A 
HETATM    7  C7  UNL     1      11.553 -32.432   7.798  1.00  0.00    -0.013 A 
HETATM    8  C8  UNL     1      11.703 -31.201   8.400  1.00  0.00    -0.015 A 
HETATM    9  C9  UNL     1      11.205 -30.969   9.666  1.00  0.00     0.013 A 
HETATM   10  C10 UNL     1      11.363 -29.732  10.256  1.00  0.00     0.001 A 
HETATM   11  C11 UNL     1      12.023 -28.687   9.600  1.00  0.00     0.001 A 
HETATM   12  C12 UNL     1      12.499 -28.966   8.350  1.00  0.00     0.012 A 
HETATM   13  C13 UNL     1      12.369 -30.175   7.721  1.00  0.00    -0.024 A 
HETATM   14  C14 UNL     1      12.868 -30.401   6.458  1.00  0.00     0.024 A 
HETATM   15  C15 UNL     1      12.713 -31.638   5.862  1.00  0.00    -0.023 A 
HETATM   16  C16 UNL     1      13.217 -31.856   4.594  1.00  0.00     0.013 A 
HETATM   17  C17 UNL     1      13.076 -33.092   3.968  1.00  0.00     0.016 A 
HETATM   18  C18 UNL     1      12.423 -34.116   4.624  1.00  0.00     0.009 A 
HETATM   19  C19 UNL     1      11.924 -33.886   5.890  1.00  0.00    -0.001 A 
HETATM   20  C20 UNL     1      12.057 -32.668   6.518  1.00  0.00    -0.003 A 
ENDROOT
BRANCH   1  21
HETATM   21  O1  UNL     1      12.746 -35.649   2.758  1.00  0.00    -0.360 OA
ATOM     22  H1  UNL     1      12.917 -36.569   2.594  1.00  0.00     0.217 HD
ENDBRANCH   1  21
TORSDOF 1
ENDMDL
