MODEL 1
REMARK VINA RESULT: -4.487847440      0.000      0.000
REMARK  6 active torsions:
REMARK  status: ('A' for Active; 'I' for Inactive)
REMARK       I    between atoms: C2_2  and  N1_4 
REMARK    1  A    between atoms: N1_4  and  C3_6 
REMARK    2  A    between atoms: C4_7  and  O2_8 
REMARK    3  A    between atoms: C5_11  and  C6_12 
REMARK    4  A    between atoms: C6_12  and  O4_13 
REMARK    5  A    between atoms: C7_15  and  O5_16 
REMARK    6  A    between atoms: C8_18  and  O6_19 
ROOT
HETATM    1  C3  UNL     1     -46.989 -16.928   5.314  1.00  0.00     0.170 C 
HETATM    2  C4  UNL     1     -46.892 -18.308   4.685  1.00  0.00     0.282 C 
HETATM    3  O3  UNL     1     -45.587 -18.747   4.567  1.00  0.00    -0.349 OA
HETATM    4  C5  UNL     1     -44.890 -18.818   5.737  1.00  0.00     0.179 C 
HETATM    5  C7  UNL     1     -45.538 -18.073   6.883  1.00  0.00     0.180 C 
HETATM    6  C8  UNL     1     -45.897 -16.692   6.320  1.00  0.00     0.177 C 
ENDROOT
BRANCH   1   7
HETATM    7  N1  UNL     1     -47.010 -15.916   4.274  1.00  0.00    -0.349 N 
HETATM    8  C2  UNL     1     -47.712 -14.700   4.364  1.00  0.00     0.214 C 
HETATM    9  C1  UNL     1     -47.735 -13.663   3.303  1.00  0.00     0.117 C 
HETATM   10  O1  UNL     1     -48.369 -14.467   5.411  1.00  0.00    -0.274 OA
ATOM     11  H1  UNL     1     -46.481 -16.098   3.422  1.00  0.00     0.163 HD
ENDBRANCH   1   7
BRANCH   2  12
HETATM   12  O2  UNL     1     -47.719 -19.225   5.339  1.00  0.00    -0.369 OA
ATOM     13  H2  UNL     1     -48.547 -19.331   4.885  1.00  0.00     0.212 HD
ENDBRANCH   2  12
BRANCH   6  14
HETATM   14  O6  UNL     1     -46.240 -15.816   7.322  1.00  0.00    -0.391 OA
ATOM     15  H6  UNL     1     -46.243 -16.203   8.189  1.00  0.00     0.210 HD
ENDBRANCH   6  14
BRANCH   5  16
HETATM   16  O5  UNL     1     -44.655 -17.978   7.936  1.00  0.00    -0.390 OA
ATOM     17  H5  UNL     1     -44.016 -17.296   7.759  1.00  0.00     0.210 HD
ENDBRANCH   5  16
BRANCH   4  18
HETATM   18  C6  UNL     1     -44.541 -20.243   6.120  1.00  0.00     0.198 C 
BRANCH  18  19
HETATM   19  O4  UNL     1     -45.524 -20.812   6.891  1.00  0.00    -0.398 OA
ATOM     20  H4  UNL     1     -45.934 -20.172   7.460  1.00  0.00     0.209 HD
ENDBRANCH  18  19
ENDBRANCH   4  18
TORSDOF 6
ENDMDL
