MODEL 4
REMARK VINA RESULT: -4.141722297      5.535      6.903
REMARK  6 active torsions:
REMARK  status: ('A' for Active; 'I' for Inactive)
REMARK       I    between atoms: C2_2  and  N1_4 
REMARK    1  A    between atoms: N1_4  and  C3_6 
REMARK    2  A    between atoms: C4_7  and  O2_8 
REMARK    3  A    between atoms: C5_11  and  C6_12 
REMARK    4  A    between atoms: C6_12  and  O4_13 
REMARK    5  A    between atoms: C7_15  and  O5_16 
REMARK    6  A    between atoms: C8_18  and  O6_19 
ROOT
HETATM    1  C3  UNL     1     -48.005 -21.027   9.242  1.00  0.00     0.170 C 
HETATM    2  C4  UNL     1     -49.092 -21.969   9.734  1.00  0.00     0.282 C 
HETATM    3  O3  UNL     1     -48.793 -22.526  10.963  1.00  0.00    -0.349 OA
HETATM    4  C5  UNL     1     -48.586 -21.633  11.972  1.00  0.00     0.179 C 
HETATM    5  C7  UNL     1     -48.364 -20.214  11.498  1.00  0.00     0.180 C 
HETATM    6  C8  UNL     1     -47.321 -20.317  10.377  1.00  0.00     0.177 C 
ENDROOT
BRANCH   1   7
HETATM    7  N1  UNL     1     -47.071 -21.752   8.402  1.00  0.00    -0.349 N 
HETATM    8  C2  UNL     1     -46.758 -21.402   7.076  1.00  0.00     0.214 C 
HETATM    9  C1  UNL     1     -45.803 -22.141   6.214  1.00  0.00     0.117 C 
HETATM   10  O1  UNL     1     -47.322 -20.393   6.577  1.00  0.00    -0.274 OA
ATOM     11  H1  UNL     1     -46.610 -22.571   8.799  1.00  0.00     0.163 HD
ENDBRANCH   1   7
BRANCH   2  12
HETATM   12  O2  UNL     1     -50.347 -21.358   9.703  1.00  0.00    -0.369 OA
ATOM     13  H2  UNL     1     -50.586 -21.013  10.556  1.00  0.00     0.212 HD
ENDBRANCH   2  12
BRANCH   6  14
HETATM   14  O6  UNL     1     -46.820 -19.081  10.043  1.00  0.00    -0.391 OA
ATOM     15  H6  UNL     1     -46.032 -18.843  10.517  1.00  0.00     0.210 HD
ENDBRANCH   6  14
BRANCH   5  16
HETATM   16  O5  UNL     1     -47.910 -19.439  12.543  1.00  0.00    -0.390 OA
ATOM     17  H5  UNL     1     -48.573 -18.801  12.782  1.00  0.00     0.210 HD
ENDBRANCH   5  16
BRANCH   4  18
HETATM   18  C6  UNL     1     -49.657 -21.705  13.042  1.00  0.00     0.198 C 
BRANCH  18  19
HETATM   19  O4  UNL     1     -50.676 -20.818  12.796  1.00  0.00    -0.398 OA
ATOM     20  H4  UNL     1     -51.505 -21.138  13.132  1.00  0.00     0.209 HD
ENDBRANCH  18  19
ENDBRANCH   4  18
TORSDOF 6
ENDMDL
