MODEL 2
REMARK VINA RESULT: -4.301827906      7.063      8.032
REMARK  6 active torsions:
REMARK  status: ('A' for Active; 'I' for Inactive)
REMARK       I    between atoms: C2_2  and  N1_4 
REMARK    1  A    between atoms: N1_4  and  C3_6 
REMARK    2  A    between atoms: C4_7  and  O2_8 
REMARK    3  A    between atoms: C5_11  and  C6_12 
REMARK    4  A    between atoms: C6_12  and  O4_13 
REMARK    5  A    between atoms: C7_15  and  O5_16 
REMARK    6  A    between atoms: C8_18  and  O6_19 
ROOT
HETATM    1  C3  UNL     1     -50.300 -21.182  11.755  1.00  0.00     0.170 C 
HETATM    2  C4  UNL     1     -50.482 -22.094  10.554  1.00  0.00     0.282 C 
HETATM    3  O3  UNL     1     -49.827 -21.628   9.430  1.00  0.00    -0.349 OA
HETATM    4  C5  UNL     1     -48.481 -21.456   9.571  1.00  0.00     0.179 C 
HETATM    5  C7  UNL     1     -48.010 -21.458  11.007  1.00  0.00     0.180 C 
HETATM    6  C8  UNL     1     -48.958 -20.504  11.748  1.00  0.00     0.177 C 
ENDROOT
BRANCH   1   7
HETATM    7  N1  UNL     1     -51.396 -20.233  11.821  1.00  0.00    -0.349 N 
HETATM    8  C2  UNL     1     -52.584 -20.441  12.544  1.00  0.00     0.214 C 
HETATM    9  C1  UNL     1     -53.706 -19.473  12.613  1.00  0.00     0.117 C 
HETATM   10  O1  UNL     1     -52.714 -21.520  13.179  1.00  0.00    -0.274 OA
ATOM     11  H1  UNL     1     -51.298 -19.357  11.309  1.00  0.00     0.163 HD
ENDBRANCH   1   7
BRANCH   2  12
HETATM   12  O2  UNL     1     -50.156 -23.417  10.866  1.00  0.00    -0.369 OA
ATOM     13  H2  UNL     1     -50.522 -24.022  10.231  1.00  0.00     0.212 HD
ENDBRANCH   2  12
BRANCH   6  14
HETATM   14  O6  UNL     1     -48.480 -20.195  13.000  1.00  0.00    -0.391 OA
ATOM     15  H6  UNL     1     -47.919 -19.429  13.021  1.00  0.00     0.210 HD
ENDBRANCH   6  14
BRANCH   5  16
HETATM   16  O5  UNL     1     -46.704 -21.024  11.070  1.00  0.00    -0.390 OA
ATOM     17  H5  UNL     1     -46.152 -21.588  10.540  1.00  0.00     0.210 HD
ENDBRANCH   5  16
BRANCH   4  18
HETATM   18  C6  UNL     1     -47.680 -22.419   8.717  1.00  0.00     0.198 C 
BRANCH  18  19
HETATM   19  O4  UNL     1     -46.423 -21.933   8.454  1.00  0.00    -0.398 OA
ATOM     20  H4  UNL     1     -45.987 -22.440   7.779  1.00  0.00     0.209 HD
ENDBRANCH  18  19
ENDBRANCH   4  18
TORSDOF 6
ENDMDL
