MODEL 2
REMARK VINA RESULT: -6.957625172      1.684      7.171
REMARK  4 active torsions:
REMARK  status: ('A' for Active; 'I' for Inactive)
REMARK    1  A    between atoms: C3_4  and  C4_5 
REMARK    2  A    between atoms: C8_10  and  O3_11 
REMARK    3  A    between atoms: C10_14  and  O4_15 
REMARK    4  A    between atoms: C15_22  and  O6_23 
ROOT
HETATM    1  C4  UNL     1      14.379 -39.824 -43.314  1.00  0.00     0.086 A 
HETATM    2  C5  UNL     1      13.292 -39.023 -43.183  1.00  0.00     0.093 A 
HETATM    3  C6  UNL     1      12.995 -38.444 -41.936  1.00  0.00     0.190 A 
HETATM    4  O2  UNL     1      11.994 -37.715 -41.845  1.00  0.00    -0.287 OA
HETATM    5  C7  UNL     1      13.845 -38.730 -40.894  1.00  0.00     0.081 A 
HETATM    6  C8  UNL     1      13.646 -38.215 -39.631  1.00  0.00     0.085 A 
HETATM    7  C9  UNL     1      14.547 -38.538 -38.590  1.00  0.00     0.074 A 
HETATM    8  C10 UNL     1      15.623 -39.347 -38.777  1.00  0.00     0.071 A 
HETATM    9  C11 UNL     1      15.828 -39.864 -40.029  1.00  0.00     0.075 A 
HETATM   10  C12 UNL     1      14.946 -39.556 -41.074  1.00  0.00     0.095 A 
HETATM   11  O5  UNL     1      15.156 -40.057 -42.267  1.00  0.00    -0.309 OA
ENDROOT
BRANCH   1  12
HETATM   12  C3  UNL     1      14.713 -40.443 -44.611  1.00  0.00    -0.017 A 
HETATM   13  C2  UNL     1      13.839 -40.708 -45.549  1.00  0.00     0.068 A 
HETATM   14  C1  UNL     1      14.136 -41.317 -46.835  1.00  0.00     0.205 A 
HETATM   15  O1  UNL     1      13.245 -41.546 -47.700  1.00  0.00    -0.285 OA
HETATM   16  C15 UNL     1      15.520 -41.667 -47.118  1.00  0.00     0.112 A 
HETATM   17  C14 UNL     1      16.398 -41.401 -46.174  1.00  0.00     0.018 A 
HETATM   18  C13 UNL     1      16.148 -40.797 -44.882  1.00  0.00     0.071 A 
BRANCH  16  19
HETATM   19  O6  UNL     1      15.875 -42.252 -48.326  1.00  0.00    -0.357 OA
ATOM     20  H6  UNL     1      16.760 -42.564 -48.476  1.00  0.00     0.217 HD
ENDBRANCH  16  19
ENDBRANCH   1  12
BRANCH   6  21
HETATM   21  O3  UNL     1      12.595 -37.398 -39.357  1.00  0.00    -0.360 OA
ATOM     22  H3  UNL     1      11.810 -37.727 -38.937  1.00  0.00     0.217 HD
ENDBRANCH   6  21
BRANCH   8  23
HETATM   23  O4  UNL     1      16.507 -39.655 -37.725  1.00  0.00    -0.361 OA
ATOM     24  H4  UNL     1      16.238 -39.597 -36.816  1.00  0.00     0.217 HD
ENDBRANCH   8  23
TORSDOF 4
ENDMDL
