MODEL 3
REMARK VINA RESULT: -6.903550971      2.823      3.857
REMARK  4 active torsions:
REMARK  status: ('A' for Active; 'I' for Inactive)
REMARK    1  A    between atoms: C3_4  and  C4_5 
REMARK    2  A    between atoms: C8_10  and  O3_11 
REMARK    3  A    between atoms: C10_14  and  O4_15 
REMARK    4  A    between atoms: C15_22  and  O6_23 
ROOT
HETATM    1  C4  UNL     1      13.351 -41.165 -41.482  1.00  0.00     0.086 A 
HETATM    2  C5  UNL     1      12.548 -40.948 -42.553  1.00  0.00     0.093 A 
HETATM    3  C6  UNL     1      12.240 -42.009 -43.425  1.00  0.00     0.190 A 
HETATM    4  O2  UNL     1      11.503 -41.782 -44.396  1.00  0.00    -0.287 OA
HETATM    5  C7  UNL     1      12.786 -43.237 -43.133  1.00  0.00     0.081 A 
HETATM    6  C8  UNL     1      12.549 -44.344 -43.920  1.00  0.00     0.085 A 
HETATM    7  C9  UNL     1      13.132 -45.585 -43.580  1.00  0.00     0.074 A 
HETATM    8  C10 UNL     1      13.931 -45.747 -42.492  1.00  0.00     0.071 A 
HETATM    9  C11 UNL     1      14.172 -44.652 -41.704  1.00  0.00     0.075 A 
HETATM   10  C12 UNL     1      13.603 -43.412 -42.025  1.00  0.00     0.095 A 
HETATM   11  O5  UNL     1      13.842 -42.374 -41.261  1.00  0.00    -0.309 OA
ENDROOT
BRANCH   1  12
HETATM   12  C3  UNL     1      13.688 -40.068 -40.553  1.00  0.00    -0.017 A 
HETATM   13  C2  UNL     1      14.651 -40.121 -39.668  1.00  0.00     0.068 A 
HETATM   14  C1  UNL     1      15.006 -39.060 -38.740  1.00  0.00     0.205 A 
HETATM   15  O1  UNL     1      15.950 -39.173 -37.908  1.00  0.00    -0.285 OA
HETATM   16  C15 UNL     1      14.235 -37.827 -38.789  1.00  0.00     0.112 A 
HETATM   17  C14 UNL     1      13.266 -37.775 -39.680  1.00  0.00     0.018 A 
HETATM   18  C13 UNL     1      12.878 -38.804 -40.621  1.00  0.00     0.071 A 
BRANCH  16  19
HETATM   19  O6  UNL     1      14.520 -36.773 -37.932  1.00  0.00    -0.357 OA
ATOM     20  H6  UNL     1      15.258 -36.815 -37.335  1.00  0.00     0.217 HD
ENDBRANCH  16  19
ENDBRANCH   1  12
BRANCH   6  21
HETATM   21  O3  UNL     1      11.762 -44.270 -45.026  1.00  0.00    -0.360 OA
ATOM     22  H3  UNL     1      11.116 -44.938 -45.218  1.00  0.00     0.217 HD
ENDBRANCH   6  21
BRANCH   8  23
HETATM   23  O4  UNL     1      14.501 -46.995 -42.173  1.00  0.00    -0.361 OA
ATOM     24  H4  UNL     1      14.269 -47.784 -42.649  1.00  0.00     0.217 HD
ENDBRANCH   8  23
TORSDOF 4
ENDMDL
