MODEL 1
REMARK VINA RESULT: -6.991286240      0.000      0.000
REMARK  4 active torsions:
REMARK  status: ('A' for Active; 'I' for Inactive)
REMARK    1  A    between atoms: C3_4  and  C4_5 
REMARK    2  A    between atoms: C8_10  and  O3_11 
REMARK    3  A    between atoms: C10_14  and  O4_15 
REMARK    4  A    between atoms: C15_22  and  O6_23 
ROOT
HETATM    1  C4  UNL     1      13.873 -40.582 -42.821  1.00  0.00     0.086 A 
HETATM    2  C5  UNL     1      13.176 -41.729 -43.009  1.00  0.00     0.093 A 
HETATM    3  C6  UNL     1      13.048 -42.268 -44.303  1.00  0.00     0.190 A 
HETATM    4  O2  UNL     1      12.405 -43.319 -44.446  1.00  0.00    -0.287 OA
HETATM    5  C7  UNL     1      13.653 -41.581 -45.329  1.00  0.00     0.081 A 
HETATM    6  C8  UNL     1      13.591 -42.019 -46.634  1.00  0.00     0.085 A 
HETATM    7  C9  UNL     1      14.228 -41.279 -47.656  1.00  0.00     0.074 A 
HETATM    8  C10 UNL     1      14.916 -40.132 -47.410  1.00  0.00     0.071 A 
HETATM    9  C11 UNL     1      14.983 -39.689 -46.115  1.00  0.00     0.075 A 
HETATM   10  C12 UNL     1      14.357 -40.409 -45.089  1.00  0.00     0.095 A 
HETATM   11  O5  UNL     1      14.431 -39.972 -43.855  1.00  0.00    -0.309 OA
ENDROOT
BRANCH   1  12
HETATM   12  C3  UNL     1      14.022 -39.998 -41.473  1.00  0.00    -0.017 A 
HETATM   13  C2  UNL     1      14.838 -40.454 -40.557  1.00  0.00     0.068 A 
HETATM   14  C1  UNL     1      15.006 -39.901 -39.223  1.00  0.00     0.205 A 
HETATM   15  O1  UNL     1      15.814 -40.389 -38.383  1.00  0.00    -0.285 OA
HETATM   16  C15 UNL     1      14.205 -38.742 -38.861  1.00  0.00     0.112 A 
HETATM   17  C14 UNL     1      13.384 -38.284 -39.783  1.00  0.00     0.018 A 
HETATM   18  C13 UNL     1      13.184 -38.800 -41.121  1.00  0.00     0.071 A 
BRANCH  16  19
HETATM   19  O6  UNL     1      14.315 -38.164 -37.604  1.00  0.00    -0.357 OA
ATOM     20  H6  UNL     1      13.586 -38.177 -36.995  1.00  0.00     0.217 HD
ENDBRANCH  16  19
ENDBRANCH   1  12
BRANCH   6  21
HETATM   21  O3  UNL     1      12.924 -43.156 -46.967  1.00  0.00    -0.360 OA
ATOM     22  H3  UNL     1      12.402 -43.208 -47.760  1.00  0.00     0.217 HD
ENDBRANCH   6  21
BRANCH   8  23
HETATM   23  O4  UNL     1      15.544 -39.412 -48.445  1.00  0.00    -0.361 OA
ATOM     24  H4  UNL     1      15.569 -38.462 -48.447  1.00  0.00     0.217 HD
ENDBRANCH   8  23
TORSDOF 4
ENDMDL
