MODEL 14
REMARK VINA RESULT: -5.805834032      1.628      4.837
REMARK  5 active torsions:
REMARK  status: ('A' for Active; 'I' for Inactive)
REMARK    1  A    between atoms: C3_6  and  O2_7 
REMARK    2  A    between atoms: C4_9  and  O3_10 
REMARK    3  A    between atoms: C5_12  and  O4_13 
REMARK    4  A    between atoms: C6_15  and  C7_16 
REMARK    5  A    between atoms: C7_16  and  O5_17 
ROOT
HETATM    1  O1  UNL     1      21.892  18.548  46.271  1.00  0.00    -0.262 OA
HETATM    2  C1  UNL     1      22.943  18.605  45.576  1.00  0.00     0.311 C 
HETATM    3  N1  UNL     1      23.133  19.135  44.271  1.00  0.00    -0.329 N 
ATOM      4  H1  UNL     1      22.411  19.281  43.566  1.00  0.00     0.165 HD
HETATM    5  C2  UNL     1      24.520  19.424  44.131  1.00  0.00     0.222 C 
HETATM    6  C3  UNL     1      25.052  19.260  42.730  1.00  0.00     0.192 C 
HETATM    7  C4  UNL     1      26.478  19.775  42.790  1.00  0.00     0.181 C 
HETATM    8  C5  UNL     1      27.247  18.929  43.746  1.00  0.00     0.174 C 
HETATM    9  C6  UNL     1      26.431  17.895  44.470  1.00  0.00     0.144 C 
HETATM   10  N2  UNL     1      25.164  18.366  44.926  1.00  0.00    -0.311 N 
HETATM   11  C8  UNL     1      24.268  18.113  45.982  1.00  0.00     0.313 C 
HETATM   12  O6  UNL     1      24.600  17.559  47.064  1.00  0.00    -0.262 OA
ENDROOT
BRANCH   9  13
HETATM   13  C7  UNL     1      27.297  17.368  45.610  1.00  0.00     0.192 C 
BRANCH  13  14
HETATM   14  O5  UNL     1      27.846  16.131  45.278  1.00  0.00    -0.399 OA
ATOM     15  H5  UNL     1      27.390  15.750  44.538  1.00  0.00     0.209 HD
ENDBRANCH  13  14
ENDBRANCH   9  13
BRANCH   8  16
HETATM   16  O4  UNL     1      28.253  18.272  43.000  1.00  0.00    -0.391 OA
ATOM     17  H4  UNL     1      28.514  18.862  42.304  1.00  0.00     0.210 HD
ENDBRANCH   8  16
BRANCH   7  18
HETATM   18  O3  UNL     1      26.384  21.095  43.288  1.00  0.00    -0.390 OA
ATOM     19  H3  UNL     1      27.182  21.238  43.784  1.00  0.00     0.210 HD
ENDBRANCH   7  18
BRANCH   6  20
HETATM   20  O2  UNL     1      24.304  19.985  41.793  1.00  0.00    -0.389 OA
ATOM     21  H2  UNL     1      23.551  19.497  41.480  1.00  0.00     0.210 HD
ENDBRANCH   6  20
TORSDOF 5
ENDMDL
