MODEL 17
REMARK VINA RESULT: -5.713522451      1.531      4.144
REMARK  5 active torsions:
REMARK  status: ('A' for Active; 'I' for Inactive)
REMARK    1  A    between atoms: C3_6  and  O2_7 
REMARK    2  A    between atoms: C4_9  and  O3_10 
REMARK    3  A    between atoms: C5_12  and  O4_13 
REMARK    4  A    between atoms: C6_15  and  C7_16 
REMARK    5  A    between atoms: C7_16  and  O5_17 
ROOT
HETATM    1  O1  UNL     1      26.855  16.263  47.187  1.00  0.00    -0.262 OA
HETATM    2  C1  UNL     1      26.658  17.145  46.308  1.00  0.00     0.311 C 
HETATM    3  N1  UNL     1      27.535  17.619  45.294  1.00  0.00    -0.329 N 
ATOM      4  H1  UNL     1      28.552  17.549  45.293  1.00  0.00     0.165 HD
HETATM    5  C2  UNL     1      26.728  18.209  44.281  1.00  0.00     0.222 C 
HETATM    6  C3  UNL     1      27.376  19.367  43.565  1.00  0.00     0.192 C 
HETATM    7  C4  UNL     1      26.418  19.717  42.441  1.00  0.00     0.181 C 
HETATM    8  C5  UNL     1      25.118  20.133  43.039  1.00  0.00     0.174 C 
HETATM    9  C6  UNL     1      25.040  19.997  44.535  1.00  0.00     0.144 C 
HETATM   10  N2  UNL     1      25.609  18.791  45.041  1.00  0.00    -0.311 N 
HETATM   11  C8  UNL     1      25.419  17.915  46.128  1.00  0.00     0.313 C 
HETATM   12  O6  UNL     1      24.351  17.846  46.791  1.00  0.00    -0.262 OA
ENDROOT
BRANCH   9  13
HETATM   13  C7  UNL     1      23.571  20.149  44.916  1.00  0.00     0.192 C 
BRANCH  13  14
HETATM   14  O5  UNL     1      22.747  19.743  43.869  1.00  0.00    -0.399 OA
ATOM     15  H5  UNL     1      23.179  19.086  43.337  1.00  0.00     0.209 HD
ENDBRANCH  13  14
ENDBRANCH   9  13
BRANCH   8  16
HETATM   16  O4  UNL     1      24.919  21.491  42.698  1.00  0.00    -0.391 OA
ATOM     17  H4  UNL     1      25.779  21.888  42.628  1.00  0.00     0.210 HD
ENDBRANCH   8  16
BRANCH   7  18
HETATM   18  O3  UNL     1      26.245  18.524  41.703  1.00  0.00    -0.390 OA
ATOM     19  H3  UNL     1      25.716  18.764  40.951  1.00  0.00     0.210 HD
ENDBRANCH   7  18
BRANCH   6  20
HETATM   20  O2  UNL     1      28.636  19.032  43.053  1.00  0.00    -0.389 OA
ATOM     21  H2  UNL     1      28.597  18.285  42.466  1.00  0.00     0.210 HD
ENDBRANCH   6  20
TORSDOF 5
ENDMDL
