MODEL 16
REMARK VINA RESULT: -5.758973031      3.949      6.956
REMARK  5 active torsions:
REMARK  status: ('A' for Active; 'I' for Inactive)
REMARK    1  A    between atoms: C3_6  and  O2_7 
REMARK    2  A    between atoms: C4_9  and  O3_10 
REMARK    3  A    between atoms: C5_12  and  O4_13 
REMARK    4  A    between atoms: C6_15  and  C7_16 
REMARK    5  A    between atoms: C7_16  and  O5_17 
ROOT
HETATM    1  O1  UNL     1      24.379  20.132  43.700  1.00  0.00    -0.262 OA
HETATM    2  C1  UNL     1      25.090  19.697  42.754  1.00  0.00     0.311 C 
HETATM    3  N1  UNL     1      24.690  19.148  41.505  1.00  0.00    -0.329 N 
ATOM      4  H1  UNL     1      23.781  18.739  41.287  1.00  0.00     0.165 HD
HETATM    5  C2  UNL     1      25.794  19.275  40.617  1.00  0.00     0.222 C 
HETATM    6  C3  UNL     1      25.898  18.174  39.591  1.00  0.00     0.192 C 
HETATM    7  C4  UNL     1      27.024  18.603  38.669  1.00  0.00     0.181 C 
HETATM    8  C5  UNL     1      28.280  18.697  39.467  1.00  0.00     0.174 C 
HETATM    9  C6  UNL     1      28.107  18.468  40.943  1.00  0.00     0.144 C 
HETATM   10  N2  UNL     1      26.958  19.103  41.501  1.00  0.00    -0.311 N 
HETATM   11  C8  UNL     1      26.559  19.659  42.732  1.00  0.00     0.313 C 
HETATM   12  O6  UNL     1      27.366  20.041  43.621  1.00  0.00    -0.262 OA
ENDROOT
BRANCH   9  13
HETATM   13  C7  UNL     1      29.400  18.919  41.614  1.00  0.00     0.192 C 
BRANCH  13  14
HETATM   14  O5  UNL     1      30.423  18.002  41.377  1.00  0.00    -0.399 OA
ATOM     15  H5  UNL     1      31.252  18.449  41.259  1.00  0.00     0.209 HD
ENDBRANCH  13  14
ENDBRANCH   9  13
BRANCH   8  16
HETATM   16  O4  UNL     1      29.168  17.721  38.959  1.00  0.00    -0.391 OA
ATOM     17  H4  UNL     1      29.679  17.400  39.692  1.00  0.00     0.210 HD
ENDBRANCH   8  16
BRANCH   7  18
HETATM   18  O3  UNL     1      26.661  19.885  38.196  1.00  0.00    -0.390 OA
ATOM     19  H3  UNL     1      27.096  19.980  37.357  1.00  0.00     0.210 HD
ENDBRANCH   7  18
BRANCH   6  20
HETATM   20  O2  UNL     1      24.708  18.009  38.872  1.00  0.00    -0.389 OA
ATOM     21  H2  UNL     1      24.814  18.215  37.950  1.00  0.00     0.210 HD
ENDBRANCH   6  20
TORSDOF 5
ENDMDL
