MODEL 15
REMARK VINA RESULT: -6.013463093      3.528      6.884
REMARK  3 active torsions:
REMARK  status: ('A' for Active; 'I' for Inactive)
REMARK    1  A    between atoms: C4_6  and  C5_7 
REMARK    2  A    between atoms: C8_10  and  S1_11 
REMARK    3  A    between atoms: S1_11  and  N2_12 
ROOT
HETATM    1  C5  UNL     1      -3.995   2.331  13.929  1.00  0.00    -0.001 A 
HETATM    2  C6  UNL     1      -3.873   1.509  12.833  1.00  0.00     0.016 A 
HETATM    3  C7  UNL     1      -3.294   1.972  11.661  1.00  0.00     0.026 A 
HETATM    4  C8  UNL     1      -2.817   3.267  11.536  1.00  0.00     0.079 A 
HETATM    5  C9  UNL     1      -2.942   4.079  12.636  1.00  0.00     0.026 A 
HETATM    6  C10 UNL     1      -3.516   3.626  13.804  1.00  0.00     0.016 A 
ENDROOT
BRANCH   1   7
HETATM    7  C4  UNL     1      -4.601   1.842  15.156  1.00  0.00     0.103 A 
HETATM    8  C3  UNL     1      -4.639   0.490  15.503  1.00  0.00     0.128 A 
HETATM    9  N1  UNL     1      -5.253   0.369  16.671  1.00  0.00    -0.348 N 
HETATM   10  C2  UNL     1      -5.597   1.612  17.057  1.00  0.00     0.120 A 
ATOM     11  H1  UNL     1      -5.432  -0.497  17.179  1.00  0.00     0.167 HD
HETATM   12  C1  UNL     1      -6.309   1.914  18.319  1.00  0.00     0.098 C 
HETATM   13  O3  UNL     1      -5.188   2.460  16.122  1.00  0.00    -0.296 OA
ENDBRANCH   1   7
BRANCH   4  14
HETATM   14  S1  UNL     1      -2.096   3.804  10.041  1.00  0.00     0.256 S 
HETATM   15  O1  UNL     1      -3.219   4.321   9.173  1.00  0.00    -0.201 OA
HETATM   16  O2  UNL     1      -1.432   2.699   9.306  1.00  0.00    -0.201 OA
BRANCH  14  17
HETATM   17  N2  UNL     1      -0.938   5.051  10.333  1.00  0.00    -0.324 N 
ATOM     18  H22 UNL     1       0.061   4.952  10.154  1.00  0.00     0.169 HD
ATOM     19  H21 UNL     1      -1.392   5.887  10.702  1.00  0.00     0.169 HD
ENDBRANCH  14  17
ENDBRANCH   4  14
TORSDOF 3
ENDMDL
