MODEL 3
REMARK VINA RESULT: -6.701544977      1.625      1.958
REMARK  3 active torsions:
REMARK  status: ('A' for Active; 'I' for Inactive)
REMARK    1  A    between atoms: C4_6  and  C5_7 
REMARK    2  A    between atoms: C8_10  and  S1_11 
REMARK    3  A    between atoms: S1_11  and  N2_12 
ROOT
HETATM    1  C5  UNL     1      -4.289   4.501  14.644  1.00  0.00    -0.001 A 
HETATM    2  C6  UNL     1      -3.493   3.465  15.076  1.00  0.00     0.016 A 
HETATM    3  C7  UNL     1      -4.034   2.405  15.786  1.00  0.00     0.026 A 
HETATM    4  C8  UNL     1      -5.384   2.335  16.092  1.00  0.00     0.079 A 
HETATM    5  C9  UNL     1      -6.170   3.373  15.656  1.00  0.00     0.026 A 
HETATM    6  C10 UNL     1      -5.639   4.430  14.950  1.00  0.00     0.016 A 
ENDROOT
BRANCH   1   7
HETATM    7  C4  UNL     1      -3.718   5.611  13.899  1.00  0.00     0.103 A 
HETATM    8  C3  UNL     1      -4.089   5.923  12.589  1.00  0.00     0.128 A 
HETATM    9  N1  UNL     1      -3.394   6.980  12.193  1.00  0.00    -0.348 N 
HETATM   10  C2  UNL     1      -2.602   7.331  13.223  1.00  0.00     0.120 A 
ATOM     11  H1  UNL     1      -3.449   7.439  11.284  1.00  0.00     0.167 HD
HETATM   12  C1  UNL     1      -1.662   8.473  13.186  1.00  0.00     0.098 C 
HETATM   13  O3  UNL     1      -2.829   6.486  14.221  1.00  0.00    -0.296 OA
ENDBRANCH   1   7
BRANCH   4  14
HETATM   14  S1  UNL     1      -6.019   0.980  16.989  1.00  0.00     0.256 S 
HETATM   15  O1  UNL     1      -5.547   1.137  18.415  1.00  0.00    -0.201 OA
HETATM   16  O2  UNL     1      -5.507  -0.319  16.485  1.00  0.00    -0.201 OA
BRANCH  14  17
HETATM   17  N2  UNL     1      -7.745   0.959  16.926  1.00  0.00    -0.324 N 
ATOM     18  H22 UNL     1      -8.309   1.722  16.551  1.00  0.00     0.169 HD
ATOM     19  H21 UNL     1      -8.111   0.088  17.310  1.00  0.00     0.169 HD
ENDBRANCH  14  17
ENDBRANCH   4  14
TORSDOF 3
ENDMDL
