MODEL 14
REMARK VINA RESULT: -6.032538492      3.548      6.926
REMARK  3 active torsions:
REMARK  status: ('A' for Active; 'I' for Inactive)
REMARK    1  A    between atoms: C4_6  and  C5_7 
REMARK    2  A    between atoms: C8_10  and  S1_11 
REMARK    3  A    between atoms: S1_11  and  N2_12 
ROOT
HETATM    1  C5  UNL     1      -4.003   2.278  13.893  1.00  0.00    -0.001 A 
HETATM    2  C6  UNL     1      -3.491   3.552  13.800  1.00  0.00     0.016 A 
HETATM    3  C7  UNL     1      -2.918   4.001  12.620  1.00  0.00     0.026 A 
HETATM    4  C8  UNL     1      -2.833   3.201  11.491  1.00  0.00     0.079 A 
HETATM    5  C9  UNL     1      -3.346   1.932  11.594  1.00  0.00     0.026 A 
HETATM    6  C10 UNL     1      -3.917   1.479  12.763  1.00  0.00     0.016 A 
ENDROOT
BRANCH   1   7
HETATM    7  C4  UNL     1      -4.603   1.812  15.131  1.00  0.00     0.103 A 
HETATM    8  C3  UNL     1      -4.630   0.467  15.509  1.00  0.00     0.128 A 
HETATM    9  N1  UNL     1      -5.241   0.369  16.681  1.00  0.00    -0.348 N 
HETATM   10  C2  UNL     1      -5.594   1.617  17.039  1.00  0.00     0.120 A 
ATOM     11  H1  UNL     1      -5.411  -0.487  17.209  1.00  0.00     0.167 HD
HETATM   12  C1  UNL     1      -6.305   1.942  18.295  1.00  0.00     0.098 C 
HETATM   13  O3  UNL     1      -5.193   2.447  16.085  1.00  0.00    -0.296 OA
ENDBRANCH   1   7
BRANCH   4  14
HETATM   14  S1  UNL     1      -2.103   3.811  10.028  1.00  0.00     0.256 S 
HETATM   15  O1  UNL     1      -3.226   4.322   9.157  1.00  0.00    -0.201 OA
HETATM   16  O2  UNL     1      -1.391   2.752   9.270  1.00  0.00    -0.201 OA
BRANCH  14  17
HETATM   17  N2  UNL     1      -0.990   5.083  10.384  1.00  0.00    -0.324 N 
ATOM     18  H22 UNL     1      -0.911   5.938   9.834  1.00  0.00     0.169 HD
ATOM     19  H21 UNL     1      -0.435   4.857  11.209  1.00  0.00     0.169 HD
ENDBRANCH  14  17
ENDBRANCH   4  14
TORSDOF 3
ENDMDL
