MODEL 4
REMARK VINA RESULT: -6.670890279      1.241      1.732
REMARK  3 active torsions:
REMARK  status: ('A' for Active; 'I' for Inactive)
REMARK    1  A    between atoms: C4_6  and  C5_7 
REMARK    2  A    between atoms: C8_10  and  S1_11 
REMARK    3  A    between atoms: S1_11  and  N2_12 
ROOT
HETATM    1  C5  UNL     1      -4.455   4.442  14.483  1.00  0.00    -0.001 A 
HETATM    2  C6  UNL     1      -5.788   4.335  14.808  1.00  0.00     0.016 A 
HETATM    3  C7  UNL     1      -6.247   3.274  15.574  1.00  0.00     0.026 A 
HETATM    4  C8  UNL     1      -5.400   2.283  16.044  1.00  0.00     0.079 A 
HETATM    5  C9  UNL     1      -4.073   2.399  15.715  1.00  0.00     0.026 A 
HETATM    6  C10 UNL     1      -3.609   3.450  14.954  1.00  0.00     0.016 A 
ENDROOT
BRANCH   1   7
HETATM    7  C4  UNL     1      -3.977   5.556  13.681  1.00  0.00     0.103 A 
HETATM    8  C3  UNL     1      -2.858   6.319  14.023  1.00  0.00     0.128 A 
HETATM    9  N1  UNL     1      -2.683   7.251  13.097  1.00  0.00    -0.348 N 
HETATM   10  C2  UNL     1      -3.664   7.085  12.191  1.00  0.00     0.120 A 
ATOM     11  H1  UNL     1      -1.947   7.957  13.075  1.00  0.00     0.167 HD
HETATM   12  C1  UNL     1      -3.825   7.933  10.988  1.00  0.00     0.098 C 
HETATM   13  O3  UNL     1      -4.414   6.061  12.579  1.00  0.00    -0.296 OA
ENDBRANCH   1   7
BRANCH   4  14
HETATM   14  S1  UNL     1      -6.025   0.967  17.004  1.00  0.00     0.256 S 
HETATM   15  O1  UNL     1      -5.532   1.181  18.415  1.00  0.00    -0.201 OA
HETATM   16  O2  UNL     1      -5.524  -0.353  16.546  1.00  0.00    -0.201 OA
BRANCH  14  17
HETATM   17  N2  UNL     1      -7.752   0.949  16.967  1.00  0.00    -0.324 N 
ATOM     18  H22 UNL     1      -8.338   0.977  17.801  1.00  0.00     0.169 HD
ATOM     19  H21 UNL     1      -8.092   0.907  16.006  1.00  0.00     0.169 HD
ENDBRANCH  14  17
ENDBRANCH   4  14
TORSDOF 3
ENDMDL
