MODEL 8
REMARK VINA RESULT: -6.603042822      1.125      1.377
REMARK  3 active torsions:
REMARK  status: ('A' for Active; 'I' for Inactive)
REMARK    1  A    between atoms: C4_6  and  C5_7 
REMARK    2  A    between atoms: C8_10  and  S1_11 
REMARK    3  A    between atoms: S1_11  and  N2_12 
ROOT
HETATM    1  C5  UNL     1      -4.605   4.670  14.257  1.00  0.00    -0.001 A 
HETATM    2  C6  UNL     1      -3.737   3.684  14.668  1.00  0.00     0.016 A 
HETATM    3  C7  UNL     1      -4.169   2.663  15.501  1.00  0.00     0.026 A 
HETATM    4  C8  UNL     1      -5.476   2.585  15.957  1.00  0.00     0.079 A 
HETATM    5  C9  UNL     1      -6.333   3.573  15.541  1.00  0.00     0.026 A 
HETATM    6  C10 UNL     1      -5.912   4.591  14.712  1.00  0.00     0.016 A 
ENDROOT
BRANCH   1   7
HETATM    7  C4  UNL     1      -4.150   5.737  13.383  1.00  0.00     0.103 A 
HETATM    8  C3  UNL     1      -4.798   6.081  12.194  1.00  0.00     0.128 A 
HETATM    9  N1  UNL     1      -4.144   7.086  11.630  1.00  0.00    -0.348 N 
HETATM   10  C2  UNL     1      -3.107   7.375  12.438  1.00  0.00     0.120 A 
ATOM     11  H1  UNL     1      -4.380   7.551  10.753  1.00  0.00     0.167 HD
HETATM   12  C1  UNL     1      -2.124   8.446  12.164  1.00  0.00     0.098 C 
HETATM   13  O3  UNL     1      -3.150   6.545  13.473  1.00  0.00    -0.296 OA
ENDBRANCH   1   7
BRANCH   4  14
HETATM   14  S1  UNL     1      -5.971   1.281  17.005  1.00  0.00     0.256 S 
HETATM   15  O1  UNL     1      -4.831   0.292  17.043  1.00  0.00    -0.201 OA
HETATM   16  O2  UNL     1      -7.168   0.570  16.491  1.00  0.00    -0.201 OA
BRANCH  14  17
HETATM   17  N2  UNL     1      -6.312   1.869  18.592  1.00  0.00    -0.324 N 
ATOM     18  H22 UNL     1      -5.640   2.378  19.166  1.00  0.00     0.169 HD
ATOM     19  H21 UNL     1      -7.266   1.636  18.867  1.00  0.00     0.169 HD
ENDBRANCH  14  17
ENDBRANCH   4  14
TORSDOF 3
ENDMDL
