MODEL 6
REMARK VINA RESULT: -6.636087591      1.267      1.333
REMARK  3 active torsions:
REMARK  status: ('A' for Active; 'I' for Inactive)
REMARK    1  A    between atoms: C4_6  and  C5_7 
REMARK    2  A    between atoms: C8_10  and  S1_11 
REMARK    3  A    between atoms: S1_11  and  N2_12 
ROOT
HETATM    1  C5  UNL     1      -4.461   4.438  14.506  1.00  0.00    -0.001 A 
HETATM    2  C6  UNL     1      -3.630   3.433  14.946  1.00  0.00     0.016 A 
HETATM    3  C7  UNL     1      -4.128   2.386  15.707  1.00  0.00     0.026 A 
HETATM    4  C8  UNL     1      -5.466   2.300  16.058  1.00  0.00     0.079 A 
HETATM    5  C9  UNL     1      -6.286   3.308  15.614  1.00  0.00     0.026 A 
HETATM    6  C10 UNL     1      -5.799   4.351  14.857  1.00  0.00     0.016 A 
ENDROOT
BRANCH   1   7
HETATM    7  C4  UNL     1      -3.936   5.533  13.708  1.00  0.00     0.103 A 
HETATM    8  C3  UNL     1      -2.775   6.235  14.043  1.00  0.00     0.128 A 
HETATM    9  N1  UNL     1      -2.562   7.165  13.123  1.00  0.00    -0.348 N 
HETATM   10  C2  UNL     1      -3.561   7.058  12.227  1.00  0.00     0.120 A 
ATOM     11  H1  UNL     1      -1.792   7.832  13.098  1.00  0.00     0.167 HD
HETATM   12  C1  UNL     1      -3.691   7.924  11.034  1.00  0.00     0.098 C 
HETATM   13  O3  UNL     1      -4.357   6.071  12.616  1.00  0.00    -0.296 OA
ENDBRANCH   1   7
BRANCH   4  14
HETATM   14  S1  UNL     1      -6.045   0.963  17.018  1.00  0.00     0.256 S 
HETATM   15  O1  UNL     1      -5.528   1.173  18.421  1.00  0.00    -0.201 OA
HETATM   16  O2  UNL     1      -5.527  -0.342  16.537  1.00  0.00    -0.201 OA
BRANCH  14  17
HETATM   17  N2  UNL     1      -7.771   0.911  17.015  1.00  0.00    -0.324 N 
ATOM     18  H22 UNL     1      -8.334   0.793  16.173  1.00  0.00     0.169 HD
ATOM     19  H21 UNL     1      -8.138   1.011  17.961  1.00  0.00     0.169 HD
ENDBRANCH  14  17
ENDBRANCH   4  14
TORSDOF 3
ENDMDL
