MODEL 16
REMARK VINA RESULT: -5.907754414      3.557      6.517
REMARK  3 active torsions:
REMARK  status: ('A' for Active; 'I' for Inactive)
REMARK    1  A    between atoms: C4_6  and  C5_7 
REMARK    2  A    between atoms: C8_10  and  S1_11 
REMARK    3  A    between atoms: S1_11  and  N2_12 
ROOT
HETATM    1  C5  UNL     1      -4.403   2.643  14.302  1.00  0.00    -0.001 A 
HETATM    2  C6  UNL     1      -4.359   1.555  13.461  1.00  0.00     0.016 A 
HETATM    3  C7  UNL     1      -3.579   1.577  12.315  1.00  0.00     0.026 A 
HETATM    4  C8  UNL     1      -2.816   2.679  11.963  1.00  0.00     0.079 A 
HETATM    5  C9  UNL     1      -2.867   3.759  12.809  1.00  0.00     0.026 A 
HETATM    6  C10 UNL     1      -3.640   3.745  13.950  1.00  0.00     0.016 A 
ENDROOT
BRANCH   1   7
HETATM    7  C4  UNL     1      -5.222   2.616  15.503  1.00  0.00     0.103 A 
HETATM    8  C3  UNL     1      -6.457   3.261  15.600  1.00  0.00     0.128 A 
HETATM    9  N1  UNL     1      -6.951   3.048  16.811  1.00  0.00    -0.348 N 
HETATM   10  C2  UNL     1      -6.053   2.289  17.467  1.00  0.00     0.120 A 
ATOM     11  H1  UNL     1      -7.839   3.393  17.177  1.00  0.00     0.167 HD
HETATM   12  C1  UNL     1      -6.230   1.829  18.863  1.00  0.00     0.098 C 
HETATM   13  O3  UNL     1      -5.037   2.055  16.648  1.00  0.00    -0.296 OA
ENDBRANCH   1   7
BRANCH   4  14
HETATM   14  S1  UNL     1      -1.850   2.659  10.511  1.00  0.00     0.256 S 
HETATM   15  O1  UNL     1      -2.451   3.677   9.570  1.00  0.00    -0.201 OA
HETATM   16  O2  UNL     1      -1.884   1.341   9.830  1.00  0.00    -0.201 OA
BRANCH  14  17
HETATM   17  N2  UNL     1      -0.208   3.061  10.862  1.00  0.00    -0.324 N 
ATOM     18  H22 UNL     1       0.073   3.708  11.599  1.00  0.00     0.169 HD
ATOM     19  H21 UNL     1       0.428   2.566  10.238  1.00  0.00     0.169 HD
ENDBRANCH  14  17
ENDBRANCH   4  14
TORSDOF 3
ENDMDL
