MODEL 13
REMARK VINA RESULT: -6.961291367      1.822      3.563
REMARK  2 active torsions:
REMARK  status: ('A' for Active; 'I' for Inactive)
REMARK    1  A    between atoms: C2_5  and  C3_6 
REMARK    2  A    between atoms: C5_10  and  C6_11 
ROOT
HETATM    1  C1  UNL     1      -3.899 -22.727 -32.655  1.00  0.00     0.171 C 
HETATM    2  N1  UNL     1      -4.966 -23.533 -32.114  1.00  0.00    -0.325 N 
HETATM    3  N2  UNL     1      -6.318 -23.243 -32.229  1.00  0.00    -0.300 N 
ATOM      4  H2  UNL     1      -6.686 -22.349 -32.553  1.00  0.00     0.186 HD
HETATM    5  C2  UNL     1      -7.046 -24.237 -31.881  1.00  0.00     0.111 C 
HETATM    6  C4  UNL     1      -6.212 -25.390 -31.462  1.00  0.00     0.111 C 
HETATM    7  C5  UNL     1      -6.481 -25.854 -30.071  1.00  0.00     0.298 C 
HETATM    8  N3  UNL     1      -5.238 -25.631 -29.314  1.00  0.00    -0.058 N 
ATOM      9  H31 UNL     1      -4.568 -26.398 -29.333  1.00  0.00     0.278 HD
ATOM     10  H32 UNL     1      -5.336 -25.626 -28.299  1.00  0.00     0.278 HD
HETATM   11  C7  UNL     1      -4.784 -24.392 -29.903  1.00  0.00     0.261 C 
HETATM   12  C8  UNL     1      -4.840 -24.742 -31.381  1.00  0.00     0.140 C 
ENDROOT
BRANCH   5  13
HETATM   13  C3  UNL     1      -8.499 -24.227 -31.898  1.00  0.00     0.224 C 
HETATM   14  O1  UNL     1      -9.163 -23.177 -31.708  1.00  0.00    -0.643 OA
HETATM   15  O2  UNL     1      -9.215 -25.388 -32.127  1.00  0.00    -0.643 OA
ENDBRANCH   5  13
BRANCH   7  16
HETATM   16  C6  UNL     1      -6.764 -27.308 -29.973  1.00  0.00     0.205 C 
HETATM   17  O3  UNL     1      -6.638 -27.916 -28.868  1.00  0.00    -0.646 OA
HETATM   18  O4  UNL     1      -7.175 -28.082 -31.050  1.00  0.00    -0.646 OA
ENDBRANCH   7  16
TORSDOF 2
ENDMDL
