MODEL 5
REMARK VINA RESULT: -7.483901165      1.271      3.665
REMARK  2 active torsions:
REMARK  status: ('A' for Active; 'I' for Inactive)
REMARK    1  A    between atoms: C2_5  and  C3_6 
REMARK    2  A    between atoms: C5_10  and  C6_11 
ROOT
HETATM    1  C1  UNL     1      -5.503 -23.451 -33.325  1.00  0.00     0.171 C 
HETATM    2  N1  UNL     1      -6.036 -24.264 -32.259  1.00  0.00    -0.325 N 
HETATM    3  N2  UNL     1      -7.383 -24.381 -31.946  1.00  0.00    -0.300 N 
ATOM      4  H2  UNL     1      -8.112 -23.774 -32.319  1.00  0.00     0.186 HD
HETATM    5  C2  UNL     1      -7.596 -25.344 -31.131  1.00  0.00     0.111 C 
HETATM    6  C4  UNL     1      -6.333 -26.036 -30.777  1.00  0.00     0.111 C 
HETATM    7  C5  UNL     1      -6.041 -26.049 -29.315  1.00  0.00     0.298 C 
HETATM    8  N3  UNL     1      -4.802 -25.276 -29.134  1.00  0.00    -0.058 N 
ATOM      9  H31 UNL     1      -3.936 -25.809 -29.209  1.00  0.00     0.278 HD
ATOM     10  H32 UNL     1      -4.621 -24.950 -28.185  1.00  0.00     0.278 HD
HETATM   11  C7  UNL     1      -4.984 -24.242 -30.127  1.00  0.00     0.261 C 
HETATM   12  C8  UNL     1      -5.305 -25.077 -31.354  1.00  0.00     0.140 C 
ENDROOT
BRANCH   5  13
HETATM   13  C3  UNL     1      -8.909 -25.706 -30.624  1.00  0.00     0.224 C 
HETATM   14  O1  UNL     1      -9.075 -26.174 -29.470  1.00  0.00    -0.643 OA
HETATM   15  O2  UNL     1     -10.041 -25.547 -31.404  1.00  0.00    -0.643 OA
ENDBRANCH   5  13
BRANCH   7  16
HETATM   16  C6  UNL     1      -5.762 -27.403 -28.776  1.00  0.00     0.205 C 
HETATM   17  O3  UNL     1      -6.587 -28.349 -28.952  1.00  0.00    -0.646 OA
HETATM   18  O4  UNL     1      -4.614 -27.723 -28.064  1.00  0.00    -0.646 OA
ENDBRANCH   7  16
TORSDOF 2
ENDMDL
