MODEL 2
REMARK VINA RESULT: -7.567176868      0.891      3.787
REMARK  2 active torsions:
REMARK  status: ('A' for Active; 'I' for Inactive)
REMARK    1  A    between atoms: C2_5  and  C3_6 
REMARK    2  A    between atoms: C5_10  and  C6_11 
ROOT
HETATM    1  C1  UNL     1      -6.647 -25.981 -34.591  1.00  0.00     0.171 C 
HETATM    2  N1  UNL     1      -6.891 -26.113 -33.175  1.00  0.00    -0.325 N 
HETATM    3  N2  UNL     1      -8.125 -25.943 -32.562  1.00  0.00    -0.300 N 
ATOM      4  H2  UNL     1      -8.941 -25.540 -33.020  1.00  0.00     0.186 HD
HETATM    5  C2  UNL     1      -8.111 -26.356 -31.350  1.00  0.00     0.111 C 
HETATM    6  C4  UNL     1      -6.776 -26.889 -30.982  1.00  0.00     0.111 C 
HETATM    7  C5  UNL     1      -6.155 -26.204 -29.812  1.00  0.00     0.298 C 
HETATM    8  N3  UNL     1      -4.935 -25.552 -30.316  1.00  0.00    -0.058 N 
ATOM      9  H31 UNL     1      -4.092 -26.125 -30.300  1.00  0.00     0.278 HD
ATOM     10  H32 UNL     1      -4.552 -24.817 -29.723  1.00  0.00     0.278 HD
HETATM   11  C7  UNL     1      -5.377 -25.131 -31.626  1.00  0.00     0.261 C 
HETATM   12  C8  UNL     1      -5.944 -26.432 -32.168  1.00  0.00     0.140 C 
ENDROOT
BRANCH   5  13
HETATM   13  C3  UNL     1      -9.258 -26.307 -30.460  1.00  0.00     0.224 C 
HETATM   14  O1  UNL     1      -9.189 -25.811 -29.307  1.00  0.00    -0.643 OA
HETATM   15  O2  UNL     1     -10.486 -26.808 -30.854  1.00  0.00    -0.643 OA
ENDBRANCH   5  13
BRANCH   7  16
HETATM   16  C6  UNL     1      -5.712 -27.134 -28.744  1.00  0.00     0.205 C 
HETATM   17  O3  UNL     1      -6.432 -28.123 -28.412  1.00  0.00    -0.646 OA
HETATM   18  O4  UNL     1      -4.517 -26.993 -28.054  1.00  0.00    -0.646 OA
ENDBRANCH   7  16
TORSDOF 2
ENDMDL
