MODEL 8
REMARK VINA RESULT: -7.119305564      1.657      3.634
REMARK  2 active torsions:
REMARK  status: ('A' for Active; 'I' for Inactive)
REMARK    1  A    between atoms: C2_5  and  C3_6 
REMARK    2  A    between atoms: C5_10  and  C6_11 
ROOT
HETATM    1  C1  UNL     1      -4.495 -22.911 -32.893  1.00  0.00     0.171 C 
HETATM    2  N1  UNL     1      -5.420 -23.726 -32.144  1.00  0.00    -0.325 N 
HETATM    3  N2  UNL     1      -6.782 -23.487 -32.036  1.00  0.00    -0.300 N 
ATOM      4  H2  UNL     1      -7.237 -22.621 -32.326  1.00  0.00     0.186 HD
HETATM    5  C2  UNL     1      -7.399 -24.487 -31.527  1.00  0.00     0.111 C 
HETATM    6  C4  UNL     1      -6.459 -25.591 -31.213  1.00  0.00     0.111 C 
HETATM    7  C5  UNL     1      -6.467 -25.999 -29.779  1.00  0.00     0.298 C 
HETATM    8  N3  UNL     1      -5.123 -25.700 -29.258  1.00  0.00    -0.058 N 
ATOM      9  H31 UNL     1      -4.435 -26.445 -29.362  1.00  0.00     0.278 HD
ATOM     10  H32 UNL     1      -5.046 -25.652 -28.243  1.00  0.00     0.278 HD
HETATM   11  C7  UNL     1      -4.827 -24.476 -29.966  1.00  0.00     0.261 C 
HETATM   12  C8  UNL     1      -5.121 -24.895 -31.396  1.00  0.00     0.140 C 
ENDROOT
BRANCH   5  13
HETATM   13  C3  UNL     1      -8.832 -24.526 -31.293  1.00  0.00     0.224 C 
HETATM   14  O1  UNL     1      -9.431 -25.588 -30.988  1.00  0.00    -0.643 OA
HETATM   15  O2  UNL     1      -9.601 -23.381 -31.396  1.00  0.00    -0.643 OA
ENDBRANCH   5  13
BRANCH   7  16
HETATM   16  C6  UNL     1      -6.670 -27.455 -29.577  1.00  0.00     0.205 C 
HETATM   17  O3  UNL     1      -7.136 -28.176 -30.509  1.00  0.00    -0.646 OA
HETATM   18  O4  UNL     1      -6.374 -28.112 -28.390  1.00  0.00    -0.646 OA
ENDBRANCH   7  16
TORSDOF 2
ENDMDL
