MODEL 7
REMARK VINA RESULT: -7.423069348      2.935      4.183
REMARK  2 active torsions:
REMARK  status: ('A' for Active; 'I' for Inactive)
REMARK    1  A    between atoms: C2_5  and  C3_6 
REMARK    2  A    between atoms: C5_10  and  C6_11 
ROOT
HETATM    1  C1  UNL     1     -10.588 -27.051 -31.372  1.00  0.00     0.171 C 
HETATM    2  N1  UNL     1      -9.339 -26.331 -31.339  1.00  0.00    -0.325 N 
HETATM    3  N2  UNL     1      -8.323 -26.544 -30.417  1.00  0.00    -0.300 N 
ATOM      4  H2  UNL     1      -8.426 -27.102 -29.570  1.00  0.00     0.186 HD
HETATM    5  C2  UNL     1      -7.241 -25.953 -30.762  1.00  0.00     0.111 C 
HETATM    6  C4  UNL     1      -7.413 -25.225 -32.043  1.00  0.00     0.111 C 
HETATM    7  C5  UNL     1      -7.125 -23.765 -31.950  1.00  0.00     0.298 C 
HETATM    8  N3  UNL     1      -8.392 -23.076 -32.244  1.00  0.00    -0.058 N 
ATOM      9  H31 UNL     1      -8.566 -22.876 -33.228  1.00  0.00     0.278 HD
ATOM     10  H32 UNL     1      -8.441 -22.101 -31.947  1.00  0.00     0.278 HD
HETATM   11  C7  UNL     1      -9.336 -23.969 -31.612  1.00  0.00     0.261 C 
HETATM   12  C8  UNL     1      -8.920 -25.298 -32.218  1.00  0.00     0.140 C 
ENDROOT
BRANCH   5  13
HETATM   13  C3  UNL     1      -6.009 -25.996 -29.992  1.00  0.00     0.224 C 
HETATM   14  O1  UNL     1      -4.879 -25.914 -30.534  1.00  0.00    -0.643 OA
HETATM   15  O2  UNL     1      -6.036 -26.131 -28.615  1.00  0.00    -0.643 OA
ENDBRANCH   5  13
BRANCH   7  16
HETATM   16  C6  UNL     1      -6.153 -23.286 -32.964  1.00  0.00     0.205 C 
HETATM   17  O3  UNL     1      -6.540 -22.583 -33.945  1.00  0.00    -0.646 OA
HETATM   18  O4  UNL     1      -4.794 -23.562 -32.913  1.00  0.00    -0.646 OA
ENDBRANCH   7  16
TORSDOF 2
ENDMDL
