MODEL 14
REMARK VINA RESULT: -6.939868355      3.424      4.344
REMARK  2 active torsions:
REMARK  status: ('A' for Active; 'I' for Inactive)
REMARK    1  A    between atoms: C2_5  and  C3_6 
REMARK    2  A    between atoms: C5_10  and  C6_11 
ROOT
HETATM    1  C1  UNL     1      -6.401 -27.124 -29.998  1.00  0.00     0.171 C 
HETATM    2  N1  UNL     1      -6.779 -25.998 -30.816  1.00  0.00    -0.325 N 
HETATM    3  N2  UNL     1      -5.946 -24.937 -31.142  1.00  0.00    -0.300 N 
ATOM      4  H2  UNL     1      -5.046 -24.758 -30.698  1.00  0.00     0.186 HD
HETATM    5  C2  UNL     1      -6.446 -24.211 -32.071  1.00  0.00     0.111 C 
HETATM    6  C4  UNL     1      -7.764 -24.734 -32.508  1.00  0.00     0.111 C 
HETATM    7  C5  UNL     1      -8.878 -23.753 -32.371  1.00  0.00     0.298 C 
HETATM    8  N3  UNL     1      -9.810 -24.323 -31.385  1.00  0.00    -0.058 N 
ATOM      9  H31 UNL     1     -10.531 -24.936 -31.764  1.00  0.00     0.278 HD
ATOM     10  H32 UNL     1     -10.467 -23.664 -30.968  1.00  0.00     0.278 HD
HETATM   11  C7  UNL     1      -8.883 -24.945 -30.467  1.00  0.00     0.261 C 
HETATM   12  C8  UNL     1      -8.039 -25.766 -31.427  1.00  0.00     0.140 C 
ENDROOT
BRANCH   5  13
HETATM   13  C3  UNL     1      -5.800 -23.031 -32.619  1.00  0.00     0.224 C 
HETATM   14  O1  UNL     1      -6.023 -22.629 -33.788  1.00  0.00    -0.643 OA
HETATM   15  O2  UNL     1      -4.904 -22.296 -31.864  1.00  0.00    -0.643 OA
ENDBRANCH   5  13
BRANCH   7  16
HETATM   16  C6  UNL     1      -9.662 -23.567 -33.617  1.00  0.00     0.205 C 
HETATM   17  O3  UNL     1     -10.898 -23.850 -33.648  1.00  0.00    -0.646 OA
HETATM   18  O4  UNL     1      -9.119 -23.084 -34.799  1.00  0.00    -0.646 OA
ENDBRANCH   7  16
TORSDOF 2
ENDMDL
