MODEL 17
REMARK VINA RESULT: -6.746773518      2.873      3.380
REMARK  2 active torsions:
REMARK  status: ('A' for Active; 'I' for Inactive)
REMARK    1  A    between atoms: C2_5  and  C3_6 
REMARK    2  A    between atoms: C5_10  and  C6_11 
ROOT
HETATM    1  C1  UNL     1      -4.284 -22.717 -32.212  1.00  0.00     0.171 C 
HETATM    2  N1  UNL     1      -5.492 -23.478 -32.418  1.00  0.00    -0.325 N 
HETATM    3  N2  UNL     1      -5.537 -24.793 -32.859  1.00  0.00    -0.300 N 
ATOM      4  H2  UNL     1      -4.738 -25.294 -33.247  1.00  0.00     0.186 HD
HETATM    5  C2  UNL     1      -6.705 -25.298 -32.718  1.00  0.00     0.111 C 
HETATM    6  C4  UNL     1      -7.645 -24.317 -32.125  1.00  0.00     0.111 C 
HETATM    7  C5  UNL     1      -8.843 -24.044 -32.969  1.00  0.00     0.298 C 
HETATM    8  N3  UNL     1      -8.765 -22.624 -33.349  1.00  0.00    -0.058 N 
ATOM      9  H31 UNL     1      -9.200 -21.970 -32.698  1.00  0.00     0.278 HD
ATOM     10  H32 UNL     1      -9.340 -22.350 -34.145  1.00  0.00     0.278 HD
HETATM   11  C7  UNL     1      -7.340 -22.472 -33.526  1.00  0.00     0.261 C 
HETATM   12  C8  UNL     1      -6.826 -23.040 -32.215  1.00  0.00     0.140 C 
ENDROOT
BRANCH   5  13
HETATM   13  C3  UNL     1      -7.053 -26.659 -33.093  1.00  0.00     0.224 C 
HETATM   14  O1  UNL     1      -6.817 -27.117 -34.239  1.00  0.00    -0.643 OA
HETATM   15  O2  UNL     1      -7.663 -27.511 -32.190  1.00  0.00    -0.643 OA
ENDBRANCH   5  13
BRANCH   7  16
HETATM   16  C6  UNL     1     -10.129 -24.205 -32.246  1.00  0.00     0.205 C 
HETATM   17  O3  UNL     1     -10.459 -23.392 -31.330  1.00  0.00    -0.646 OA
HETATM   18  O4  UNL     1     -11.035 -25.222 -32.510  1.00  0.00    -0.646 OA
ENDBRANCH   7  16
TORSDOF 2
ENDMDL
