MODEL 11
REMARK VINA RESULT: -7.057082278      1.772      2.081
REMARK  4 active torsions:
REMARK  status: ('A' for Active; 'I' for Inactive)
REMARK    1  A    between atoms: N1_1  and  S1_4 
REMARK    2  A    between atoms: S1_4  and  C1_7 
REMARK    3  A    between atoms: C4_10  and  C5_11 
REMARK    4  A    between atoms: C7_15  and  C8_16 
REMARK       I    between atoms: C8_16  and  N3_18 
ROOT
HETATM    1  C5  UNL     1      -3.469   3.455  12.694  1.00  0.00     0.110 A 
HETATM    2  C6  UNL     1      -3.919   4.010  11.530  1.00  0.00     0.129 A 
HETATM    3  N2  UNL     1      -2.787   4.216  10.793  1.00  0.00    -0.339 N 
ATOM      4  H2  UNL     1      -2.758   4.620   9.858  1.00  0.00     0.167 HD
HETATM    5  C7  UNL     1      -1.720   3.802  11.495  1.00  0.00     0.217 A 
HETATM    6  O5  UNL     1      -2.166   3.344  12.648  1.00  0.00    -0.286 OA
ENDROOT
BRANCH   1   7
HETATM    7  C4  UNL     1      -4.344   3.052  13.819  1.00  0.00     0.041 A 
HETATM    8  C3  UNL     1      -5.367   3.775  14.373  1.00  0.00     0.024 A 
HETATM    9  C2  UNL     1      -6.034   3.216  15.391  1.00  0.00     0.034 A 
HETATM   10  C1  UNL     1      -5.639   1.970  15.794  1.00  0.00     0.120 A 
HETATM   11  S2  UNL     1      -4.346   1.617  14.737  1.00  0.00    -0.074 SA
BRANCH  10  12
HETATM   12  S1  UNL     1      -6.318   0.979  17.098  1.00  0.00     0.263 S 
HETATM   13  O1  UNL     1      -7.755   0.758  16.789  1.00  0.00    -0.200 OA
HETATM   14  O2  UNL     1      -5.578  -0.305  17.160  1.00  0.00    -0.200 OA
BRANCH  12  15
HETATM   15  N1  UNL     1      -6.170   1.899  18.553  1.00  0.00    -0.324 N 
ATOM     16  H12 UNL     1      -5.931   1.503  19.462  1.00  0.00     0.169 HD
ATOM     17  H11 UNL     1      -6.357   2.882  18.358  1.00  0.00     0.169 HD
ENDBRANCH  12  15
ENDBRANCH  10  12
ENDBRANCH   1   7
BRANCH   5  18
HETATM   18  C8  UNL     1      -0.320   3.849  11.065  1.00  0.00     0.295 C 
HETATM   19  O3  UNL     1       0.160   2.842  10.441  1.00  0.00    -0.264 OA
HETATM   20  N3  UNL     1       0.523   4.935  11.301  1.00  0.00    -0.341 N 
HETATM   21  C9  UNL     1       1.889   4.928  10.861  1.00  0.00     0.152 C 
HETATM   22  C12 UNL     1       0.047   6.099  11.997  1.00  0.00     0.152 C 
HETATM   23  C10 UNL     1       2.696   5.510  12.002  1.00  0.00     0.187 C 
HETATM   24  O4  UNL     1       2.352   6.810  12.229  1.00  0.00    -0.388 OA
HETATM   25  C11 UNL     1       1.086   7.200  11.911  1.00  0.00     0.187 C 
ENDBRANCH   5  18
TORSDOF 4
ENDMDL
