MODEL 1
REMARK VINA RESULT: -7.502021853      0.000      0.000
REMARK  4 active torsions:
REMARK  status: ('A' for Active; 'I' for Inactive)
REMARK    1  A    between atoms: N1_1  and  S1_4 
REMARK    2  A    between atoms: S1_4  and  C1_7 
REMARK    3  A    between atoms: C4_10  and  C5_11 
REMARK    4  A    between atoms: C7_15  and  C8_16 
REMARK       I    between atoms: C8_16  and  N3_18 
ROOT
HETATM    1  C5  UNL     1      -3.256   1.889  12.194  1.00  0.00     0.110 A 
HETATM    2  C6  UNL     1      -2.845   0.763  11.540  1.00  0.00     0.129 A 
HETATM    3  N2  UNL     1      -2.085   1.231  10.506  1.00  0.00    -0.339 N 
ATOM      4  H2  UNL     1      -1.616   0.653   9.809  1.00  0.00     0.167 HD
HETATM    5  C7  UNL     1      -2.053   2.573  10.550  1.00  0.00     0.217 A 
HETATM    6  O5  UNL     1      -2.774   2.945  11.589  1.00  0.00    -0.286 OA
ENDROOT
BRANCH   1   7
HETATM    7  C4  UNL     1      -4.115   1.885  13.401  1.00  0.00     0.041 A 
HETATM    8  C3  UNL     1      -4.859   2.925  13.891  1.00  0.00     0.024 A 
HETATM    9  C2  UNL     1      -5.568   2.701  15.005  1.00  0.00     0.034 A 
HETATM   10  C1  UNL     1      -5.492   1.453  15.561  1.00  0.00     0.120 A 
HETATM   11  S2  UNL     1      -4.429   0.630  14.509  1.00  0.00    -0.074 SA
BRANCH  10  12
HETATM   12  S1  UNL     1      -6.306   0.857  17.019  1.00  0.00     0.263 S 
HETATM   13  O1  UNL     1      -7.766   0.839  16.738  1.00  0.00    -0.200 OA
HETATM   14  O2  UNL     1      -5.801  -0.503  17.328  1.00  0.00    -0.200 OA
BRANCH  12  15
HETATM   15  N1  UNL     1      -5.969   1.990  18.278  1.00  0.00    -0.324 N 
ATOM     16  H12 UNL     1      -6.598   2.189  19.056  1.00  0.00     0.169 HD
ATOM     17  H11 UNL     1      -5.057   2.418  18.121  1.00  0.00     0.169 HD
ENDBRANCH  12  15
ENDBRANCH  10  12
ENDBRANCH   1   7
BRANCH   5  18
HETATM   18  C8  UNL     1      -1.349   3.462   9.622  1.00  0.00     0.295 C 
HETATM   19  O3  UNL     1      -1.952   3.833   8.557  1.00  0.00    -0.264 OA
HETATM   20  N3  UNL     1      -0.051   3.928   9.836  1.00  0.00    -0.341 N 
HETATM   21  C9  UNL     1       0.594   4.796   8.892  1.00  0.00     0.152 C 
HETATM   22  C12 UNL     1       0.683   3.550  11.012  1.00  0.00     0.152 C 
HETATM   23  C10 UNL     1       2.015   4.289   8.767  1.00  0.00     0.187 C 
HETATM   24  O4  UNL     1       2.682   4.412   9.950  1.00  0.00    -0.388 OA
HETATM   25  C11 UNL     1       1.954   4.370  11.101  1.00  0.00     0.187 C 
ENDBRANCH   5  18
TORSDOF 4
ENDMDL
