MODEL 12
REMARK VINA RESULT: -6.996025231      1.185      2.026
REMARK  4 active torsions:
REMARK  status: ('A' for Active; 'I' for Inactive)
REMARK    1  A    between atoms: N1_1  and  S1_4 
REMARK    2  A    between atoms: S1_4  and  C1_7 
REMARK    3  A    between atoms: C4_10  and  C5_11 
REMARK    4  A    between atoms: C7_15  and  C8_16 
REMARK       I    between atoms: C8_16  and  N3_18 
ROOT
HETATM    1  C5  UNL     1      -3.047   2.059  12.475  1.00  0.00     0.110 A 
HETATM    2  C6  UNL     1      -3.013   1.119  11.484  1.00  0.00     0.129 A 
HETATM    3  N2  UNL     1      -2.028   1.550  10.642  1.00  0.00    -0.339 N 
ATOM      4  H2  UNL     1      -1.733   1.078   9.788  1.00  0.00     0.167 HD
HETATM    5  C7  UNL     1      -1.507   2.692  11.117  1.00  0.00     0.217 A 
HETATM    6  O5  UNL     1      -2.147   2.978  12.233  1.00  0.00    -0.286 OA
ENDROOT
BRANCH   1   7
HETATM    7  C4  UNL     1      -3.971   2.018  13.631  1.00  0.00     0.041 A 
HETATM    8  C3  UNL     1      -4.726   3.048  14.125  1.00  0.00     0.024 A 
HETATM    9  C2  UNL     1      -5.499   2.790  15.188  1.00  0.00     0.034 A 
HETATM   10  C1  UNL     1      -5.472   1.519  15.692  1.00  0.00     0.120 A 
HETATM   11  S2  UNL     1      -4.365   0.723  14.665  1.00  0.00    -0.074 SA
BRANCH  10  12
HETATM   12  S1  UNL     1      -6.374   0.875  17.076  1.00  0.00     0.263 S 
HETATM   13  O1  UNL     1      -7.811   0.850  16.698  1.00  0.00    -0.200 OA
HETATM   14  O2  UNL     1      -5.874  -0.488  17.382  1.00  0.00    -0.200 OA
BRANCH  12  15
HETATM   15  N1  UNL     1      -6.134   1.976  18.385  1.00  0.00    -0.324 N 
ATOM     16  H12 UNL     1      -5.331   2.600  18.472  1.00  0.00     0.169 HD
ATOM     17  H11 UNL     1      -6.910   1.903  19.042  1.00  0.00     0.169 HD
ENDBRANCH  12  15
ENDBRANCH  10  12
ENDBRANCH   1   7
BRANCH   5  18
HETATM   18  C8  UNL     1      -0.429   3.479  10.513  1.00  0.00     0.295 C 
HETATM   19  O3  UNL     1       0.729   3.447  11.055  1.00  0.00    -0.264 OA
HETATM   20  N3  UNL     1      -0.595   4.266   9.372  1.00  0.00    -0.341 N 
HETATM   21  C9  UNL     1       0.495   5.021   8.822  1.00  0.00     0.152 C 
HETATM   22  C12 UNL     1      -1.868   4.347   8.712  1.00  0.00     0.152 C 
HETATM   23  C10 UNL     1      -0.080   6.371   8.450  1.00  0.00     0.187 C 
HETATM   24  O4  UNL     1      -1.021   6.246   7.470  1.00  0.00    -0.388 OA
HETATM   25  C11 UNL     1      -1.709   5.073   7.392  1.00  0.00     0.187 C 
ENDBRANCH   5  18
TORSDOF 4
ENDMDL
