MODEL 18
REMARK VINA RESULT: -4.084793644      3.023      6.544
REMARK  2 active torsions:
REMARK  status: ('A' for Active; 'I' for Inactive)
REMARK    1  A    between atoms: N1_1  and  C1_5 
REMARK    2  A    between atoms: C1_5  and  C2_6 
ROOT
HETATM    1  C2  UNL     1       1.173  14.428  -1.928  1.00  0.00     0.077 A 
HETATM    2  N2  UNL     1       1.392  13.674  -2.970  1.00  0.00    -0.351 N 
ATOM      3  H2  UNL     1       1.312  12.661  -2.884  1.00  0.00     0.166 HD
HETATM    4  C3  UNL     1       1.710  14.197  -4.119  1.00  0.00     0.050 A 
HETATM    5  C4  UNL     1       1.972  13.515  -5.318  1.00  0.00     0.031 A 
HETATM    6  C5  UNL     1       2.299  14.157  -6.474  1.00  0.00     0.002 A 
HETATM    7  C6  UNL     1       2.391  15.541  -6.529  1.00  0.00     0.002 A 
HETATM    8  C7  UNL     1       2.136  16.226  -5.359  1.00  0.00     0.021 A 
HETATM    9  C8  UNL     1       1.804  15.563  -4.186  1.00  0.00     0.033 A 
HETATM   10  S1  UNL     1       1.422  16.001  -2.564  1.00  0.00    -0.073 SA
ENDROOT
BRANCH   1  11
HETATM   11  C1  UNL     1       0.798  14.062  -0.519  1.00  0.00     0.294 C 
BRANCH  11  12
HETATM   12  N1  UNL     1       1.810  14.636   0.348  1.00  0.00    -0.074 N 
ATOM     13  H13 UNL     1       1.848  15.654   0.302  1.00  0.00     0.274 HD
ATOM     14  H12 UNL     1       1.580  14.560   1.338  1.00  0.00     0.274 HD
ATOM     15  H11 UNL     1       2.694  14.189   0.105  1.00  0.00     0.274 HD
ENDBRANCH  11  12
ENDBRANCH   1  11
TORSDOF 2
ENDMDL
