MODEL 1
REMARK VINA RESULT: -5.359847802      0.000      0.000
REMARK  2 active torsions:
REMARK  status: ('A' for Active; 'I' for Inactive)
REMARK    1  A    between atoms: N1_1  and  C1_5 
REMARK    2  A    between atoms: C1_5  and  C2_6 
ROOT
HETATM    1  C2  UNL     1       1.128  14.201  -0.859  1.00  0.00     0.077 A 
HETATM    2  N2  UNL     1       1.362  14.404   0.409  1.00  0.00    -0.351 N 
ATOM      3  H2  UNL     1       1.944  15.192   0.693  1.00  0.00     0.166 HD
HETATM    4  C3  UNL     1       0.862  13.616   1.316  1.00  0.00     0.050 A 
HETATM    5  C4  UNL     1       1.027  13.711   2.707  1.00  0.00     0.031 A 
HETATM    6  C5  UNL     1       0.459  12.830   3.578  1.00  0.00     0.002 A 
HETATM    7  C6  UNL     1      -0.325  11.777   3.129  1.00  0.00     0.002 A 
HETATM    8  C7  UNL     1      -0.498  11.669   1.765  1.00  0.00     0.021 A 
HETATM    9  C8  UNL     1       0.085  12.571   0.885  1.00  0.00     0.033 A 
HETATM   10  S1  UNL     1       0.133  12.805  -0.821  1.00  0.00    -0.073 SA
ENDROOT
BRANCH   1  11
HETATM   11  C1  UNL     1       1.587  14.962  -2.071  1.00  0.00     0.294 C 
BRANCH  11  12
HETATM   12  N1  UNL     1       2.667  15.829  -1.639  1.00  0.00    -0.074 N 
ATOM     13  H13 UNL     1       2.371  16.533  -0.962  1.00  0.00     0.274 HD
ATOM     14  H12 UNL     1       3.347  15.357  -1.044  1.00  0.00     0.274 HD
ATOM     15  H11 UNL     1       3.079  16.229  -2.482  1.00  0.00     0.274 HD
ENDBRANCH  11  12
ENDBRANCH   1  11
TORSDOF 2
ENDMDL
