MODEL 8
REMARK VINA RESULT: -4.469365044      2.278      4.825
REMARK  2 active torsions:
REMARK  status: ('A' for Active; 'I' for Inactive)
REMARK    1  A    between atoms: N1_1  and  C1_5 
REMARK    2  A    between atoms: C1_5  and  C2_6 
ROOT
HETATM    1  C2  UNL     1      -0.117  12.247   1.668  1.00  0.00     0.077 A 
HETATM    2  N2  UNL     1      -0.331  11.884   0.433  1.00  0.00    -0.351 N 
ATOM      3  H2  UNL     1      -0.906  11.064   0.242  1.00  0.00     0.166 HD
HETATM    4  C3  UNL     1       0.179  12.556  -0.559  1.00  0.00     0.050 A 
HETATM    5  C4  UNL     1       0.036  12.285  -1.929  1.00  0.00     0.031 A 
HETATM    6  C5  UNL     1       0.613  13.053  -2.896  1.00  0.00     0.002 A 
HETATM    7  C6  UNL     1       1.385  14.159  -2.572  1.00  0.00     0.002 A 
HETATM    8  C7  UNL     1       1.536  14.439  -1.230  1.00  0.00     0.021 A 
HETATM    9  C8  UNL     1       0.943  13.652  -0.252  1.00  0.00     0.033 A 
HETATM   10  S1  UNL     1       0.871  13.635   1.470  1.00  0.00    -0.073 SA
ENDROOT
BRANCH   1  11
HETATM   11  C1  UNL     1      -0.591  11.642   2.959  1.00  0.00     0.294 C 
BRANCH  11  12
HETATM   12  N1  UNL     1      -0.099  12.491   4.028  1.00  0.00    -0.074 N 
ATOM     13  H13 UNL     1       0.701  12.094   4.520  1.00  0.00     0.274 HD
ATOM     14  H12 UNL     1       0.364  13.334   3.689  1.00  0.00     0.274 HD
ATOM     15  H11 UNL     1      -0.892  12.685   4.639  1.00  0.00     0.274 HD
ENDBRANCH  11  12
ENDBRANCH   1  11
TORSDOF 2
ENDMDL
