MODEL 3
REMARK VINA RESULT: -4.632868822      1.598      2.273
REMARK  2 active torsions:
REMARK  status: ('A' for Active; 'I' for Inactive)
REMARK    1  A    between atoms: N1_1  and  C1_5 
REMARK    2  A    between atoms: C1_5  and  C2_6 
ROOT
HETATM    1  C2  UNL     1       2.268  15.145  -1.663  1.00  0.00     0.077 A 
HETATM    2  N2  UNL     1       1.933  14.766  -0.460  1.00  0.00    -0.351 N 
ATOM      3  H2  UNL     1       2.335  15.241   0.347  1.00  0.00     0.166 HD
HETATM    4  C3  UNL     1       1.093  13.788  -0.276  1.00  0.00     0.050 A 
HETATM    5  C4  UNL     1       0.643  13.275   0.950  1.00  0.00     0.031 A 
HETATM    6  C5  UNL     1      -0.243  12.244   1.037  1.00  0.00     0.002 A 
HETATM    7  C6  UNL     1      -0.756  11.637  -0.100  1.00  0.00     0.002 A 
HETATM    8  C7  UNL     1      -0.324  12.129  -1.315  1.00  0.00     0.021 A 
HETATM    9  C8  UNL     1       0.579  13.181  -1.393  1.00  0.00     0.033 A 
HETATM   10  S1  UNL     1       1.355  14.075  -2.644  1.00  0.00    -0.073 SA
ENDROOT
BRANCH   1  11
HETATM   11  C1  UNL     1       3.202  16.230  -2.120  1.00  0.00     0.294 C 
BRANCH  11  12
HETATM   12  N1  UNL     1       3.517  17.033  -0.954  1.00  0.00    -0.074 N 
ATOM     13  H13 UNL     1       2.760  17.662  -0.683  1.00  0.00     0.274 HD
ATOM     14  H12 UNL     1       3.549  16.492  -0.090  1.00  0.00     0.274 HD
ATOM     15  H11 UNL     1       4.390  17.519  -1.157  1.00  0.00     0.274 HD
ENDBRANCH  11  12
ENDBRANCH   1  11
TORSDOF 2
ENDMDL
