MODEL 4
REMARK VINA RESULT: -4.611819814      2.975      5.146
REMARK  2 active torsions:
REMARK  status: ('A' for Active; 'I' for Inactive)
REMARK    1  A    between atoms: N1_1  and  C1_5 
REMARK    2  A    between atoms: C1_5  and  C2_6 
ROOT
HETATM    1  C2  UNL     1      -0.523  10.712   2.839  1.00  0.00     0.077 A 
HETATM    2  N2  UNL     1      -0.752  10.745   1.555  1.00  0.00    -0.351 N 
ATOM      3  H2  UNL     1      -1.260   9.979   1.114  1.00  0.00     0.166 HD
HETATM    4  C3  UNL     1      -0.341  11.744   0.827  1.00  0.00     0.050 A 
HETATM    5  C4  UNL     1      -0.514  11.914  -0.555  1.00  0.00     0.031 A 
HETATM    6  C5  UNL     1      -0.044  13.002  -1.228  1.00  0.00     0.002 A 
HETATM    7  C6  UNL     1       0.641  14.015  -0.571  1.00  0.00     0.002 A 
HETATM    8  C7  UNL     1       0.819  13.863   0.788  1.00  0.00     0.021 A 
HETATM    9  C8  UNL     1       0.337  12.751   1.465  1.00  0.00     0.033 A 
HETATM   10  S1  UNL     1       0.333  12.177   3.089  1.00  0.00    -0.073 SA
ENDROOT
BRANCH   1  11
HETATM   11  C1  UNL     1      -0.892   9.683   3.870  1.00  0.00     0.294 C 
BRANCH  11  12
HETATM   12  N1  UNL     1       0.306   9.415   4.644  1.00  0.00    -0.074 N 
ATOM     13  H13 UNL     1       0.826   8.603   4.311  1.00  0.00     0.274 HD
ATOM     14  H12 UNL     1       1.041  10.107   4.499  1.00  0.00     0.274 HD
ATOM     15  H11 UNL     1       0.016   9.334   5.618  1.00  0.00     0.274 HD
ENDBRANCH  11  12
ENDBRANCH   1  11
TORSDOF 2
ENDMDL
