MODEL 13
REMARK VINA RESULT: -4.241185034      2.706      4.438
REMARK  2 active torsions:
REMARK  status: ('A' for Active; 'I' for Inactive)
REMARK    1  A    between atoms: N1_1  and  C1_5 
REMARK    2  A    between atoms: C1_5  and  C2_6 
ROOT
HETATM    1  C2  UNL     1       0.403  12.922   1.606  1.00  0.00     0.077 A 
HETATM    2  N2  UNL     1      -0.299  11.841   1.398  1.00  0.00    -0.351 N 
ATOM      3  H2  UNL     1      -0.569  11.257   2.189  1.00  0.00     0.166 HD
HETATM    4  C3  UNL     1      -0.659  11.499   0.195  1.00  0.00     0.050 A 
HETATM    5  C4  UNL     1      -1.410  10.373  -0.178  1.00  0.00     0.031 A 
HETATM    6  C5  UNL     1      -1.737  10.101  -1.473  1.00  0.00     0.002 A 
HETATM    7  C6  UNL     1      -1.340  10.937  -2.507  1.00  0.00     0.002 A 
HETATM    8  C7  UNL     1      -0.602  12.049  -2.158  1.00  0.00     0.021 A 
HETATM    9  C8  UNL     1      -0.273  12.317  -0.835  1.00  0.00     0.033 A 
HETATM   10  S1  UNL     1       0.594  13.538   0.017  1.00  0.00    -0.073 SA
ENDROOT
BRANCH   1  11
HETATM   11  C1  UNL     1       0.929  13.514   2.883  1.00  0.00     0.294 C 
BRANCH  11  12
HETATM   12  N1  UNL     1       0.201  12.885   3.969  1.00  0.00    -0.074 N 
ATOM     13  H13 UNL     1      -0.812  12.924   3.850  1.00  0.00     0.274 HD
ATOM     14  H12 UNL     1       0.290  11.869   3.978  1.00  0.00     0.274 HD
ATOM     15  H11 UNL     1       0.521  13.324   4.832  1.00  0.00     0.274 HD
ENDBRANCH  11  12
ENDBRANCH   1  11
TORSDOF 2
ENDMDL
