MODEL 1
REMARK VINA RESULT: -10.434265856      0.000      0.000
REMARK  8 active torsions:
REMARK  status: ('A' for Active; 'I' for Inactive)
REMARK    1  A    between atoms: C2_2  and  S1_3 
REMARK    2  A    between atoms: S1_3  and  C3_6 
REMARK    3  A    between atoms: C6_9  and  C7_10 
REMARK    4  A    between atoms: C7_10  and  C8_11 
REMARK       I    between atoms: C8_11  and  N1_13 
REMARK    5  A    between atoms: N1_13  and  C9_15 
REMARK    6  A    between atoms: C10_18  and  C11_19 
REMARK    7  A    between atoms: C17_26  and  C18_27 
REMARK    8  A    between atoms: C18_27  and  C19_29 
ROOT
HETATM    1  C9  UNL     1     -27.331   5.509 -13.520  1.00  0.00     0.152 A 
HETATM    2  N2  UNL     1     -28.080   5.749 -14.572  1.00  0.00    -0.335 N 
ATOM      3  H2  UNL     1     -28.643   4.999 -14.972  1.00  0.00     0.168 HD
HETATM    4  C10 UNL     1     -28.110   6.936 -15.110  1.00  0.00     0.066 A 
HETATM    5  C17 UNL     1     -27.348   7.906 -14.548  1.00  0.00     0.087 A 
HETATM    6  S2  UNL     1     -26.608   7.039 -13.247  1.00  0.00    -0.048 SA
ENDROOT
BRANCH   1   7
HETATM    7  N1  UNL     1     -27.168   4.277 -12.782  1.00  0.00    -0.307 N 
HETATM    8  C8  UNL     1     -27.992   3.163 -13.056  1.00  0.00     0.227 C 
HETATM    9  O3  UNL     1     -28.864   3.287 -13.952  1.00  0.00    -0.273 OA
ATOM     10  H1  UNL     1     -26.453   4.212 -12.057  1.00  0.00     0.171 HD
BRANCH   8  11
HETATM   11  C7  UNL     1     -27.856   1.864 -12.313  1.00  0.00     0.141 C 
BRANCH  11  12
HETATM   12  C6  UNL     1     -27.478   0.768 -13.210  1.00  0.00    -0.049 A 
HETATM   13  C5  UNL     1     -28.340  -0.216 -13.565  1.00  0.00     0.009 A 
HETATM   14  C4  UNL     1     -27.931  -1.259 -14.420  1.00  0.00     0.024 A 
HETATM   15  C3  UNL     1     -26.658  -1.282 -14.902  1.00  0.00     0.059 A 
HETATM   16  C26 UNL     1     -25.787  -0.290 -14.547  1.00  0.00     0.024 A 
HETATM   17  C25 UNL     1     -26.170   0.742 -13.706  1.00  0.00     0.009 A 
BRANCH  15  18
HETATM   18  S1  UNL     1     -26.120  -2.577 -15.947  1.00  0.00     0.175 S 
HETATM   19  O1  UNL     1     -25.597  -3.679 -15.042  1.00  0.00    -0.223 OA
HETATM   20  O2  UNL     1     -27.198  -3.090 -16.843  1.00  0.00    -0.223 OA
BRANCH  18  21
HETATM   21  C2  UNL     1     -24.787  -1.970 -16.955  1.00  0.00     0.141 C 
HETATM   22  C1  UNL     1     -23.506  -2.721 -16.623  1.00  0.00     0.021 C 
ENDBRANCH  18  21
ENDBRANCH  15  18
ENDBRANCH  11  12
ENDBRANCH   8  11
ENDBRANCH   1   7
BRANCH   4  23
HETATM   23  C11 UNL     1     -28.981   7.197 -16.288  1.00  0.00    -0.006 A 
HETATM   24  C12 UNL     1     -29.649   8.396 -16.403  1.00  0.00     0.014 A 
HETATM   25  C13 UNL     1     -30.517   8.646 -17.463  1.00  0.00     0.003 A 
HETATM   26  C14 UNL     1     -30.693   7.654 -18.403  1.00  0.00     0.024 A 
HETATM   27  C15 UNL     1     -30.025   6.443 -18.297  1.00  0.00     0.035 A 
HETATM   28 CL1  UNL     1     -30.242   5.185 -19.480  1.00  0.00    -0.084 Cl
HETATM   29  C16 UNL     1     -29.158   6.216 -17.221  1.00  0.00     0.037 A 
ENDBRANCH   4  23
BRANCH   5  30
HETATM   30  C18 UNL     1     -27.130   9.329 -14.825  1.00  0.00     0.203 C 
HETATM   31  O4  UNL     1     -27.732  10.237 -14.216  1.00  0.00    -0.286 OA
BRANCH  30  32
HETATM   32  C19 UNL     1     -26.178   9.742 -15.843  1.00  0.00     0.037 A 
HETATM   33  C20 UNL     1     -25.853   8.972 -16.922  1.00  0.00     0.017 A 
HETATM   34  C21 UNL     1     -24.922   9.411 -17.875  1.00  0.00     0.001 A 
HETATM   35  C22 UNL     1     -24.344  10.632 -17.698  1.00  0.00     0.002 A 
HETATM   36  C23 UNL     1     -24.644  11.443 -16.622  1.00  0.00     0.025 A 
HETATM   37  C24 UNL     1     -25.567  10.968 -15.708  1.00  0.00     0.048 A 
HETATM   38 CL2  UNL     1     -25.966  11.975 -14.348  1.00  0.00    -0.083 Cl
ENDBRANCH  30  32
ENDBRANCH   5  30
TORSDOF 8
ENDMDL
