MODEL 8
REMARK VINA RESULT: -9.734741910      3.816     10.179
REMARK  8 active torsions:
REMARK  status: ('A' for Active; 'I' for Inactive)
REMARK    1  A    between atoms: C2_2  and  S1_3 
REMARK    2  A    between atoms: S1_3  and  C3_6 
REMARK    3  A    between atoms: C6_9  and  C7_10 
REMARK    4  A    between atoms: C7_10  and  C8_11 
REMARK       I    between atoms: C8_11  and  N1_13 
REMARK    5  A    between atoms: N1_13  and  C9_15 
REMARK    6  A    between atoms: C10_18  and  C11_19 
REMARK    7  A    between atoms: C17_26  and  C18_27 
REMARK    8  A    between atoms: C18_27  and  C19_29 
ROOT
HETATM    1  C9  UNL     1     -28.283   2.896 -13.167  1.00  0.00     0.152 A 
HETATM    2  N2  UNL     1     -27.956   1.902 -13.959  1.00  0.00    -0.335 N 
ATOM      3  H2  UNL     1     -28.043   2.012 -14.970  1.00  0.00     0.168 HD
HETATM    4  C10 UNL     1     -27.523   0.775 -13.470  1.00  0.00     0.066 A 
HETATM    5  C17 UNL     1     -27.420   0.667 -12.122  1.00  0.00     0.087 A 
HETATM    6  S2  UNL     1     -27.970   2.229 -11.619  1.00  0.00    -0.048 SA
ENDROOT
BRANCH   1   7
HETATM    7  N1  UNL     1     -28.772   4.212 -13.512  1.00  0.00    -0.307 N 
HETATM    8  C8  UNL     1     -29.592   4.398 -14.647  1.00  0.00     0.227 C 
HETATM    9  O3  UNL     1     -29.871   3.386 -15.338  1.00  0.00    -0.273 OA
ATOM     10  H1  UNL     1     -28.522   5.013 -12.932  1.00  0.00     0.171 HD
BRANCH   8  11
HETATM   11  C7  UNL     1     -30.120   5.747 -15.041  1.00  0.00     0.141 C 
BRANCH  11  12
HETATM   12  C6  UNL     1     -29.034   6.694 -15.310  1.00  0.00    -0.049 A 
HETATM   13  C5  UNL     1     -28.380   7.356 -14.324  1.00  0.00     0.009 A 
HETATM   14  C4  UNL     1     -27.350   8.267 -14.628  1.00  0.00     0.024 A 
HETATM   15  C3  UNL     1     -26.999   8.487 -15.925  1.00  0.00     0.059 A 
HETATM   16  C26 UNL     1     -27.655   7.820 -16.922  1.00  0.00     0.024 A 
HETATM   17  C25 UNL     1     -28.672   6.922 -16.643  1.00  0.00     0.009 A 
BRANCH  15  18
HETATM   18  S1  UNL     1     -25.738   9.630 -16.329  1.00  0.00     0.175 S 
HETATM   19  O1  UNL     1     -25.212  10.183 -15.016  1.00  0.00    -0.223 OA
HETATM   20  O2  UNL     1     -24.635   9.023 -17.131  1.00  0.00    -0.223 OA
BRANCH  18  21
HETATM   21  C2  UNL     1     -26.459  10.955 -17.271  1.00  0.00     0.141 C 
HETATM   22  C1  UNL     1     -27.669  11.511 -16.535  1.00  0.00     0.021 C 
ENDBRANCH  18  21
ENDBRANCH  15  18
ENDBRANCH  11  12
ENDBRANCH   8  11
ENDBRANCH   1   7
BRANCH   4  23
HETATM   23  C11 UNL     1     -27.135  -0.334 -14.383  1.00  0.00    -0.006 A 
HETATM   24  C12 UNL     1     -27.989  -1.395 -14.587  1.00  0.00     0.014 A 
HETATM   25  C13 UNL     1     -27.629  -2.475 -15.388  1.00  0.00     0.003 A 
HETATM   26  C14 UNL     1     -26.384  -2.456 -15.979  1.00  0.00     0.024 A 
HETATM   27  C15 UNL     1     -25.516  -1.392 -15.780  1.00  0.00     0.035 A 
HETATM   28 CL1  UNL     1     -23.941  -1.361 -16.523  1.00  0.00    -0.084 Cl
HETATM   29  C16 UNL     1     -25.901  -0.319 -14.969  1.00  0.00     0.037 A 
ENDBRANCH   4  23
BRANCH   5  30
HETATM   30  C18 UNL     1     -26.965  -0.384 -11.208  1.00  0.00     0.203 C 
HETATM   31  O4  UNL     1     -26.125  -1.248 -11.534  1.00  0.00    -0.286 OA
BRANCH  30  32
HETATM   32  C19 UNL     1     -27.489  -0.458  -9.853  1.00  0.00     0.037 A 
HETATM   33  C20 UNL     1     -28.754  -0.876  -9.561  1.00  0.00     0.017 A 
HETATM   34  C21 UNL     1     -29.218  -0.922  -8.238  1.00  0.00     0.001 A 
HETATM   35  C22 UNL     1     -28.370  -0.538  -7.243  1.00  0.00     0.002 A 
HETATM   36  C23 UNL     1     -27.081  -0.111  -7.494  1.00  0.00     0.025 A 
HETATM   37  C24 UNL     1     -26.669  -0.081  -8.814  1.00  0.00     0.048 A 
HETATM   38 CL2  UNL     1     -25.049   0.448  -9.155  1.00  0.00    -0.083 Cl
ENDBRANCH  30  32
ENDBRANCH   5  30
TORSDOF 8
ENDMDL
