MODEL 9
REMARK VINA RESULT: -9.721253493      3.774     10.461
REMARK  8 active torsions:
REMARK  status: ('A' for Active; 'I' for Inactive)
REMARK    1  A    between atoms: C2_2  and  S1_3 
REMARK    2  A    between atoms: S1_3  and  C3_6 
REMARK    3  A    between atoms: C6_9  and  C7_10 
REMARK    4  A    between atoms: C7_10  and  C8_11 
REMARK       I    between atoms: C8_11  and  N1_13 
REMARK    5  A    between atoms: N1_13  and  C9_15 
REMARK    6  A    between atoms: C10_18  and  C11_19 
REMARK    7  A    between atoms: C17_26  and  C18_27 
REMARK    8  A    between atoms: C18_27  and  C19_29 
ROOT
HETATM    1  C9  UNL     1     -28.654   3.104 -13.547  1.00  0.00     0.152 A 
HETATM    2  N2  UNL     1     -28.390   1.978 -14.168  1.00  0.00    -0.335 N 
ATOM      3  H2  UNL     1     -28.801   1.798 -15.084  1.00  0.00     0.168 HD
HETATM    4  C10 UNL     1     -27.607   1.087 -13.628  1.00  0.00     0.066 A 
HETATM    5  C17 UNL     1     -27.078   1.364 -12.410  1.00  0.00     0.087 A 
HETATM    6  S2  UNL     1     -27.754   2.927 -12.099  1.00  0.00    -0.048 SA
ENDROOT
BRANCH   1   7
HETATM    7  N1  UNL     1     -29.482   4.208 -13.978  1.00  0.00    -0.307 N 
HETATM    8  C8  UNL     1     -28.944   5.236 -14.783  1.00  0.00     0.227 C 
HETATM    9  O3  UNL     1     -27.731   5.155 -15.100  1.00  0.00    -0.273 OA
ATOM     10  H1  UNL     1     -30.463   4.244 -13.699  1.00  0.00     0.171 HD
BRANCH   8  11
HETATM   11  C7  UNL     1     -29.769   6.400 -15.254  1.00  0.00     0.141 C 
BRANCH  11  12
HETATM   12  C6  UNL     1     -28.939   7.582 -15.504  1.00  0.00    -0.049 A 
HETATM   13  C5  UNL     1     -28.263   8.223 -14.519  1.00  0.00     0.009 A 
HETATM   14  C4  UNL     1     -27.486   9.364 -14.802  1.00  0.00     0.024 A 
HETATM   15  C3  UNL     1     -27.407   9.831 -16.079  1.00  0.00     0.059 A 
HETATM   16  C26 UNL     1     -28.086   9.186 -17.075  1.00  0.00     0.024 A 
HETATM   17  C25 UNL     1     -28.856   8.063 -16.816  1.00  0.00     0.009 A 
BRANCH  15  18
HETATM   18  S1  UNL     1     -26.467  11.258 -16.453  1.00  0.00     0.175 S 
HETATM   19  O1  UNL     1     -25.367  10.820 -17.404  1.00  0.00    -0.223 OA
HETATM   20  O2  UNL     1     -27.284  12.355 -17.052  1.00  0.00    -0.223 OA
BRANCH  18  21
HETATM   21  C2  UNL     1     -25.730  11.857 -14.949  1.00  0.00     0.141 C 
HETATM   22  C1  UNL     1     -25.721  13.379 -14.950  1.00  0.00     0.021 C 
ENDBRANCH  18  21
ENDBRANCH  15  18
ENDBRANCH  11  12
ENDBRANCH   8  11
ENDBRANCH   1   7
BRANCH   4  23
HETATM   23  C11 UNL     1     -27.299  -0.174 -14.355  1.00  0.00    -0.006 A 
HETATM   24  C12 UNL     1     -28.180  -1.231 -14.313  1.00  0.00     0.014 A 
HETATM   25  C13 UNL     1     -27.892  -2.444 -14.933  1.00  0.00     0.003 A 
HETATM   26  C14 UNL     1     -26.691  -2.561 -15.598  1.00  0.00     0.024 A 
HETATM   27  C15 UNL     1     -25.796  -1.502 -15.647  1.00  0.00     0.035 A 
HETATM   28 CL1  UNL     1     -24.276  -1.642 -16.485  1.00  0.00    -0.084 Cl
HETATM   29  C16 UNL     1     -26.109  -0.293 -15.014  1.00  0.00     0.037 A 
ENDBRANCH   4  23
BRANCH   5  30
HETATM   30  C18 UNL     1     -26.161   0.664 -11.506  1.00  0.00     0.203 C 
HETATM   31  O4  UNL     1     -24.922   0.680 -11.653  1.00  0.00    -0.286 OA
BRANCH  30  32
HETATM   32  C19 UNL     1     -26.678  -0.090 -10.375  1.00  0.00     0.037 A 
HETATM   33  C20 UNL     1     -27.803  -0.859 -10.439  1.00  0.00     0.017 A 
HETATM   34  C21 UNL     1     -28.268  -1.563  -9.318  1.00  0.00     0.001 A 
HETATM   35  C22 UNL     1     -27.565  -1.462  -8.155  1.00  0.00     0.002 A 
HETATM   36  C23 UNL     1     -26.420  -0.697  -8.048  1.00  0.00     0.025 A 
HETATM   37  C24 UNL     1     -26.002  -0.020  -9.178  1.00  0.00     0.048 A 
HETATM   38 CL2  UNL     1     -24.559   0.944  -9.070  1.00  0.00    -0.083 Cl
ENDBRANCH  30  32
ENDBRANCH   5  30
TORSDOF 8
ENDMDL
