MODEL 12
REMARK VINA RESULT: -9.677995771      4.013     10.128
REMARK  8 active torsions:
REMARK  status: ('A' for Active; 'I' for Inactive)
REMARK    1  A    between atoms: C2_2  and  S1_3 
REMARK    2  A    between atoms: S1_3  and  C3_6 
REMARK    3  A    between atoms: C6_9  and  C7_10 
REMARK    4  A    between atoms: C7_10  and  C8_11 
REMARK       I    between atoms: C8_11  and  N1_13 
REMARK    5  A    between atoms: N1_13  and  C9_15 
REMARK    6  A    between atoms: C10_18  and  C11_19 
REMARK    7  A    between atoms: C17_26  and  C18_27 
REMARK    8  A    between atoms: C18_27  and  C19_29 
ROOT
HETATM    1  C9  UNL     1     -25.519   2.608 -13.039  1.00  0.00     0.152 A 
HETATM    2  N2  UNL     1     -25.866   1.609 -13.816  1.00  0.00    -0.335 N 
ATOM      3  H2  UNL     1     -25.860   1.731 -14.829  1.00  0.00     0.168 HD
HETATM    4  C10 UNL     1     -26.219   0.462 -13.308  1.00  0.00     0.066 A 
HETATM    5  C17 UNL     1     -26.213   0.338 -11.958  1.00  0.00     0.087 A 
HETATM    6  S2  UNL     1     -25.691   1.917 -11.480  1.00  0.00    -0.048 SA
ENDROOT
BRANCH   1   7
HETATM    7  N1  UNL     1     -25.093   3.941 -13.405  1.00  0.00    -0.307 N 
HETATM    8  C8  UNL     1     -25.990   5.028 -13.320  1.00  0.00     0.227 C 
HETATM    9  O3  UNL     1     -27.159   4.792 -12.924  1.00  0.00    -0.273 OA
ATOM     10  H1  UNL     1     -24.138   4.096 -13.727  1.00  0.00     0.171 HD
BRANCH   8  11
HETATM   11  C7  UNL     1     -25.589   6.428 -13.690  1.00  0.00     0.141 C 
BRANCH  11  12
HETATM   12  C6  UNL     1     -26.559   7.043 -14.602  1.00  0.00    -0.049 A 
HETATM   13  C5  UNL     1     -27.659   7.703 -14.163  1.00  0.00     0.009 A 
HETATM   14  C4  UNL     1     -28.572   8.268 -15.075  1.00  0.00     0.024 A 
HETATM   15  C3  UNL     1     -28.351   8.156 -16.414  1.00  0.00     0.059 A 
HETATM   16  C26 UNL     1     -27.243   7.492 -16.860  1.00  0.00     0.024 A 
HETATM   17  C25 UNL     1     -26.334   6.929 -15.979  1.00  0.00     0.009 A 
BRANCH  15  18
HETATM   18  S1  UNL     1     -29.482   8.831 -17.566  1.00  0.00     0.175 S 
HETATM   19  O1  UNL     1     -30.615   9.441 -16.760  1.00  0.00    -0.223 OA
HETATM   20  O2  UNL     1     -28.861   9.847 -18.466  1.00  0.00    -0.223 OA
BRANCH  18  21
HETATM   21  C2  UNL     1     -30.125   7.507 -18.565  1.00  0.00     0.141 C 
HETATM   22  C1  UNL     1     -30.446   6.307 -17.686  1.00  0.00     0.021 C 
ENDBRANCH  18  21
ENDBRANCH  15  18
ENDBRANCH  11  12
ENDBRANCH   8  11
ENDBRANCH   1   7
BRANCH   4  23
HETATM   23  C11 UNL     1     -26.588  -0.668 -14.204  1.00  0.00    -0.006 A 
HETATM   24  C12 UNL     1     -27.885  -1.129 -14.240  1.00  0.00     0.014 A 
HETATM   25  C13 UNL     1     -28.247  -2.222 -15.023  1.00  0.00     0.003 A 
HETATM   26  C14 UNL     1     -27.265  -2.836 -15.770  1.00  0.00     0.024 A 
HETATM   27  C15 UNL     1     -25.956  -2.379 -15.741  1.00  0.00     0.035 A 
HETATM   28 CL1  UNL     1     -24.709  -3.151 -16.681  1.00  0.00    -0.084 Cl
HETATM   29  C16 UNL     1     -25.617  -1.279 -14.945  1.00  0.00     0.037 A 
ENDBRANCH   4  23
BRANCH   5  30
HETATM   30  C18 UNL     1     -26.507  -0.755 -11.026  1.00  0.00     0.203 C 
HETATM   31  O4  UNL     1     -26.056  -1.909 -11.174  1.00  0.00    -0.286 OA
BRANCH  30  32
HETATM   32  C19 UNL     1     -27.353  -0.525  -9.867  1.00  0.00     0.037 A 
HETATM   33  C20 UNL     1     -28.716  -0.547  -9.919  1.00  0.00     0.017 A 
HETATM   34  C21 UNL     1     -29.492  -0.311  -8.773  1.00  0.00     0.001 A 
HETATM   35  C22 UNL     1     -28.848  -0.058  -7.599  1.00  0.00     0.002 A 
HETATM   36  C23 UNL     1     -27.471  -0.028  -7.502  1.00  0.00     0.025 A 
HETATM   37  C24 UNL     1     -26.749  -0.265  -8.658  1.00  0.00     0.048 A 
HETATM   38 CL2  UNL     1     -25.014  -0.240  -8.560  1.00  0.00    -0.083 Cl
ENDBRANCH  30  32
ENDBRANCH   5  30
TORSDOF 8
ENDMDL
