MODEL 1
REMARK VINA RESULT: -7.959998460      0.000      0.000
REMARK  2 active torsions:
REMARK  status: ('A' for Active; 'I' for Inactive)
REMARK    1  A    between atoms: C2_5  and  C3_6 
REMARK    2  A    between atoms: C5_10  and  C6_11 
ROOT
HETATM    1  C1  UNL     1     -30.493  83.283  34.635  1.00  0.00     0.171 C 
HETATM    2  N1  UNL     1     -30.903  84.428  33.860  1.00  0.00    -0.325 N 
HETATM    3  N2  UNL     1     -30.966  85.730  34.336  1.00  0.00    -0.300 N 
ATOM      4  H2  UNL     1     -30.898  85.983  35.322  1.00  0.00     0.186 HD
HETATM    5  C2  UNL     1     -31.119  86.574  33.387  1.00  0.00     0.111 C 
HETATM    6  C4  UNL     1     -31.180  85.893  32.070  1.00  0.00     0.111 C 
HETATM    7  C5  UNL     1     -32.433  86.164  31.309  1.00  0.00     0.298 C 
HETATM    8  N3  UNL     1     -33.123  84.870  31.179  1.00  0.00    -0.058 N 
ATOM      9  H31 UNL     1     -32.867  84.316  30.362  1.00  0.00     0.278 HD
ATOM     10  H32 UNL     1     -34.114  84.922  30.941  1.00  0.00     0.278 HD
HETATM   11  C7  UNL     1     -32.818  84.273  32.458  1.00  0.00     0.261 C 
HETATM   12  C8  UNL     1     -31.310  84.442  32.500  1.00  0.00     0.140 C 
ENDROOT
BRANCH   5  13
HETATM   13  C3  UNL     1     -31.216  88.011  33.582  1.00  0.00     0.224 C 
HETATM   14  O1  UNL     1     -32.322  88.609  33.604  1.00  0.00    -0.643 OA
HETATM   15  O2  UNL     1     -30.082  88.784  33.756  1.00  0.00    -0.643 OA
ENDBRANCH   5  13
BRANCH   7  16
HETATM   16  C6  UNL     1     -32.197  86.644  29.926  1.00  0.00     0.205 C 
HETATM   17  O3  UNL     1     -32.048  85.820  28.974  1.00  0.00    -0.646 OA
HETATM   18  O4  UNL     1     -32.124  87.987  29.583  1.00  0.00    -0.646 OA
ENDBRANCH   7  16
TORSDOF 2
ENDMDL
