MODEL 9
REMARK VINA RESULT: -5.353041206      3.400      5.112
REMARK  2 active torsions:
REMARK  status: ('A' for Active; 'I' for Inactive)
REMARK    1  A    between atoms: C2_5  and  C3_6 
REMARK    2  A    between atoms: C5_10  and  C6_11 
ROOT
HETATM    1  C1  UNL     1     -31.491  84.354  31.895  1.00  0.00     0.171 C 
HETATM    2  N1  UNL     1     -31.293  84.849  33.236  1.00  0.00    -0.325 N 
HETATM    3  N2  UNL     1     -31.631  84.163  34.394  1.00  0.00    -0.300 N 
ATOM      4  H2  UNL     1     -32.208  83.322  34.414  1.00  0.00     0.186 HD
HETATM    5  C2  UNL     1     -31.128  84.715  35.434  1.00  0.00     0.111 C 
HETATM    6  C4  UNL     1     -30.339  85.918  35.072  1.00  0.00     0.111 C 
HETATM    7  C5  UNL     1     -30.809  87.169  35.734  1.00  0.00     0.298 C 
HETATM    8  N3  UNL     1     -31.270  88.058  34.656  1.00  0.00    -0.058 N 
ATOM      9  H31 UNL     1     -30.557  88.661  34.248  1.00  0.00     0.278 HD
ATOM     10  H32 UNL     1     -31.877  88.824  34.947  1.00  0.00     0.278 HD
HETATM   11  C7  UNL     1     -31.865  87.098  33.753  1.00  0.00     0.261 C 
HETATM   12  C8  UNL     1     -30.732  86.096  33.616  1.00  0.00     0.140 C 
ENDROOT
BRANCH   5  13
HETATM   13  C3  UNL     1     -31.311  84.220  36.788  1.00  0.00     0.224 C 
HETATM   14  O1  UNL     1     -30.395  83.626  37.411  1.00  0.00    -0.643 OA
HETATM   15  O2  UNL     1     -32.514  84.386  37.449  1.00  0.00    -0.643 OA
ENDBRANCH   5  13
BRANCH   7  16
HETATM   16  C6  UNL     1     -29.734  87.907  36.442  1.00  0.00     0.205 C 
HETATM   17  O3  UNL     1     -29.386  89.064  36.058  1.00  0.00    -0.646 OA
HETATM   18  O4  UNL     1     -29.052  87.401  37.540  1.00  0.00    -0.646 OA
ENDBRANCH   7  16
TORSDOF 2
ENDMDL
