MODEL 8
REMARK VINA RESULT: -5.358117139      8.062      9.821
REMARK  2 active torsions:
REMARK  status: ('A' for Active; 'I' for Inactive)
REMARK    1  A    between atoms: C2_5  and  C3_6 
REMARK    2  A    between atoms: C5_10  and  C6_11 
ROOT
HETATM    1  C1  UNL     1     -33.210  94.462  27.076  1.00  0.00     0.171 C 
HETATM    2  N1  UNL     1     -31.890  93.945  26.807  1.00  0.00    -0.325 N 
HETATM    3  N2  UNL     1     -30.920  94.592  26.054  1.00  0.00    -0.300 N 
ATOM      4  H2  UNL     1     -31.099  95.412  25.474  1.00  0.00     0.186 HD
HETATM    5  C2  UNL     1     -29.775  94.035  26.180  1.00  0.00     0.111 C 
HETATM    6  C4  UNL     1     -29.844  92.869  27.093  1.00  0.00     0.111 C 
HETATM    7  C5  UNL     1     -29.402  91.588  26.471  1.00  0.00     0.298 C 
HETATM    8  N3  UNL     1     -30.581  90.708  26.457  1.00  0.00    -0.058 N 
ATOM      9  H31 UNL     1     -30.715  90.139  27.292  1.00  0.00     0.278 HD
ATOM     10  H32 UNL     1     -30.530  89.915  25.818  1.00  0.00     0.278 HD
HETATM   11  C7  UNL     1     -31.627  91.666  26.180  1.00  0.00     0.261 C 
HETATM   12  C8  UNL     1     -31.347  92.710  27.247  1.00  0.00     0.140 C 
ENDROOT
BRANCH   5  13
HETATM   13  C3  UNL     1     -28.569  94.494  25.511  1.00  0.00     0.224 C 
HETATM   14  O1  UNL     1     -28.554  94.791  24.289  1.00  0.00    -0.643 OA
HETATM   15  O2  UNL     1     -27.378  94.624  26.202  1.00  0.00    -0.643 OA
ENDBRANCH   5  13
BRANCH   7  16
HETATM   16  C6  UNL     1     -28.366  90.873  27.256  1.00  0.00     0.205 C 
HETATM   17  O3  UNL     1     -27.510  91.518  27.933  1.00  0.00    -0.646 OA
HETATM   18  O4  UNL     1     -28.261  89.490  27.304  1.00  0.00    -0.646 OA
ENDBRANCH   7  16
TORSDOF 2
ENDMDL
