MODEL 6
REMARK VINA RESULT: -5.623175768      3.480      5.037
REMARK  2 active torsions:
REMARK  status: ('A' for Active; 'I' for Inactive)
REMARK    1  A    between atoms: C2_5  and  C3_6 
REMARK    2  A    between atoms: C5_10  and  C6_11 
ROOT
HETATM    1  C1  UNL     1     -31.428  84.349  31.925  1.00  0.00     0.171 C 
HETATM    2  N1  UNL     1     -31.259  84.848  33.267  1.00  0.00    -0.325 N 
HETATM    3  N2  UNL     1     -31.647  84.179  34.419  1.00  0.00    -0.300 N 
ATOM      4  H2  UNL     1     -32.244  83.352  34.427  1.00  0.00     0.186 HD
HETATM    5  C2  UNL     1     -31.162  84.726  35.470  1.00  0.00     0.111 C 
HETATM    6  C4  UNL     1     -30.335  85.908  35.125  1.00  0.00     0.111 C 
HETATM    7  C5  UNL     1     -30.794  87.173  35.764  1.00  0.00     0.298 C 
HETATM    8  N3  UNL     1     -31.202  88.065  34.667  1.00  0.00    -0.058 N 
ATOM      9  H31 UNL     1     -30.463  88.649  34.277  1.00  0.00     0.278 HD
ATOM     10  H32 UNL     1     -31.799  88.848  34.935  1.00  0.00     0.278 HD
HETATM   11  C7  UNL     1     -31.792  87.114  33.753  1.00  0.00     0.261 C 
HETATM   12  C8  UNL     1     -30.680  86.085  33.656  1.00  0.00     0.140 C 
ENDROOT
BRANCH   5  13
HETATM   13  C3  UNL     1     -31.397  84.244  36.821  1.00  0.00     0.224 C 
HETATM   14  O1  UNL     1     -32.505  84.385  37.397  1.00  0.00    -0.643 OA
HETATM   15  O2  UNL     1     -30.398  83.603  37.531  1.00  0.00    -0.643 OA
ENDBRANCH   5  13
BRANCH   7  16
HETATM   16  C6  UNL     1     -29.723  87.891  36.499  1.00  0.00     0.205 C 
HETATM   17  O3  UNL     1     -29.117  87.332  37.462  1.00  0.00    -0.646 OA
HETATM   18  O4  UNL     1     -29.321  89.184  36.197  1.00  0.00    -0.646 OA
ENDBRANCH   7  16
TORSDOF 2
ENDMDL
