MODEL 4
REMARK VINA RESULT: -10.022086156      3.195      6.297
REMARK  6 active torsions:
REMARK  status: ('A' for Active; 'I' for Inactive)
REMARK    1  A    between atoms: C7_8  and  N1_9 
REMARK       I    between atoms: N1_9  and  C8_11 
REMARK    2  A    between atoms: C8_11  and  C9_13 
REMARK    3  A    between atoms: C11_17  and  N3_18 
REMARK    4  A    between atoms: N3_18  and  C12_20 
REMARK    5  A    between atoms: C16_24  and  C17_25 
REMARK       I    between atoms: C17_25  and  N4_27 
REMARK    6  A    between atoms: N4_27  and  C18_29 
ROOT
HETATM    1  N3  UNL     1     -98.924 -18.594  43.517  1.00  0.00    -0.337 N 
ATOM      2  H3  UNL     1     -99.119 -18.236  42.583  1.00  0.00     0.168 HD
ENDROOT
BRANCH   1   3
HETATM    3  C11 UNL     1    -100.005 -19.078  44.287  1.00  0.00     0.149 A 
HETATM    4  N2  UNL     1    -101.277 -18.772  44.030  1.00  0.00    -0.345 N 
HETATM    5  C10 UNL     1    -102.209 -19.237  44.785  1.00  0.00     0.115 A 
ATOM      6  H2  UNL     1    -101.511 -18.171  43.240  1.00  0.00     0.167 HD
HETATM    7  C9  UNL     1    -101.858 -20.042  45.836  1.00  0.00     0.091 A 
HETATM    8  S1  UNL     1    -100.163 -20.073  45.661  1.00  0.00    -0.047 SA
BRANCH   7   9
HETATM    9  C8  UNL     1    -102.731 -20.688  46.832  1.00  0.00     0.264 C 
HETATM   10  N1  UNL     1    -104.104 -20.844  46.621  1.00  0.00    -0.320 N 
ATOM     11  H1  UNL     1    -104.543 -20.511  45.763  1.00  0.00     0.169 HD
HETATM   12  O1  UNL     1    -102.199 -21.093  47.875  1.00  0.00    -0.267 OA
BRANCH  10  13
HETATM   13  C7  UNL     1    -104.884 -21.488  47.651  1.00  0.00     0.062 A 
HETATM   14  C2  UNL     1    -105.579 -20.742  48.581  1.00  0.00    -0.034 A 
HETATM   15  C1  UNL     1    -105.500 -19.255  48.485  1.00  0.00     0.050 C 
HETATM   16  C3  UNL     1    -106.324 -21.344  49.568  1.00  0.00     0.009 A 
HETATM   17  C4  UNL     1    -106.370 -22.712  49.622  1.00  0.00     0.002 A 
HETATM   18  C5  UNL     1    -105.696 -23.507  48.718  1.00  0.00     0.026 A 
HETATM   19  C6  UNL     1    -104.961 -22.864  47.746  1.00  0.00     0.061 A 
HETATM   20 CL1  UNL     1    -104.094 -23.839  46.586  1.00  0.00    -0.082 Cl
ENDBRANCH  10  13
ENDBRANCH   7   9
ENDBRANCH   1   3
BRANCH   1  21
HETATM   21  C12 UNL     1     -97.583 -18.580  43.975  1.00  0.00     0.035 A 
HETATM   22  C13 UNL     1     -96.493 -18.999  43.255  1.00  0.00     0.029 A 
HETATM   23  C14 UNL     1     -95.189 -18.978  43.776  1.00  0.00     0.003 A 
HETATM   24  C15 UNL     1     -95.008 -18.516  45.061  1.00  0.00     0.017 A 
HETATM   25  C16 UNL     1     -96.064 -18.085  45.825  1.00  0.00     0.034 A 
HETATM   26  C23 UNL     1     -97.323 -18.122  45.280  1.00  0.00     0.046 A 
BRANCH  25  27
HETATM   27  C17 UNL     1     -95.905 -17.588  47.184  1.00  0.00     0.252 C 
HETATM   28  O2  UNL     1     -95.100 -16.619  47.423  1.00  0.00    -0.268 OA
HETATM   29  N4  UNL     1     -96.599 -18.117  48.302  1.00  0.00    -0.352 N 
ATOM     30  H4  UNL     1     -97.249 -18.889  48.158  1.00  0.00     0.163 HD
BRANCH  29  31
HETATM   31  C18 UNL     1     -96.414 -17.586  49.666  1.00  0.00     0.087 C 
HETATM   32  C19 UNL     1     -97.740 -17.122  50.141  1.00  0.00     0.052 C 
HETATM   33  C20 UNL     1     -98.175 -17.576  51.485  1.00  0.00     0.234 C 
HETATM   34  N5  UNL     1     -97.677 -18.847  51.913  1.00  0.00    -0.075 N 
HETATM   35  C21 UNL     1     -96.226 -18.768  51.875  1.00  0.00     0.234 C 
ATOM     36  H52 UNL     1     -98.039 -19.134  52.822  1.00  0.00     0.277 HD
ATOM     37  H51 UNL     1     -98.051 -19.627  51.373  1.00  0.00     0.277 HD
HETATM   38  C22 UNL     1     -95.757 -18.667  50.450  1.00  0.00     0.052 C 
ENDBRANCH  29  31
ENDBRANCH  25  27
ENDBRANCH   1  21
TORSDOF 6
ENDMDL
