MODEL 8
REMARK VINA RESULT: -9.830977552      2.671      3.319
REMARK  6 active torsions:
REMARK  status: ('A' for Active; 'I' for Inactive)
REMARK    1  A    between atoms: C7_8  and  N1_9 
REMARK       I    between atoms: N1_9  and  C8_11 
REMARK    2  A    between atoms: C8_11  and  C9_13 
REMARK    3  A    between atoms: C11_17  and  N3_18 
REMARK    4  A    between atoms: N3_18  and  C12_20 
REMARK    5  A    between atoms: C16_24  and  C17_25 
REMARK       I    between atoms: C17_25  and  N4_27 
REMARK    6  A    between atoms: N4_27  and  C18_29 
ROOT
HETATM    1  N3  UNL     1     -99.001 -18.641  43.387  1.00  0.00    -0.337 N 
ATOM      2  H3  UNL     1     -99.211 -18.320  42.442  1.00  0.00     0.168 HD
ENDROOT
BRANCH   1   3
HETATM    3  C11 UNL     1    -100.070 -19.095  44.191  1.00  0.00     0.149 A 
HETATM    4  N2  UNL     1    -101.340 -18.749  43.979  1.00  0.00    -0.345 N 
HETATM    5  C10 UNL     1    -102.259 -19.190  44.763  1.00  0.00     0.115 A 
ATOM      6  H2  UNL     1    -101.582 -18.138  43.199  1.00  0.00     0.167 HD
HETATM    7  C9  UNL     1    -101.897 -20.011  45.799  1.00  0.00     0.091 A 
HETATM    8  S1  UNL     1    -100.210 -20.092  45.566  1.00  0.00    -0.047 SA
BRANCH   7   9
HETATM    9  C8  UNL     1    -102.755 -20.635  46.821  1.00  0.00     0.264 C 
HETATM   10  N1  UNL     1    -104.089 -20.965  46.566  1.00  0.00    -0.320 N 
ATOM     11  H1  UNL     1    -104.509 -20.781  45.655  1.00  0.00     0.169 HD
HETATM   12  O1  UNL     1    -102.246 -20.858  47.929  1.00  0.00    -0.267 OA
BRANCH  10  13
HETATM   13  C7  UNL     1    -104.856 -21.573  47.627  1.00  0.00     0.062 A 
HETATM   14  C2  UNL     1    -104.962 -22.946  47.724  1.00  0.00    -0.034 A 
HETATM   15  C1  UNL     1    -104.260 -23.775  46.701  1.00  0.00     0.050 C 
HETATM   16  C3  UNL     1    -105.691 -23.538  48.728  1.00  0.00     0.009 A 
HETATM   17  C4  UNL     1    -106.322 -22.740  49.647  1.00  0.00     0.002 A 
HETATM   18  C5  UNL     1    -106.249 -21.363  49.599  1.00  0.00     0.026 A 
HETATM   19  C6  UNL     1    -105.509 -20.811  48.577  1.00  0.00     0.061 A 
HETATM   20 CL1  UNL     1    -105.395 -19.072  48.485  1.00  0.00    -0.082 Cl
ENDBRANCH  10  13
ENDBRANCH   7   9
ENDBRANCH   1   3
BRANCH   1  21
HETATM   21  C12 UNL     1     -97.654 -18.607  43.823  1.00  0.00     0.035 A 
HETATM   22  C13 UNL     1     -97.214 -18.966  45.072  1.00  0.00     0.029 A 
HETATM   23  C14 UNL     1     -95.863 -18.890  45.449  1.00  0.00     0.003 A 
HETATM   24  C15 UNL     1     -94.952 -18.437  44.521  1.00  0.00     0.017 A 
HETATM   25  C16 UNL     1     -95.339 -18.065  43.256  1.00  0.00     0.034 A 
HETATM   26  C23 UNL     1     -96.668 -18.154  42.927  1.00  0.00     0.046 A 
BRANCH  25  27
HETATM   27  C17 UNL     1     -94.400 -17.586  42.252  1.00  0.00     0.252 C 
HETATM   28  O2  UNL     1     -94.263 -18.221  41.147  1.00  0.00    -0.268 OA
HETATM   29  N4  UNL     1     -93.598 -16.428  42.413  1.00  0.00    -0.352 N 
ATOM     30  H4  UNL     1     -93.674 -15.893  43.278  1.00  0.00     0.163 HD
BRANCH  29  31
HETATM   31  C18 UNL     1     -92.658 -15.970  41.372  1.00  0.00     0.087 C 
HETATM   32  C19 UNL     1     -92.965 -14.545  41.098  1.00  0.00     0.052 C 
HETATM   33  C20 UNL     1     -91.826 -13.596  41.093  1.00  0.00     0.234 C 
HETATM   34  N5  UNL     1     -90.722 -13.930  41.940  1.00  0.00    -0.075 N 
HETATM   35  C21 UNL     1     -90.259 -15.246  41.532  1.00  0.00     0.234 C 
ATOM     36  H52 UNL     1     -89.984 -13.226  41.935  1.00  0.00     0.277 HD
ATOM     37  H51 UNL     1     -90.947 -13.874  42.933  1.00  0.00     0.277 HD
HETATM   38  C22 UNL     1     -91.293 -16.282  41.874  1.00  0.00     0.052 C 
ENDBRANCH  29  31
ENDBRANCH  25  27
ENDBRANCH   1  21
TORSDOF 6
ENDMDL
