MODEL 2
REMARK VINA RESULT: -10.103479916      3.031      6.122
REMARK  6 active torsions:
REMARK  status: ('A' for Active; 'I' for Inactive)
REMARK    1  A    between atoms: C7_8  and  N1_9 
REMARK       I    between atoms: N1_9  and  C8_11 
REMARK    2  A    between atoms: C8_11  and  C9_13 
REMARK    3  A    between atoms: C11_17  and  N3_18 
REMARK    4  A    between atoms: N3_18  and  C12_20 
REMARK    5  A    between atoms: C16_24  and  C17_25 
REMARK       I    between atoms: C17_25  and  N4_27 
REMARK    6  A    between atoms: N4_27  and  C18_29 
ROOT
HETATM    1  N3  UNL     1     -98.831 -18.671  43.544  1.00  0.00    -0.337 N 
ATOM      2  H3  UNL     1     -99.016 -18.347  42.595  1.00  0.00     0.168 HD
ENDROOT
BRANCH   1   3
HETATM    3  C11 UNL     1     -99.920 -19.126  44.319  1.00  0.00     0.149 A 
HETATM    4  N2  UNL     1    -101.182 -18.761  44.090  1.00  0.00    -0.345 N 
HETATM    5  C10 UNL     1    -102.121 -19.205  44.848  1.00  0.00     0.115 A 
ATOM      6  H2  UNL     1    -101.401 -18.132  43.317  1.00  0.00     0.167 HD
HETATM    7  C9  UNL     1    -101.789 -20.048  45.875  1.00  0.00     0.091 A 
HETATM    8  S1  UNL     1    -100.099 -20.146  45.672  1.00  0.00    -0.047 SA
BRANCH   7   9
HETATM    9  C8  UNL     1    -102.674 -20.681  46.869  1.00  0.00     0.264 C 
HETATM   10  N1  UNL     1    -104.016 -20.961  46.593  1.00  0.00    -0.320 N 
ATOM     11  H1  UNL     1    -104.422 -20.732  45.686  1.00  0.00     0.169 HD
HETATM   12  O1  UNL     1    -102.181 -20.958  47.971  1.00  0.00    -0.267 OA
BRANCH  10  13
HETATM   13  C7  UNL     1    -104.810 -21.581  47.627  1.00  0.00     0.062 A 
HETATM   14  C2  UNL     1    -104.924 -22.955  47.700  1.00  0.00    -0.034 A 
HETATM   15  C1  UNL     1    -104.203 -23.772  46.680  1.00  0.00     0.050 C 
HETATM   16  C3  UNL     1    -105.679 -23.558  48.678  1.00  0.00     0.009 A 
HETATM   17  C4  UNL     1    -106.326 -22.771  49.594  1.00  0.00     0.002 A 
HETATM   18  C5  UNL     1    -106.246 -21.394  49.569  1.00  0.00     0.026 A 
HETATM   19  C6  UNL     1    -105.480 -20.830  48.572  1.00  0.00     0.061 A 
HETATM   20 CL1  UNL     1    -105.356 -19.090  48.510  1.00  0.00    -0.082 Cl
ENDBRANCH  10  13
ENDBRANCH   7   9
ENDBRANCH   1   3
BRANCH   1  21
HETATM   21  C12 UNL     1     -97.495 -18.638  44.016  1.00  0.00     0.035 A 
HETATM   22  C13 UNL     1     -96.397 -19.079  43.323  1.00  0.00     0.029 A 
HETATM   23  C14 UNL     1     -95.098 -19.037  43.857  1.00  0.00     0.003 A 
HETATM   24  C15 UNL     1     -94.932 -18.531  45.127  1.00  0.00     0.017 A 
HETATM   25  C16 UNL     1     -95.998 -18.076  45.864  1.00  0.00     0.034 A 
HETATM   26  C23 UNL     1     -97.251 -18.134  45.307  1.00  0.00     0.046 A 
BRANCH  25  27
HETATM   27  C17 UNL     1     -95.854 -17.533  47.207  1.00  0.00     0.252 C 
HETATM   28  O2  UNL     1     -95.094 -16.521  47.412  1.00  0.00    -0.268 OA
HETATM   29  N4  UNL     1     -96.517 -18.059  48.345  1.00  0.00    -0.352 N 
ATOM     30  H4  UNL     1     -97.130 -18.865  48.228  1.00  0.00     0.163 HD
BRANCH  29  31
HETATM   31  C18 UNL     1     -96.349 -17.481  49.692  1.00  0.00     0.087 C 
HETATM   32  C19 UNL     1     -97.692 -17.058  50.159  1.00  0.00     0.052 C 
HETATM   33  C20 UNL     1     -98.103 -17.489  51.517  1.00  0.00     0.234 C 
HETATM   34  N5  UNL     1     -97.550 -18.725  51.981  1.00  0.00    -0.075 N 
HETATM   35  C21 UNL     1     -96.104 -18.586  51.933  1.00  0.00     0.234 C 
ATOM     36  H52 UNL     1     -97.897 -19.000  52.900  1.00  0.00     0.277 HD
ATOM     37  H51 UNL     1     -97.893 -19.536  51.467  1.00  0.00     0.277 HD
HETATM   38  C22 UNL     1     -95.644 -18.509  50.504  1.00  0.00     0.052 C 
ENDBRANCH  29  31
ENDBRANCH  25  27
ENDBRANCH   1  21
TORSDOF 6
ENDMDL
