MODEL 10
REMARK VINA RESULT: -9.718729570      2.825      3.646
REMARK  6 active torsions:
REMARK  status: ('A' for Active; 'I' for Inactive)
REMARK    1  A    between atoms: C7_8  and  N1_9 
REMARK       I    between atoms: N1_9  and  C8_11 
REMARK    2  A    between atoms: C8_11  and  C9_13 
REMARK    3  A    between atoms: C11_17  and  N3_18 
REMARK    4  A    between atoms: N3_18  and  C12_20 
REMARK    5  A    between atoms: C16_24  and  C17_25 
REMARK       I    between atoms: C17_25  and  N4_27 
REMARK    6  A    between atoms: N4_27  and  C18_29 
ROOT
HETATM    1  N3  UNL     1     -99.033 -18.618  43.427  1.00  0.00    -0.337 N 
ATOM      2  H3  UNL     1     -99.245 -18.279  42.489  1.00  0.00     0.168 HD
ENDROOT
BRANCH   1   3
HETATM    3  C11 UNL     1    -100.098 -19.095  44.223  1.00  0.00     0.149 A 
HETATM    4  N2  UNL     1    -101.371 -18.760  44.013  1.00  0.00    -0.345 N 
HETATM    5  C10 UNL     1    -102.287 -19.221  44.789  1.00  0.00     0.115 A 
ATOM      6  H2  UNL     1    -101.618 -18.141  43.240  1.00  0.00     0.167 HD
HETATM    7  C9  UNL     1    -101.918 -20.051  45.815  1.00  0.00     0.091 A 
HETATM    8  S1  UNL     1    -100.230 -20.111  45.584  1.00  0.00    -0.047 SA
BRANCH   7   9
HETATM    9  C8  UNL     1    -102.772 -20.698  46.827  1.00  0.00     0.264 C 
HETATM   10  N1  UNL     1    -104.144 -20.876  46.632  1.00  0.00    -0.320 N 
ATOM     11  H1  UNL     1    -104.597 -20.560  45.775  1.00  0.00     0.169 HD
HETATM   12  O1  UNL     1    -102.223 -21.082  47.869  1.00  0.00    -0.267 OA
BRANCH  10  13
HETATM   13  C7  UNL     1    -104.904 -21.520  47.678  1.00  0.00     0.062 A 
HETATM   14  C2  UNL     1    -105.580 -20.773  48.621  1.00  0.00    -0.034 A 
HETATM   15  C1  UNL     1    -105.502 -19.286  48.523  1.00  0.00     0.050 C 
HETATM   16  C3  UNL     1    -106.305 -21.373  49.623  1.00  0.00     0.009 A 
HETATM   17  C4  UNL     1    -106.351 -22.742  49.678  1.00  0.00     0.002 A 
HETATM   18  C5  UNL     1    -105.695 -23.537  48.762  1.00  0.00     0.026 A 
HETATM   19  C6  UNL     1    -104.980 -22.895  47.775  1.00  0.00     0.061 A 
HETATM   20 CL1  UNL     1    -104.137 -23.871  46.598  1.00  0.00    -0.082 Cl
ENDBRANCH  10  13
ENDBRANCH   7   9
ENDBRANCH   1   3
BRANCH   1  21
HETATM   21  C12 UNL     1     -97.685 -18.585  43.863  1.00  0.00     0.035 A 
HETATM   22  C13 UNL     1     -97.246 -18.930  45.117  1.00  0.00     0.029 A 
HETATM   23  C14 UNL     1     -95.895 -18.856  45.493  1.00  0.00     0.003 A 
HETATM   24  C15 UNL     1     -94.982 -18.419  44.559  1.00  0.00     0.017 A 
HETATM   25  C16 UNL     1     -95.367 -18.061  43.289  1.00  0.00     0.034 A 
HETATM   26  C23 UNL     1     -96.697 -18.148  42.961  1.00  0.00     0.046 A 
BRANCH  25  27
HETATM   27  C17 UNL     1     -94.427 -17.599  42.280  1.00  0.00     0.252 C 
HETATM   28  O2  UNL     1     -94.278 -18.260  41.191  1.00  0.00    -0.268 OA
HETATM   29  N4  UNL     1     -93.635 -16.431  42.417  1.00  0.00    -0.352 N 
ATOM     30  H4  UNL     1     -93.720 -15.876  43.268  1.00  0.00     0.163 HD
BRANCH  29  31
HETATM   31  C18 UNL     1     -92.692 -15.991  41.371  1.00  0.00     0.087 C 
HETATM   32  C19 UNL     1     -92.963 -14.557  41.109  1.00  0.00     0.052 C 
HETATM   33  C20 UNL     1     -91.799 -13.638  41.100  1.00  0.00     0.234 C 
HETATM   34  N5  UNL     1     -90.697 -14.007  41.935  1.00  0.00    -0.075 N 
HETATM   35  C21 UNL     1     -90.273 -15.332  41.514  1.00  0.00     0.234 C 
ATOM     36  H52 UNL     1     -89.941 -13.323  41.928  1.00  0.00     0.277 HD
ATOM     37  H51 UNL     1     -90.912 -13.952  42.931  1.00  0.00     0.277 HD
HETATM   38  C22 UNL     1     -91.331 -16.343  41.858  1.00  0.00     0.052 C 
ENDBRANCH  29  31
ENDBRANCH  25  27
ENDBRANCH   1  21
TORSDOF 6
ENDMDL
