MODEL 5
REMARK VINA RESULT: -9.998836118      3.330      6.574
REMARK  6 active torsions:
REMARK  status: ('A' for Active; 'I' for Inactive)
REMARK    1  A    between atoms: C7_8  and  N1_9 
REMARK       I    between atoms: N1_9  and  C8_11 
REMARK    2  A    between atoms: C8_11  and  C9_13 
REMARK    3  A    between atoms: C11_17  and  N3_18 
REMARK    4  A    between atoms: N3_18  and  C12_20 
REMARK    5  A    between atoms: C16_24  and  C17_25 
REMARK       I    between atoms: C17_25  and  N4_27 
REMARK    6  A    between atoms: N4_27  and  C18_29 
ROOT
HETATM    1  N3  UNL     1     -98.549 -18.740  43.706  1.00  0.00    -0.337 N 
ATOM      2  H3  UNL     1     -98.507 -18.541  42.706  1.00  0.00     0.168 HD
ENDROOT
BRANCH   1   3
HETATM    3  C11 UNL     1     -99.798 -19.085  44.267  1.00  0.00     0.149 A 
HETATM    4  N2  UNL     1    -100.963 -18.685  43.757  1.00  0.00    -0.345 N 
HETATM    5  C10 UNL     1    -102.062 -19.026  44.332  1.00  0.00     0.115 A 
ATOM      6  H2  UNL     1    -100.983 -18.110  42.914  1.00  0.00     0.167 HD
HETATM    7  C9  UNL     1    -101.995 -19.800  45.460  1.00  0.00     0.091 A 
HETATM    8  S1  UNL     1    -100.309 -19.987  45.620  1.00  0.00    -0.047 SA
BRANCH   7   9
HETATM    9  C8  UNL     1    -103.100 -20.313  46.289  1.00  0.00     0.264 C 
HETATM   10  N1  UNL     1    -102.886 -21.228  47.324  1.00  0.00    -0.320 N 
ATOM     11  H1  UNL     1    -101.948 -21.569  47.536  1.00  0.00     0.169 HD
HETATM   12  O1  UNL     1    -104.240 -19.899  46.033  1.00  0.00    -0.267 OA
BRANCH  10  13
HETATM   13  C7  UNL     1    -104.028 -21.677  48.085  1.00  0.00     0.062 A 
HETATM   14  C2  UNL     1    -104.639 -22.880  47.796  1.00  0.00    -0.034 A 
HETATM   15  C1  UNL     1    -104.083 -23.697  46.677  1.00  0.00     0.050 C 
HETATM   16  C3  UNL     1    -105.728 -23.319  48.512  1.00  0.00     0.009 A 
HETATM   17  C4  UNL     1    -106.209 -22.538  49.531  1.00  0.00     0.002 A 
HETATM   18  C5  UNL     1    -105.636 -21.329  49.864  1.00  0.00     0.026 A 
HETATM   19  C6  UNL     1    -104.547 -20.926  49.121  1.00  0.00     0.061 A 
HETATM   20 CL1  UNL     1    -103.797 -19.400  49.515  1.00  0.00    -0.082 Cl
ENDBRANCH  10  13
ENDBRANCH   7   9
ENDBRANCH   1   3
BRANCH   1  21
HETATM   21  C12 UNL     1     -97.351 -18.653  44.458  1.00  0.00     0.035 A 
HETATM   22  C13 UNL     1     -96.100 -18.981  44.001  1.00  0.00     0.029 A 
HETATM   23  C14 UNL     1     -94.953 -18.892  44.805  1.00  0.00     0.003 A 
HETATM   24  C15 UNL     1     -95.100 -18.455  46.103  1.00  0.00     0.017 A 
HETATM   25  C16 UNL     1     -96.330 -18.112  46.612  1.00  0.00     0.034 A 
HETATM   26  C23 UNL     1     -97.426 -18.215  45.793  1.00  0.00     0.046 A 
BRANCH  25  27
HETATM   27  C17 UNL     1     -96.517 -17.644  47.977  1.00  0.00     0.252 C 
HETATM   28  O2  UNL     1     -95.548 -17.083  48.601  1.00  0.00    -0.268 OA
HETATM   29  N4  UNL     1     -97.735 -17.768  48.692  1.00  0.00    -0.352 N 
ATOM     30  H4  UNL     1     -98.532 -18.210  48.234  1.00  0.00     0.163 HD
BRANCH  29  31
HETATM   31  C18 UNL     1     -97.889 -17.280  50.075  1.00  0.00     0.087 C 
HETATM   32  C19 UNL     1     -99.219 -16.628  50.166  1.00  0.00     0.052 C 
HETATM   33  C20 UNL     1    -100.090 -17.021  51.300  1.00  0.00     0.234 C 
HETATM   34  N5  UNL     1     -99.923 -18.355  51.791  1.00  0.00    -0.075 N 
HETATM   35  C21 UNL     1     -98.529 -18.490  52.181  1.00  0.00     0.234 C 
ATOM     36  H52 UNL     1    -100.573 -18.591  52.540  1.00  0.00     0.277 HD
ATOM     37  H51 UNL     1    -100.225 -19.068  51.128  1.00  0.00     0.277 HD
HETATM   38  C22 UNL     1     -97.650 -18.450  50.962  1.00  0.00     0.052 C 
ENDBRANCH  29  31
ENDBRANCH  25  27
ENDBRANCH   1  21
TORSDOF 6
ENDMDL
