MODEL 8
REMARK VINA RESULT: -10.092812569      1.419      1.972
REMARK  6 active torsions:
REMARK  status: ('A' for Active; 'I' for Inactive)
REMARK    1  A    between atoms: C7_8  and  N1_9 
REMARK       I    between atoms: N1_9  and  C8_11 
REMARK    2  A    between atoms: C8_11  and  C9_13 
REMARK    3  A    between atoms: C11_17  and  N3_18 
REMARK    4  A    between atoms: N3_18  and  C12_20 
REMARK    5  A    between atoms: C16_24  and  C17_25 
REMARK       I    between atoms: C17_25  and  N4_27 
REMARK    6  A    between atoms: N4_27  and  C18_29 
ROOT
HETATM    1  N3  UNL     1     -86.669 -15.388   5.251  1.00  0.00    -0.337 N 
ATOM      2  H3  UNL     1     -86.892 -14.903   4.382  1.00  0.00     0.168 HD
ENDROOT
BRANCH   1   3
HETATM    3  C11 UNL     1     -87.740 -15.958   6.013  1.00  0.00     0.149 A 
HETATM    4  N2  UNL     1     -89.047 -15.908   5.689  1.00  0.00    -0.345 N 
HETATM    5  C10 UNL     1     -89.916 -16.445   6.464  1.00  0.00     0.115 A 
ATOM      6  H2  UNL     1     -89.345 -15.445   4.831  1.00  0.00     0.167 HD
HETATM    7  C9  UNL     1     -89.484 -17.062   7.611  1.00  0.00     0.091 A 
HETATM    8  S1  UNL     1     -87.801 -16.815   7.487  1.00  0.00    -0.047 SA
BRANCH   7   9
HETATM    9  C8  UNL     1     -90.268 -17.734   8.635  1.00  0.00     0.264 C 
HETATM   10  N1  UNL     1     -91.642 -17.989   8.447  1.00  0.00    -0.320 N 
ATOM     11  H1  UNL     1     -92.069 -17.686   7.571  1.00  0.00     0.169 HD
HETATM   12  O1  UNL     1     -89.713 -18.090   9.693  1.00  0.00    -0.267 OA
BRANCH  10  13
HETATM   13  C7  UNL     1     -92.465 -18.637   9.397  1.00  0.00     0.062 A 
HETATM   14  C2  UNL     1     -93.200 -17.857  10.273  1.00  0.00    -0.034 A 
HETATM   15  C1  UNL     1     -93.139 -16.367  10.234  1.00  0.00     0.050 C 
HETATM   16  C3  UNL     1     -93.992 -18.521  11.185  1.00  0.00     0.009 A 
HETATM   17  C4  UNL     1     -94.049 -19.907  11.221  1.00  0.00     0.002 A 
HETATM   18  C5  UNL     1     -93.300 -20.645  10.329  1.00  0.00     0.026 A 
HETATM   19  C6  UNL     1     -92.496 -20.001   9.402  1.00  0.00     0.061 A 
HETATM   20 CL1  UNL     1     -91.533 -20.915   8.256  1.00  0.00    -0.082 Cl
ENDBRANCH  10  13
ENDBRANCH   7   9
ENDBRANCH   1   3
BRANCH   1  21
HETATM   21  C12 UNL     1     -85.329 -15.468   5.650  1.00  0.00     0.035 A 
HETATM   22  C13 UNL     1     -84.258 -15.788   4.857  1.00  0.00     0.029 A 
HETATM   23  C14 UNL     1     -82.949 -15.865   5.353  1.00  0.00     0.003 A 
HETATM   24  C15 UNL     1     -82.772 -15.604   6.683  1.00  0.00     0.017 A 
HETATM   25  C16 UNL     1     -83.824 -15.282   7.499  1.00  0.00     0.034 A 
HETATM   26  C23 UNL     1     -85.092 -15.210   7.009  1.00  0.00     0.046 A 
BRANCH  25  27
HETATM   27  C17 UNL     1     -83.608 -15.006   8.926  1.00  0.00     0.252 C 
HETATM   28  O2  UNL     1     -84.265 -14.041   9.445  1.00  0.00    -0.268 OA
HETATM   29  N4  UNL     1     -82.723 -15.745   9.736  1.00  0.00    -0.349 N 
ATOM     30  H4  UNL     1     -82.184 -16.521   9.350  1.00  0.00     0.163 HD
BRANCH  29  31
HETATM   31  C18 UNL     1     -82.595 -15.372  11.145  1.00  0.00     0.121 C 
HETATM   32  C19 UNL     1     -81.334 -14.542  11.333  1.00  0.00     0.055 C 
HETATM   33  C20 UNL     1     -80.917 -14.679  12.776  1.00  0.00     0.234 C 
HETATM   34  N5  UNL     1     -82.132 -14.807  13.570  1.00  0.00    -0.072 N 
HETATM   35  C21 UNL     1     -82.643 -16.166  13.454  1.00  0.00     0.271 C 
ATOM     36  H52 UNL     1     -81.990 -14.530  14.541  1.00  0.00     0.277 HD
ATOM     37  H51 UNL     1     -82.832 -14.108  13.321  1.00  0.00     0.277 HD
HETATM   38  C22 UNL     1     -82.590 -16.598  12.010  1.00  0.00     0.218 C 
HETATM   39  F1  UNL     1     -83.683 -17.365  11.648  1.00  0.00    -0.245 F 
ENDBRANCH  29  31
ENDBRANCH  25  27
ENDBRANCH   1  21
TORSDOF 6
ENDMDL
