MODEL 3
REMARK VINA RESULT: -10.332504109      0.976      1.537
REMARK  6 active torsions:
REMARK  status: ('A' for Active; 'I' for Inactive)
REMARK    1  A    between atoms: C7_8  and  N1_9 
REMARK       I    between atoms: N1_9  and  C8_11 
REMARK    2  A    between atoms: C8_11  and  C9_13 
REMARK    3  A    between atoms: C11_17  and  N3_18 
REMARK    4  A    between atoms: N3_18  and  C12_20 
REMARK    5  A    between atoms: C16_24  and  C17_25 
REMARK       I    between atoms: C17_25  and  N4_27 
REMARK    6  A    between atoms: N4_27  and  C18_29 
ROOT
HETATM    1  N3  UNL     1     -86.731 -15.446   5.140  1.00  0.00    -0.337 N 
ATOM      2  H3  UNL     1     -86.958 -15.015   4.244  1.00  0.00     0.168 HD
ENDROOT
BRANCH   1   3
HETATM    3  C11 UNL     1     -87.797 -15.977   5.936  1.00  0.00     0.149 A 
HETATM    4  N2  UNL     1     -89.113 -15.822   5.690  1.00  0.00    -0.345 N 
HETATM    5  C10 UNL     1     -89.974 -16.334   6.489  1.00  0.00     0.115 A 
ATOM      6  H2  UNL     1     -89.422 -15.297   4.872  1.00  0.00     0.167 HD
HETATM    7  C9  UNL     1     -89.527 -17.035   7.580  1.00  0.00     0.091 A 
HETATM    8  S1  UNL     1     -87.840 -16.899   7.371  1.00  0.00    -0.047 SA
BRANCH   7   9
HETATM    9  C8  UNL     1     -90.300 -17.701   8.616  1.00  0.00     0.264 C 
HETATM   10  N1  UNL     1     -91.664 -18.002   8.423  1.00  0.00    -0.320 N 
ATOM     11  H1  UNL     1     -92.091 -17.739   7.535  1.00  0.00     0.169 HD
HETATM   12  O1  UNL     1     -89.746 -18.008   9.690  1.00  0.00    -0.267 OA
BRANCH  10  13
HETATM   13  C7  UNL     1     -92.477 -18.647   9.384  1.00  0.00     0.062 A 
HETATM   14  C2  UNL     1     -93.211 -17.865  10.257  1.00  0.00    -0.034 A 
HETATM   15  C1  UNL     1     -93.160 -16.375  10.205  1.00  0.00     0.050 C 
HETATM   16  C3  UNL     1     -93.993 -18.526  11.180  1.00  0.00     0.009 A 
HETATM   17  C4  UNL     1     -94.041 -19.912  11.229  1.00  0.00     0.002 A 
HETATM   18  C5  UNL     1     -93.293 -20.652  10.339  1.00  0.00     0.026 A 
HETATM   19  C6  UNL     1     -92.499 -20.012   9.401  1.00  0.00     0.061 A 
HETATM   20 CL1  UNL     1     -91.537 -20.929   8.257  1.00  0.00    -0.082 Cl
ENDBRANCH  10  13
ENDBRANCH   7   9
ENDBRANCH   1   3
BRANCH   1  21
HETATM   21  C12 UNL     1     -85.389 -15.493   5.542  1.00  0.00     0.035 A 
HETATM   22  C13 UNL     1     -84.309 -15.783   4.751  1.00  0.00     0.029 A 
HETATM   23  C14 UNL     1     -82.999 -15.827   5.249  1.00  0.00     0.003 A 
HETATM   24  C15 UNL     1     -82.833 -15.565   6.580  1.00  0.00     0.017 A 
HETATM   25  C16 UNL     1     -83.894 -15.272   7.395  1.00  0.00     0.034 A 
HETATM   26  C23 UNL     1     -85.162 -15.232   6.902  1.00  0.00     0.046 A 
BRANCH  25  27
HETATM   27  C17 UNL     1     -83.689 -14.995   8.822  1.00  0.00     0.252 C 
HETATM   28  O2  UNL     1     -83.054 -13.929   9.130  1.00  0.00    -0.268 OA
HETATM   29  N4  UNL     1     -84.152 -15.837   9.853  1.00  0.00    -0.349 N 
ATOM     30  H4  UNL     1     -84.662 -16.695   9.639  1.00  0.00     0.163 HD
BRANCH  29  31
HETATM   31  C18 UNL     1     -83.884 -15.450  11.239  1.00  0.00     0.121 C 
HETATM   32  C19 UNL     1     -83.286 -16.635  11.984  1.00  0.00     0.055 C 
HETATM   33  C20 UNL     1     -83.570 -16.432  13.451  1.00  0.00     0.234 C 
HETATM   34  N5  UNL     1     -83.539 -14.997  13.707  1.00  0.00    -0.072 N 
HETATM   35  C21 UNL     1     -84.786 -14.399  13.250  1.00  0.00     0.271 C 
ATOM     36  H52 UNL     1     -83.344 -14.782  14.684  1.00  0.00     0.277 HD
ATOM     37  H51 UNL     1     -82.721 -14.549  13.294  1.00  0.00     0.277 HD
HETATM   38  C22 UNL     1     -85.140 -14.956  11.894  1.00  0.00     0.218 C 
HETATM   39  F1  UNL     1     -85.695 -14.002  11.060  1.00  0.00    -0.245 F 
ENDBRANCH  29  31
ENDBRANCH  25  27
ENDBRANCH   1  21
TORSDOF 6
ENDMDL
