MODEL 6
REMARK VINA RESULT: -10.191618619      3.576      6.168
REMARK  6 active torsions:
REMARK  status: ('A' for Active; 'I' for Inactive)
REMARK    1  A    between atoms: C7_8  and  N1_9 
REMARK       I    between atoms: N1_9  and  C8_11 
REMARK    2  A    between atoms: C8_11  and  C9_13 
REMARK    3  A    between atoms: C11_17  and  N3_18 
REMARK    4  A    between atoms: N3_18  and  C12_20 
REMARK    5  A    between atoms: C16_24  and  C17_25 
REMARK       I    between atoms: C17_25  and  N4_27 
REMARK    6  A    between atoms: N4_27  and  C18_29 
ROOT
HETATM    1  N3  UNL     1     -86.268 -15.444   5.321  1.00  0.00    -0.337 N 
ATOM      2  H3  UNL     1     -86.441 -14.972   4.433  1.00  0.00     0.168 HD
ENDROOT
BRANCH   1   3
HETATM    3  C11 UNL     1     -87.386 -15.962   6.051  1.00  0.00     0.149 A 
HETATM    4  N2  UNL     1     -88.678 -15.866   5.682  1.00  0.00    -0.345 N 
HETATM    5  C10 UNL     1     -89.593 -16.358   6.433  1.00  0.00     0.115 A 
ATOM      6  H2  UNL     1     -88.928 -15.402   4.809  1.00  0.00     0.167 HD
HETATM    7  C9  UNL     1     -89.226 -16.977   7.601  1.00  0.00     0.091 A 
HETATM    8  S1  UNL     1     -87.531 -16.797   7.532  1.00  0.00    -0.047 SA
BRANCH   7   9
HETATM    9  C8  UNL     1     -90.070 -17.605   8.604  1.00  0.00     0.264 C 
HETATM   10  N1  UNL     1     -91.395 -17.984   8.305  1.00  0.00    -0.320 N 
ATOM     11  H1  UNL     1     -91.742 -17.803   7.363  1.00  0.00     0.169 HD
HETATM   12  O1  UNL     1     -89.612 -17.811   9.746  1.00  0.00    -0.267 OA
BRANCH  10  13
HETATM   13  C7  UNL     1     -92.272 -18.598   9.229  1.00  0.00     0.062 A 
HETATM   14  C2  UNL     1     -92.330 -19.979   9.263  1.00  0.00    -0.034 A 
HETATM   15  C1  UNL     1     -91.498 -20.821   8.355  1.00  0.00     0.050 C 
HETATM   16  C3  UNL     1     -93.195 -20.545  10.176  1.00  0.00     0.009 A 
HETATM   17  C4  UNL     1     -93.969 -19.762  11.021  1.00  0.00     0.002 A 
HETATM   18  C5  UNL     1     -93.879 -18.388  10.952  1.00  0.00     0.026 A 
HETATM   19  C6  UNL     1     -93.017 -17.796  10.044  1.00  0.00     0.061 A 
HETATM   20 CL1  UNL     1     -92.882 -16.050   9.936  1.00  0.00    -0.082 Cl
ENDBRANCH  10  13
ENDBRANCH   7   9
ENDBRANCH   1   3
BRANCH   1  21
HETATM   21  C12 UNL     1     -84.947 -15.558   5.775  1.00  0.00     0.035 A 
HETATM   22  C13 UNL     1     -84.522 -15.492   7.076  1.00  0.00     0.029 A 
HETATM   23  C14 UNL     1     -83.170 -15.595   7.433  1.00  0.00     0.003 A 
HETATM   24  C15 UNL     1     -82.271 -15.769   6.418  1.00  0.00     0.017 A 
HETATM   25  C16 UNL     1     -82.668 -15.839   5.109  1.00  0.00     0.034 A 
HETATM   26  C23 UNL     1     -83.983 -15.736   4.772  1.00  0.00     0.046 A 
BRANCH  25  27
HETATM   27  C17 UNL     1     -81.683 -16.025   4.036  1.00  0.00     0.252 C 
HETATM   28  O2  UNL     1     -80.487 -16.315   4.379  1.00  0.00    -0.268 OA
HETATM   29  N4  UNL     1     -81.991 -15.901   2.666  1.00  0.00    -0.349 N 
ATOM     30  H4  UNL     1     -82.937 -15.671   2.362  1.00  0.00     0.163 HD
BRANCH  29  31
HETATM   31  C18 UNL     1     -80.920 -16.111   1.692  1.00  0.00     0.121 C 
HETATM   32  C19 UNL     1     -80.829 -14.899   0.776  1.00  0.00     0.055 C 
HETATM   33  C20 UNL     1     -80.189 -15.356  -0.511  1.00  0.00     0.234 C 
HETATM   34  N5  UNL     1     -79.233 -16.404  -0.175  1.00  0.00    -0.072 N 
HETATM   35  C21 UNL     1     -79.948 -17.650   0.064  1.00  0.00     0.271 C 
ATOM     36  H52 UNL     1     -78.506 -16.506  -0.883  1.00  0.00     0.277 HD
ATOM     37  H51 UNL     1     -78.636 -16.145   0.610  1.00  0.00     0.277 HD
HETATM   38  C22 UNL     1     -81.158 -17.376   0.920  1.00  0.00     0.218 C 
HETATM   39  F1  UNL     1     -81.394 -18.383   1.838  1.00  0.00    -0.245 F 
ENDBRANCH  29  31
ENDBRANCH  25  27
ENDBRANCH   1  21
TORSDOF 6
ENDMDL
