MODEL 4
REMARK VINA RESULT: -10.285110866      3.738      7.988
REMARK  6 active torsions:
REMARK  status: ('A' for Active; 'I' for Inactive)
REMARK    1  A    between atoms: C7_8  and  N1_9 
REMARK       I    between atoms: N1_9  and  C8_11 
REMARK    2  A    between atoms: C8_11  and  C9_13 
REMARK    3  A    between atoms: C11_17  and  N3_18 
REMARK    4  A    between atoms: N3_18  and  C12_20 
REMARK    5  A    between atoms: C16_24  and  C17_25 
REMARK       I    between atoms: C17_25  and  N4_27 
REMARK    6  A    between atoms: N4_27  and  C18_29 
ROOT
HETATM    1  N3  UNL     1     -85.763 -16.265   8.567  1.00  0.00    -0.337 N 
ATOM      2  H3  UNL     1     -84.817 -16.411   8.213  1.00  0.00     0.168 HD
ENDROOT
BRANCH   1   3
HETATM    3  C11 UNL     1     -85.950 -16.105   9.978  1.00  0.00     0.149 A 
HETATM    4  N2  UNL     1     -86.043 -14.929  10.630  1.00  0.00    -0.345 N 
HETATM    5  C10 UNL     1     -86.194 -14.917  11.902  1.00  0.00     0.115 A 
ATOM      6  H2  UNL     1     -85.992 -14.052  10.112  1.00  0.00     0.167 HD
HETATM    7  C9  UNL     1     -86.260 -16.114  12.570  1.00  0.00     0.091 A 
HETATM    8  S1  UNL     1     -86.092 -17.208  11.272  1.00  0.00    -0.047 SA
BRANCH   7   9
HETATM    9  C8  UNL     1     -86.428 -16.356  13.994  1.00  0.00     0.264 C 
HETATM   10  N1  UNL     1     -87.287 -15.552  14.770  1.00  0.00    -0.320 N 
ATOM     11  H1  UNL     1     -87.787 -14.796  14.302  1.00  0.00     0.169 HD
HETATM   12  O1  UNL     1     -85.800 -17.288  14.533  1.00  0.00    -0.267 OA
BRANCH  10  13
HETATM   13  C7  UNL     1     -87.499 -15.728  16.158  1.00  0.00     0.062 A 
HETATM   14  C2  UNL     1     -86.721 -15.000  17.040  1.00  0.00    -0.034 A 
HETATM   15  C1  UNL     1     -85.678 -14.047  16.562  1.00  0.00     0.050 C 
HETATM   16  C3  UNL     1     -86.955 -15.195  18.385  1.00  0.00     0.009 A 
HETATM   17  C4  UNL     1     -87.926 -16.081  18.830  1.00  0.00     0.002 A 
HETATM   18  C5  UNL     1     -88.678 -16.786  17.915  1.00  0.00     0.026 A 
HETATM   19  C6  UNL     1     -88.463 -16.607  16.558  1.00  0.00     0.061 A 
HETATM   20 CL1  UNL     1     -89.406 -17.491  15.372  1.00  0.00    -0.082 Cl
ENDBRANCH  10  13
ENDBRANCH   7   9
ENDBRANCH   1   3
BRANCH   1  21
HETATM   21  C12 UNL     1     -86.824 -16.228   7.652  1.00  0.00     0.035 A 
HETATM   22  C13 UNL     1     -86.784 -15.734   6.375  1.00  0.00     0.029 A 
HETATM   23  C14 UNL     1     -87.908 -15.720   5.537  1.00  0.00     0.003 A 
HETATM   24  C15 UNL     1     -89.070 -16.227   6.048  1.00  0.00     0.017 A 
HETATM   25  C16 UNL     1     -89.138 -16.728   7.321  1.00  0.00     0.034 A 
HETATM   26  C23 UNL     1     -88.041 -16.736   8.128  1.00  0.00     0.046 A 
BRANCH  25  27
HETATM   27  C17 UNL     1     -90.399 -17.268   7.847  1.00  0.00     0.252 C 
HETATM   28  O2  UNL     1     -91.484 -16.863   7.308  1.00  0.00    -0.268 OA
HETATM   29  N4  UNL     1     -90.465 -18.198   8.905  1.00  0.00    -0.349 N 
ATOM     30  H4  UNL     1     -89.616 -18.540   9.356  1.00  0.00     0.163 HD
BRANCH  29  31
HETATM   31  C18 UNL     1     -91.784 -18.661   9.340  1.00  0.00     0.121 C 
HETATM   32  C19 UNL     1     -92.191 -17.908  10.597  1.00  0.00     0.055 C 
HETATM   33  C20 UNL     1     -93.192 -18.766  11.330  1.00  0.00     0.234 C 
HETATM   34  N5  UNL     1     -93.965 -19.487  10.327  1.00  0.00    -0.072 N 
HETATM   35  C21 UNL     1     -93.178 -20.606   9.825  1.00  0.00     0.271 C 
ATOM     36  H52 UNL     1     -94.875 -19.783  10.679  1.00  0.00     0.277 HD
ATOM     37  H51 UNL     1     -94.290 -18.877   9.578  1.00  0.00     0.277 HD
HETATM   38  C22 UNL     1     -91.768 -20.146   9.560  1.00  0.00     0.218 C 
HETATM   39  F1  UNL     1     -91.227 -20.727   8.427  1.00  0.00    -0.245 F 
ENDBRANCH  29  31
ENDBRANCH  25  27
ENDBRANCH   1  21
TORSDOF 6
ENDMDL
