MODEL 2
REMARK VINA RESULT: -10.358402999      4.010      7.913
REMARK  6 active torsions:
REMARK  status: ('A' for Active; 'I' for Inactive)
REMARK    1  A    between atoms: C7_8  and  N1_9 
REMARK       I    between atoms: N1_9  and  C8_11 
REMARK    2  A    between atoms: C8_11  and  C9_13 
REMARK    3  A    between atoms: C11_17  and  N3_18 
REMARK    4  A    between atoms: N3_18  and  C12_20 
REMARK    5  A    between atoms: C16_24  and  C17_25 
REMARK       I    between atoms: C17_25  and  N4_27 
REMARK    6  A    between atoms: N4_27  and  C18_29 
ROOT
HETATM    1  N3  UNL     1     -85.744 -16.228   8.487  1.00  0.00    -0.337 N 
ATOM      2  H3  UNL     1     -84.807 -16.397   8.120  1.00  0.00     0.168 HD
ENDROOT
BRANCH   1   3
HETATM    3  C11 UNL     1     -85.907 -16.047   9.898  1.00  0.00     0.149 A 
HETATM    4  N2  UNL     1     -85.957 -14.861  10.537  1.00  0.00    -0.345 N 
HETATM    5  C10 UNL     1     -86.089 -14.830  11.812  1.00  0.00     0.115 A 
ATOM      6  H2  UNL     1     -85.889 -13.992  10.008  1.00  0.00     0.167 HD
HETATM    7  C9  UNL     1     -86.178 -16.016  12.495  1.00  0.00     0.091 A 
HETATM    8  S1  UNL     1     -86.060 -17.130  11.208  1.00  0.00    -0.047 SA
BRANCH   7   9
HETATM    9  C8  UNL     1     -86.332 -16.236  13.924  1.00  0.00     0.264 C 
HETATM   10  N1  UNL     1     -87.246 -15.475  14.681  1.00  0.00    -0.320 N 
ATOM     11  H1  UNL     1     -87.795 -14.766  14.196  1.00  0.00     0.169 HD
HETATM   12  O1  UNL     1     -85.644 -17.112  14.484  1.00  0.00    -0.267 OA
BRANCH  10  13
HETATM   13  C7  UNL     1     -87.448 -15.633  16.072  1.00  0.00     0.062 A 
HETATM   14  C2  UNL     1     -88.432 -16.506  16.500  1.00  0.00    -0.034 A 
HETATM   15  C1  UNL     1     -89.274 -17.270  15.534  1.00  0.00     0.050 C 
HETATM   16  C3  UNL     1     -88.601 -16.636  17.862  1.00  0.00     0.009 A 
HETATM   17  C4  UNL     1     -87.819 -15.925  18.760  1.00  0.00     0.002 A 
HETATM   18  C5  UNL     1     -86.848 -15.067  18.290  1.00  0.00     0.026 A 
HETATM   19  C6  UNL     1     -86.658 -14.918  16.926  1.00  0.00     0.061 A 
HETATM   20 CL1  UNL     1     -85.431 -13.833  16.299  1.00  0.00    -0.082 Cl
ENDBRANCH  10  13
ENDBRANCH   7   9
ENDBRANCH   1   3
BRANCH   1  21
HETATM   21  C12 UNL     1     -86.818 -16.183   7.588  1.00  0.00     0.035 A 
HETATM   22  C13 UNL     1     -86.797 -15.680   6.314  1.00  0.00     0.029 A 
HETATM   23  C14 UNL     1     -87.933 -15.658   5.493  1.00  0.00     0.003 A 
HETATM   24  C15 UNL     1     -89.088 -16.167   6.018  1.00  0.00     0.017 A 
HETATM   25  C16 UNL     1     -89.139 -16.677   7.288  1.00  0.00     0.034 A 
HETATM   26  C23 UNL     1     -88.030 -16.693   8.078  1.00  0.00     0.046 A 
BRANCH  25  27
HETATM   27  C17 UNL     1     -90.392 -17.218   7.829  1.00  0.00     0.252 C 
HETATM   28  O2  UNL     1     -91.484 -16.814   7.303  1.00  0.00    -0.268 OA
HETATM   29  N4  UNL     1     -90.445 -18.148   8.887  1.00  0.00    -0.349 N 
ATOM     30  H4  UNL     1     -89.591 -18.490   9.327  1.00  0.00     0.163 HD
BRANCH  29  31
HETATM   31  C18 UNL     1     -91.758 -18.613   9.337  1.00  0.00     0.121 C 
HETATM   32  C19 UNL     1     -92.165 -17.838  10.582  1.00  0.00     0.055 C 
HETATM   33  C20 UNL     1     -93.156 -18.690  11.337  1.00  0.00     0.234 C 
HETATM   34  N5  UNL     1     -93.928 -19.436  10.351  1.00  0.00    -0.072 N 
HETATM   35  C21 UNL     1     -93.136 -20.558   9.867  1.00  0.00     0.271 C 
ATOM     36  H52 UNL     1     -94.834 -19.731  10.713  1.00  0.00     0.277 HD
ATOM     37  H51 UNL     1     -94.262 -18.843   9.592  1.00  0.00     0.277 HD
HETATM   38  C22 UNL     1     -91.730 -20.093   9.585  1.00  0.00     0.218 C 
HETATM   39  F1  UNL     1     -91.191 -20.691   8.461  1.00  0.00    -0.245 F 
ENDBRANCH  29  31
ENDBRANCH  25  27
ENDBRANCH   1  21
TORSDOF 6
ENDMDL
