MODEL 2
REMARK VINA RESULT: -9.560980061      1.000      1.563
REMARK  6 active torsions:
REMARK  status: ('A' for Active; 'I' for Inactive)
REMARK    1  A    between atoms: C7_8  and  N1_9 
REMARK       I    between atoms: N1_9  and  C8_11 
REMARK    2  A    between atoms: C8_11  and  C9_13 
REMARK    3  A    between atoms: C11_17  and  N3_18 
REMARK    4  A    between atoms: N3_18  and  C12_20 
REMARK    5  A    between atoms: C16_24  and  C17_25 
REMARK       I    between atoms: C17_25  and  N4_27 
REMARK    6  A    between atoms: N4_27  and  C18_29 
ROOT
HETATM    1  N3  UNL     1     126.530  31.889 -23.034  1.00  0.00    -0.337 N 
ATOM      2  H3  UNL     1     126.804  31.046 -22.531  1.00  0.00     0.168 HD
ENDROOT
BRANCH   1   3
HETATM    3  C11 UNL     1     127.601  32.683 -23.588  1.00  0.00     0.149 A 
HETATM    4  N2  UNL     1     128.880  32.316 -23.690  1.00  0.00    -0.345 N 
HETATM    5  C10 UNL     1     129.732  33.127 -24.201  1.00  0.00     0.115 A 
ATOM      6  H2  UNL     1     129.178  31.397 -23.363  1.00  0.00     0.167 HD
HETATM    7  C9  UNL     1     129.299  34.353 -24.629  1.00  0.00     0.091 A 
HETATM    8  S1  UNL     1     127.639  34.253 -24.255  1.00  0.00    -0.047 SA
BRANCH   7   9
HETATM    9  C8  UNL     1     130.083  35.430 -25.238  1.00  0.00     0.264 C 
HETATM   10  N1  UNL     1     131.482  35.267 -25.424  1.00  0.00    -0.320 N 
ATOM     11  H1  UNL     1     131.915  34.393 -25.126  1.00  0.00     0.169 HD
HETATM   12  O1  UNL     1     129.574  36.502 -25.609  1.00  0.00    -0.267 OA
BRANCH  10  13
HETATM   13  C7  UNL     1     132.303  36.265 -26.005  1.00  0.00     0.062 A 
HETATM   14  C2  UNL     1     132.956  37.171 -25.196  1.00  0.00    -0.034 A 
HETATM   15  C1  UNL     1     132.776  37.071 -23.712  1.00  0.00     0.050 C 
HETATM   16  C3  UNL     1     133.759  38.149 -25.752  1.00  0.00     0.009 A 
HETATM   17  C4  UNL     1     133.944  38.265 -27.116  1.00  0.00     0.002 A 
HETATM   18  C5  UNL     1     133.291  37.358 -27.924  1.00  0.00     0.026 A 
HETATM   19  C6  UNL     1     132.486  36.378 -27.369  1.00  0.00     0.061 A 
HETATM   20 CL1  UNL     1     131.658  35.231 -28.398  1.00  0.00    -0.082 Cl
ENDBRANCH  10  13
ENDBRANCH   7   9
ENDBRANCH   1   3
BRANCH   1  21
HETATM   21  C12 UNL     1     125.180  32.144 -23.108  1.00  0.00     0.035 A 
HETATM   22  C13 UNL     1     124.627  33.190 -23.795  1.00  0.00     0.029 A 
HETATM   23  C14 UNL     1     123.239  33.393 -23.815  1.00  0.00     0.003 A 
HETATM   24  C15 UNL     1     122.392  32.543 -23.143  1.00  0.00     0.017 A 
HETATM   25  C16 UNL     1     122.927  31.493 -22.453  1.00  0.00     0.034 A 
HETATM   26  C22 UNL     1     124.303  31.312 -22.447  1.00  0.00     0.046 A 
BRANCH  25  27
HETATM   27  C17 UNL     1     122.099  30.552 -21.715  1.00  0.00     0.252 C 
HETATM   28  O2  UNL     1     121.767  29.448 -22.238  1.00  0.00    -0.268 OA
HETATM   29  N4  UNL     1     121.657  30.855 -20.411  1.00  0.00    -0.351 N 
ATOM     30  H4  UNL     1     121.904  31.733 -19.956  1.00  0.00     0.163 HD
BRANCH  29  31
HETATM   31  C18 UNL     1     120.829  29.855 -19.738  1.00  0.00     0.112 C 
HETATM   32  C19 UNL     1     121.277  29.768 -18.311  1.00  0.00     0.054 C 
HETATM   33  C20 UNL     1     120.012  29.460 -17.555  1.00  0.00     0.234 C 
HETATM   34  N5  UNL     1     118.903  29.848 -18.372  1.00  0.00    -0.073 N 
HETATM   35  C21 UNL     1     119.413  30.371 -19.602  1.00  0.00     0.257 C 
ATOM     36  H52 UNL     1     118.236  29.091 -18.514  1.00  0.00     0.277 HD
ATOM     37  H51 UNL     1     118.276  30.498 -17.899  1.00  0.00     0.277 HD
ENDBRANCH  29  31
ENDBRANCH  25  27
ENDBRANCH   1  21
TORSDOF 6
ENDMDL
