MODEL 1
REMARK VINA RESULT: -9.654005272      0.000      0.000
REMARK  6 active torsions:
REMARK  status: ('A' for Active; 'I' for Inactive)
REMARK    1  A    between atoms: C7_8  and  N1_9 
REMARK       I    between atoms: N1_9  and  C8_11 
REMARK    2  A    between atoms: C8_11  and  C9_13 
REMARK    3  A    between atoms: C11_17  and  N3_18 
REMARK    4  A    between atoms: N3_18  and  C12_20 
REMARK    5  A    between atoms: C16_24  and  C17_25 
REMARK       I    between atoms: C17_25  and  N4_27 
REMARK    6  A    between atoms: N4_27  and  C18_29 
ROOT
HETATM    1  N3  UNL     1     126.570  31.878 -23.065  1.00  0.00    -0.337 N 
ATOM      2  H3  UNL     1     126.840  31.006 -22.608  1.00  0.00     0.168 HD
ENDROOT
BRANCH   1   3
HETATM    3  C11 UNL     1     127.645  32.685 -23.591  1.00  0.00     0.149 A 
HETATM    4  N2  UNL     1     128.931  32.336 -23.658  1.00  0.00    -0.345 N 
HETATM    5  C10 UNL     1     129.785  33.158 -24.147  1.00  0.00     0.115 A 
ATOM      6  H2  UNL     1     129.233  31.421 -23.324  1.00  0.00     0.167 HD
HETATM    7  C9  UNL     1     129.347  34.378 -24.586  1.00  0.00     0.091 A 
HETATM    8  S1  UNL     1     127.679  34.256 -24.257  1.00  0.00    -0.047 SA
BRANCH   7   9
HETATM    9  C8  UNL     1     130.133  35.466 -25.174  1.00  0.00     0.264 C 
HETATM   10  N1  UNL     1     131.499  35.255 -25.500  1.00  0.00    -0.320 N 
ATOM     11  H1  UNL     1     131.908  34.339 -25.315  1.00  0.00     0.169 HD
HETATM   12  O1  UNL     1     129.652  36.589 -25.408  1.00  0.00    -0.267 OA
BRANCH  10  13
HETATM   13  C7  UNL     1     132.319  36.259 -26.070  1.00  0.00     0.062 A 
HETATM   14  C2  UNL     1     132.490  36.309 -27.439  1.00  0.00    -0.034 A 
HETATM   15  C1  UNL     1     131.796  35.289 -28.288  1.00  0.00     0.050 C 
HETATM   16  C3  UNL     1     133.288  37.285 -28.006  1.00  0.00     0.009 A 
HETATM   17  C4  UNL     1     133.940  38.238 -27.248  1.00  0.00     0.002 A 
HETATM   18  C5  UNL     1     133.768  38.188 -25.881  1.00  0.00     0.026 A 
HETATM   19  C6  UNL     1     132.969  37.211 -25.310  1.00  0.00     0.061 A 
HETATM   20 CL1  UNL     1     132.755  37.151 -23.575  1.00  0.00    -0.082 Cl
ENDBRANCH  10  13
ENDBRANCH   7   9
ENDBRANCH   1   3
BRANCH   1  21
HETATM   21  C12 UNL     1     125.223  32.152 -23.110  1.00  0.00     0.035 A 
HETATM   22  C13 UNL     1     124.672  33.217 -23.769  1.00  0.00     0.029 A 
HETATM   23  C14 UNL     1     123.287  33.439 -23.760  1.00  0.00     0.003 A 
HETATM   24  C15 UNL     1     122.441  32.588 -23.087  1.00  0.00     0.017 A 
HETATM   25  C16 UNL     1     122.974  31.520 -22.425  1.00  0.00     0.034 A 
HETATM   26  C22 UNL     1     124.347  31.320 -22.447  1.00  0.00     0.046 A 
BRANCH  25  27
HETATM   27  C17 UNL     1     122.146  30.578 -21.689  1.00  0.00     0.252 C 
HETATM   28  O2  UNL     1     121.819  29.471 -22.210  1.00  0.00    -0.268 OA
HETATM   29  N4  UNL     1     121.698  30.881 -20.386  1.00  0.00    -0.351 N 
ATOM     30  H4  UNL     1     121.940  31.762 -19.932  1.00  0.00     0.163 HD
BRANCH  29  31
HETATM   31  C18 UNL     1     120.871  29.881 -19.715  1.00  0.00     0.112 C 
HETATM   32  C19 UNL     1     121.354  29.754 -18.301  1.00  0.00     0.054 C 
HETATM   33  C20 UNL     1     120.103  29.449 -17.520  1.00  0.00     0.234 C 
HETATM   34  N5  UNL     1     118.981  29.874 -18.300  1.00  0.00    -0.073 N 
HETATM   35  C21 UNL     1     119.467  30.416 -19.530  1.00  0.00     0.257 C 
ATOM     36  H52 UNL     1     118.298  29.130 -18.441  1.00  0.00     0.277 HD
ATOM     37  H51 UNL     1     118.376  30.523 -17.796  1.00  0.00     0.277 HD
ENDBRANCH  29  31
ENDBRANCH  25  27
ENDBRANCH   1  21
TORSDOF 6
ENDMDL
