MODEL 3
REMARK VINA RESULT: -9.547485114      2.806      3.696
REMARK  6 active torsions:
REMARK  status: ('A' for Active; 'I' for Inactive)
REMARK    1  A    between atoms: C7_8  and  N1_9 
REMARK       I    between atoms: N1_9  and  C8_11 
REMARK    2  A    between atoms: C8_11  and  C9_13 
REMARK    3  A    between atoms: C11_17  and  N3_18 
REMARK    4  A    between atoms: N3_18  and  C12_20 
REMARK    5  A    between atoms: C16_24  and  C17_25 
REMARK       I    between atoms: C17_25  and  N4_27 
REMARK    6  A    between atoms: N4_27  and  C18_29 
ROOT
HETATM    1  N3  UNL     1     126.299  32.110 -23.176  1.00  0.00    -0.337 N 
ATOM      2  H3  UNL     1     126.522  31.300 -22.597  1.00  0.00     0.168 HD
ENDROOT
BRANCH   1   3
HETATM    3  C11 UNL     1     127.420  32.871 -23.674  1.00  0.00     0.149 A 
HETATM    4  N2  UNL     1     128.698  32.485 -23.667  1.00  0.00    -0.345 N 
HETATM    5  C10 UNL     1     129.597  33.268 -24.140  1.00  0.00     0.115 A 
ATOM      6  H2  UNL     1     128.957  31.574 -23.288  1.00  0.00     0.167 HD
HETATM    7  C9  UNL     1     129.216  34.483 -24.639  1.00  0.00     0.091 A 
HETATM    8  S1  UNL     1     127.531  34.416 -24.389  1.00  0.00    -0.047 SA
BRANCH   7   9
HETATM    9  C8  UNL     1     130.059  35.529 -25.223  1.00  0.00     0.264 C 
HETATM   10  N1  UNL     1     131.416  35.250 -25.534  1.00  0.00    -0.320 N 
ATOM     11  H1  UNL     1     131.779  34.317 -25.342  1.00  0.00     0.169 HD
HETATM   12  O1  UNL     1     129.636  36.673 -25.466  1.00  0.00    -0.267 OA
BRANCH  10  13
HETATM   13  C7  UNL     1     132.290  36.212 -26.099  1.00  0.00     0.062 A 
HETATM   14  C2  UNL     1     132.456  36.265 -27.468  1.00  0.00    -0.034 A 
HETATM   15  C1  UNL     1     131.700  35.295 -28.323  1.00  0.00     0.050 C 
HETATM   16  C3  UNL     1     133.306  37.199 -28.031  1.00  0.00     0.009 A 
HETATM   17  C4  UNL     1     134.016  38.105 -27.268  1.00  0.00     0.002 A 
HETATM   18  C5  UNL     1     133.848  38.051 -25.900  1.00  0.00     0.026 A 
HETATM   19  C6  UNL     1     132.997  37.117 -25.334  1.00  0.00     0.061 A 
HETATM   20 CL1  UNL     1     132.790  37.052 -23.598  1.00  0.00    -0.082 Cl
ENDBRANCH  10  13
ENDBRANCH   7   9
ENDBRANCH   1   3
BRANCH   1  21
HETATM   21  C12 UNL     1     124.963  32.355 -23.394  1.00  0.00     0.035 A 
HETATM   22  C13 UNL     1     124.375  33.586 -23.290  1.00  0.00     0.029 A 
HETATM   23  C14 UNL     1     123.002  33.756 -23.517  1.00  0.00     0.003 A 
HETATM   24  C15 UNL     1     122.204  32.686 -23.853  1.00  0.00     0.017 A 
HETATM   25  C16 UNL     1     122.775  31.451 -23.962  1.00  0.00     0.034 A 
HETATM   26  C22 UNL     1     124.135  31.306 -23.733  1.00  0.00     0.046 A 
BRANCH  25  27
HETATM   27  C17 UNL     1     121.999  30.271 -24.310  1.00  0.00     0.252 C 
HETATM   28  O2  UNL     1     120.960  29.973 -23.651  1.00  0.00    -0.268 OA
HETATM   29  N4  UNL     1     122.392  29.444 -25.383  1.00  0.00    -0.351 N 
ATOM     30  H4  UNL     1     123.222  29.651 -25.938  1.00  0.00     0.163 HD
BRANCH  29  31
HETATM   31  C18 UNL     1     121.558  28.278 -25.667  1.00  0.00     0.112 C 
HETATM   32  C19 UNL     1     120.674  28.613 -26.830  1.00  0.00     0.054 C 
HETATM   33  C20 UNL     1     120.519  27.302 -27.554  1.00  0.00     0.234 C 
HETATM   34  N5  UNL     1     121.600  26.450 -27.161  1.00  0.00    -0.073 N 
HETATM   35  C21 UNL     1     122.413  27.159 -26.222  1.00  0.00     0.257 C 
ATOM     36  H52 UNL     1     121.281  25.550 -26.803  1.00  0.00     0.277 HD
ATOM     37  H51 UNL     1     122.134  26.101 -27.957  1.00  0.00     0.277 HD
ENDBRANCH  29  31
ENDBRANCH  25  27
ENDBRANCH   1  21
TORSDOF 6
ENDMDL
