MODEL 14
REMARK VINA RESULT: -9.305001287      3.366      4.958
REMARK  6 active torsions:
REMARK  status: ('A' for Active; 'I' for Inactive)
REMARK    1  A    between atoms: C7_8  and  N1_9 
REMARK       I    between atoms: N1_9  and  C8_11 
REMARK    2  A    between atoms: C8_11  and  C9_13 
REMARK    3  A    between atoms: C11_17  and  N3_18 
REMARK    4  A    between atoms: N3_18  and  C12_20 
REMARK    5  A    between atoms: C16_24  and  C17_25 
REMARK       I    between atoms: C17_25  and  N4_27 
REMARK    6  A    between atoms: N4_27  and  C18_29 
ROOT
HETATM    1  N3  UNL     1     126.398  32.127 -23.113  1.00  0.00    -0.337 N 
ATOM      2  H3  UNL     1     126.635  31.366 -22.477  1.00  0.00     0.168 HD
ENDROOT
BRANCH   1   3
HETATM    3  C11 UNL     1     127.505  32.889 -23.641  1.00  0.00     0.149 A 
HETATM    4  N2  UNL     1     128.789  32.528 -23.622  1.00  0.00    -0.345 N 
HETATM    5  C10 UNL     1     129.673  33.309 -24.124  1.00  0.00     0.115 A 
ATOM      6  H2  UNL     1     129.066  31.637 -23.211  1.00  0.00     0.167 HD
HETATM    7  C9  UNL     1     129.268  34.499 -24.667  1.00  0.00     0.091 A 
HETATM    8  S1  UNL     1     127.585  34.410 -24.411  1.00  0.00    -0.047 SA
BRANCH   7   9
HETATM    9  C8  UNL     1     130.091  35.538 -25.290  1.00  0.00     0.264 C 
HETATM   10  N1  UNL     1     131.484  35.324 -25.469  1.00  0.00    -0.320 N 
ATOM     11  H1  UNL     1     131.886  34.441 -25.155  1.00  0.00     0.169 HD
HETATM   12  O1  UNL     1     129.621  36.622 -25.680  1.00  0.00    -0.267 OA
BRANCH  10  13
HETATM   13  C7  UNL     1     132.341  36.283 -26.062  1.00  0.00     0.062 A 
HETATM   14  C2  UNL     1     133.023  37.179 -25.265  1.00  0.00    -0.034 A 
HETATM   15  C1  UNL     1     132.836  37.108 -23.781  1.00  0.00     0.050 C 
HETATM   16  C3  UNL     1     133.862  38.119 -25.833  1.00  0.00     0.009 A 
HETATM   17  C4  UNL     1     134.054  38.208 -27.198  1.00  0.00     0.002 A 
HETATM   18  C5  UNL     1     133.372  37.312 -27.994  1.00  0.00     0.026 A 
HETATM   19  C6  UNL     1     132.532  36.369 -27.427  1.00  0.00     0.061 A 
HETATM   20 CL1  UNL     1     131.667  35.236 -28.441  1.00  0.00    -0.082 Cl
ENDBRANCH  10  13
ENDBRANCH   7   9
ENDBRANCH   1   3
BRANCH   1  21
HETATM   21  C12 UNL     1     125.060  32.311 -23.373  1.00  0.00     0.035 A 
HETATM   22  C13 UNL     1     124.207  31.322 -23.781  1.00  0.00     0.029 A 
HETATM   23  C14 UNL     1     122.855  31.590 -24.038  1.00  0.00     0.003 A 
HETATM   24  C15 UNL     1     122.345  32.858 -23.885  1.00  0.00     0.017 A 
HETATM   25  C16 UNL     1     123.181  33.857 -23.477  1.00  0.00     0.034 A 
HETATM   26  C22 UNL     1     124.516  33.570 -23.229  1.00  0.00     0.046 A 
BRANCH  25  27
HETATM   27  C17 UNL     1     122.720  35.224 -23.295  1.00  0.00     0.252 C 
HETATM   28  O2  UNL     1     122.778  35.771 -22.155  1.00  0.00    -0.268 OA
HETATM   29  N4  UNL     1     122.204  35.959 -24.383  1.00  0.00    -0.351 N 
ATOM     30  H4  UNL     1     122.141  35.553 -25.317  1.00  0.00     0.163 HD
BRANCH  29  31
HETATM   31  C18 UNL     1     121.762  37.326 -24.116  1.00  0.00     0.112 C 
HETATM   32  C19 UNL     1     122.488  38.239 -25.057  1.00  0.00     0.054 C 
HETATM   33  C20 UNL     1     121.493  39.334 -25.334  1.00  0.00     0.234 C 
HETATM   34  N5  UNL     1     120.188  38.837 -25.019  1.00  0.00    -0.073 N 
HETATM   35  C21 UNL     1     120.322  37.493 -24.549  1.00  0.00     0.257 C 
ATOM     36  H52 UNL     1     119.688  39.435 -24.362  1.00  0.00     0.277 HD
ATOM     37  H51 UNL     1     119.538  38.917 -25.801  1.00  0.00     0.277 HD
ENDBRANCH  29  31
ENDBRANCH  25  27
ENDBRANCH   1  21
TORSDOF 6
ENDMDL
