MODEL 9
REMARK VINA RESULT: -9.457572784      3.136      4.385
REMARK  6 active torsions:
REMARK  status: ('A' for Active; 'I' for Inactive)
REMARK    1  A    between atoms: C7_8  and  N1_9 
REMARK       I    between atoms: N1_9  and  C8_11 
REMARK    2  A    between atoms: C8_11  and  C9_13 
REMARK    3  A    between atoms: C11_17  and  N3_18 
REMARK    4  A    between atoms: N3_18  and  C12_20 
REMARK    5  A    between atoms: C16_24  and  C17_25 
REMARK       I    between atoms: C17_25  and  N4_27 
REMARK    6  A    between atoms: N4_27  and  C18_29 
ROOT
HETATM    1  N3  UNL     1     126.472  32.030 -23.191  1.00  0.00    -0.337 N 
ATOM      2  H3  UNL     1     126.714  31.151 -22.734  1.00  0.00     0.168 HD
ENDROOT
BRANCH   1   3
HETATM    3  C11 UNL     1     127.574  32.821 -23.685  1.00  0.00     0.149 A 
HETATM    4  N2  UNL     1     128.867  32.497 -23.620  1.00  0.00    -0.345 N 
HETATM    5  C10 UNL     1     129.746  33.300 -24.096  1.00  0.00     0.115 A 
ATOM      6  H2  UNL     1     129.154  31.615 -23.195  1.00  0.00     0.167 HD
HETATM    7  C9  UNL     1     129.327  34.475 -24.659  1.00  0.00     0.091 A 
HETATM    8  S1  UNL     1     127.639  34.341 -24.460  1.00  0.00    -0.047 SA
BRANCH   7   9
HETATM    9  C8  UNL     1     130.141  35.535 -25.258  1.00  0.00     0.264 C 
HETATM   10  N1  UNL     1     131.502  35.283 -25.580  1.00  0.00    -0.320 N 
ATOM     11  H1  UNL     1     131.886  34.359 -25.384  1.00  0.00     0.169 HD
HETATM   12  O1  UNL     1     129.691  36.668 -25.506  1.00  0.00    -0.267 OA
BRANCH  10  13
HETATM   13  C7  UNL     1     132.349  36.259 -26.162  1.00  0.00     0.062 A 
HETATM   14  C2  UNL     1     132.528  36.283 -27.530  1.00  0.00    -0.034 A 
HETATM   15  C1  UNL     1     131.815  35.266 -28.367  1.00  0.00     0.050 C 
HETATM   16  C3  UNL     1     133.353  37.230 -28.108  1.00  0.00     0.009 A 
HETATM   17  C4  UNL     1     134.023  38.180 -27.361  1.00  0.00     0.002 A 
HETATM   18  C5  UNL     1     133.842  38.155 -25.994  1.00  0.00     0.026 A 
HETATM   19  C6  UNL     1     133.017  37.207 -25.413  1.00  0.00     0.061 A 
HETATM   20 CL1  UNL     1     132.792  37.179 -23.678  1.00  0.00    -0.082 Cl
ENDBRANCH  10  13
ENDBRANCH   7   9
ENDBRANCH   1   3
BRANCH   1  21
HETATM   21  C12 UNL     1     125.132  32.330 -23.268  1.00  0.00     0.035 A 
HETATM   22  C13 UNL     1     124.205  31.566 -23.923  1.00  0.00     0.029 A 
HETATM   23  C14 UNL     1     122.854  31.942 -23.967  1.00  0.00     0.003 A 
HETATM   24  C15 UNL     1     122.422  33.094 -23.351  1.00  0.00     0.017 A 
HETATM   25  C16 UNL     1     123.334  33.867 -22.691  1.00  0.00     0.034 A 
HETATM   26  C22 UNL     1     124.665  33.475 -22.661  1.00  0.00     0.046 A 
BRANCH  25  27
HETATM   27  C17 UNL     1     122.957  35.099 -22.018  1.00  0.00     0.252 C 
HETATM   28  O2  UNL     1     122.743  35.105 -20.770  1.00  0.00    -0.268 OA
HETATM   29  N4  UNL     1     122.824  36.302 -22.743  1.00  0.00    -0.351 N 
ATOM     30  H4  UNL     1     122.988  36.338 -23.749  1.00  0.00     0.163 HD
BRANCH  29  31
HETATM   31  C18 UNL     1     122.442  37.496 -21.990  1.00  0.00     0.112 C 
HETATM   32  C19 UNL     1     123.488  38.544 -22.224  1.00  0.00     0.054 C 
HETATM   33  C20 UNL     1     122.715  39.836 -22.189  1.00  0.00     0.234 C 
HETATM   34  N5  UNL     1     121.338  39.535 -22.436  1.00  0.00    -0.073 N 
HETATM   35  C21 UNL     1     121.212  38.121 -22.612  1.00  0.00     0.257 C 
ATOM     36  H52 UNL     1     120.721  39.897 -21.711  1.00  0.00     0.277 HD
ATOM     37  H51 UNL     1     120.955  40.064 -23.220  1.00  0.00     0.277 HD
ENDBRANCH  29  31
ENDBRANCH  25  27
ENDBRANCH   1  21
TORSDOF 6
ENDMDL
