MODEL 8
REMARK VINA RESULT: -9.468158006      3.329      4.692
REMARK  6 active torsions:
REMARK  status: ('A' for Active; 'I' for Inactive)
REMARK    1  A    between atoms: C7_8  and  N1_9 
REMARK       I    between atoms: N1_9  and  C8_11 
REMARK    2  A    between atoms: C8_11  and  C9_13 
REMARK    3  A    between atoms: C11_17  and  N3_18 
REMARK    4  A    between atoms: N3_18  and  C12_20 
REMARK    5  A    between atoms: C16_24  and  C17_25 
REMARK       I    between atoms: C17_25  and  N4_27 
REMARK    6  A    between atoms: N4_27  and  C18_29 
ROOT
HETATM    1  N3  UNL     1     126.377  32.239 -22.975  1.00  0.00    -0.337 N 
ATOM      2  H3  UNL     1     126.611  31.566 -22.246  1.00  0.00     0.168 HD
ENDROOT
BRANCH   1   3
HETATM    3  C11 UNL     1     127.481  32.969 -23.552  1.00  0.00     0.149 A 
HETATM    4  N2  UNL     1     128.744  32.548 -23.635  1.00  0.00    -0.345 N 
HETATM    5  C10 UNL     1     129.630  33.306 -24.170  1.00  0.00     0.115 A 
ATOM      6  H2  UNL     1     129.005  31.630 -23.275  1.00  0.00     0.167 HD
HETATM    7  C9  UNL     1     129.248  34.532 -24.643  1.00  0.00     0.091 A 
HETATM    8  S1  UNL     1     127.584  34.512 -24.274  1.00  0.00    -0.047 SA
BRANCH   7   9
HETATM    9  C8  UNL     1     130.076  35.555 -25.286  1.00  0.00     0.264 C 
HETATM   10  N1  UNL     1     131.469  35.331 -25.456  1.00  0.00    -0.320 N 
ATOM     11  H1  UNL     1     131.866  34.453 -25.123  1.00  0.00     0.169 HD
HETATM   12  O1  UNL     1     129.612  36.632 -25.699  1.00  0.00    -0.267 OA
BRANCH  10  13
HETATM   13  C7  UNL     1     132.331  36.274 -26.068  1.00  0.00     0.062 A 
HETATM   14  C2  UNL     1     133.037  37.165 -25.286  1.00  0.00    -0.034 A 
HETATM   15  C1  UNL     1     132.870  37.107 -23.799  1.00  0.00     0.050 C 
HETATM   16  C3  UNL     1     133.881  38.090 -25.872  1.00  0.00     0.009 A 
HETATM   17  C4  UNL     1     134.056  38.167 -27.240  1.00  0.00     0.002 A 
HETATM   18  C5  UNL     1     133.349  37.276 -28.021  1.00  0.00     0.026 A 
HETATM   19  C6  UNL     1     132.504  36.349 -27.436  1.00  0.00     0.061 A 
HETATM   20 CL1  UNL     1     131.609  35.222 -28.430  1.00  0.00    -0.082 Cl
ENDBRANCH  10  13
ENDBRANCH   7   9
ENDBRANCH   1   3
BRANCH   1  21
HETATM   21  C12 UNL     1     125.045  32.351 -23.298  1.00  0.00     0.035 A 
HETATM   22  C13 UNL     1     124.253  31.306 -23.689  1.00  0.00     0.029 A 
HETATM   23  C14 UNL     1     122.903  31.500 -24.014  1.00  0.00     0.003 A 
HETATM   24  C15 UNL     1     122.334  32.750 -23.949  1.00  0.00     0.017 A 
HETATM   25  C16 UNL     1     123.109  33.805 -23.560  1.00  0.00     0.034 A 
HETATM   26  C22 UNL     1     124.443  33.590 -23.243  1.00  0.00     0.046 A 
BRANCH  25  27
HETATM   27  C17 UNL     1     122.583  35.158 -23.470  1.00  0.00     0.252 C 
HETATM   28  O2  UNL     1     121.430  35.426 -23.920  1.00  0.00    -0.268 OA
HETATM   29  N4  UNL     1     123.346  36.187 -22.881  1.00  0.00    -0.351 N 
ATOM     30  H4  UNL     1     124.279  36.010 -22.507  1.00  0.00     0.163 HD
BRANCH  29  31
HETATM   31  C18 UNL     1     122.745  37.518 -22.829  1.00  0.00     0.112 C 
HETATM   32  C19 UNL     1     122.174  37.715 -21.457  1.00  0.00     0.054 C 
HETATM   33  C20 UNL     1     122.356  39.187 -21.200  1.00  0.00     0.234 C 
HETATM   34  N5  UNL     1     123.375  39.668 -22.083  1.00  0.00    -0.073 N 
HETATM   35  C21 UNL     1     123.828  38.573 -22.883  1.00  0.00     0.257 C 
ATOM     36  H52 UNL     1     123.067  40.462 -22.642  1.00  0.00     0.277 HD
ATOM     37  H51 UNL     1     124.135  40.133 -21.588  1.00  0.00     0.277 HD
ENDBRANCH  29  31
ENDBRANCH  25  27
ENDBRANCH   1  21
TORSDOF 6
ENDMDL
