MODEL 17
REMARK VINA RESULT: -9.583555096      4.526      6.916
REMARK  6 active torsions:
REMARK  status: ('A' for Active; 'I' for Inactive)
REMARK    1  A    between atoms: C7_8  and  N1_9 
REMARK       I    between atoms: N1_9  and  C8_11 
REMARK    2  A    between atoms: C8_11  and  C9_13 
REMARK    3  A    between atoms: C11_17  and  N3_18 
REMARK    4  A    between atoms: N3_18  and  C12_20 
REMARK    5  A    between atoms: C16_24  and  C17_25 
REMARK       I    between atoms: C17_25  and  N4_27 
REMARK    6  A    between atoms: N4_27  and  C18_29 
ROOT
HETATM    1  C12 UNL     1     -85.262 -11.461   5.492  1.00  0.00     0.035 A 
HETATM    2  C13 UNL     1     -84.813 -11.708   6.759  1.00  0.00     0.029 A 
HETATM    3  C14 UNL     1     -83.443 -11.624   7.061  1.00  0.00     0.003 A 
HETATM    4  C15 UNL     1     -82.580 -11.292   6.064  1.00  0.00     0.017 A 
HETATM    5  C16 UNL     1     -82.982 -11.031   4.770  1.00  0.00     0.034 A 
HETATM    6  C23 UNL     1     -84.315 -11.117   4.493  1.00  0.00     0.046 A 
ENDROOT
BRANCH   1   7
HETATM    7  N3  UNL     1     -86.611 -11.535   5.099  1.00  0.00    -0.337 N 
ATOM      8  H3  UNL     1     -86.866 -11.219   4.164  1.00  0.00     0.168 HD
BRANCH   7   9
HETATM    9  C11 UNL     1     -87.629 -12.032   5.950  1.00  0.00     0.149 A 
HETATM   10  N2  UNL     1     -88.928 -11.709   5.814  1.00  0.00    -0.345 N 
HETATM   11  C10 UNL     1     -89.798 -12.204   6.618  1.00  0.00     0.115 A 
ATOM     12  H2  UNL     1     -89.222 -11.071   5.073  1.00  0.00     0.167 HD
HETATM   13  C9  UNL     1     -89.362 -13.058   7.603  1.00  0.00     0.091 A 
HETATM   14  S1  UNL     1     -87.693 -13.082   7.284  1.00  0.00    -0.047 SA
BRANCH  13  15
HETATM   15  C8  UNL     1     -90.140 -13.755   8.646  1.00  0.00     0.264 C 
HETATM   16  N1  UNL     1     -91.517 -14.049   8.455  1.00  0.00    -0.320 N 
ATOM     17  H1  UNL     1     -91.979 -13.781   7.587  1.00  0.00     0.169 HD
HETATM   18  O1  UNL     1     -89.542 -14.065   9.684  1.00  0.00    -0.267 OA
BRANCH  16  19
HETATM   19  C7  UNL     1     -92.252 -14.719   9.472  1.00  0.00     0.062 A 
HETATM   20  C2  UNL     1     -92.293 -16.115   9.388  1.00  0.00    -0.034 A 
HETATM   21  C1  UNL     1     -91.592 -16.828   8.284  1.00  0.00     0.050 C 
HETATM   22  C3  UNL     1     -92.984 -16.818  10.334  1.00  0.00     0.009 A 
HETATM   23  C4  UNL     1     -93.626 -16.150  11.348  1.00  0.00     0.002 A 
HETATM   24  C5  UNL     1     -93.591 -14.760  11.440  1.00  0.00     0.026 A 
HETATM   25  C6  UNL     1     -92.896 -14.060  10.488  1.00  0.00     0.061 A 
HETATM   26 CL1  UNL     1     -92.840 -12.322  10.581  1.00  0.00    -0.082 Cl
ENDBRANCH  16  19
ENDBRANCH  13  15
ENDBRANCH   7   9
ENDBRANCH   1   7
BRANCH   5  27
HETATM   27  C17 UNL     1     -81.999 -10.676   3.757  1.00  0.00     0.252 C 
HETATM   28  O2  UNL     1     -81.864 -11.436   2.745  1.00  0.00    -0.268 OA
HETATM   29  N4  UNL     1     -81.167  -9.543   3.792  1.00  0.00    -0.346 N 
ATOM     30  H4  UNL     1     -81.254  -8.913   4.590  1.00  0.00     0.163 HD
BRANCH  29  31
HETATM   31  C18 UNL     1     -80.193  -9.210   2.771  1.00  0.00     0.160 C 
HETATM   32  C19 UNL     1     -78.831  -9.788   3.091  1.00  0.00     0.058 C 
HETATM   33  C20 UNL     1     -78.015  -9.794   1.802  1.00  0.00     0.235 C 
HETATM   34  N5  UNL     1     -78.332  -8.646   0.994  1.00  0.00    -0.069 N 
HETATM   35  C21 UNL     1     -78.732  -7.503   1.804  1.00  0.00     0.313 C 
ATOM     36  H52 UNL     1     -77.561  -8.407   0.371  1.00  0.00     0.277 HD
ATOM     37  H51 UNL     1     -79.040  -8.870   0.294  1.00  0.00     0.277 HD
HETATM   38  C22 UNL     1     -80.030  -7.747   2.539  1.00  0.00     0.287 C 
HETATM   39  F1  UNL     1     -79.958  -7.039   3.732  1.00  0.00    -0.202 F 
HETATM   40  F2  UNL     1     -81.056  -7.182   1.805  1.00  0.00    -0.202 F 
ENDBRANCH  29  31
ENDBRANCH   5  27
TORSDOF 6
ENDMDL
