MODEL 2
REMARK VINA RESULT: -10.140624449      1.438      1.637
REMARK  6 active torsions:
REMARK  status: ('A' for Active; 'I' for Inactive)
REMARK    1  A    between atoms: C7_8  and  N1_9 
REMARK       I    between atoms: N1_9  and  C8_11 
REMARK    2  A    between atoms: C8_11  and  C9_13 
REMARK    3  A    between atoms: C11_17  and  N3_18 
REMARK    4  A    between atoms: N3_18  and  C12_20 
REMARK    5  A    between atoms: C16_24  and  C17_25 
REMARK       I    between atoms: C17_25  and  N4_27 
REMARK    6  A    between atoms: N4_27  and  C18_29 
ROOT
HETATM    1  C12 UNL     1     -85.244 -11.495   5.528  1.00  0.00     0.035 A 
HETATM    2  C13 UNL     1     -84.172 -11.797   4.735  1.00  0.00     0.029 A 
HETATM    3  C14 UNL     1     -82.862 -11.676   5.228  1.00  0.00     0.003 A 
HETATM    4  C15 UNL     1     -82.689 -11.254   6.509  1.00  0.00     0.017 A 
HETATM    5  C16 UNL     1     -83.737 -10.938   7.350  1.00  0.00     0.034 A 
HETATM    6  C23 UNL     1     -85.003 -11.060   6.856  1.00  0.00     0.046 A 
ENDROOT
BRANCH   1   7
HETATM    7  N3  UNL     1     -86.586 -11.574   5.112  1.00  0.00    -0.337 N 
ATOM      8  H3  UNL     1     -86.824 -11.273   4.167  1.00  0.00     0.168 HD
BRANCH   7   9
HETATM    9  C11 UNL     1     -87.621 -12.054   5.953  1.00  0.00     0.149 A 
HETATM   10  N2  UNL     1     -88.920 -11.757   5.769  1.00  0.00    -0.345 N 
HETATM   11  C10 UNL     1     -89.804 -12.235   6.567  1.00  0.00     0.115 A 
ATOM     12  H2  UNL     1     -89.202 -11.153   4.996  1.00  0.00     0.167 HD
HETATM   13  C9  UNL     1     -89.384 -13.043   7.595  1.00  0.00     0.091 A 
HETATM   14  S1  UNL     1     -87.706 -13.053   7.324  1.00  0.00    -0.047 SA
BRANCH  13  15
HETATM   15  C8  UNL     1     -90.181 -13.711   8.643  1.00  0.00     0.264 C 
HETATM   16  N1  UNL     1     -91.538 -14.064   8.415  1.00  0.00    -0.320 N 
ATOM     17  H1  UNL     1     -91.973 -13.857   7.516  1.00  0.00     0.169 HD
HETATM   18  O1  UNL     1     -89.616 -13.946   9.719  1.00  0.00    -0.267 OA
BRANCH  16  19
HETATM   19  C7  UNL     1     -92.292 -14.705   9.436  1.00  0.00     0.062 A 
HETATM   20  C2  UNL     1     -92.322 -16.103   9.397  1.00  0.00    -0.034 A 
HETATM   21  C1  UNL     1     -91.591 -16.847   8.333  1.00  0.00     0.050 C 
HETATM   22  C3  UNL     1     -93.029 -16.780  10.350  1.00  0.00     0.009 A 
HETATM   23  C4  UNL     1     -93.699 -16.084  11.327  1.00  0.00     0.002 A 
HETATM   24  C5  UNL     1     -93.676 -14.691  11.373  1.00  0.00     0.026 A 
HETATM   25  C6  UNL     1     -92.964 -14.017  10.415  1.00  0.00     0.061 A 
HETATM   26 CL1  UNL     1     -92.920 -12.277  10.452  1.00  0.00    -0.082 Cl
ENDBRANCH  16  19
ENDBRANCH  13  15
ENDBRANCH   7   9
ENDBRANCH   1   7
BRANCH   5  27
HETATM   27  C17 UNL     1     -83.474 -10.496   8.712  1.00  0.00     0.252 C 
HETATM   28  O2  UNL     1     -82.572  -9.620   8.906  1.00  0.00    -0.268 OA
HETATM   29  N4  UNL     1     -84.141 -10.959   9.861  1.00  0.00    -0.346 N 
ATOM     30  H4  UNL     1     -84.871 -11.660   9.737  1.00  0.00     0.163 HD
BRANCH  29  31
HETATM   31  C18 UNL     1     -83.860 -10.505  11.209  1.00  0.00     0.160 C 
HETATM   32  C19 UNL     1     -82.840 -11.391  11.893  1.00  0.00     0.058 C 
HETATM   33  C20 UNL     1     -82.273 -10.615  13.078  1.00  0.00     0.235 C 
HETATM   34  N5  UNL     1     -83.289  -9.792  13.679  1.00  0.00    -0.069 N 
HETATM   35  C21 UNL     1     -84.618 -10.370  13.530  1.00  0.00     0.313 C 
ATOM     36  H52 UNL     1     -83.078  -9.597  14.658  1.00  0.00     0.277 HD
ATOM     37  H51 UNL     1     -83.257  -8.839  13.316  1.00  0.00     0.277 HD
HETATM   38  C22 UNL     1     -85.062 -10.424  12.087  1.00  0.00     0.287 C 
HETATM   39  F1  UNL     1     -85.874 -11.543  11.955  1.00  0.00    -0.202 F 
HETATM   40  F2  UNL     1     -85.860  -9.324  11.837  1.00  0.00    -0.202 F 
ENDBRANCH  29  31
ENDBRANCH   5  27
TORSDOF 6
ENDMDL
