MODEL 15
REMARK VINA RESULT: -9.651804844      4.927      7.514
REMARK  6 active torsions:
REMARK  status: ('A' for Active; 'I' for Inactive)
REMARK    1  A    between atoms: C7_8  and  N1_9 
REMARK       I    between atoms: N1_9  and  C8_11 
REMARK    2  A    between atoms: C8_11  and  C9_13 
REMARK    3  A    between atoms: C11_17  and  N3_18 
REMARK    4  A    between atoms: N3_18  and  C12_20 
REMARK    5  A    between atoms: C16_24  and  C17_25 
REMARK       I    between atoms: C17_25  and  N4_27 
REMARK    6  A    between atoms: N4_27  and  C18_29 
ROOT
HETATM    1  C12 UNL     1     -84.761 -11.416   5.746  1.00  0.00     0.035 A 
HETATM    2  C13 UNL     1     -84.238 -11.628   6.991  1.00  0.00     0.029 A 
HETATM    3  C14 UNL     1     -82.877 -11.937   7.151  1.00  0.00     0.003 A 
HETATM    4  C15 UNL     1     -82.097 -12.018   6.041  1.00  0.00     0.017 A 
HETATM    5  C16 UNL     1     -82.575 -11.812   4.762  1.00  0.00     0.034 A 
HETATM    6  C23 UNL     1     -83.899 -11.514   4.624  1.00  0.00     0.046 A 
ENDROOT
BRANCH   1   7
HETATM    7  N3  UNL     1     -86.112 -11.117   5.493  1.00  0.00    -0.337 N 
ATOM      8  H3  UNL     1     -86.335 -10.434   4.769  1.00  0.00     0.168 HD
BRANCH   7   9
HETATM    9  C11 UNL     1     -87.177 -11.725   6.203  1.00  0.00     0.149 A 
HETATM   10  N2  UNL     1     -88.446 -11.747   5.756  1.00  0.00    -0.345 N 
HETATM   11  C10 UNL     1     -89.358 -12.324   6.451  1.00  0.00     0.115 A 
ATOM     12  H2  UNL     1     -88.683 -11.305   4.868  1.00  0.00     0.167 HD
HETATM   13  C9  UNL     1     -89.000 -12.906   7.642  1.00  0.00     0.091 A 
HETATM   14  S1  UNL     1     -87.334 -12.570   7.669  1.00  0.00    -0.047 SA
BRANCH  13  15
HETATM   15  C8  UNL     1     -89.839 -13.622   8.622  1.00  0.00     0.264 C 
HETATM   16  N1  UNL     1     -91.223 -13.836   8.379  1.00  0.00    -0.320 N 
ATOM     17  H1  UNL     1     -91.647 -13.494   7.518  1.00  0.00     0.169 HD
HETATM   18  O1  UNL     1     -89.286 -14.022   9.655  1.00  0.00    -0.267 OA
BRANCH  16  19
HETATM   19  C7  UNL     1     -92.018 -14.525   9.335  1.00  0.00     0.062 A 
HETATM   20  C2  UNL     1     -92.721 -13.729  10.246  1.00  0.00    -0.034 A 
HETATM   21  C1  UNL     1     -92.620 -12.243  10.188  1.00  0.00     0.050 C 
HETATM   22  C3  UNL     1     -93.504 -14.330  11.191  1.00  0.00     0.009 A 
HETATM   23  C4  UNL     1     -93.589 -15.701  11.236  1.00  0.00     0.002 A 
HETATM   24  C5  UNL     1     -92.893 -16.503  10.333  1.00  0.00     0.026 A 
HETATM   25  C6  UNL     1     -92.110 -15.894   9.387  1.00  0.00     0.061 A 
HETATM   26 CL1  UNL     1     -91.230 -16.875   8.249  1.00  0.00    -0.082 Cl
ENDBRANCH  16  19
ENDBRANCH  13  15
ENDBRANCH   7   9
ENDBRANCH   1   7
BRANCH   5  27
HETATM   27  C17 UNL     1     -81.677 -11.912   3.621  1.00  0.00     0.252 C 
HETATM   28  O2  UNL     1     -81.755 -12.937   2.871  1.00  0.00    -0.268 OA
HETATM   29  N4  UNL     1     -80.709 -10.957   3.261  1.00  0.00    -0.346 N 
ATOM     30  H4  UNL     1     -80.624 -10.123   3.842  1.00  0.00     0.163 HD
BRANCH  29  31
HETATM   31  C18 UNL     1     -79.824 -11.079   2.119  1.00  0.00     0.160 C 
HETATM   32  C19 UNL     1     -78.404 -10.692   2.473  1.00  0.00     0.058 C 
HETATM   33  C20 UNL     1     -77.485 -11.268   1.399  1.00  0.00     0.235 C 
HETATM   34  N5  UNL     1     -78.127 -11.236   0.111  1.00  0.00    -0.069 N 
HETATM   35  C21 UNL     1     -79.067 -10.128  -0.003  1.00  0.00     0.313 C 
ATOM     36  H52 UNL     1     -77.442 -11.219  -0.644  1.00  0.00     0.277 HD
ATOM     37  H51 UNL     1     -78.578 -12.127  -0.101  1.00  0.00     0.277 HD
HETATM   38  C22 UNL     1     -80.241 -10.273   0.937  1.00  0.00     0.287 C 
HETATM   39  F1  UNL     1     -80.630  -8.989   1.298  1.00  0.00    -0.202 F 
HETATM   40  F2  UNL     1     -81.295 -10.822   0.232  1.00  0.00    -0.202 F 
ENDBRANCH  29  31
ENDBRANCH   5  27
TORSDOF 6
ENDMDL
