MODEL 1
REMARK VINA RESULT: -10.279229553      0.000      0.000
REMARK  6 active torsions:
REMARK  status: ('A' for Active; 'I' for Inactive)
REMARK    1  A    between atoms: C7_8  and  N1_9 
REMARK       I    between atoms: N1_9  and  C8_11 
REMARK    2  A    between atoms: C8_11  and  C9_13 
REMARK    3  A    between atoms: C11_17  and  N3_18 
REMARK    4  A    between atoms: N3_18  and  C12_20 
REMARK    5  A    between atoms: C16_24  and  C17_25 
REMARK       I    between atoms: C17_25  and  N4_27 
REMARK    6  A    between atoms: N4_27  and  C18_29 
ROOT
HETATM    1  C12 UNL     1     -84.960 -11.423   6.314  1.00  0.00     0.035 A 
HETATM    2  C13 UNL     1     -83.667 -11.467   5.873  1.00  0.00     0.029 A 
HETATM    3  C14 UNL     1     -82.603 -11.199   6.750  1.00  0.00     0.003 A 
HETATM    4  C15 UNL     1     -82.892 -10.897   8.044  1.00  0.00     0.017 A 
HETATM    5  C16 UNL     1     -84.179 -10.841   8.539  1.00  0.00     0.034 A 
HETATM    6  C23 UNL     1     -85.201 -11.103   7.674  1.00  0.00     0.046 A 
ENDROOT
BRANCH   1   7
HETATM    7  N3  UNL     1     -86.084 -11.663   5.502  1.00  0.00    -0.337 N 
ATOM      8  H3  UNL     1     -85.982 -11.590   4.491  1.00  0.00     0.168 HD
BRANCH   7   9
HETATM    9  C11 UNL     1     -87.353 -12.003   6.034  1.00  0.00     0.149 A 
HETATM   10  N2  UNL     1     -88.515 -11.659   5.449  1.00  0.00    -0.345 N 
HETATM   11  C10 UNL     1     -89.628 -12.008   5.985  1.00  0.00     0.115 A 
ATOM     12  H2  UNL     1     -88.512 -11.121   4.582  1.00  0.00     0.167 HD
HETATM   13  C9  UNL     1     -89.591 -12.731   7.153  1.00  0.00     0.091 A 
HETATM   14  S1  UNL     1     -87.912 -12.855   7.393  1.00  0.00    -0.047 SA
BRANCH  13  15
HETATM   15  C8  UNL     1     -90.707 -13.249   7.966  1.00  0.00     0.264 C 
HETATM   16  N1  UNL     1     -90.484 -14.225   8.975  1.00  0.00    -0.320 N 
ATOM     17  H1  UNL     1     -89.542 -14.574   9.145  1.00  0.00     0.169 HD
HETATM   18  O1  UNL     1     -91.836 -12.799   7.730  1.00  0.00    -0.267 OA
BRANCH  16  19
HETATM   19  C7  UNL     1     -91.572 -14.716   9.748  1.00  0.00     0.062 A 
HETATM   20  C2  UNL     1     -92.048 -15.987   9.409  1.00  0.00    -0.034 A 
HETATM   21  C1  UNL     1     -91.426 -16.757   8.296  1.00  0.00     0.050 C 
HETATM   22  C3  UNL     1     -93.092 -16.516  10.114  1.00  0.00     0.009 A 
HETATM   23  C4  UNL     1     -93.659 -15.797  11.139  1.00  0.00     0.002 A 
HETATM   24  C5  UNL     1     -93.191 -14.530  11.484  1.00  0.00     0.026 A 
HETATM   25  C6  UNL     1     -92.143 -14.005  10.774  1.00  0.00     0.061 A 
HETATM   26 CL1  UNL     1     -91.543 -12.423  11.185  1.00  0.00    -0.082 Cl
ENDBRANCH  16  19
ENDBRANCH  13  15
ENDBRANCH   7   9
ENDBRANCH   1   7
BRANCH   5  27
HETATM   27  C17 UNL     1     -84.410 -10.515   9.939  1.00  0.00     0.252 C 
HETATM   28  O2  UNL     1     -83.425 -10.128  10.646  1.00  0.00    -0.268 OA
HETATM   29  N4  UNL     1     -85.651 -10.588  10.598  1.00  0.00    -0.346 N 
ATOM     30  H4  UNL     1     -86.460 -10.892  10.057  1.00  0.00     0.163 HD
BRANCH  29  31
HETATM   31  C18 UNL     1     -85.857 -10.259  11.995  1.00  0.00     0.160 C 
HETATM   32  C19 UNL     1     -85.297 -11.330  12.907  1.00  0.00     0.058 C 
HETATM   33  C20 UNL     1     -85.139 -10.720  14.297  1.00  0.00     0.235 C 
HETATM   34  N5  UNL     1     -86.197  -9.781  14.563  1.00  0.00    -0.069 N 
HETATM   35  C21 UNL     1     -87.427 -10.133  13.866  1.00  0.00     0.313 C 
ATOM     36  H52 UNL     1     -86.356  -9.677  15.565  1.00  0.00     0.277 HD
ATOM     37  H51 UNL     1     -85.908  -8.827  14.346  1.00  0.00     0.277 HD
HETATM   38  C22 UNL     1     -87.283 -10.038  12.365  1.00  0.00     0.287 C 
HETATM   39  F1  UNL     1     -88.115 -11.006  11.817  1.00  0.00    -0.202 F 
HETATM   40  F2  UNL     1     -87.780  -8.813  11.960  1.00  0.00    -0.202 F 
ENDBRANCH  29  31
ENDBRANCH   5  27
TORSDOF 6
ENDMDL
