MODEL 3
REMARK VINA RESULT: -10.070537272      2.594      3.087
REMARK  6 active torsions:
REMARK  status: ('A' for Active; 'I' for Inactive)
REMARK    1  A    between atoms: C7_8  and  N1_9 
REMARK       I    between atoms: N1_9  and  C8_11 
REMARK    2  A    between atoms: C8_11  and  C9_13 
REMARK    3  A    between atoms: C11_17  and  N3_18 
REMARK    4  A    between atoms: N3_18  and  C12_20 
REMARK    5  A    between atoms: C16_24  and  C17_25 
REMARK       I    between atoms: C17_25  and  N4_27 
REMARK    6  A    between atoms: N4_27  and  C18_29 
ROOT
HETATM    1  C12 UNL     1     -85.032 -11.344   5.625  1.00  0.00     0.035 A 
HETATM    2  C13 UNL     1     -84.276 -11.689   4.539  1.00  0.00     0.029 A 
HETATM    3  C14 UNL     1     -82.932 -12.067   4.695  1.00  0.00     0.003 A 
HETATM    4  C15 UNL     1     -82.405 -12.081   5.948  1.00  0.00     0.017 A 
HETATM    5  C16 UNL     1     -83.124 -11.742   7.076  1.00  0.00     0.034 A 
HETATM    6  C23 UNL     1     -84.428 -11.377   6.908  1.00  0.00     0.046 A 
ENDROOT
BRANCH   1   7
HETATM    7  N3  UNL     1     -86.378 -10.941   5.560  1.00  0.00    -0.337 N 
ATOM      8  H3  UNL     1     -86.620 -10.134   4.986  1.00  0.00     0.168 HD
BRANCH   7   9
HETATM    9  C11 UNL     1     -87.412 -11.611   6.259  1.00  0.00     0.149 A 
HETATM   10  N2  UNL     1     -88.681 -11.679   5.815  1.00  0.00    -0.345 N 
HETATM   11  C10 UNL     1     -89.564 -12.312   6.499  1.00  0.00     0.115 A 
ATOM     12  H2  UNL     1     -88.940 -11.230   4.937  1.00  0.00     0.167 HD
HETATM   13  C9  UNL     1     -89.176 -12.903   7.677  1.00  0.00     0.091 A 
HETATM   14  S1  UNL     1     -87.526 -12.493   7.707  1.00  0.00    -0.047 SA
BRANCH  13  15
HETATM   15  C8  UNL     1     -89.979 -13.677   8.643  1.00  0.00     0.264 C 
HETATM   16  N1  UNL     1     -91.373 -13.871   8.443  1.00  0.00    -0.320 N 
ATOM     17  H1  UNL     1     -91.828 -13.476   7.621  1.00  0.00     0.169 HD
HETATM   18  O1  UNL     1     -89.388 -14.141   9.626  1.00  0.00    -0.267 OA
BRANCH  16  19
HETATM   19  C7  UNL     1     -92.133 -14.617   9.384  1.00  0.00     0.062 A 
HETATM   20  C2  UNL     1     -92.875 -13.873  10.308  1.00  0.00    -0.034 A 
HETATM   21  C1  UNL     1     -92.849 -12.384  10.277  1.00  0.00     0.050 C 
HETATM   22  C3  UNL     1     -93.627 -14.531  11.241  1.00  0.00     0.009 A 
HETATM   23  C4  UNL     1     -93.644 -15.904  11.261  1.00  0.00     0.002 A 
HETATM   24  C5  UNL     1     -92.908 -16.654  10.345  1.00  0.00     0.026 A 
HETATM   25  C6  UNL     1     -92.156 -15.989   9.411  1.00  0.00     0.061 A 
HETATM   26 CL1  UNL     1     -91.227 -16.905   8.257  1.00  0.00    -0.082 Cl
ENDBRANCH  16  19
ENDBRANCH  13  15
ENDBRANCH   7   9
ENDBRANCH   1   7
BRANCH   5  27
HETATM   27  C17 UNL     1     -82.492 -11.785   8.387  1.00  0.00     0.252 C 
HETATM   28  O2  UNL     1     -81.254 -11.502   8.477  1.00  0.00    -0.268 OA
HETATM   29  N4  UNL     1     -83.137 -12.116   9.591  1.00  0.00    -0.346 N 
ATOM     30  H4  UNL     1     -84.131 -12.346   9.552  1.00  0.00     0.163 HD
BRANCH  29  31
HETATM   31  C18 UNL     1     -82.486 -12.154  10.887  1.00  0.00     0.160 C 
HETATM   32  C19 UNL     1     -82.963 -13.327  11.716  1.00  0.00     0.058 C 
HETATM   33  C20 UNL     1     -81.939 -13.560  12.823  1.00  0.00     0.235 C 
HETATM   34  N5  UNL     1     -81.387 -12.309  13.275  1.00  0.00    -0.069 N 
HETATM   35  C21 UNL     1     -82.337 -11.213  13.139  1.00  0.00     0.313 C 
ATOM     36  H52 UNL     1     -81.041 -12.382  14.232  1.00  0.00     0.277 HD
ATOM     37  H51 UNL     1     -80.509 -12.099  12.801  1.00  0.00     0.277 HD
HETATM   38  C22 UNL     1     -82.666 -10.915  11.694  1.00  0.00     0.287 C 
HETATM   39  F1  UNL     1     -83.979 -10.464  11.664  1.00  0.00    -0.202 F 
HETATM   40  F2  UNL     1     -81.875  -9.860  11.280  1.00  0.00    -0.202 F 
ENDBRANCH  29  31
ENDBRANCH   5  27
TORSDOF 6
ENDMDL
