MODEL 1
REMARK VINA RESULT: -10.049104886      0.000      0.000
REMARK  7 active torsions:
REMARK  status: ('A' for Active; 'I' for Inactive)
REMARK    1  A    between atoms: C7_8  and  N1_9 
REMARK       I    between atoms: N1_9  and  C8_11 
REMARK    2  A    between atoms: C8_11  and  C9_13 
REMARK    3  A    between atoms: C11_17  and  N3_18 
REMARK    4  A    between atoms: N3_18  and  C12_20 
REMARK    5  A    between atoms: C16_24  and  C17_25 
REMARK       I    between atoms: C17_25  and  N4_27 
REMARK    6  A    between atoms: N4_27  and  C18_29 
REMARK    7  A    between atoms: C21_32  and  O3_33 
ROOT
HETATM    1  N3  UNL     1     -85.558 -14.615   8.530  1.00  0.00    -0.337 N 
ATOM      2  H3  UNL     1     -84.650 -14.946   8.204  1.00  0.00     0.168 HD
ENDROOT
BRANCH   1   3
HETATM    3  C11 UNL     1     -85.722 -14.285   9.903  1.00  0.00     0.149 A 
HETATM    4  N2  UNL     1     -85.901 -13.129  10.507  1.00  0.00    -0.345 N 
HETATM    5  C10 UNL     1     -86.043 -13.055  11.786  1.00  0.00     0.115 A 
ATOM      6  H2  UNL     1     -85.929 -12.274   9.952  1.00  0.00     0.167 HD
HETATM    7  C9  UNL     1     -86.000 -14.225  12.500  1.00  0.00     0.091 A 
HETATM    8  S1  UNL     1     -85.755 -15.371  11.265  1.00  0.00    -0.047 SA
BRANCH   7   9
HETATM    9  C8  UNL     1     -86.144 -14.383  13.943  1.00  0.00     0.264 C 
HETATM   10  N1  UNL     1     -87.123 -13.656  14.667  1.00  0.00    -0.320 N 
ATOM     11  H1  UNL     1     -87.718 -13.017  14.140  1.00  0.00     0.169 HD
HETATM   12  O1  UNL     1     -85.409 -15.169  14.605  1.00  0.00    -0.267 OA
BRANCH  10  13
HETATM   13  C7  UNL     1     -87.339 -13.748  16.061  1.00  0.00     0.062 A 
HETATM   14  C2  UNL     1     -88.320 -14.637  16.529  1.00  0.00    -0.034 A 
HETATM   15  C1  UNL     1     -89.080 -15.446  15.543  1.00  0.00     0.050 C 
HETATM   16  C3  UNL     1     -88.558 -14.748  17.863  1.00  0.00     0.009 A 
HETATM   17  C4  UNL     1     -87.849 -13.998  18.776  1.00  0.00     0.002 A 
HETATM   18  C5  UNL     1     -86.871 -13.110  18.317  1.00  0.00     0.026 A 
HETATM   19  C6  UNL     1     -86.630 -12.997  16.970  1.00  0.00     0.061 A 
HETATM   20 CL1  UNL     1     -85.418 -11.905  16.325  1.00  0.00    -0.082 Cl
ENDBRANCH  10  13
ENDBRANCH   7   9
ENDBRANCH   1   3
BRANCH   1  21
HETATM   21  C12 UNL     1     -86.613 -14.497   7.612  1.00  0.00     0.035 A 
HETATM   22  C13 UNL     1     -86.556 -13.948   6.372  1.00  0.00     0.029 A 
HETATM   23  C14 UNL     1     -87.707 -13.880   5.583  1.00  0.00     0.003 A 
HETATM   24  C15 UNL     1     -88.903 -14.373   6.067  1.00  0.00     0.017 A 
HETATM   25  C16 UNL     1     -88.989 -14.934   7.317  1.00  0.00     0.034 A 
HETATM   26  C24 UNL     1     -87.855 -14.990   8.069  1.00  0.00     0.046 A 
BRANCH  25  27
HETATM   27  C17 UNL     1     -90.255 -15.432   7.817  1.00  0.00     0.252 C 
HETATM   28  O2  UNL     1     -91.326 -14.982   7.316  1.00  0.00    -0.268 OA
HETATM   29  N4  UNL     1     -90.402 -16.389   8.831  1.00  0.00    -0.352 N 
ATOM     30  H4  UNL     1     -89.566 -16.784   9.263  1.00  0.00     0.163 HD
BRANCH  29  31
HETATM   31  C18 UNL     1     -91.718 -16.842   9.290  1.00  0.00     0.084 C 
HETATM   32  C19 UNL     1     -91.746 -18.336   9.173  1.00  0.00     0.028 C 
HETATM   33  C20 UNL     1     -92.970 -18.944   9.825  1.00  0.00     0.034 C 
HETATM   34  C21 UNL     1     -93.173 -18.486  11.231  1.00  0.00     0.118 C 
HETATM   35  C22 UNL     1     -92.183 -17.438  11.675  1.00  0.00     0.034 C 
HETATM   36  C23 UNL     1     -92.041 -16.330  10.652  1.00  0.00     0.028 C 
BRANCH  34  37
HETATM   37  O3  UNL     1     -94.476 -18.021  11.425  1.00  0.00    -0.396 OA
ATOM     38  H3  UNL     1     -95.109 -18.718  11.299  1.00  0.00     0.210 HD
ENDBRANCH  34  37
ENDBRANCH  29  31
ENDBRANCH  25  27
ENDBRANCH   1  21
TORSDOF 7
ENDMDL
