MODEL 5
REMARK VINA RESULT: -9.383459230      2.644      2.872
REMARK  7 active torsions:
REMARK  status: ('A' for Active; 'I' for Inactive)
REMARK    1  A    between atoms: C7_8  and  N1_9 
REMARK       I    between atoms: N1_9  and  C8_11 
REMARK    2  A    between atoms: C8_11  and  C9_13 
REMARK    3  A    between atoms: C11_17  and  N3_18 
REMARK    4  A    between atoms: N3_18  and  C12_20 
REMARK    5  A    between atoms: C16_24  and  C17_25 
REMARK       I    between atoms: C17_25  and  N4_27 
REMARK    6  A    between atoms: N4_27  and  C18_29 
REMARK    7  A    between atoms: C21_32  and  O3_33 
ROOT
HETATM    1  N3  UNL     1     -85.627 -14.174   8.469  1.00  0.00    -0.337 N 
ATOM      2  H3  UNL     1     -84.877 -13.499   8.320  1.00  0.00     0.168 HD
ENDROOT
BRANCH   1   3
HETATM    3  C11 UNL     1     -85.606 -14.989   9.633  1.00  0.00     0.149 A 
HETATM    4  N2  UNL     1     -85.131 -16.199   9.842  1.00  0.00    -0.345 N 
HETATM    5  C10 UNL     1     -85.207 -16.759  11.000  1.00  0.00     0.115 A 
ATOM      6  H2  UNL     1     -84.695 -16.705   9.071  1.00  0.00     0.167 HD
HETATM    7  C9  UNL     1     -85.801 -16.050  12.012  1.00  0.00     0.091 A 
HETATM    8  S1  UNL     1     -86.218 -14.603  11.217  1.00  0.00    -0.047 SA
BRANCH   7   9
HETATM    9  C8  UNL     1     -85.988 -16.475  13.395  1.00  0.00     0.264 C 
HETATM   10  N1  UNL     1     -86.459 -17.775  13.706  1.00  0.00    -0.320 N 
ATOM     11  H1  UNL     1     -86.665 -18.399  12.926  1.00  0.00     0.169 HD
HETATM   12  O1  UNL     1     -85.740 -15.708  14.368  1.00  0.00    -0.267 OA
BRANCH  10  13
HETATM   13  C7  UNL     1     -86.666 -18.275  15.012  1.00  0.00     0.062 A 
HETATM   14  C2  UNL     1     -87.945 -18.157  15.579  1.00  0.00    -0.034 A 
HETATM   15  C1  UNL     1     -89.024 -17.522  14.781  1.00  0.00     0.050 C 
HETATM   16  C3  UNL     1     -88.179 -18.623  16.835  1.00  0.00     0.009 A 
HETATM   17  C4  UNL     1     -87.177 -19.215  17.571  1.00  0.00     0.002 A 
HETATM   18  C5  UNL     1     -85.901 -19.336  17.014  1.00  0.00     0.026 A 
HETATM   19  C6  UNL     1     -85.663 -18.866  15.746  1.00  0.00     0.061 A 
HETATM   20 CL1  UNL     1     -84.086 -18.984  14.984  1.00  0.00    -0.082 Cl
ENDBRANCH  10  13
ENDBRANCH   7   9
ENDBRANCH   1   3
BRANCH   1  21
HETATM   21  C12 UNL     1     -86.655 -14.273   7.517  1.00  0.00     0.035 A 
HETATM   22  C13 UNL     1     -86.587 -13.929   6.207  1.00  0.00     0.029 A 
HETATM   23  C14 UNL     1     -87.712 -14.062   5.389  1.00  0.00     0.003 A 
HETATM   24  C15 UNL     1     -88.893 -14.546   5.917  1.00  0.00     0.017 A 
HETATM   25  C16 UNL     1     -88.990 -14.902   7.239  1.00  0.00     0.034 A 
HETATM   26  C24 UNL     1     -87.881 -14.764   8.018  1.00  0.00     0.046 A 
BRANCH  25  27
HETATM   27  C17 UNL     1     -90.241 -15.392   7.782  1.00  0.00     0.252 C 
HETATM   28  O2  UNL     1     -91.322 -14.870   7.386  1.00  0.00    -0.268 OA
HETATM   29  N4  UNL     1     -90.362 -16.418   8.730  1.00  0.00    -0.352 N 
ATOM     30  H4  UNL     1     -89.517 -16.873   9.077  1.00  0.00     0.163 HD
BRANCH  29  31
HETATM   31  C18 UNL     1     -91.664 -16.858   9.239  1.00  0.00     0.084 C 
HETATM   32  C19 UNL     1     -91.707 -18.353   9.131  1.00  0.00     0.028 C 
HETATM   33  C20 UNL     1     -92.911 -18.948   9.829  1.00  0.00     0.034 C 
HETATM   34  C21 UNL     1     -93.059 -18.482  11.240  1.00  0.00     0.118 C 
HETATM   35  C22 UNL     1     -92.046 -17.440  11.642  1.00  0.00     0.034 C 
HETATM   36  C23 UNL     1     -91.933 -16.338  10.610  1.00  0.00     0.028 C 
BRANCH  34  37
HETATM   37  O3  UNL     1     -94.351 -18.006  11.479  1.00  0.00    -0.396 OA
ATOM     38  H3  UNL     1     -94.335 -17.093  11.741  1.00  0.00     0.210 HD
ENDBRANCH  34  37
ENDBRANCH  29  31
ENDBRANCH  25  27
ENDBRANCH   1  21
TORSDOF 7
ENDMDL
