MODEL 4
REMARK VINA RESULT: -9.419331861      3.550      7.966
REMARK  7 active torsions:
REMARK  status: ('A' for Active; 'I' for Inactive)
REMARK    1  A    between atoms: C7_8  and  N1_9 
REMARK       I    between atoms: N1_9  and  C8_11 
REMARK    2  A    between atoms: C8_11  and  C9_13 
REMARK    3  A    between atoms: C11_17  and  N3_18 
REMARK    4  A    between atoms: N3_18  and  C12_20 
REMARK    5  A    between atoms: C16_24  and  C17_25 
REMARK       I    between atoms: C17_25  and  N4_27 
REMARK    6  A    between atoms: N4_27  and  C18_29 
REMARK    7  A    between atoms: C21_32  and  O3_33 
ROOT
HETATM    1  N3  UNL     1     -86.506 -13.686   5.080  1.00  0.00    -0.337 N 
ATOM      2  H3  UNL     1     -86.670 -13.265   4.166  1.00  0.00     0.168 HD
ENDROOT
BRANCH   1   3
HETATM    3  C11 UNL     1     -87.617 -14.134   5.846  1.00  0.00     0.149 A 
HETATM    4  N2  UNL     1     -88.914 -14.030   5.646  1.00  0.00    -0.345 N 
HETATM    5  C10 UNL     1     -89.764 -14.528   6.476  1.00  0.00     0.115 A 
ATOM      6  H2  UNL     1     -89.254 -13.545   4.816  1.00  0.00     0.167 HD
HETATM    7  C9  UNL     1     -89.270 -15.173   7.582  1.00  0.00     0.091 A 
HETATM    8  S1  UNL     1     -87.591 -15.017   7.348  1.00  0.00    -0.047 SA
BRANCH   7   9
HETATM    9  C8  UNL     1     -90.037 -15.817   8.643  1.00  0.00     0.264 C 
HETATM   10  N1  UNL     1     -91.389 -16.195   8.446  1.00  0.00    -0.320 N 
ATOM     11  H1  UNL     1     -91.804 -15.996   7.536  1.00  0.00     0.169 HD
HETATM   12  O1  UNL     1     -89.533 -16.063   9.775  1.00  0.00    -0.267 OA
BRANCH  10  13
HETATM   13  C7  UNL     1     -92.206 -16.825   9.411  1.00  0.00     0.062 A 
HETATM   14  C2  UNL     1     -92.246 -18.229   9.441  1.00  0.00    -0.034 A 
HETATM   15  C1  UNL     1     -91.423 -18.987   8.465  1.00  0.00     0.050 C 
HETATM   16  C3  UNL     1     -93.026 -18.870  10.353  1.00  0.00     0.009 A 
HETATM   17  C4  UNL     1     -93.785 -18.163  11.259  1.00  0.00     0.002 A 
HETATM   18  C5  UNL     1     -93.751 -16.766  11.235  1.00  0.00     0.026 A 
HETATM   19  C6  UNL     1     -92.965 -16.117  10.315  1.00  0.00     0.061 A 
HETATM   20 CL1  UNL     1     -92.874 -14.367  10.229  1.00  0.00    -0.082 Cl
ENDBRANCH  10  13
ENDBRANCH   7   9
ENDBRANCH   1   3
BRANCH   1  21
HETATM   21  C12 UNL     1     -85.189 -13.808   5.551  1.00  0.00     0.035 A 
HETATM   22  C13 UNL     1     -84.139 -14.362   4.895  1.00  0.00     0.029 A 
HETATM   23  C14 UNL     1     -82.887 -14.434   5.512  1.00  0.00     0.003 A 
HETATM   24  C15 UNL     1     -82.721 -13.939   6.790  1.00  0.00     0.017 A 
HETATM   25  C16 UNL     1     -83.766 -13.373   7.477  1.00  0.00     0.034 A 
HETATM   26  C24 UNL     1     -84.977 -13.313   6.856  1.00  0.00     0.046 A 
BRANCH  25  27
HETATM   27  C17 UNL     1     -83.580 -12.873   8.824  1.00  0.00     0.252 C 
HETATM   28  O2  UNL     1     -82.875 -11.837   8.997  1.00  0.00    -0.268 OA
HETATM   29  N4  UNL     1     -84.124 -13.449   9.981  1.00  0.00    -0.352 N 
ATOM     30  H4  UNL     1     -84.703 -14.284   9.892  1.00  0.00     0.163 HD
BRANCH  29  31
HETATM   31  C18 UNL     1     -83.887 -12.889  11.315  1.00  0.00     0.084 C 
HETATM   32  C19 UNL     1     -85.225 -12.676  11.957  1.00  0.00     0.028 C 
HETATM   33  C20 UNL     1     -85.111 -12.310  13.422  1.00  0.00     0.034 C 
HETATM   34  C21 UNL     1     -84.259 -13.259  14.198  1.00  0.00     0.118 C 
HETATM   35  C22 UNL     1     -83.606 -14.320  13.348  1.00  0.00     0.034 C 
HETATM   36  C23 UNL     1     -82.952 -13.730  12.116  1.00  0.00     0.028 C 
BRANCH  34  37
HETATM   37  O3  UNL     1     -83.288 -12.576  14.934  1.00  0.00    -0.396 OA
ATOM     38  H3  UNL     1     -82.710 -13.183  15.382  1.00  0.00     0.210 HD
ENDBRANCH  34  37
ENDBRANCH  29  31
ENDBRANCH  25  27
ENDBRANCH   1  21
TORSDOF 7
ENDMDL
