MODEL 2
REMARK VINA RESULT: -9.994873726      0.982      1.523
REMARK  7 active torsions:
REMARK  status: ('A' for Active; 'I' for Inactive)
REMARK    1  A    between atoms: C7_8  and  N1_9 
REMARK       I    between atoms: N1_9  and  C8_11 
REMARK    2  A    between atoms: C8_11  and  C9_13 
REMARK    3  A    between atoms: C11_17  and  N3_18 
REMARK    4  A    between atoms: N3_18  and  C12_20 
REMARK    5  A    between atoms: C16_24  and  C17_25 
REMARK       I    between atoms: C17_25  and  N4_27 
REMARK    6  A    between atoms: N4_27  and  C18_29 
REMARK    7  A    between atoms: C21_32  and  O3_33 
ROOT
HETATM    1  N3  UNL     1     -85.583 -14.549   8.479  1.00  0.00    -0.337 N 
ATOM      2  H3  UNL     1     -84.657 -14.818   8.148  1.00  0.00     0.168 HD
ENDROOT
BRANCH   1   3
HETATM    3  C11 UNL     1     -85.771 -14.272   9.861  1.00  0.00     0.149 A 
HETATM    4  N2  UNL     1     -85.920 -13.137  10.511  1.00  0.00    -0.345 N 
HETATM    5  C10 UNL     1     -86.092 -13.113  11.788  1.00  0.00     0.115 A 
ATOM      6  H2  UNL     1     -85.898 -12.259   9.994  1.00  0.00     0.167 HD
HETATM    7  C9  UNL     1     -86.115 -14.314  12.450  1.00  0.00     0.091 A 
HETATM    8  S1  UNL     1     -85.883 -15.414  11.172  1.00  0.00    -0.047 SA
BRANCH   7   9
HETATM    9  C8  UNL     1     -86.304 -14.529  13.881  1.00  0.00     0.264 C 
HETATM   10  N1  UNL     1     -87.125 -13.666  14.650  1.00  0.00    -0.320 N 
ATOM     11  H1  UNL     1     -87.575 -12.889  14.166  1.00  0.00     0.169 HD
HETATM   12  O1  UNL     1     -85.749 -15.485  14.491  1.00  0.00    -0.267 OA
BRANCH  10  13
HETATM   13  C7  UNL     1     -87.371 -13.799  16.036  1.00  0.00     0.062 A 
HETATM   14  C2  UNL     1     -86.576 -13.062  16.930  1.00  0.00    -0.034 A 
HETATM   15  C1  UNL     1     -85.521 -12.174  16.381  1.00  0.00     0.050 C 
HETATM   16  C3  UNL     1     -86.780 -13.169  18.270  1.00  0.00     0.009 A 
HETATM   17  C4  UNL     1     -87.762 -13.992  18.776  1.00  0.00     0.002 A 
HETATM   18  C5  UNL     1     -88.557 -14.728  17.892  1.00  0.00     0.026 A 
HETATM   19  C6  UNL     1     -88.351 -14.622  16.539  1.00  0.00     0.061 A 
HETATM   20 CL1  UNL     1     -89.312 -15.516  15.374  1.00  0.00    -0.082 Cl
ENDBRANCH  10  13
ENDBRANCH   7   9
ENDBRANCH   1   3
BRANCH   1  21
HETATM   21  C12 UNL     1     -86.640 -14.461   7.559  1.00  0.00     0.035 A 
HETATM   22  C13 UNL     1     -86.588 -13.943   6.307  1.00  0.00     0.029 A 
HETATM   23  C14 UNL     1     -87.740 -13.902   5.518  1.00  0.00     0.003 A 
HETATM   24  C15 UNL     1     -88.932 -14.392   6.014  1.00  0.00     0.017 A 
HETATM   25  C16 UNL     1     -89.013 -14.922   7.278  1.00  0.00     0.034 A 
HETATM   26  C24 UNL     1     -87.878 -14.951   8.030  1.00  0.00     0.046 A 
BRANCH  25  27
HETATM   27  C17 UNL     1     -90.275 -15.417   7.791  1.00  0.00     0.252 C 
HETATM   28  O2  UNL     1     -91.350 -14.922   7.345  1.00  0.00    -0.268 OA
HETATM   29  N4  UNL     1     -90.414 -16.419   8.762  1.00  0.00    -0.352 N 
ATOM     30  H4  UNL     1     -89.575 -16.852   9.150  1.00  0.00     0.163 HD
BRANCH  29  31
HETATM   31  C18 UNL     1     -91.726 -16.865   9.238  1.00  0.00     0.084 C 
HETATM   32  C19 UNL     1     -91.747 -18.362   9.163  1.00  0.00     0.028 C 
HETATM   33  C20 UNL     1     -92.965 -18.958   9.835  1.00  0.00     0.034 C 
HETATM   34  C21 UNL     1     -93.166 -18.463  11.229  1.00  0.00     0.118 C 
HETATM   35  C22 UNL     1     -92.180 -17.398  11.640  1.00  0.00     0.034 C 
HETATM   36  C23 UNL     1     -92.047 -16.318  10.587  1.00  0.00     0.028 C 
BRANCH  34  37
HETATM   37  O3  UNL     1     -94.471 -17.999  11.415  1.00  0.00    -0.396 OA
ATOM     38  H3  UNL     1     -94.534 -17.071  11.220  1.00  0.00     0.210 HD
ENDBRANCH  34  37
ENDBRANCH  29  31
ENDBRANCH  25  27
ENDBRANCH   1  21
TORSDOF 7
ENDMDL
