MODEL 9
REMARK VINA RESULT: -9.755660622      3.755      6.096
REMARK  6 active torsions:
REMARK  status: ('A' for Active; 'I' for Inactive)
REMARK    1  A    between atoms: C7_8  and  N1_9 
REMARK       I    between atoms: N1_9  and  C8_11 
REMARK    2  A    between atoms: C8_11  and  C9_13 
REMARK    3  A    between atoms: C11_17  and  N3_18 
REMARK    4  A    between atoms: N3_18  and  C12_20 
REMARK    5  A    between atoms: C16_24  and  C17_25 
REMARK       I    between atoms: C17_25  and  N4_27 
REMARK    6  A    between atoms: N4_27  and  C18_29 
ROOT
HETATM    1  N3  UNL     1     -86.398 -15.117   5.340  1.00  0.00    -0.337 N 
ATOM      2  H3  UNL     1     -86.598 -14.523   4.535  1.00  0.00     0.168 HD
ENDROOT
BRANCH   1   3
HETATM    3  C11 UNL     1     -87.496 -15.683   6.064  1.00  0.00     0.149 A 
HETATM    4  N2  UNL     1     -88.774 -15.734   5.639  1.00  0.00    -0.345 N 
HETATM    5  C10 UNL     1     -89.674 -16.255   6.389  1.00  0.00     0.115 A 
ATOM      6  H2  UNL     1     -89.025 -15.360   4.724  1.00  0.00     0.167 HD
HETATM    7  C9  UNL     1     -89.305 -16.750   7.614  1.00  0.00     0.091 A 
HETATM    8  S1  UNL     1     -87.632 -16.419   7.597  1.00  0.00    -0.047 SA
BRANCH   7   9
HETATM    9  C8  UNL     1     -90.134 -17.380   8.630  1.00  0.00     0.264 C 
HETATM   10  N1  UNL     1     -91.484 -17.693   8.373  1.00  0.00    -0.320 N 
ATOM     11  H1  UNL     1     -91.862 -17.463   7.454  1.00  0.00     0.169 HD
HETATM   12  O1  UNL     1     -89.639 -17.646   9.743  1.00  0.00    -0.267 OA
BRANCH  10  13
HETATM   13  C7  UNL     1     -92.348 -18.305   9.311  1.00  0.00     0.062 A 
HETATM   14  C2  UNL     1     -93.109 -17.493  10.133  1.00  0.00    -0.034 A 
HETATM   15  C1  UNL     1     -93.035 -16.006  10.050  1.00  0.00     0.050 C 
HETATM   16  C3  UNL     1     -93.941 -18.122  11.035  1.00  0.00     0.009 A 
HETATM   17  C4  UNL     1     -94.010 -19.506  11.112  1.00  0.00     0.002 A 
HETATM   18  C5  UNL     1     -93.234 -20.277  10.273  1.00  0.00     0.026 A 
HETATM   19  C6  UNL     1     -92.390 -19.668   9.358  1.00  0.00     0.061 A 
HETATM   20 CL1  UNL     1     -91.392 -20.624   8.279  1.00  0.00    -0.082 Cl
ENDBRANCH  10  13
ENDBRANCH   7   9
ENDBRANCH   1   3
BRANCH   1  21
HETATM   21  C12 UNL     1     -85.061 -15.345   5.690  1.00  0.00     0.035 A 
HETATM   22  C13 UNL     1     -84.550 -15.416   6.959  1.00  0.00     0.029 A 
HETATM   23  C14 UNL     1     -83.187 -15.627   7.213  1.00  0.00     0.003 A 
HETATM   24  C15 UNL     1     -82.368 -15.763   6.127  1.00  0.00     0.017 A 
HETATM   25  C16 UNL     1     -82.851 -15.697   4.847  1.00  0.00     0.034 A 
HETATM   26  C23 UNL     1     -84.176 -15.491   4.611  1.00  0.00     0.046 A 
BRANCH  25  27
HETATM   27  C17 UNL     1     -81.950 -15.846   3.697  1.00  0.00     0.252 C 
HETATM   28  O2  UNL     1     -82.298 -15.291   2.600  1.00  0.00    -0.268 OA
HETATM   29  N4  UNL     1     -80.737 -16.564   3.747  1.00  0.00    -0.349 N 
ATOM     30  H4  UNL     1     -80.433 -17.018   4.608  1.00  0.00     0.163 HD
BRANCH  29  31
HETATM   31  C18 UNL     1     -79.926 -16.640   2.531  1.00  0.00     0.121 C 
HETATM   32  C19 UNL     1     -79.732 -18.100   2.148  1.00  0.00     0.055 C 
HETATM   33  C20 UNL     1     -78.476 -18.183   1.317  1.00  0.00     0.234 C 
HETATM   34  N5  UNL     1     -78.379 -16.947   0.550  1.00  0.00    -0.072 N 
HETATM   35  C21 UNL     1     -77.892 -15.880   1.414  1.00  0.00     0.271 C 
ATOM     36  H52 UNL     1     -77.807 -17.056  -0.288  1.00  0.00     0.277 HD
ATOM     37  H51 UNL     1     -79.258 -16.705   0.095  1.00  0.00     0.277 HD
HETATM   38  C22 UNL     1     -78.615 -15.938   2.735  1.00  0.00     0.218 C 
HETATM   39  F1  UNL     1     -78.892 -14.681   3.241  1.00  0.00    -0.245 F 
ENDBRANCH  29  31
ENDBRANCH  25  27
ENDBRANCH   1  21
TORSDOF 6
ENDMDL
