MODEL 2
REMARK VINA RESULT: -10.079849131      1.042      1.578
REMARK  6 active torsions:
REMARK  status: ('A' for Active; 'I' for Inactive)
REMARK    1  A    between atoms: C7_8  and  N1_9 
REMARK       I    between atoms: N1_9  and  C8_11 
REMARK    2  A    between atoms: C8_11  and  C9_13 
REMARK    3  A    between atoms: C11_17  and  N3_18 
REMARK    4  A    between atoms: N3_18  and  C12_20 
REMARK    5  A    between atoms: C16_24  and  C17_25 
REMARK       I    between atoms: C17_25  and  N4_27 
REMARK    6  A    between atoms: N4_27  and  C18_29 
ROOT
HETATM    1  N3  UNL     1     -86.623 -15.377   5.110  1.00  0.00    -0.337 N 
ATOM      2  H3  UNL     1     -86.829 -14.991   4.189  1.00  0.00     0.168 HD
ENDROOT
BRANCH   1   3
HETATM    3  C11 UNL     1     -87.707 -15.867   5.907  1.00  0.00     0.149 A 
HETATM    4  N2  UNL     1     -89.017 -15.693   5.643  1.00  0.00    -0.345 N 
HETATM    5  C10 UNL     1     -89.897 -16.167   6.445  1.00  0.00     0.115 A 
ATOM      6  H2  UNL     1     -89.308 -15.185   4.808  1.00  0.00     0.167 HD
HETATM    7  C9  UNL     1     -89.475 -16.847   7.560  1.00  0.00     0.091 A 
HETATM    8  S1  UNL     1     -87.783 -16.748   7.366  1.00  0.00    -0.047 SA
BRANCH   7   9
HETATM    9  C8  UNL     1     -90.272 -17.470   8.604  1.00  0.00     0.264 C 
HETATM   10  N1  UNL     1     -91.636 -17.760   8.401  1.00  0.00    -0.320 N 
ATOM     11  H1  UNL     1     -92.047 -17.519   7.499  1.00  0.00     0.169 HD
HETATM   12  O1  UNL     1     -89.737 -17.751   9.695  1.00  0.00    -0.267 OA
BRANCH  10  13
HETATM   13  C7  UNL     1     -92.472 -18.363   9.369  1.00  0.00     0.062 A 
HETATM   14  C2  UNL     1     -93.193 -17.545  10.220  1.00  0.00    -0.034 A 
HETATM   15  C1  UNL     1     -93.106 -16.058  10.135  1.00  0.00     0.050 C 
HETATM   16  C3  UNL     1     -93.997 -18.167  11.150  1.00  0.00     0.009 A 
HETATM   17  C4  UNL     1     -94.079 -19.549  11.229  1.00  0.00     0.002 A 
HETATM   18  C5  UNL     1     -93.343 -20.327  10.361  1.00  0.00     0.026 A 
HETATM   19  C6  UNL     1     -92.527 -19.727   9.416  1.00  0.00     0.061 A 
HETATM   20 CL1  UNL     1     -91.579 -20.692   8.299  1.00  0.00    -0.082 Cl
ENDBRANCH  10  13
ENDBRANCH   7   9
ENDBRANCH   1   3
BRANCH   1  21
HETATM   21  C12 UNL     1     -85.290 -15.406   5.543  1.00  0.00     0.035 A 
HETATM   22  C13 UNL     1     -84.199 -15.775   4.802  1.00  0.00     0.029 A 
HETATM   23  C14 UNL     1     -82.900 -15.794   5.330  1.00  0.00     0.003 A 
HETATM   24  C15 UNL     1     -82.756 -15.423   6.637  1.00  0.00     0.017 A 
HETATM   25  C16 UNL     1     -83.830 -15.049   7.402  1.00  0.00     0.034 A 
HETATM   26  C23 UNL     1     -85.087 -15.036   6.880  1.00  0.00     0.046 A 
BRANCH  25  27
HETATM   27  C17 UNL     1     -83.649 -14.655   8.805  1.00  0.00     0.252 C 
HETATM   28  O2  UNL     1     -83.035 -13.559   9.035  1.00  0.00    -0.268 OA
HETATM   29  N4  UNL     1     -84.116 -15.420   9.894  1.00  0.00    -0.349 N 
ATOM     30  H4  UNL     1     -84.610 -16.299   9.742  1.00  0.00     0.163 HD
BRANCH  29  31
HETATM   31  C18 UNL     1     -83.873 -14.919  11.248  1.00  0.00     0.121 C 
HETATM   32  C19 UNL     1     -83.074 -15.952  12.029  1.00  0.00     0.055 C 
HETATM   33  C20 UNL     1     -83.346 -15.715  13.494  1.00  0.00     0.234 C 
HETATM   34  N5  UNL     1     -83.536 -14.281  13.675  1.00  0.00    -0.072 N 
HETATM   35  C21 UNL     1     -84.874 -13.913  13.235  1.00  0.00     0.271 C 
ATOM     36  H52 UNL     1     -83.349 -13.984  14.633  1.00  0.00     0.277 HD
ATOM     37  H51 UNL     1     -82.811 -13.734  13.211  1.00  0.00     0.277 HD
HETATM   38  C22 UNL     1     -85.173 -14.592  11.923  1.00  0.00     0.218 C 
HETATM   39  F1  UNL     1     -85.895 -13.786  11.063  1.00  0.00    -0.245 F 
ENDBRANCH  29  31
ENDBRANCH  25  27
ENDBRANCH   1  21
TORSDOF 6
ENDMDL
