MODEL 5
REMARK VINA RESULT: -9.914775040      1.464      1.964
REMARK  6 active torsions:
REMARK  status: ('A' for Active; 'I' for Inactive)
REMARK    1  A    between atoms: C7_8  and  N1_9 
REMARK       I    between atoms: N1_9  and  C8_11 
REMARK    2  A    between atoms: C8_11  and  C9_13 
REMARK    3  A    between atoms: C11_17  and  N3_18 
REMARK    4  A    between atoms: N3_18  and  C12_20 
REMARK    5  A    between atoms: C16_24  and  C17_25 
REMARK       I    between atoms: C17_25  and  N4_27 
REMARK    6  A    between atoms: N4_27  and  C18_29 
ROOT
HETATM    1  N3  UNL     1     -86.642 -15.279   5.175  1.00  0.00    -0.337 N 
ATOM      2  H3  UNL     1     -86.860 -14.800   4.301  1.00  0.00     0.168 HD
ENDROOT
BRANCH   1   3
HETATM    3  C11 UNL     1     -87.721 -15.803   5.957  1.00  0.00     0.149 A 
HETATM    4  N2  UNL     1     -89.032 -15.690   5.663  1.00  0.00    -0.345 N 
HETATM    5  C10 UNL     1     -89.907 -16.191   6.455  1.00  0.00     0.115 A 
ATOM      6  H2  UNL     1     -89.326 -15.207   4.815  1.00  0.00     0.167 HD
HETATM    7  C9  UNL     1     -89.479 -16.835   7.588  1.00  0.00     0.091 A 
HETATM    8  S1  UNL     1     -87.790 -16.666   7.427  1.00  0.00    -0.047 SA
BRANCH   7   9
HETATM    9  C8  UNL     1     -90.270 -17.477   8.625  1.00  0.00     0.264 C 
HETATM   10  N1  UNL     1     -91.644 -17.732   8.437  1.00  0.00    -0.320 N 
ATOM     11  H1  UNL     1     -92.066 -17.452   7.551  1.00  0.00     0.169 HD
HETATM   12  O1  UNL     1     -89.723 -17.806   9.696  1.00  0.00    -0.267 OA
BRANCH  10  13
HETATM   13  C7  UNL     1     -92.475 -18.351   9.400  1.00  0.00     0.062 A 
HETATM   14  C2  UNL     1     -93.211 -17.547  10.250  1.00  0.00    -0.034 A 
HETATM   15  C1  UNL     1     -93.144 -16.058  10.172  1.00  0.00     0.050 C 
HETATM   16  C3  UNL     1     -94.010 -18.183  11.176  1.00  0.00     0.009 A 
HETATM   17  C4  UNL     1     -94.072 -19.567  11.248  1.00  0.00     0.002 A 
HETATM   18  C5  UNL     1     -93.322 -20.331  10.380  1.00  0.00     0.026 A 
HETATM   19  C6  UNL     1     -92.511 -19.715   9.441  1.00  0.00     0.061 A 
HETATM   20 CL1  UNL     1     -91.545 -20.663   8.324  1.00  0.00    -0.082 Cl
ENDBRANCH  10  13
ENDBRANCH   7   9
ENDBRANCH   1   3
BRANCH   1  21
HETATM   21  C12 UNL     1     -85.300 -15.395   5.560  1.00  0.00     0.035 A 
HETATM   22  C13 UNL     1     -84.252 -15.773   4.763  1.00  0.00     0.029 A 
HETATM   23  C14 UNL     1     -82.940 -15.883   5.244  1.00  0.00     0.003 A 
HETATM   24  C15 UNL     1     -82.737 -15.594   6.565  1.00  0.00     0.017 A 
HETATM   25  C16 UNL     1     -83.766 -15.214   7.385  1.00  0.00     0.034 A 
HETATM   26  C23 UNL     1     -85.037 -15.111   6.908  1.00  0.00     0.046 A 
BRANCH  25  27
HETATM   27  C17 UNL     1     -83.523 -14.909   8.801  1.00  0.00     0.252 C 
HETATM   28  O2  UNL     1     -84.197 -13.958   9.323  1.00  0.00    -0.268 OA
HETATM   29  N4  UNL     1     -82.593 -15.607   9.598  1.00  0.00    -0.349 N 
ATOM     30  H4  UNL     1     -82.040 -16.371   9.210  1.00  0.00     0.163 HD
BRANCH  29  31
HETATM   31  C18 UNL     1     -82.442 -15.208  10.998  1.00  0.00     0.121 C 
HETATM   32  C19 UNL     1     -81.143 -14.431  11.161  1.00  0.00     0.055 C 
HETATM   33  C20 UNL     1     -80.725 -14.554  12.605  1.00  0.00     0.234 C 
HETATM   34  N5  UNL     1     -81.940 -14.609  13.407  1.00  0.00    -0.072 N 
HETATM   35  C21 UNL     1     -82.513 -15.946  13.325  1.00  0.00     0.271 C 
ATOM     36  H52 UNL     1     -81.781 -14.317  14.371  1.00  0.00     0.277 HD
ATOM     37  H51 UNL     1     -82.609 -13.886  13.145  1.00  0.00     0.277 HD
HETATM   38  C22 UNL     1     -82.487 -16.413  11.891  1.00  0.00     0.218 C 
HETATM   39  F1  UNL     1     -83.614 -17.138  11.552  1.00  0.00    -0.245 F 
ENDBRANCH  29  31
ENDBRANCH  25  27
ENDBRANCH   1  21
TORSDOF 6
ENDMDL
