MODEL 14
REMARK VINA RESULT: -9.484790099      3.664      5.747
REMARK  6 active torsions:
REMARK  status: ('A' for Active; 'I' for Inactive)
REMARK    1  A    between atoms: C7_8  and  N1_9 
REMARK       I    between atoms: N1_9  and  C8_11 
REMARK    2  A    between atoms: C8_11  and  C9_13 
REMARK    3  A    between atoms: C11_17  and  N3_18 
REMARK    4  A    between atoms: N3_18  and  C12_20 
REMARK    5  A    between atoms: C16_24  and  C17_25 
REMARK       I    between atoms: C17_25  and  N4_27 
REMARK    6  A    between atoms: N4_27  and  C18_29 
ROOT
HETATM    1  N3  UNL     1     -86.455 -15.131   5.295  1.00  0.00    -0.337 N 
ATOM      2  H3  UNL     1     -86.661 -14.559   4.475  1.00  0.00     0.168 HD
ENDROOT
BRANCH   1   3
HETATM    3  C11 UNL     1     -87.546 -15.701   6.027  1.00  0.00     0.149 A 
HETATM    4  N2  UNL     1     -88.831 -15.735   5.622  1.00  0.00    -0.345 N 
HETATM    5  C10 UNL     1     -89.722 -16.261   6.378  1.00  0.00     0.115 A 
ATOM      6  H2  UNL     1     -89.093 -15.344   4.718  1.00  0.00     0.167 HD
HETATM    7  C9  UNL     1     -89.338 -16.780   7.589  1.00  0.00     0.091 A 
HETATM    8  S1  UNL     1     -87.663 -16.461   7.550  1.00  0.00    -0.047 SA
BRANCH   7   9
HETATM    9  C8  UNL     1     -90.155 -17.421   8.606  1.00  0.00     0.264 C 
HETATM   10  N1  UNL     1     -91.495 -17.775   8.345  1.00  0.00    -0.320 N 
ATOM     11  H1  UNL     1     -91.873 -17.567   7.421  1.00  0.00     0.169 HD
HETATM   12  O1  UNL     1     -89.661 -17.659   9.726  1.00  0.00    -0.267 OA
BRANCH  10  13
HETATM   13  C7  UNL     1     -92.347 -18.399   9.285  1.00  0.00     0.062 A 
HETATM   14  C2  UNL     1     -92.383 -19.781   9.326  1.00  0.00    -0.034 A 
HETATM   15  C1  UNL     1     -91.551 -20.613   8.409  1.00  0.00     0.050 C 
HETATM   16  C3  UNL     1     -93.224 -20.356  10.255  1.00  0.00     0.009 A 
HETATM   17  C4  UNL     1     -93.998 -19.583  11.108  1.00  0.00     0.002 A 
HETATM   18  C5  UNL     1     -93.931 -18.208  11.033  1.00  0.00     0.026 A 
HETATM   19  C6  UNL     1     -93.093 -17.605  10.109  1.00  0.00     0.061 A 
HETATM   20 CL1  UNL     1     -92.988 -15.859   9.991  1.00  0.00    -0.082 Cl
ENDBRANCH  10  13
ENDBRANCH   7   9
ENDBRANCH   1   3
BRANCH   1  21
HETATM   21  C12 UNL     1     -85.115 -15.325   5.657  1.00  0.00     0.035 A 
HETATM   22  C13 UNL     1     -84.642 -15.625   6.907  1.00  0.00     0.029 A 
HETATM   23  C14 UNL     1     -83.276 -15.780   7.180  1.00  0.00     0.003 A 
HETATM   24  C15 UNL     1     -82.412 -15.619   6.133  1.00  0.00     0.017 A 
HETATM   25  C16 UNL     1     -82.857 -15.319   4.872  1.00  0.00     0.034 A 
HETATM   26  C23 UNL     1     -84.186 -15.169   4.618  1.00  0.00     0.046 A 
BRANCH  25  27
HETATM   27  C17 UNL     1     -81.908 -15.150   3.763  1.00  0.00     0.252 C 
HETATM   28  O2  UNL     1     -82.017 -15.945   2.769  1.00  0.00    -0.268 OA
HETATM   29  N4  UNL     1     -80.899 -14.166   3.746  1.00  0.00    -0.349 N 
ATOM     30  H4  UNL     1     -80.787 -13.517   4.526  1.00  0.00     0.163 HD
BRANCH  29  31
HETATM   31  C18 UNL     1     -80.014 -14.100   2.582  1.00  0.00     0.121 C 
HETATM   32  C19 UNL     1     -78.726 -14.850   2.886  1.00  0.00     0.055 C 
HETATM   33  C20 UNL     1     -77.656 -14.290   1.982  1.00  0.00     0.234 C 
HETATM   34  N5  UNL     1     -78.298 -13.913   0.729  1.00  0.00    -0.072 N 
HETATM   35  C21 UNL     1     -78.995 -12.646   0.905  1.00  0.00     0.271 C 
ATOM     36  H52 UNL     1     -77.640 -13.887  -0.050  1.00  0.00     0.277 HD
ATOM     37  H51 UNL     1     -78.913 -14.646   0.374  1.00  0.00     0.277 HD
HETATM   38  C22 UNL     1     -79.752 -12.670   2.208  1.00  0.00     0.218 C 
HETATM   39  F1  UNL     1     -80.977 -12.033   2.119  1.00  0.00    -0.245 F 
ENDBRANCH  29  31
ENDBRANCH  25  27
ENDBRANCH   1  21
TORSDOF 6
ENDMDL
