MODEL 1
REMARK VINA RESULT: -10.113122627      0.000      0.000
REMARK  6 active torsions:
REMARK  status: ('A' for Active; 'I' for Inactive)
REMARK    1  A    between atoms: C7_8  and  N1_9 
REMARK       I    between atoms: N1_9  and  C8_11 
REMARK    2  A    between atoms: C8_11  and  C9_13 
REMARK    3  A    between atoms: C11_17  and  N3_18 
REMARK    4  A    between atoms: N3_18  and  C12_20 
REMARK    5  A    between atoms: C16_24  and  C17_25 
REMARK       I    between atoms: C17_25  and  N4_27 
REMARK    6  A    between atoms: N4_27  and  C18_29 
ROOT
HETATM    1  N3  UNL     1     -86.457 -15.150   5.289  1.00  0.00    -0.337 N 
ATOM      2  H3  UNL     1     -86.659 -14.620   4.441  1.00  0.00     0.168 HD
ENDROOT
BRANCH   1   3
HETATM    3  C11 UNL     1     -87.550 -15.714   6.023  1.00  0.00     0.149 A 
HETATM    4  N2  UNL     1     -88.838 -15.725   5.628  1.00  0.00    -0.345 N 
HETATM    5  C10 UNL     1     -89.731 -16.248   6.385  1.00  0.00     0.115 A 
ATOM      6  H2  UNL     1     -89.102 -15.319   4.731  1.00  0.00     0.167 HD
HETATM    7  C9  UNL     1     -89.345 -16.787   7.585  1.00  0.00     0.091 A 
HETATM    8  S1  UNL     1     -87.666 -16.492   7.537  1.00  0.00    -0.047 SA
BRANCH   7   9
HETATM    9  C8  UNL     1     -90.163 -17.430   8.602  1.00  0.00     0.264 C 
HETATM   10  N1  UNL     1     -91.513 -17.750   8.352  1.00  0.00    -0.320 N 
ATOM     11  H1  UNL     1     -91.898 -17.518   7.436  1.00  0.00     0.169 HD
HETATM   12  O1  UNL     1     -89.659 -17.699   9.710  1.00  0.00    -0.267 OA
BRANCH  10  13
HETATM   13  C7  UNL     1     -92.367 -18.374   9.291  1.00  0.00     0.062 A 
HETATM   14  C2  UNL     1     -92.429 -19.755   9.309  1.00  0.00    -0.034 A 
HETATM   15  C1  UNL     1     -91.624 -20.587   8.369  1.00  0.00     0.050 C 
HETATM   16  C3  UNL     1     -93.270 -20.330  10.238  1.00  0.00     0.009 A 
HETATM   17  C4  UNL     1     -94.019 -19.556  11.113  1.00  0.00     0.002 A 
HETATM   18  C5  UNL     1     -93.926 -18.182  11.060  1.00  0.00     0.026 A 
HETATM   19  C6  UNL     1     -93.087 -17.580  10.136  1.00  0.00     0.061 A 
HETATM   20 CL1  UNL     1     -92.949 -15.834  10.047  1.00  0.00    -0.082 Cl
ENDBRANCH  10  13
ENDBRANCH   7   9
ENDBRANCH   1   3
BRANCH   1  21
HETATM   21  C12 UNL     1     -85.121 -15.296   5.687  1.00  0.00     0.035 A 
HETATM   22  C13 UNL     1     -84.101 -15.828   4.943  1.00  0.00     0.029 A 
HETATM   23  C14 UNL     1     -82.795 -15.954   5.436  1.00  0.00     0.003 A 
HETATM   24  C15 UNL     1     -82.568 -15.517   6.711  1.00  0.00     0.017 A 
HETATM   25  C16 UNL     1     -83.569 -14.980   7.477  1.00  0.00     0.034 A 
HETATM   26  C23 UNL     1     -84.834 -14.864   6.990  1.00  0.00     0.046 A 
BRANCH  25  27
HETATM   27  C17 UNL     1     -83.299 -14.518   8.845  1.00  0.00     0.252 C 
HETATM   28  O2  UNL     1     -82.672 -13.414   8.981  1.00  0.00    -0.268 OA
HETATM   29  N4  UNL     1     -83.695 -15.227   9.998  1.00  0.00    -0.349 N 
ATOM     30  H4  UNL     1     -84.197 -16.112   9.921  1.00  0.00     0.163 HD
BRANCH  29  31
HETATM   31  C18 UNL     1     -83.367 -14.661  11.307  1.00  0.00     0.121 C 
HETATM   32  C19 UNL     1     -82.448 -15.618  12.052  1.00  0.00     0.055 C 
HETATM   33  C20 UNL     1     -82.608 -15.338  13.525  1.00  0.00     0.234 C 
HETATM   34  N5  UNL     1     -82.862 -13.910  13.672  1.00  0.00    -0.072 N 
HETATM   35  C21 UNL     1     -84.251 -13.631  13.337  1.00  0.00     0.271 C 
ATOM     36  H52 UNL     1     -82.612 -13.567  14.599  1.00  0.00     0.277 HD
ATOM     37  H51 UNL     1     -82.211 -13.344  13.128  1.00  0.00     0.277 HD
HETATM   38  C22 UNL     1     -84.622 -14.377  12.080  1.00  0.00     0.218 C 
HETATM   39  F1  UNL     1     -85.458 -13.644  11.258  1.00  0.00    -0.245 F 
ENDBRANCH  29  31
ENDBRANCH  25  27
ENDBRANCH   1  21
TORSDOF 6
ENDMDL
