MODEL 4
REMARK VINA RESULT: -9.576768787      3.877      7.100
REMARK  7 active torsions:
REMARK  status: ('A' for Active; 'I' for Inactive)
REMARK    1  A    between atoms: C7_8  and  N1_9 
REMARK       I    between atoms: N1_9  and  C8_11 
REMARK    2  A    between atoms: C8_11  and  C9_13 
REMARK    3  A    between atoms: C11_17  and  N3_18 
REMARK    4  A    between atoms: N3_18  and  C12_20 
REMARK    5  A    between atoms: C16_24  and  C17_25 
REMARK       I    between atoms: C17_25  and  N4_27 
REMARK    6  A    between atoms: N4_27  and  C18_29 
REMARK    7  A    between atoms: C21_32  and  O3_34 
ROOT
HETATM    1  N3  UNL     1     -85.401 -11.673   8.671  1.00  0.00    -0.337 N 
ATOM      2  H3  UNL     1     -84.500 -11.217   8.533  1.00  0.00     0.168 HD
ENDROOT
BRANCH   1   3
HETATM    3  C11 UNL     1     -85.724 -12.204   9.968  1.00  0.00     0.149 A 
HETATM    4  N2  UNL     1     -86.096 -11.473  11.033  1.00  0.00    -0.345 N 
HETATM    5  C10 UNL     1     -86.377 -12.060  12.140  1.00  0.00     0.115 A 
ATOM      6  H2  UNL     1     -86.154 -10.458  10.963  1.00  0.00     0.167 HD
HETATM    7  C9  UNL     1     -86.288 -13.423  12.198  1.00  0.00     0.091 A 
HETATM    8  S1  UNL     1     -85.790 -13.780  10.604  1.00  0.00    -0.047 SA
BRANCH   7   9
HETATM    9  C8  UNL     1     -86.553 -14.331  13.332  1.00  0.00     0.264 C 
HETATM   10  N1  UNL     1     -85.510 -14.559  14.259  1.00  0.00    -0.320 N 
ATOM     11  H1  UNL     1     -84.617 -14.090  14.112  1.00  0.00     0.169 HD
HETATM   12  O1  UNL     1     -87.656 -14.886  13.480  1.00  0.00    -0.267 OA
BRANCH  10  13
HETATM   13  C7  UNL     1     -85.650 -15.411  15.387  1.00  0.00     0.062 A 
HETATM   14  C2  UNL     1     -85.262 -16.722  15.267  1.00  0.00    -0.034 A 
HETATM   15  C1  UNL     1     -84.702 -17.302  14.025  1.00  0.00     0.050 C 
HETATM   16  C3  UNL     1     -85.399 -17.547  16.362  1.00  0.00     0.009 A 
HETATM   17  C4  UNL     1     -85.912 -17.054  17.529  1.00  0.00     0.002 A 
HETATM   18  C5  UNL     1     -86.297 -15.739  17.636  1.00  0.00     0.026 A 
HETATM   19  C6  UNL     1     -86.169 -14.883  16.545  1.00  0.00     0.061 A 
HETATM   20 CL1  UNL     1     -86.662 -13.209  16.687  1.00  0.00    -0.082 Cl
ENDBRANCH  10  13
ENDBRANCH   7   9
ENDBRANCH   1   3
BRANCH   1  21
HETATM   21  C12 UNL     1     -86.281 -11.766   7.604  1.00  0.00     0.035 A 
HETATM   22  C13 UNL     1     -85.976 -11.574   6.285  1.00  0.00     0.029 A 
HETATM   23  C14 UNL     1     -86.956 -11.722   5.289  1.00  0.00     0.003 A 
HETATM   24  C15 UNL     1     -88.245 -12.064   5.641  1.00  0.00     0.017 A 
HETATM   25  C16 UNL     1     -88.594 -12.265   6.959  1.00  0.00     0.034 A 
HETATM   26  C25 UNL     1     -87.598 -12.109   7.892  1.00  0.00     0.046 A 
BRANCH  25  27
HETATM   27  C17 UNL     1     -89.945 -12.630   7.382  1.00  0.00     0.252 C 
HETATM   28  O2  UNL     1     -90.929 -12.254   6.683  1.00  0.00    -0.268 OA
HETATM   29  N4  UNL     1     -90.240 -13.388   8.540  1.00  0.00    -0.352 N 
ATOM     30  H4  UNL     1     -89.469 -13.707   9.126  1.00  0.00     0.163 HD
BRANCH  29  31
HETATM   31  C18 UNL     1     -91.599 -13.730   8.929  1.00  0.00     0.085 C 
HETATM   32  C19 UNL     1     -91.681 -15.228   9.082  1.00  0.00     0.028 C 
HETATM   33  C20 UNL     1     -91.391 -15.669  10.499  1.00  0.00     0.039 C 
HETATM   34  C21 UNL     1     -92.356 -15.059  11.476  1.00  0.00     0.054 C 
HETATM   35  C22 UNL     1     -91.615 -14.609  12.717  1.00  0.00     0.045 C 
HETATM   36  C23 UNL     1     -93.055 -13.861  10.873  1.00  0.00     0.039 C 
HETATM   37  C24 UNL     1     -91.977 -13.006  10.195  1.00  0.00     0.028 C 
BRANCH  34  38
HETATM   38  O3  UNL     1     -93.287 -16.045  11.818  1.00  0.00    -0.390 OA
ATOM     39  H3  UNL     1     -94.006 -15.615  12.267  1.00  0.00     0.210 HD
ENDBRANCH  34  38
ENDBRANCH  29  31
ENDBRANCH  25  27
ENDBRANCH   1  21
TORSDOF 7
ENDMDL
