MODEL 3
REMARK VINA RESULT: -9.600796481      3.597      9.269
REMARK  7 active torsions:
REMARK  status: ('A' for Active; 'I' for Inactive)
REMARK    1  A    between atoms: C7_8  and  N1_9 
REMARK       I    between atoms: N1_9  and  C8_11 
REMARK    2  A    between atoms: C8_11  and  C9_13 
REMARK    3  A    between atoms: C11_17  and  N3_18 
REMARK    4  A    between atoms: N3_18  and  C12_20 
REMARK    5  A    between atoms: C16_24  and  C17_25 
REMARK       I    between atoms: C17_25  and  N4_27 
REMARK    6  A    between atoms: N4_27  and  C18_29 
REMARK    7  A    between atoms: C21_32  and  O3_34 
ROOT
HETATM    1  N3  UNL     1     -91.546 -12.451  13.156  1.00  0.00    -0.337 N 
ATOM      2  H3  UNL     1     -92.138 -12.814  13.902  1.00  0.00     0.168 HD
ENDROOT
BRANCH   1   3
HETATM    3  C11 UNL     1     -90.261 -11.898  13.488  1.00  0.00     0.149 A 
HETATM    4  N2  UNL     1     -89.873 -10.635  13.237  1.00  0.00    -0.345 N 
HETATM    5  C10 UNL     1     -88.703 -10.247  13.596  1.00  0.00     0.115 A 
ATOM      6  H2  UNL     1     -90.505  -9.990  12.764  1.00  0.00     0.167 HD
HETATM    7  C9  UNL     1     -87.883 -11.139  14.228  1.00  0.00     0.091 A 
HETATM    8  S1  UNL     1     -88.883 -12.523  14.265  1.00  0.00    -0.047 SA
BRANCH   7   9
HETATM    9  C8  UNL     1     -86.510 -10.950  14.738  1.00  0.00     0.264 C 
HETATM   10  N1  UNL     1     -86.033  -9.627  14.891  1.00  0.00    -0.320 N 
ATOM     11  H1  UNL     1     -86.653  -8.855  14.646  1.00  0.00     0.169 HD
HETATM   12  O1  UNL     1     -85.783 -11.916  15.027  1.00  0.00    -0.267 OA
BRANCH  10  13
HETATM   13  C7  UNL     1     -84.731  -9.325  15.372  1.00  0.00     0.062 A 
HETATM   14  C2  UNL     1     -84.534  -9.265  16.729  1.00  0.00    -0.034 A 
HETATM   15  C1  UNL     1     -85.604  -9.498  17.726  1.00  0.00     0.050 C 
HETATM   16  C3  UNL     1     -83.270  -8.971  17.193  1.00  0.00     0.009 A 
HETATM   17  C4  UNL     1     -82.253  -8.748  16.308  1.00  0.00     0.002 A 
HETATM   18  C5  UNL     1     -82.464  -8.812  14.952  1.00  0.00     0.026 A 
HETATM   19  C6  UNL     1     -83.731  -9.107  14.456  1.00  0.00     0.061 A 
HETATM   20 CL1  UNL     1     -83.994  -9.187  12.726  1.00  0.00    -0.082 Cl
ENDBRANCH  10  13
ENDBRANCH   7   9
ENDBRANCH   1   3
BRANCH   1  21
HETATM   21  C12 UNL     1     -92.000 -12.506  11.847  1.00  0.00     0.035 A 
HETATM   22  C13 UNL     1     -93.259 -12.194  11.414  1.00  0.00     0.029 A 
HETATM   23  C14 UNL     1     -93.591 -12.265  10.051  1.00  0.00     0.003 A 
HETATM   24  C15 UNL     1     -92.640 -12.656   9.133  1.00  0.00     0.017 A 
HETATM   25  C16 UNL     1     -91.360 -12.980   9.527  1.00  0.00     0.034 A 
HETATM   26  C25 UNL     1     -91.088 -12.893  10.871  1.00  0.00     0.046 A 
BRANCH  25  27
HETATM   27  C17 UNL     1     -90.317 -13.399   8.593  1.00  0.00     0.252 C 
HETATM   28  O2  UNL     1     -90.126 -14.634   8.400  1.00  0.00    -0.268 OA
HETATM   29  N4  UNL     1     -89.486 -12.508   7.874  1.00  0.00    -0.352 N 
ATOM     30  H4  UNL     1     -89.614 -11.505   8.006  1.00  0.00     0.163 HD
BRANCH  29  31
HETATM   31  C18 UNL     1     -88.458 -12.964   6.952  1.00  0.00     0.085 C 
HETATM   32  C19 UNL     1     -88.435 -12.026   5.771  1.00  0.00     0.028 C 
HETATM   33  C20 UNL     1     -87.457 -10.890   5.967  1.00  0.00     0.039 C 
HETATM   34  C21 UNL     1     -86.057 -11.396   6.172  1.00  0.00     0.054 C 
HETATM   35  C22 UNL     1     -85.381 -10.606   7.272  1.00  0.00     0.045 C 
HETATM   36  C23 UNL     1     -86.059 -12.858   6.562  1.00  0.00     0.039 C 
HETATM   37  C24 UNL     1     -87.125 -13.031   7.651  1.00  0.00     0.028 C 
BRANCH  34  38
HETATM   38  O3  UNL     1     -85.364 -11.214   4.971  1.00  0.00    -0.390 OA
ATOM     39  H3  UNL     1     -84.555 -11.708   5.031  1.00  0.00     0.210 HD
ENDBRANCH  34  38
ENDBRANCH  29  31
ENDBRANCH  25  27
ENDBRANCH   1  21
TORSDOF 7
ENDMDL
