MODEL 16
REMARK VINA RESULT: -9.125517345      2.238      3.068
REMARK  7 active torsions:
REMARK  status: ('A' for Active; 'I' for Inactive)
REMARK    1  A    between atoms: C7_8  and  N1_9 
REMARK       I    between atoms: N1_9  and  C8_11 
REMARK    2  A    between atoms: C8_11  and  C9_13 
REMARK    3  A    between atoms: C11_17  and  N3_18 
REMARK    4  A    between atoms: N3_18  and  C12_20 
REMARK    5  A    between atoms: C16_24  and  C17_25 
REMARK       I    between atoms: C17_25  and  N4_27 
REMARK    6  A    between atoms: N4_27  and  C18_29 
REMARK    7  A    between atoms: C21_32  and  O3_34 
ROOT
HETATM    1  N3  UNL     1     -86.017 -11.601   4.810  1.00  0.00    -0.337 N 
ATOM      2  H3  UNL     1     -86.209 -11.567   3.809  1.00  0.00     0.168 HD
ENDROOT
BRANCH   1   3
HETATM    3  C11 UNL     1     -87.081 -11.942   5.715  1.00  0.00     0.149 A 
HETATM    4  N2  UNL     1     -88.321 -11.424   5.684  1.00  0.00    -0.345 N 
HETATM    5  C10 UNL     1     -89.196 -11.818   6.537  1.00  0.00     0.115 A 
ATOM      6  H2  UNL     1     -88.565 -10.721   4.987  1.00  0.00     0.167 HD
HETATM    7  C9  UNL     1     -88.834 -12.763   7.456  1.00  0.00     0.091 A 
HETATM    8  S1  UNL     1     -87.205 -13.028   7.019  1.00  0.00    -0.047 SA
BRANCH   7   9
HETATM    9  C8  UNL     1     -89.638 -13.380   8.530  1.00  0.00     0.264 C 
HETATM   10  N1  UNL     1     -90.989 -13.691   8.255  1.00  0.00    -0.320 N 
ATOM     11  H1  UNL     1     -91.359 -13.479   7.328  1.00  0.00     0.169 HD
HETATM   12  O1  UNL     1     -89.153 -13.624   9.649  1.00  0.00    -0.267 OA
BRANCH  10  13
HETATM   13  C7  UNL     1     -91.857 -14.286   9.210  1.00  0.00     0.062 A 
HETATM   14  C2  UNL     1     -91.929 -15.656   9.263  1.00  0.00    -0.034 A 
HETATM   15  C1  UNL     1     -91.151 -16.554   8.378  1.00  0.00     0.050 C 
HETATM   16  C3  UNL     1     -92.771 -16.230  10.190  1.00  0.00     0.009 A 
HETATM   17  C4  UNL     1     -93.508 -15.439  11.026  1.00  0.00     0.002 A 
HETATM   18  C5  UNL     1     -93.426 -14.069  10.963  1.00  0.00     0.026 A 
HETATM   19  C6  UNL     1     -92.583 -13.462  10.036  1.00  0.00     0.061 A 
HETATM   20 CL1  UNL     1     -92.483 -11.715   9.959  1.00  0.00    -0.082 Cl
ENDBRANCH  10  13
ENDBRANCH   7   9
ENDBRANCH   1   3
BRANCH   1  21
HETATM   21  C12 UNL     1     -84.738 -11.315   5.262  1.00  0.00     0.035 A 
HETATM   22  C13 UNL     1     -83.592 -11.343   4.517  1.00  0.00     0.029 A 
HETATM   23  C14 UNL     1     -82.353 -11.007   5.086  1.00  0.00     0.003 A 
HETATM   24  C15 UNL     1     -82.284 -10.644   6.415  1.00  0.00     0.017 A 
HETATM   25  C16 UNL     1     -83.415 -10.604   7.201  1.00  0.00     0.034 A 
HETATM   26  C25 UNL     1     -84.600 -10.942   6.594  1.00  0.00     0.046 A 
BRANCH  25  27
HETATM   27  C17 UNL     1     -83.395 -10.226   8.613  1.00  0.00     0.252 C 
HETATM   28  O2  UNL     1     -84.463  -9.815   9.153  1.00  0.00    -0.268 OA
HETATM   29  N4  UNL     1     -82.248 -10.286   9.438  1.00  0.00    -0.352 N 
ATOM     30  H4  UNL     1     -81.370 -10.613   9.034  1.00  0.00     0.163 HD
BRANCH  29  31
HETATM   31  C18 UNL     1     -82.268  -9.900  10.840  1.00  0.00     0.085 C 
HETATM   32  C19 UNL     1     -82.154 -11.152  11.674  1.00  0.00     0.028 C 
HETATM   33  C20 UNL     1     -80.716 -11.482  12.006  1.00  0.00     0.039 C 
HETATM   34  C21 UNL     1     -80.054 -10.368  12.765  1.00  0.00     0.054 C 
HETATM   35  C22 UNL     1     -78.649 -10.153  12.243  1.00  0.00     0.045 C 
HETATM   36  C23 UNL     1     -80.825  -9.075  12.616  1.00  0.00     0.039 C 
HETATM   37  C24 UNL     1     -81.160  -8.921  11.127  1.00  0.00     0.028 C 
BRANCH  34  38
HETATM   38  O3  UNL     1     -80.000 -10.750  14.110  1.00  0.00    -0.390 OA
ATOM     39  H3  UNL     1     -79.153 -11.154  14.258  1.00  0.00     0.210 HD
ENDBRANCH  34  38
ENDBRANCH  29  31
ENDBRANCH  25  27
ENDBRANCH   1  21
TORSDOF 7
ENDMDL
