MODEL 5
REMARK VINA RESULT: -9.526594621      1.335      1.658
REMARK  7 active torsions:
REMARK  status: ('A' for Active; 'I' for Inactive)
REMARK    1  A    between atoms: C7_8  and  N1_9 
REMARK       I    between atoms: N1_9  and  C8_11 
REMARK    2  A    between atoms: C8_11  and  C9_13 
REMARK    3  A    between atoms: C11_17  and  N3_18 
REMARK    4  A    between atoms: N3_18  and  C12_20 
REMARK    5  A    between atoms: C16_24  and  C17_25 
REMARK       I    between atoms: C17_25  and  N4_27 
REMARK    6  A    between atoms: N4_27  and  C18_29 
REMARK    7  A    between atoms: C21_32  and  O3_34 
ROOT
HETATM    1  N3  UNL     1     -85.151 -11.560   5.769  1.00  0.00    -0.337 N 
ATOM      2  H3  UNL     1     -84.855 -11.791   4.820  1.00  0.00     0.168 HD
ENDROOT
BRANCH   1   3
HETATM    3  C11 UNL     1     -86.526 -11.759   6.141  1.00  0.00     0.149 A 
HETATM    4  N2  UNL     1     -87.570 -11.074   5.642  1.00  0.00    -0.345 N 
HETATM    5  C10 UNL     1     -88.759 -11.351   6.039  1.00  0.00     0.115 A 
ATOM      6  H2  UNL     1     -87.418 -10.339   4.952  1.00  0.00     0.167 HD
HETATM    7  C9  UNL     1     -88.925 -12.343   6.965  1.00  0.00     0.091 A 
HETATM    8  S1  UNL     1     -87.306 -12.827   7.210  1.00  0.00    -0.047 SA
BRANCH   7   9
HETATM    9  C8  UNL     1     -90.168 -12.851   7.580  1.00  0.00     0.264 C 
HETATM   10  N1  UNL     1     -90.056 -13.655   8.738  1.00  0.00    -0.320 N 
ATOM     11  H1  UNL     1     -89.126 -13.853   9.106  1.00  0.00     0.169 HD
HETATM   12  O1  UNL     1     -91.286 -12.590   7.103  1.00  0.00    -0.267 OA
BRANCH  10  13
HETATM   13  C7  UNL     1     -91.181 -14.198   9.414  1.00  0.00     0.062 A 
HETATM   14  C2  UNL     1     -91.461 -15.531   9.247  1.00  0.00    -0.034 A 
HETATM   15  C1  UNL     1     -90.655 -16.441   8.401  1.00  0.00     0.050 C 
HETATM   16  C3  UNL     1     -92.554 -16.056   9.903  1.00  0.00     0.009 A 
HETATM   17  C4  UNL     1     -93.326 -15.253  10.694  1.00  0.00     0.002 A 
HETATM   18  C5  UNL     1     -93.035 -13.920  10.852  1.00  0.00     0.026 A 
HETATM   19  C6  UNL     1     -91.937 -13.363  10.202  1.00  0.00     0.061 A 
HETATM   20 CL1  UNL     1     -91.570 -11.663  10.407  1.00  0.00    -0.082 Cl
ENDBRANCH  10  13
ENDBRANCH   7   9
ENDBRANCH   1   3
BRANCH   1  21
HETATM   21  C12 UNL     1     -84.217 -11.063   6.664  1.00  0.00     0.035 A 
HETATM   22  C13 UNL     1     -82.933 -10.693   6.372  1.00  0.00     0.029 A 
HETATM   23  C14 UNL     1     -82.087 -10.177   7.368  1.00  0.00     0.003 A 
HETATM   24  C15 UNL     1     -82.552 -10.039   8.659  1.00  0.00     0.017 A 
HETATM   25  C16 UNL     1     -83.838 -10.401   8.995  1.00  0.00     0.034 A 
HETATM   26  C25 UNL     1     -84.623 -10.899   7.984  1.00  0.00     0.046 A 
BRANCH  25  27
HETATM   27  C17 UNL     1     -84.377 -10.274  10.348  1.00  0.00     0.252 C 
HETATM   28  O2  UNL     1     -83.596  -9.963  11.293  1.00  0.00    -0.268 OA
HETATM   29  N4  UNL     1     -85.735 -10.478  10.688  1.00  0.00    -0.352 N 
ATOM     30  H4  UNL     1     -86.392 -10.730   9.949  1.00  0.00     0.163 HD
BRANCH  29  31
HETATM   31  C18 UNL     1     -86.234 -10.343  12.047  1.00  0.00     0.085 C 
HETATM   32  C19 UNL     1     -87.570  -9.645  11.990  1.00  0.00     0.028 C 
HETATM   33  C20 UNL     1     -88.717 -10.625  11.894  1.00  0.00     0.039 C 
HETATM   34  C21 UNL     1     -88.743 -11.562  13.067  1.00  0.00     0.054 C 
HETATM   35  C22 UNL     1     -89.050 -12.968  12.596  1.00  0.00     0.045 C 
HETATM   36  C23 UNL     1     -87.410 -11.576  13.782  1.00  0.00     0.039 C 
HETATM   37  C24 UNL     1     -86.324 -11.694  12.706  1.00  0.00     0.028 C 
BRANCH  34  38
HETATM   38  O3  UNL     1     -89.754 -11.127  13.931  1.00  0.00    -0.390 OA
ATOM     39  H3  UNL     1     -89.353 -10.951  14.774  1.00  0.00     0.210 HD
ENDBRANCH  34  38
ENDBRANCH  29  31
ENDBRANCH  25  27
ENDBRANCH   1  21
TORSDOF 7
ENDMDL
