MODEL 15
REMARK VINA RESULT: -8.660980333      4.392      8.088
REMARK  7 active torsions:
REMARK  status: ('A' for Active; 'I' for Inactive)
REMARK    1  A    between atoms: C7_8  and  N1_9 
REMARK       I    between atoms: N1_9  and  C8_11 
REMARK    2  A    between atoms: C8_11  and  C9_13 
REMARK    3  A    between atoms: C11_17  and  N3_18 
REMARK    4  A    between atoms: N3_18  and  C12_20 
REMARK    5  A    between atoms: C16_24  and  C17_25 
REMARK       I    between atoms: C17_25  and  N4_27 
REMARK    6  A    between atoms: N4_27  and  C18_29 
REMARK    7  A    between atoms: C21_32  and  C22_33 
ROOT
HETATM    1  N3  UNL     1      94.869  15.040   5.455  1.00  0.00    -0.337 N 
ATOM      2  H3  UNL     1      95.071  14.915   4.463  1.00  0.00     0.168 HD
ENDROOT
BRANCH   1   3
HETATM    3  C11 UNL     1      95.957  15.382   6.326  1.00  0.00     0.149 A 
HETATM    4  N2  UNL     1      97.234  15.021   6.193  1.00  0.00    -0.345 N 
HETATM    5  C10 UNL     1      98.100  15.389   7.066  1.00  0.00     0.115 A 
ATOM      6  H2  UNL     1      97.523  14.452   5.397  1.00  0.00     0.167 HD
HETATM    7  C9  UNL     1      97.683  16.152   8.126  1.00  0.00     0.091 A 
HETATM    8  S1  UNL     1      96.015  16.294   7.781  1.00  0.00    -0.047 SA
BRANCH   7   9
HETATM    9  C8  UNL     1      98.448  16.689   9.236  1.00  0.00     0.264 C 
HETATM   10  N1  UNL     1      99.830  16.891   9.095  1.00  0.00    -0.320 N 
ATOM     11  H1  UNL     1     100.307  16.665   8.222  1.00  0.00     0.169 HD
HETATM   12  O1  UNL     1      97.877  16.966  10.303  1.00  0.00    -0.267 OA
BRANCH  10  13
HETATM   13  C7  UNL     1     100.542  17.418  10.201  1.00  0.00     0.062 A 
HETATM   14  C2  UNL     1     101.126  16.542  11.085  1.00  0.00    -0.034 A 
HETATM   15  C1  UNL     1     101.034  15.069  10.911  1.00  0.00     0.050 C 
HETATM   16  C3  UNL     1     101.814  17.065  12.167  1.00  0.00     0.009 A 
HETATM   17  C4  UNL     1     101.896  18.440  12.326  1.00  0.00     0.002 A 
HETATM   18  C5  UNL     1     101.313  19.333  11.443  1.00  0.00     0.026 A 
HETATM   19  C6  UNL     1     100.631  18.791  10.371  1.00  0.00     0.061 A 
HETATM   20 CL1  UNL     1      99.877  19.884   9.232  1.00  0.00    -0.082 Cl
ENDBRANCH  10  13
ENDBRANCH   7   9
ENDBRANCH   1   3
BRANCH   1  21
HETATM   21  C12 UNL     1      93.555  14.868   5.881  1.00  0.00     0.035 A 
HETATM   22  C13 UNL     1      93.186  14.509   7.140  1.00  0.00     0.029 A 
HETATM   23  C14 UNL     1      91.829  14.360   7.474  1.00  0.00     0.003 A 
HETATM   24  C15 UNL     1      90.878  14.583   6.500  1.00  0.00     0.017 A 
HETATM   25  C16 UNL     1      91.214  14.949   5.210  1.00  0.00     0.034 A 
HETATM   26  C25 UNL     1      92.555  15.084   4.925  1.00  0.00     0.046 A 
BRANCH  25  27
HETATM   27  C17 UNL     1      90.180  15.190   4.212  1.00  0.00     0.252 C 
HETATM   28  O2  UNL     1      88.963  15.299   4.508  1.00  0.00    -0.268 OA
HETATM   29  N4  UNL     1      90.473  15.319   2.819  1.00  0.00    -0.352 N 
ATOM     30  H4  UNL     1      91.446  15.236   2.525  1.00  0.00     0.163 HD
BRANCH  29  31
HETATM   31  C18 UNL     1      89.468  15.559   1.798  1.00  0.00     0.084 C 
HETATM   32  C19 UNL     1      89.466  16.944   1.272  1.00  0.00     0.026 C 
HETATM   33  C20 UNL     1      90.350  17.186   0.097  1.00  0.00     0.017 C 
HETATM   34  C21 UNL     1      90.421  16.113  -0.931  1.00  0.00     0.087 C 
HETATM   35  C23 UNL     1      90.693  14.791  -0.282  1.00  0.00     0.017 C 
HETATM   36  C24 UNL     1      89.666  14.502   0.737  1.00  0.00     0.026 C 
BRANCH  34  37
HETATM   37  C22 UNL     1      89.239  16.024  -1.803  1.00  0.00     0.177 C 
HETATM   38  O3  UNL     1      88.949  14.968  -2.380  1.00  0.00    -0.648 OA
HETATM   39  O4  UNL     1      88.450  17.161  -1.966  1.00  0.00    -0.648 OA
ENDBRANCH  34  37
ENDBRANCH  29  31
ENDBRANCH  25  27
ENDBRANCH   1  21
TORSDOF 7
ENDMDL
