MODEL 7
REMARK VINA RESULT: -8.912039658      0.969      1.238
REMARK  7 active torsions:
REMARK  status: ('A' for Active; 'I' for Inactive)
REMARK    1  A    between atoms: C7_8  and  N1_9 
REMARK       I    between atoms: N1_9  and  C8_11 
REMARK    2  A    between atoms: C8_11  and  C9_13 
REMARK    3  A    between atoms: C11_17  and  N3_18 
REMARK    4  A    between atoms: N3_18  and  C12_20 
REMARK    5  A    between atoms: C16_24  and  C17_25 
REMARK       I    between atoms: C17_25  and  N4_27 
REMARK    6  A    between atoms: N4_27  and  C18_29 
REMARK    7  A    between atoms: C21_32  and  C22_33 
ROOT
HETATM    1  N3  UNL     1      94.870  14.984   5.431  1.00  0.00    -0.337 N 
ATOM      2  H3  UNL     1      95.085  14.798   4.451  1.00  0.00     0.168 HD
ENDROOT
BRANCH   1   3
HETATM    3  C11 UNL     1      95.953  15.341   6.303  1.00  0.00     0.149 A 
HETATM    4  N2  UNL     1      97.238  15.008   6.163  1.00  0.00    -0.345 N 
HETATM    5  C10 UNL     1      98.097  15.387   7.037  1.00  0.00     0.115 A 
ATOM      6  H2  UNL     1      97.536  14.453   5.361  1.00  0.00     0.167 HD
HETATM    7  C9  UNL     1      97.667  16.131   8.106  1.00  0.00     0.091 A 
HETATM    8  S1  UNL     1      95.996  16.240   7.766  1.00  0.00    -0.047 SA
BRANCH   7   9
HETATM    9  C8  UNL     1      98.423  16.673   9.219  1.00  0.00     0.264 C 
HETATM   10  N1  UNL     1      99.781  16.985   9.050  1.00  0.00    -0.320 N 
ATOM     11  H1  UNL     1     100.248  16.836   8.155  1.00  0.00     0.169 HD
HETATM   12  O1  UNL     1      97.866  16.858  10.313  1.00  0.00    -0.267 OA
BRANCH  10  13
HETATM   13  C7  UNL     1     100.486  17.514  10.161  1.00  0.00     0.062 A 
HETATM   14  C2  UNL     1     100.569  18.879  10.297  1.00  0.00    -0.034 A 
HETATM   15  C1  UNL     1      99.942  19.808   9.321  1.00  0.00     0.050 C 
HETATM   16  C3  UNL     1     101.265  19.388  11.380  1.00  0.00     0.009 A 
HETATM   17  C4  UNL     1     101.851  18.517  12.288  1.00  0.00     0.002 A 
HETATM   18  C5  UNL     1     101.774  17.140  12.162  1.00  0.00     0.026 A 
HETATM   19  C6  UNL     1     101.076  16.654  11.074  1.00  0.00     0.061 A 
HETATM   20 CL1  UNL     1     100.956  14.919  10.876  1.00  0.00    -0.082 Cl
ENDBRANCH  10  13
ENDBRANCH   7   9
ENDBRANCH   1   3
BRANCH   1  21
HETATM   21  C12 UNL     1      93.545  14.875   5.841  1.00  0.00     0.035 A 
HETATM   22  C13 UNL     1      92.473  15.335   5.142  1.00  0.00     0.029 A 
HETATM   23  C14 UNL     1      91.169  15.177   5.641  1.00  0.00     0.003 A 
HETATM   24  C15 UNL     1      90.996  14.546   6.856  1.00  0.00     0.017 A 
HETATM   25  C16 UNL     1      92.061  14.065   7.596  1.00  0.00     0.034 A 
HETATM   26  C25 UNL     1      93.321  14.241   7.070  1.00  0.00     0.046 A 
BRANCH  25  27
HETATM   27  C17 UNL     1      91.837  13.391   8.869  1.00  0.00     0.252 C 
HETATM   28  O2  UNL     1      91.244  12.286   8.957  1.00  0.00    -0.268 OA
HETATM   29  N4  UNL     1      92.273  13.940  10.114  1.00  0.00    -0.352 N 
ATOM     30  H4  UNL     1      92.757  14.838  10.098  1.00  0.00     0.163 HD
BRANCH  29  31
HETATM   31  C18 UNL     1      92.067  13.297  11.400  1.00  0.00     0.084 C 
HETATM   32  C19 UNL     1      93.305  13.140  12.197  1.00  0.00     0.026 C 
HETATM   33  C20 UNL     1      93.632  14.275  13.106  1.00  0.00     0.017 C 
HETATM   34  C21 UNL     1      92.497  14.928  13.811  1.00  0.00     0.087 C 
HETATM   35  C23 UNL     1      91.415  15.277  12.838  1.00  0.00     0.017 C 
HETATM   36  C24 UNL     1      90.979  14.073  12.105  1.00  0.00     0.026 C 
BRANCH  34  37
HETATM   37  C22 UNL     1      91.948  14.152  14.934  1.00  0.00     0.177 C 
HETATM   38  O3  UNL     1      90.835  14.413  15.407  1.00  0.00    -0.648 OA
HETATM   39  O4  UNL     1      92.714  13.112  15.456  1.00  0.00    -0.648 OA
ENDBRANCH  34  37
ENDBRANCH  29  31
ENDBRANCH  25  27
ENDBRANCH   1  21
TORSDOF 7
ENDMDL
