MODEL 1
REMARK VINA RESULT: -9.429147286      0.000      0.000
REMARK  7 active torsions:
REMARK  status: ('A' for Active; 'I' for Inactive)
REMARK    1  A    between atoms: C7_8  and  N1_9 
REMARK       I    between atoms: N1_9  and  C8_11 
REMARK    2  A    between atoms: C8_11  and  C9_13 
REMARK    3  A    between atoms: C11_17  and  N3_18 
REMARK    4  A    between atoms: N3_18  and  C12_20 
REMARK    5  A    between atoms: C16_24  and  C17_25 
REMARK       I    between atoms: C17_25  and  N4_27 
REMARK    6  A    between atoms: N4_27  and  C18_29 
REMARK    7  A    between atoms: C21_32  and  C22_33 
ROOT
HETATM    1  N3  UNL     1      94.945  15.145   5.573  1.00  0.00    -0.337 N 
ATOM      2  H3  UNL     1      95.124  15.135   4.568  1.00  0.00     0.168 HD
ENDROOT
BRANCH   1   3
HETATM    3  C11 UNL     1      96.031  15.483   6.448  1.00  0.00     0.149 A 
HETATM    4  N2  UNL     1      97.296  15.069   6.351  1.00  0.00    -0.345 N 
HETATM    5  C10 UNL     1      98.162  15.441   7.223  1.00  0.00     0.115 A 
ATOM      6  H2  UNL     1      97.575  14.457   5.585  1.00  0.00     0.167 HD
HETATM    7  C9  UNL     1      97.757  16.263   8.243  1.00  0.00     0.091 A 
HETATM    8  S1  UNL     1      96.102  16.452   7.864  1.00  0.00    -0.047 SA
BRANCH   7   9
HETATM    9  C8  UNL     1      98.525  16.817   9.343  1.00  0.00     0.264 C 
HETATM   10  N1  UNL     1      99.899  17.056   9.181  1.00  0.00    -0.320 N 
ATOM     11  H1  UNL     1     100.369  16.845   8.300  1.00  0.00     0.169 HD
HETATM   12  O1  UNL     1      97.963  17.077  10.419  1.00  0.00    -0.267 OA
BRANCH  10  13
HETATM   13  C7  UNL     1     100.614  17.599  10.278  1.00  0.00     0.062 A 
HETATM   14  C2  UNL     1     100.764  18.963  10.354  1.00  0.00    -0.034 A 
HETATM   15  C1  UNL     1     100.199  19.877   9.328  1.00  0.00     0.050 C 
HETATM   16  C3  UNL     1     101.470  19.485  11.425  1.00  0.00     0.009 A 
HETATM   17  C4  UNL     1     101.998  18.628  12.380  1.00  0.00     0.002 A 
HETATM   18  C5  UNL     1     101.853  17.253  12.314  1.00  0.00     0.026 A 
HETATM   19  C6  UNL     1     101.147  16.753  11.238  1.00  0.00     0.061 A 
HETATM   20 CL1  UNL     1     100.942  15.019  11.116  1.00  0.00    -0.082 Cl
ENDBRANCH  10  13
ENDBRANCH   7   9
ENDBRANCH   1   3
BRANCH   1  21
HETATM   21  C12 UNL     1      93.662  14.830   6.011  1.00  0.00     0.035 A 
HETATM   22  C13 UNL     1      92.526  15.007   5.286  1.00  0.00     0.029 A 
HETATM   23  C14 UNL     1      91.274  14.658   5.818  1.00  0.00     0.003 A 
HETATM   24  C15 UNL     1      91.218  14.131   7.091  1.00  0.00     0.017 A 
HETATM   25  C16 UNL     1      92.351  13.935   7.860  1.00  0.00     0.034 A 
HETATM   26  C25 UNL     1      93.557  14.292   7.300  1.00  0.00     0.046 A 
BRANCH  25  27
HETATM   27  C17 UNL     1      92.253  13.362   9.196  1.00  0.00     0.252 C 
HETATM   28  O2  UNL     1      91.434  12.454   9.487  1.00  0.00    -0.268 OA
HETATM   29  N4  UNL     1      93.081  13.794  10.277  1.00  0.00    -0.352 N 
ATOM     30  H4  UNL     1      93.762  14.531  10.095  1.00  0.00     0.163 HD
BRANCH  29  31
HETATM   31  C18 UNL     1      93.011  13.245  11.621  1.00  0.00     0.084 C 
HETATM   32  C19 UNL     1      94.194  12.440  12.003  1.00  0.00     0.026 C 
HETATM   33  C20 UNL     1      95.306  13.196  12.645  1.00  0.00     0.017 C 
HETATM   34  C21 UNL     1      94.931  14.272  13.601  1.00  0.00     0.087 C 
HETATM   35  C23 UNL     1      93.912  15.180  12.986  1.00  0.00     0.017 C 
HETATM   36  C24 UNL     1      92.734  14.405  12.549  1.00  0.00     0.026 C 
BRANCH  34  37
HETATM   37  C22 UNL     1      94.465  13.791  14.911  1.00  0.00     0.177 C 
HETATM   38  O3  UNL     1      94.621  12.611  15.251  1.00  0.00    -0.648 OA
HETATM   39  O4  UNL     1      93.840  14.698  15.765  1.00  0.00    -0.648 OA
ENDBRANCH  34  37
ENDBRANCH  29  31
ENDBRANCH  25  27
ENDBRANCH   1  21
TORSDOF 7
ENDMDL
