MODEL 4
REMARK VINA RESULT: -9.245608850      4.713      8.271
REMARK  7 active torsions:
REMARK  status: ('A' for Active; 'I' for Inactive)
REMARK    1  A    between atoms: C7_8  and  N1_9 
REMARK       I    between atoms: N1_9  and  C8_11 
REMARK    2  A    between atoms: C8_11  and  C9_13 
REMARK    3  A    between atoms: C11_17  and  N3_18 
REMARK    4  A    between atoms: N3_18  and  C12_20 
REMARK    5  A    between atoms: C16_24  and  C17_25 
REMARK       I    between atoms: C17_25  and  N4_27 
REMARK    6  A    between atoms: N4_27  and  C18_29 
REMARK    7  A    between atoms: C21_32  and  C22_33 
ROOT
HETATM    1  N3  UNL     1      94.431  14.643   5.346  1.00  0.00    -0.337 N 
ATOM      2  H3  UNL     1      94.630  14.195   4.452  1.00  0.00     0.168 HD
ENDROOT
BRANCH   1   3
HETATM    3  C11 UNL     1      95.542  15.056   6.155  1.00  0.00     0.149 A 
HETATM    4  N2  UNL     1      96.838  14.931   5.861  1.00  0.00    -0.345 N 
HETATM    5  C10 UNL     1      97.727  15.333   6.694  1.00  0.00     0.115 A 
ATOM      6  H2  UNL     1      97.121  14.517   4.973  1.00  0.00     0.167 HD
HETATM    7  C9  UNL     1      97.317  15.884   7.881  1.00  0.00     0.091 A 
HETATM    8  S1  UNL     1      95.620  15.786   7.708  1.00  0.00    -0.047 SA
BRANCH   7   9
HETATM    9  C8  UNL     1      98.108  16.405   8.980  1.00  0.00     0.264 C 
HETATM   10  N1  UNL     1      99.460  16.721   8.775  1.00  0.00    -0.320 N 
ATOM     11  H1  UNL     1      99.898  16.589   7.863  1.00  0.00     0.169 HD
HETATM   12  O1  UNL     1      97.584  16.570  10.094  1.00  0.00    -0.267 OA
BRANCH  10  13
HETATM   13  C7  UNL     1     100.199  17.229   9.873  1.00  0.00     0.062 A 
HETATM   14  C2  UNL     1     100.955  16.355  10.618  1.00  0.00    -0.034 A 
HETATM   15  C1  UNL     1     101.020  14.904  10.303  1.00  0.00     0.050 C 
HETATM   16  C3  UNL     1     101.668  16.858  11.692  1.00  0.00     0.009 A 
HETATM   17  C4  UNL     1     101.603  18.213  11.984  1.00  0.00     0.002 A 
HETATM   18  C5  UNL     1     100.846  19.103  11.241  1.00  0.00     0.026 A 
HETATM   19  C6  UNL     1     100.141  18.581  10.174  1.00  0.00     0.061 A 
HETATM   20 CL1  UNL     1      99.171  19.672   9.210  1.00  0.00    -0.082 Cl
ENDBRANCH  10  13
ENDBRANCH   7   9
ENDBRANCH   1   3
BRANCH   1  21
HETATM   21  C12 UNL     1      93.098  14.815   5.709  1.00  0.00     0.035 A 
HETATM   22  C13 UNL     1      92.529  14.320   6.840  1.00  0.00     0.029 A 
HETATM   23  C14 UNL     1      91.171  14.548   7.118  1.00  0.00     0.003 A 
HETATM   24  C15 UNL     1      90.425  15.285   6.222  1.00  0.00     0.017 A 
HETATM   25  C16 UNL     1      90.968  15.804   5.061  1.00  0.00     0.034 A 
HETATM   26  C25 UNL     1      92.302  15.556   4.827  1.00  0.00     0.046 A 
BRANCH  25  27
HETATM   27  C17 UNL     1      90.151  16.589   4.144  1.00  0.00     0.252 C 
HETATM   28  O2  UNL     1      88.943  16.854   4.369  1.00  0.00    -0.268 OA
HETATM   29  N4  UNL     1      90.663  17.115   2.919  1.00  0.00    -0.352 N 
ATOM     30  H4  UNL     1      91.638  16.926   2.687  1.00  0.00     0.163 HD
BRANCH  29  31
HETATM   31  C18 UNL     1      89.878  17.901   1.982  1.00  0.00     0.084 C 
HETATM   32  C19 UNL     1      90.610  19.051   1.403  1.00  0.00     0.026 C 
HETATM   33  C20 UNL     1      91.357  18.769   0.145  1.00  0.00     0.017 C 
HETATM   34  C21 UNL     1      90.708  17.864  -0.841  1.00  0.00     0.087 C 
HETATM   35  C23 UNL     1      90.245  16.610  -0.166  1.00  0.00     0.017 C 
HETATM   36  C24 UNL     1      89.339  16.937   0.952  1.00  0.00     0.026 C 
BRANCH  34  37
HETATM   37  C22 UNL     1      89.606  18.476  -1.600  1.00  0.00     0.177 C 
HETATM   38  O3  UNL     1      89.601  19.687  -1.854  1.00  0.00    -0.648 OA
HETATM   39  O4  UNL     1      88.563  17.657  -2.028  1.00  0.00    -0.648 OA
ENDBRANCH  34  37
ENDBRANCH  29  31
ENDBRANCH  25  27
ENDBRANCH   1  21
TORSDOF 7
ENDMDL
