MODEL 17
REMARK VINA RESULT: -8.614965469      4.256      7.771
REMARK  7 active torsions:
REMARK  status: ('A' for Active; 'I' for Inactive)
REMARK    1  A    between atoms: C7_8  and  N1_9 
REMARK       I    between atoms: N1_9  and  C8_11 
REMARK    2  A    between atoms: C8_11  and  C9_13 
REMARK    3  A    between atoms: C11_17  and  N3_18 
REMARK    4  A    between atoms: N3_18  and  C12_20 
REMARK    5  A    between atoms: C16_24  and  C17_25 
REMARK       I    between atoms: C17_25  and  N4_27 
REMARK    6  A    between atoms: N4_27  and  C18_29 
REMARK    7  A    between atoms: C21_32  and  C22_33 
ROOT
HETATM    1  N3  UNL     1      94.887  15.054   5.451  1.00  0.00    -0.337 N 
ATOM      2  H3  UNL     1      95.080  14.982   4.452  1.00  0.00     0.168 HD
ENDROOT
BRANCH   1   3
HETATM    3  C11 UNL     1      95.972  15.395   6.326  1.00  0.00     0.149 A 
HETATM    4  N2  UNL     1      97.249  15.027   6.199  1.00  0.00    -0.345 N 
HETATM    5  C10 UNL     1      98.113  15.394   7.074  1.00  0.00     0.115 A 
ATOM      6  H2  UNL     1      97.538  14.454   5.406  1.00  0.00     0.167 HD
HETATM    7  C9  UNL     1      97.695  16.163   8.129  1.00  0.00     0.091 A 
HETATM    8  S1  UNL     1      96.030  16.311   7.777  1.00  0.00    -0.047 SA
BRANCH   7   9
HETATM    9  C8  UNL     1      98.458  16.699   9.241  1.00  0.00     0.264 C 
HETATM   10  N1  UNL     1      99.816  17.011   9.066  1.00  0.00    -0.320 N 
ATOM     11  H1  UNL     1     100.277  16.865   8.167  1.00  0.00     0.169 HD
HETATM   12  O1  UNL     1      97.907  16.881  10.338  1.00  0.00    -0.267 OA
BRANCH  10  13
HETATM   13  C7  UNL     1     100.527  17.535  10.175  1.00  0.00     0.062 A 
HETATM   14  C2  UNL     1     100.624  18.899  10.309  1.00  0.00    -0.034 A 
HETATM   15  C1  UNL     1     100.005  19.833   9.332  1.00  0.00     0.050 C 
HETATM   16  C3  UNL     1     101.327  19.402  11.390  1.00  0.00     0.009 A 
HETATM   17  C4  UNL     1     101.905  18.528  12.298  1.00  0.00     0.002 A 
HETATM   18  C5  UNL     1     101.813  17.151  12.175  1.00  0.00     0.026 A 
HETATM   19  C6  UNL     1     101.109  16.670  11.088  1.00  0.00     0.061 A 
HETATM   20 CL1  UNL     1     100.972  14.936  10.894  1.00  0.00    -0.082 Cl
ENDBRANCH  10  13
ENDBRANCH   7   9
ENDBRANCH   1   3
BRANCH   1  21
HETATM   21  C12 UNL     1      93.585  14.816   5.883  1.00  0.00     0.035 A 
HETATM   22  C13 UNL     1      93.233  14.511   7.161  1.00  0.00     0.029 A 
HETATM   23  C14 UNL     1      91.888  14.286   7.500  1.00  0.00     0.003 A 
HETATM   24  C15 UNL     1      90.931  14.381   6.511  1.00  0.00     0.017 A 
HETATM   25  C16 UNL     1      91.250  14.688   5.201  1.00  0.00     0.034 A 
HETATM   26  C25 UNL     1      92.579  14.900   4.913  1.00  0.00     0.046 A 
BRANCH  25  27
HETATM   27  C17 UNL     1      90.208  14.792   4.187  1.00  0.00     0.252 C 
HETATM   28  O2  UNL     1      89.239  13.994   4.125  1.00  0.00    -0.268 OA
HETATM   29  N4  UNL     1      90.213  15.810   3.185  1.00  0.00    -0.352 N 
ATOM     30  H4  UNL     1      90.980  16.483   3.189  1.00  0.00     0.163 HD
BRANCH  29  31
HETATM   31  C18 UNL     1      89.193  15.945   2.159  1.00  0.00     0.084 C 
HETATM   32  C19 UNL     1      88.228  17.039   2.412  1.00  0.00     0.026 C 
HETATM   33  C20 UNL     1      88.604  18.368   1.851  1.00  0.00     0.017 C 
HETATM   34  C21 UNL     1      89.246  18.380   0.510  1.00  0.00     0.087 C 
HETATM   35  C23 UNL     1      90.385  17.409   0.472  1.00  0.00     0.017 C 
HETATM   36  C24 UNL     1      89.917  16.059   0.838  1.00  0.00     0.026 C 
BRANCH  34  37
HETATM   37  C22 UNL     1      88.325  18.136  -0.612  1.00  0.00     0.177 C 
HETATM   38  O3  UNL     1      88.749  17.977  -1.763  1.00  0.00    -0.648 OA
HETATM   39  O4  UNL     1      86.958  18.088  -0.346  1.00  0.00    -0.648 OA
ENDBRANCH  34  37
ENDBRANCH  29  31
ENDBRANCH  25  27
ENDBRANCH   1  21
TORSDOF 7
ENDMDL
