MODEL 2
REMARK VINA RESULT: -9.384111602      0.951      1.497
REMARK  7 active torsions:
REMARK  status: ('A' for Active; 'I' for Inactive)
REMARK    1  A    between atoms: C7_8  and  N1_9 
REMARK       I    between atoms: N1_9  and  C8_11 
REMARK    2  A    between atoms: C8_11  and  C9_13 
REMARK    3  A    between atoms: C11_17  and  N3_18 
REMARK    4  A    between atoms: N3_18  and  C12_20 
REMARK    5  A    between atoms: C16_24  and  C17_25 
REMARK       I    between atoms: C17_25  and  N4_27 
REMARK    6  A    between atoms: N4_27  and  C18_29 
REMARK    7  A    between atoms: C21_32  and  C22_33 
ROOT
HETATM    1  N3  UNL     1      94.860  15.203   5.626  1.00  0.00    -0.337 N 
ATOM      2  H3  UNL     1      95.015  15.208   4.617  1.00  0.00     0.168 HD
ENDROOT
BRANCH   1   3
HETATM    3  C11 UNL     1      95.965  15.536   6.479  1.00  0.00     0.149 A 
HETATM    4  N2  UNL     1      97.233  15.144   6.338  1.00  0.00    -0.345 N 
HETATM    5  C10 UNL     1      98.116  15.508   7.195  1.00  0.00     0.115 A 
ATOM      6  H2  UNL     1      97.500  14.556   5.549  1.00  0.00     0.167 HD
HETATM    7  C9  UNL     1      97.727  16.297   8.247  1.00  0.00     0.091 A 
HETATM    8  S1  UNL     1      96.059  16.469   7.918  1.00  0.00    -0.047 SA
BRANCH   7   9
HETATM    9  C8  UNL     1      98.516  16.834   9.340  1.00  0.00     0.264 C 
HETATM   10  N1  UNL     1      99.906  16.967   9.194  1.00  0.00    -0.320 N 
ATOM     11  H1  UNL     1     100.373  16.689   8.330  1.00  0.00     0.169 HD
HETATM   12  O1  UNL     1      97.958  17.175  10.395  1.00  0.00    -0.267 OA
BRANCH  10  13
HETATM   13  C7  UNL     1     100.642  17.498  10.283  1.00  0.00     0.062 A 
HETATM   14  C2  UNL     1     101.220  16.625  11.174  1.00  0.00    -0.034 A 
HETATM   15  C1  UNL     1     101.098  15.151  11.025  1.00  0.00     0.050 C 
HETATM   16  C3  UNL     1     101.931  17.151  12.239  1.00  0.00     0.009 A 
HETATM   17  C4  UNL     1     102.042  18.527  12.375  1.00  0.00     0.002 A 
HETATM   18  C5  UNL     1     101.465  19.417  11.485  1.00  0.00     0.026 A 
HETATM   19  C6  UNL     1     100.759  18.871  10.430  1.00  0.00     0.061 A 
HETATM   20 CL1  UNL     1     100.012  19.961   9.283  1.00  0.00    -0.082 Cl
ENDBRANCH  10  13
ENDBRANCH   7   9
ENDBRANCH   1   3
BRANCH   1  21
HETATM   21  C12 UNL     1      93.590  14.872   6.090  1.00  0.00     0.035 A 
HETATM   22  C13 UNL     1      92.436  15.052   5.394  1.00  0.00     0.029 A 
HETATM   23  C14 UNL     1      91.199  14.686   5.951  1.00  0.00     0.003 A 
HETATM   24  C15 UNL     1      91.177  14.140   7.217  1.00  0.00     0.017 A 
HETATM   25  C16 UNL     1      92.329  13.941   7.956  1.00  0.00     0.034 A 
HETATM   26  C25 UNL     1      93.520  14.315   7.372  1.00  0.00     0.046 A 
BRANCH  25  27
HETATM   27  C17 UNL     1      92.267  13.348   9.286  1.00  0.00     0.252 C 
HETATM   28  O2  UNL     1      91.473  12.419   9.578  1.00  0.00    -0.268 OA
HETATM   29  N4  UNL     1      93.105  13.783  10.358  1.00  0.00    -0.352 N 
ATOM     30  H4  UNL     1      93.767  14.537  10.175  1.00  0.00     0.163 HD
BRANCH  29  31
HETATM   31  C18 UNL     1      93.071  13.215  11.695  1.00  0.00     0.084 C 
HETATM   32  C19 UNL     1      94.291  12.459  12.058  1.00  0.00     0.026 C 
HETATM   33  C20 UNL     1      95.372  13.258  12.703  1.00  0.00     0.017 C 
HETATM   34  C21 UNL     1      94.955  14.304  13.675  1.00  0.00     0.087 C 
HETATM   35  C23 UNL     1      93.891  15.171  13.078  1.00  0.00     0.017 C 
HETATM   36  C24 UNL     1      92.748  14.349  12.640  1.00  0.00     0.026 C 
BRANCH  34  37
HETATM   37  C22 UNL     1      94.522  13.785  14.982  1.00  0.00     0.177 C 
HETATM   38  O3  UNL     1      94.747  12.614  15.311  1.00  0.00    -0.648 OA
HETATM   39  O4  UNL     1      93.848  14.647  15.845  1.00  0.00    -0.648 OA
ENDBRANCH  34  37
ENDBRANCH  29  31
ENDBRANCH  25  27
ENDBRANCH   1  21
TORSDOF 7
ENDMDL
