MODEL 13
REMARK VINA RESULT: -8.837565636      4.316     10.460
REMARK  6 active torsions:
REMARK  status: ('A' for Active; 'I' for Inactive)
REMARK    1  A    between atoms: C7_8  and  N1_9 
REMARK       I    between atoms: N1_9  and  C8_11 
REMARK    2  A    between atoms: C8_11  and  C9_13 
REMARK    3  A    between atoms: C11_17  and  N3_18 
REMARK    4  A    between atoms: N3_18  and  C12_20 
REMARK    5  A    between atoms: C14_22  and  N4_23 
REMARK    6  A    between atoms: C20_30  and  N5_31 
ROOT
HETATM    1  N3  UNL     1     -89.275 -16.002  12.143  1.00  0.00    -0.336 N 
ATOM      2  H3  UNL     1     -90.076 -15.448  12.448  1.00  0.00     0.168 HD
ENDROOT
BRANCH   1   3
HETATM    3  C11 UNL     1     -88.045 -15.922  12.875  1.00  0.00     0.149 A 
HETATM    4  N2  UNL     1     -87.666 -16.745  13.868  1.00  0.00    -0.345 N 
HETATM    5  C10 UNL     1     -86.537 -16.552  14.460  1.00  0.00     0.115 A 
ATOM      6  H2  UNL     1     -88.267 -17.519  14.150  1.00  0.00     0.167 HD
HETATM    7  C9  UNL     1     -85.761 -15.501  14.052  1.00  0.00     0.091 A 
HETATM    8  S1  UNL     1     -86.722 -14.845  12.815  1.00  0.00    -0.047 SA
BRANCH   7   9
HETATM    9  C8  UNL     1     -84.464 -15.080  14.563  1.00  0.00     0.264 C 
HETATM   10  N1  UNL     1     -84.073 -13.724  14.652  1.00  0.00    -0.320 N 
ATOM     11  H1  UNL     1     -84.728 -13.004  14.346  1.00  0.00     0.169 HD
HETATM   12  O1  UNL     1     -83.637 -15.950  14.951  1.00  0.00    -0.267 OA
BRANCH  10  13
HETATM   13  C7  UNL     1     -82.793 -13.322  15.154  1.00  0.00     0.062 A 
HETATM   14  C2  UNL     1     -81.795 -12.963  14.283  1.00  0.00    -0.034 A 
HETATM   15  C1  UNL     1     -82.017 -12.974  12.791  1.00  0.00     0.050 C 
HETATM   16  C3  UNL     1     -80.553 -12.577  14.767  1.00  0.00     0.009 A 
HETATM   17  C4  UNL     1     -80.337 -12.560  16.131  1.00  0.00     0.002 A 
HETATM   18  C5  UNL     1     -81.332 -12.920  17.012  1.00  0.00     0.026 A 
HETATM   19  C6  UNL     1     -82.552 -13.297  16.502  1.00  0.00     0.061 A 
HETATM   20 CL1  UNL     1     -83.805 -13.753  17.671  1.00  0.00    -0.082 Cl
ENDBRANCH  10  13
ENDBRANCH   7   9
ENDBRANCH   1   3
BRANCH   1  21
HETATM   21  C12 UNL     1     -89.399 -16.829  11.016  1.00  0.00     0.038 A 
HETATM   22  C13 UNL     1     -88.485 -16.568   9.981  1.00  0.00     0.059 A 
HETATM   23  C14 UNL     1     -88.503 -17.280   8.816  1.00  0.00     0.034 A 
HETATM   24  C19 UNL     1     -89.445 -18.271   8.674  1.00  0.00     0.058 A 
HETATM   25  C20 UNL     1     -90.361 -18.565   9.657  1.00  0.00     0.034 A 
HETATM   26  C25 UNL     1     -90.330 -17.825  10.846  1.00  0.00     0.059 A 
BRANCH  23  27
HETATM   27  N4  UNL     1     -87.562 -16.981   7.798  1.00  0.00    -0.377 N 
HETATM   28  C15 UNL     1     -87.732 -17.203   6.398  1.00  0.00     0.149 C 
HETATM   29  C16 UNL     1     -87.173 -15.961   5.690  1.00  0.00     0.187 C 
HETATM   30  O2  UNL     1     -85.818 -15.881   5.851  1.00  0.00    -0.388 OA
HETATM   31  C17 UNL     1     -85.322 -16.413   7.010  1.00  0.00     0.187 C 
HETATM   32  C18 UNL     1     -86.268 -16.382   8.172  1.00  0.00     0.149 C 
ENDBRANCH  23  27
BRANCH  25  33
HETATM   33  N5  UNL     1     -91.318 -19.592   9.466  1.00  0.00    -0.377 N 
HETATM   34  C21 UNL     1     -92.665 -19.478   9.974  1.00  0.00     0.149 C 
HETATM   35  C22 UNL     1     -93.309 -20.832  10.190  1.00  0.00     0.187 C 
HETATM   36  O3  UNL     1     -93.175 -21.703   9.142  1.00  0.00    -0.388 OA
HETATM   37  C23 UNL     1     -92.291 -21.314   8.169  1.00  0.00     0.187 C 
HETATM   38  C24 UNL     1     -90.969 -20.790   8.744  1.00  0.00     0.149 C 
ENDBRANCH  25  33
ENDBRANCH   1  21
TORSDOF 6
ENDMDL
