MODEL 15
REMARK VINA RESULT: -8.765411497      4.600     10.455
REMARK  6 active torsions:
REMARK  status: ('A' for Active; 'I' for Inactive)
REMARK    1  A    between atoms: C7_8  and  N1_9 
REMARK       I    between atoms: N1_9  and  C8_11 
REMARK    2  A    between atoms: C8_11  and  C9_13 
REMARK    3  A    between atoms: C11_17  and  N3_18 
REMARK    4  A    between atoms: N3_18  and  C12_20 
REMARK    5  A    between atoms: C14_22  and  N4_23 
REMARK    6  A    between atoms: C20_30  and  N5_31 
ROOT
HETATM    1  N3  UNL     1     -89.554 -15.974  12.389  1.00  0.00    -0.336 N 
ATOM      2  H3  UNL     1     -90.408 -15.467  12.622  1.00  0.00     0.168 HD
ENDROOT
BRANCH   1   3
HETATM    3  C11 UNL     1     -88.391 -15.808  13.209  1.00  0.00     0.149 A 
HETATM    4  N2  UNL     1     -87.889 -16.723  14.057  1.00  0.00    -0.345 N 
HETATM    5  C10 UNL     1     -86.843 -16.440  14.756  1.00  0.00     0.115 A 
ATOM      6  H2  UNL     1     -88.334 -17.637  14.147  1.00  0.00     0.167 HD
HETATM    7  C9  UNL     1     -86.279 -15.202  14.606  1.00  0.00     0.091 A 
HETATM    8  S1  UNL     1     -87.307 -14.510  13.447  1.00  0.00    -0.047 SA
BRANCH   7   9
HETATM    9  C8  UNL     1     -85.110 -14.652  15.280  1.00  0.00     0.264 C 
HETATM   10  N1  UNL     1     -83.784 -14.945  14.885  1.00  0.00    -0.320 N 
ATOM     11  H1  UNL     1     -83.634 -15.568  14.091  1.00  0.00     0.169 HD
HETATM   12  O1  UNL     1     -85.266 -13.878  16.262  1.00  0.00    -0.267 OA
BRANCH  10  13
HETATM   13  C7  UNL     1     -82.642 -14.400  15.557  1.00  0.00     0.062 A 
HETATM   14  C2  UNL     1     -82.083 -13.225  15.119  1.00  0.00    -0.034 A 
HETATM   15  C1  UNL     1     -82.652 -12.481  13.937  1.00  0.00     0.050 C 
HETATM   16  C3  UNL     1     -80.974 -12.697  15.766  1.00  0.00     0.009 A 
HETATM   17  C4  UNL     1     -80.445 -13.368  16.851  1.00  0.00     0.002 A 
HETATM   18  C5  UNL     1     -80.998 -14.548  17.296  1.00  0.00     0.026 A 
HETATM   19  C6  UNL     1     -82.096 -15.045  16.635  1.00  0.00     0.061 A 
HETATM   20 CL1  UNL     1     -82.777 -16.566  17.240  1.00  0.00    -0.082 Cl
ENDBRANCH  10  13
ENDBRANCH   7   9
ENDBRANCH   1   3
BRANCH   1  21
HETATM   21  C12 UNL     1     -89.540 -16.823  11.270  1.00  0.00     0.038 A 
HETATM   22  C13 UNL     1     -88.507 -16.579  10.349  1.00  0.00     0.059 A 
HETATM   23  C14 UNL     1     -88.384 -17.313   9.205  1.00  0.00     0.034 A 
HETATM   24  C19 UNL     1     -89.303 -18.309   8.968  1.00  0.00     0.058 A 
HETATM   25  C20 UNL     1     -90.331 -18.586   9.838  1.00  0.00     0.034 A 
HETATM   26  C25 UNL     1     -90.445 -17.823  11.008  1.00  0.00     0.059 A 
BRANCH  23  27
HETATM   27  N4  UNL     1     -87.326 -17.032   8.303  1.00  0.00    -0.377 N 
HETATM   28  C15 UNL     1     -87.365 -17.176   6.883  1.00  0.00     0.149 C 
HETATM   29  C16 UNL     1     -86.659 -15.943   6.302  1.00  0.00     0.187 C 
HETATM   30  O2  UNL     1     -85.325 -15.964   6.601  1.00  0.00    -0.388 OA
HETATM   31  C17 UNL     1     -84.986 -16.583   7.773  1.00  0.00     0.187 C 
HETATM   32  C18 UNL     1     -86.042 -16.542   8.835  1.00  0.00     0.149 C 
ENDBRANCH  23  27
BRANCH  25  33
HETATM   33  N5  UNL     1     -91.258 -19.618   9.551  1.00  0.00    -0.377 N 
HETATM   34  C21 UNL     1     -92.617 -19.575  10.041  1.00  0.00     0.149 C 
HETATM   35  C22 UNL     1     -93.229 -20.957  10.141  1.00  0.00     0.187 C 
HETATM   36  O3  UNL     1     -93.056 -21.742   9.034  1.00  0.00    -0.388 OA
HETATM   37  C23 UNL     1     -92.165 -21.259   8.110  1.00  0.00     0.187 C 
HETATM   38  C24 UNL     1     -90.867 -20.749   8.748  1.00  0.00     0.149 C 
ENDBRANCH  25  33
ENDBRANCH   1  21
TORSDOF 6
ENDMDL
