MODEL 14
REMARK VINA RESULT: -8.816453820      4.408     10.497
REMARK  6 active torsions:
REMARK  status: ('A' for Active; 'I' for Inactive)
REMARK    1  A    between atoms: C7_8  and  N1_9 
REMARK       I    between atoms: N1_9  and  C8_11 
REMARK    2  A    between atoms: C8_11  and  C9_13 
REMARK    3  A    between atoms: C11_17  and  N3_18 
REMARK    4  A    between atoms: N3_18  and  C12_20 
REMARK    5  A    between atoms: C14_22  and  N4_23 
REMARK    6  A    between atoms: C20_30  and  N5_31 
ROOT
HETATM    1  N3  UNL     1     -89.151 -16.015  12.174  1.00  0.00    -0.336 N 
ATOM      2  H3  UNL     1     -89.952 -15.473  12.497  1.00  0.00     0.168 HD
ENDROOT
BRANCH   1   3
HETATM    3  C11 UNL     1     -87.910 -15.931  12.887  1.00  0.00     0.149 A 
HETATM    4  N2  UNL     1     -87.539 -16.714  13.914  1.00  0.00    -0.345 N 
HETATM    5  C10 UNL     1     -86.399 -16.520  14.485  1.00  0.00     0.115 A 
ATOM      6  H2  UNL     1     -88.156 -17.458  14.241  1.00  0.00     0.167 HD
HETATM    7  C9  UNL     1     -85.603 -15.511  14.017  1.00  0.00     0.091 A 
HETATM    8  S1  UNL     1     -86.562 -14.891  12.760  1.00  0.00    -0.047 SA
BRANCH   7   9
HETATM    9  C8  UNL     1     -84.289 -15.098  14.493  1.00  0.00     0.264 C 
HETATM   10  N1  UNL     1     -83.982 -13.763  14.847  1.00  0.00    -0.320 N 
ATOM     11  H1  UNL     1     -84.711 -13.054  14.768  1.00  0.00     0.169 HD
HETATM   12  O1  UNL     1     -83.371 -15.954  14.603  1.00  0.00    -0.267 OA
BRANCH  10  13
HETATM   13  C7  UNL     1     -82.685 -13.368  15.312  1.00  0.00     0.062 A 
HETATM   14  C2  UNL     1     -82.401 -13.392  16.654  1.00  0.00    -0.034 A 
HETATM   15  C1  UNL     1     -83.429 -13.834  17.665  1.00  0.00     0.050 C 
HETATM   16  C3  UNL     1     -81.147 -13.007  17.107  1.00  0.00     0.009 A 
HETATM   17  C4  UNL     1     -80.195 -12.601  16.193  1.00  0.00     0.002 A 
HETATM   18  C5  UNL     1     -80.472 -12.573  14.845  1.00  0.00     0.026 A 
HETATM   19  C6  UNL     1     -81.723 -12.961  14.426  1.00  0.00     0.061 A 
HETATM   20 CL1  UNL     1     -82.039 -12.910  12.682  1.00  0.00    -0.082 Cl
ENDBRANCH  10  13
ENDBRANCH   7   9
ENDBRANCH   1   3
BRANCH   1  21
HETATM   21  C12 UNL     1     -89.283 -16.831  11.039  1.00  0.00     0.038 A 
HETATM   22  C13 UNL     1     -88.377 -16.559   9.999  1.00  0.00     0.059 A 
HETATM   23  C14 UNL     1     -88.405 -17.259   8.828  1.00  0.00     0.034 A 
HETATM   24  C19 UNL     1     -89.348 -18.249   8.683  1.00  0.00     0.058 A 
HETATM   25  C20 UNL     1     -90.256 -18.553   9.670  1.00  0.00     0.034 A 
HETATM   26  C25 UNL     1     -90.216 -17.824  10.866  1.00  0.00     0.059 A 
BRANCH  23  27
HETATM   27  N4  UNL     1     -87.471 -16.950   7.806  1.00  0.00    -0.377 N 
HETATM   28  C15 UNL     1     -87.660 -17.139   6.403  1.00  0.00     0.149 C 
HETATM   29  C16 UNL     1     -87.092 -15.889   5.716  1.00  0.00     0.187 C 
HETATM   30  O2  UNL     1     -85.734 -15.831   5.863  1.00  0.00    -0.388 OA
HETATM   31  C17 UNL     1     -85.233 -16.395   7.004  1.00  0.00     0.187 C 
HETATM   32  C18 UNL     1     -86.165 -16.377   8.177  1.00  0.00     0.149 C 
ENDBRANCH  23  27
BRANCH  25  33
HETATM   33  N5  UNL     1     -91.215 -19.577   9.475  1.00  0.00    -0.377 N 
HETATM   34  C21 UNL     1     -92.549 -19.481  10.020  1.00  0.00     0.149 C 
HETATM   35  C22 UNL     1     -93.184 -20.842  10.216  1.00  0.00     0.187 C 
HETATM   36  O3  UNL     1     -93.075 -21.684   9.143  1.00  0.00    -0.388 OA
HETATM   37  C23 UNL     1     -92.216 -21.268   8.158  1.00  0.00     0.187 C 
HETATM   38  C24 UNL     1     -90.881 -20.755   8.714  1.00  0.00     0.149 C 
ENDBRANCH  25  33
ENDBRANCH   1  21
TORSDOF 6
ENDMDL
