MODEL 2
REMARK VINA RESULT: -9.886192607      0.955      1.495
REMARK  6 active torsions:
REMARK  status: ('A' for Active; 'I' for Inactive)
REMARK    1  A    between atoms: C7_8  and  N1_9 
REMARK       I    between atoms: N1_9  and  C8_11 
REMARK    2  A    between atoms: C8_11  and  C9_13 
REMARK    3  A    between atoms: C11_17  and  N3_18 
REMARK    4  A    between atoms: N3_18  and  C12_20 
REMARK    5  A    between atoms: C14_22  and  N4_23 
REMARK    6  A    between atoms: C20_30  and  N5_31 
ROOT
HETATM    1  N3  UNL     1     -86.282 -15.863   5.289  1.00  0.00    -0.336 N 
ATOM      2  H3  UNL     1     -86.436 -15.293   4.457  1.00  0.00     0.168 HD
ENDROOT
BRANCH   1   3
HETATM    3  C11 UNL     1     -87.409 -16.407   5.987  1.00  0.00     0.149 A 
HETATM    4  N2  UNL     1     -88.699 -16.250   5.641  1.00  0.00    -0.345 N 
HETATM    5  C10 UNL     1     -89.623 -16.778   6.370  1.00  0.00     0.115 A 
ATOM      6  H2  UNL     1     -88.945 -15.718   4.807  1.00  0.00     0.167 HD
HETATM    7  C9  UNL     1     -89.250 -17.483   7.482  1.00  0.00     0.091 A 
HETATM    8  S1  UNL     1     -87.560 -17.342   7.408  1.00  0.00    -0.047 SA
BRANCH   7   9
HETATM    9  C8  UNL     1     -90.099 -18.159   8.453  1.00  0.00     0.264 C 
HETATM   10  N1  UNL     1     -91.480 -18.386   8.244  1.00  0.00    -0.320 N 
ATOM     11  H1  UNL     1     -91.904 -18.065   7.374  1.00  0.00     0.169 HD
HETATM   12  O1  UNL     1     -89.600 -18.569   9.536  1.00  0.00    -0.267 OA
BRANCH  10  13
HETATM   13  C7  UNL     1     -92.306 -19.050   9.208  1.00  0.00     0.062 A 
HETATM   14  C2  UNL     1     -93.078 -18.315  10.073  1.00  0.00    -0.034 A 
HETATM   15  C1  UNL     1     -93.084 -16.808  10.030  1.00  0.00     0.050 C 
HETATM   16  C3  UNL     1     -93.876 -18.956  11.011  1.00  0.00     0.009 A 
HETATM   17  C4  UNL     1     -93.882 -20.336  11.060  1.00  0.00     0.002 A 
HETATM   18  C5  UNL     1     -93.109 -21.081  10.197  1.00  0.00     0.026 A 
HETATM   19  C6  UNL     1     -92.330 -20.418   9.279  1.00  0.00     0.061 A 
HETATM   20 CL1  UNL     1     -91.351 -21.414   8.187  1.00  0.00    -0.082 Cl
ENDBRANCH  10  13
ENDBRANCH   7   9
ENDBRANCH   1   3
BRANCH   1  21
HETATM   21  C12 UNL     1     -84.970 -16.102   5.727  1.00  0.00     0.038 A 
HETATM   22  C13 UNL     1     -84.745 -15.865   7.094  1.00  0.00     0.059 A 
HETATM   23  C14 UNL     1     -83.512 -16.035   7.654  1.00  0.00     0.034 A 
HETATM   24  C19 UNL     1     -82.480 -16.447   6.844  1.00  0.00     0.058 A 
HETATM   25  C20 UNL     1     -82.649 -16.692   5.501  1.00  0.00     0.034 A 
HETATM   26  C25 UNL     1     -83.921 -16.512   4.941  1.00  0.00     0.059 A 
BRANCH  23  27
HETATM   27  N4  UNL     1     -83.331 -15.784   9.038  1.00  0.00    -0.377 N 
HETATM   28  C15 UNL     1     -82.207 -16.173   9.828  1.00  0.00     0.149 C 
HETATM   29  C16 UNL     1     -81.881 -14.980  10.738  1.00  0.00     0.187 C 
HETATM   30  O2  UNL     1     -82.878 -14.784  11.653  1.00  0.00    -0.388 OA
HETATM   31  C17 UNL     1     -84.135 -15.145  11.253  1.00  0.00     0.187 C 
HETATM   32  C18 UNL     1     -84.376 -15.054   9.777  1.00  0.00     0.149 C 
ENDBRANCH  23  27
BRANCH  25  33
HETATM   33  N5  UNL     1     -81.557 -17.110   4.702  1.00  0.00    -0.377 N 
HETATM   34  C21 UNL     1     -81.619 -17.091   3.260  1.00  0.00     0.149 C 
HETATM   35  C22 UNL     1     -80.657 -18.079   2.634  1.00  0.00     0.187 C 
HETATM   36  O3  UNL     1     -79.387 -18.040   3.141  1.00  0.00    -0.388 OA
HETATM   37  C23 UNL     1     -79.236 -17.295   4.283  1.00  0.00     0.187 C 
HETATM   38  C24 UNL     1     -80.336 -17.567   5.317  1.00  0.00     0.149 C 
ENDBRANCH  25  33
ENDBRANCH   1  21
TORSDOF 6
ENDMDL
