MODEL 4
REMARK VINA RESULT: -9.780144692      0.525      4.554
REMARK  6 active torsions:
REMARK  status: ('A' for Active; 'I' for Inactive)
REMARK    1  A    between atoms: C7_8  and  N1_9 
REMARK       I    between atoms: N1_9  and  C8_11 
REMARK    2  A    between atoms: C8_11  and  C9_13 
REMARK    3  A    between atoms: C11_17  and  N3_18 
REMARK    4  A    between atoms: N3_18  and  C12_20 
REMARK    5  A    between atoms: C14_22  and  N4_23 
REMARK    6  A    between atoms: C20_30  and  N5_31 
ROOT
HETATM    1  N3  UNL     1     -86.111 -16.020   5.317  1.00  0.00    -0.336 N 
ATOM      2  H3  UNL     1     -86.218 -15.640   4.376  1.00  0.00     0.168 HD
ENDROOT
BRANCH   1   3
HETATM    3  C11 UNL     1     -87.263 -16.519   6.010  1.00  0.00     0.149 A 
HETATM    4  N2  UNL     1     -88.544 -16.310   5.657  1.00  0.00    -0.345 N 
HETATM    5  C10 UNL     1     -89.492 -16.801   6.381  1.00  0.00     0.115 A 
ATOM      6  H2  UNL     1     -88.764 -15.768   4.823  1.00  0.00     0.167 HD
HETATM    7  C9  UNL     1     -89.152 -17.522   7.493  1.00  0.00     0.091 A 
HETATM    8  S1  UNL     1     -87.458 -17.449   7.428  1.00  0.00    -0.047 SA
BRANCH   7   9
HETATM    9  C8  UNL     1     -90.033 -18.165   8.460  1.00  0.00     0.264 C 
HETATM   10  N1  UNL     1     -91.384 -18.478   8.182  1.00  0.00    -0.320 N 
ATOM     11  H1  UNL     1     -91.763 -18.246   7.264  1.00  0.00     0.169 HD
HETATM   12  O1  UNL     1     -89.590 -18.464   9.601  1.00  0.00    -0.267 OA
BRANCH  10  13
HETATM   13  C7  UNL     1     -92.242 -19.108   9.142  1.00  0.00     0.062 A 
HETATM   14  C2  UNL     1     -92.297 -20.477   9.218  1.00  0.00    -0.034 A 
HETATM   15  C1  UNL     1     -91.463 -21.346   8.311  1.00  0.00     0.050 C 
HETATM   16  C3  UNL     1     -93.130 -21.089  10.145  1.00  0.00     0.009 A 
HETATM   17  C4  UNL     1     -93.898 -20.305  10.983  1.00  0.00     0.002 A 
HETATM   18  C5  UNL     1     -93.849 -18.931  10.912  1.00  0.00     0.026 A 
HETATM   19  C6  UNL     1     -93.014 -18.354   9.985  1.00  0.00     0.061 A 
HETATM   20 CL1  UNL     1     -92.982 -16.582   9.926  1.00  0.00    -0.082 Cl
ENDBRANCH  10  13
ENDBRANCH   7   9
ENDBRANCH   1   3
BRANCH   1  21
HETATM   21  C12 UNL     1     -84.839 -16.043   5.910  1.00  0.00     0.038 A 
HETATM   22  C13 UNL     1     -83.810 -16.548   5.096  1.00  0.00     0.059 A 
HETATM   23  C14 UNL     1     -82.527 -16.649   5.550  1.00  0.00     0.034 A 
HETATM   24  C19 UNL     1     -82.256 -16.243   6.835  1.00  0.00     0.058 A 
HETATM   25  C20 UNL     1     -83.228 -15.742   7.670  1.00  0.00     0.034 A 
HETATM   26  C25 UNL     1     -84.541 -15.645   7.190  1.00  0.00     0.059 A 
BRANCH  23  27
HETATM   27  N4  UNL     1     -81.521 -17.165   4.693  1.00  0.00    -0.377 N 
HETATM   28  C15 UNL     1     -81.575 -17.230   3.268  1.00  0.00     0.149 C 
HETATM   29  C16 UNL     1     -80.187 -16.816   2.761  1.00  0.00     0.187 C 
HETATM   30  O2  UNL     1     -79.249 -17.752   3.099  1.00  0.00    -0.388 OA
HETATM   31  C17 UNL     1     -79.489 -18.445   4.255  1.00  0.00     0.187 C 
HETATM   32  C18 UNL     1     -80.281 -17.698   5.284  1.00  0.00     0.149 C 
ENDBRANCH  23  27
BRANCH  25  33
HETATM   33  N5  UNL     1     -82.905 -15.340   8.990  1.00  0.00    -0.377 N 
HETATM   34  C21 UNL     1     -83.443 -16.021  10.144  1.00  0.00     0.149 C 
HETATM   35  C22 UNL     1     -83.473 -15.131  11.369  1.00  0.00     0.187 C 
HETATM   36  O3  UNL     1     -82.310 -14.451  11.610  1.00  0.00    -0.388 OA
HETATM   37  C23 UNL     1     -81.390 -14.489  10.594  1.00  0.00     0.187 C 
HETATM   38  C24 UNL     1     -82.015 -14.229   9.217  1.00  0.00     0.149 C 
ENDBRANCH  25  33
ENDBRANCH   1  21
TORSDOF 6
ENDMDL
