MODEL 1
REMARK VINA RESULT: -9.915752422      0.000      0.000
REMARK  6 active torsions:
REMARK  status: ('A' for Active; 'I' for Inactive)
REMARK    1  A    between atoms: C7_8  and  N1_9 
REMARK       I    between atoms: N1_9  and  C8_11 
REMARK    2  A    between atoms: C8_11  and  C9_13 
REMARK    3  A    between atoms: C11_17  and  N3_18 
REMARK    4  A    between atoms: N3_18  and  C12_20 
REMARK    5  A    between atoms: C14_22  and  N4_23 
REMARK    6  A    between atoms: C20_30  and  N5_31 
ROOT
HETATM    1  N3  UNL     1     -86.245 -15.816   5.305  1.00  0.00    -0.336 N 
ATOM      2  H3  UNL     1     -86.399 -15.222   4.490  1.00  0.00     0.168 HD
ENDROOT
BRANCH   1   3
HETATM    3  C11 UNL     1     -87.373 -16.376   5.990  1.00  0.00     0.149 A 
HETATM    4  N2  UNL     1     -88.655 -16.292   5.593  1.00  0.00    -0.345 N 
HETATM    5  C10 UNL     1     -89.581 -16.826   6.315  1.00  0.00     0.115 A 
ATOM      6  H2  UNL     1     -88.893 -15.810   4.727  1.00  0.00     0.167 HD
HETATM    7  C9  UNL     1     -89.219 -17.461   7.471  1.00  0.00     0.091 A 
HETATM    8  S1  UNL     1     -87.534 -17.250   7.447  1.00  0.00    -0.047 SA
BRANCH   7   9
HETATM    9  C8  UNL     1     -90.073 -18.129   8.444  1.00  0.00     0.264 C 
HETATM   10  N1  UNL     1     -91.425 -18.457   8.186  1.00  0.00    -0.320 N 
ATOM     11  H1  UNL     1     -91.823 -18.219   7.278  1.00  0.00     0.169 HD
HETATM   12  O1  UNL     1     -89.606 -18.436   9.573  1.00  0.00    -0.267 OA
BRANCH  10  13
HETATM   13  C7  UNL     1     -92.256 -19.111   9.152  1.00  0.00     0.062 A 
HETATM   14  C2  UNL     1     -92.286 -20.482   9.217  1.00  0.00    -0.034 A 
HETATM   15  C1  UNL     1     -91.450 -21.328   8.289  1.00  0.00     0.050 C 
HETATM   16  C3  UNL     1     -93.094 -21.118  10.150  1.00  0.00     0.009 A 
HETATM   17  C4  UNL     1     -93.863 -20.355  11.006  1.00  0.00     0.002 A 
HETATM   18  C5  UNL     1     -93.840 -18.980  10.947  1.00  0.00     0.026 A 
HETATM   19  C6  UNL     1     -93.029 -18.379  10.013  1.00  0.00     0.061 A 
HETATM   20 CL1  UNL     1     -93.030 -16.606   9.971  1.00  0.00    -0.082 Cl
ENDBRANCH  10  13
ENDBRANCH   7   9
ENDBRANCH   1   3
BRANCH   1  21
HETATM   21  C12 UNL     1     -84.933 -16.069   5.735  1.00  0.00     0.038 A 
HETATM   22  C13 UNL     1     -84.694 -15.825   7.098  1.00  0.00     0.059 A 
HETATM   23  C14 UNL     1     -83.459 -16.007   7.649  1.00  0.00     0.034 A 
HETATM   24  C19 UNL     1     -82.439 -16.441   6.834  1.00  0.00     0.058 A 
HETATM   25  C20 UNL     1     -82.623 -16.694   5.495  1.00  0.00     0.034 A 
HETATM   26  C25 UNL     1     -83.897 -16.501   4.943  1.00  0.00     0.059 A 
BRANCH  23  27
HETATM   27  N4  UNL     1     -83.263 -15.748   9.030  1.00  0.00    -0.377 N 
HETATM   28  C15 UNL     1     -82.106 -16.083   9.797  1.00  0.00     0.149 C 
HETATM   29  C16 UNL     1     -81.820 -14.876  10.702  1.00  0.00     0.187 C 
HETATM   30  O2  UNL     1     -82.807 -14.728  11.637  1.00  0.00    -0.388 OA
HETATM   31  C17 UNL     1     -84.054 -15.148  11.260  1.00  0.00     0.187 C 
HETATM   32  C18 UNL     1     -84.327 -15.069   9.789  1.00  0.00     0.149 C 
ENDBRANCH  23  27
BRANCH  25  33
HETATM   33  N5  UNL     1     -81.543 -17.134   4.691  1.00  0.00    -0.377 N 
HETATM   34  C21 UNL     1     -81.605 -17.095   3.248  1.00  0.00     0.149 C 
HETATM   35  C22 UNL     1     -80.671 -18.103   2.611  1.00  0.00     0.187 C 
HETATM   36  O3  UNL     1     -79.401 -18.107   3.118  1.00  0.00    -0.388 OA
HETATM   37  C23 UNL     1     -79.229 -17.381   4.268  1.00  0.00     0.187 C 
HETATM   38  C24 UNL     1     -80.336 -17.634   5.300  1.00  0.00     0.149 C 
ENDBRANCH  25  33
ENDBRANCH   1  21
TORSDOF 6
ENDMDL
