MODEL 5
REMARK VINA RESULT: -9.776283738      1.356      4.790
REMARK  6 active torsions:
REMARK  status: ('A' for Active; 'I' for Inactive)
REMARK    1  A    between atoms: C7_8  and  N1_9 
REMARK       I    between atoms: N1_9  and  C8_11 
REMARK    2  A    between atoms: C8_11  and  C9_13 
REMARK    3  A    between atoms: C11_17  and  N3_18 
REMARK    4  A    between atoms: N3_18  and  C12_20 
REMARK    5  A    between atoms: C14_22  and  N4_23 
REMARK    6  A    between atoms: C20_30  and  N5_31 
ROOT
HETATM    1  N3  UNL     1     -86.289 -15.893   5.282  1.00  0.00    -0.336 N 
ATOM      2  H3  UNL     1     -86.443 -15.336   4.441  1.00  0.00     0.168 HD
ENDROOT
BRANCH   1   3
HETATM    3  C11 UNL     1     -87.417 -16.429   5.986  1.00  0.00     0.149 A 
HETATM    4  N2  UNL     1     -88.708 -16.250   5.655  1.00  0.00    -0.345 N 
HETATM    5  C10 UNL     1     -89.632 -16.773   6.388  1.00  0.00     0.115 A 
ATOM      6  H2  UNL     1     -88.955 -15.705   4.830  1.00  0.00     0.167 HD
HETATM    7  C9  UNL     1     -89.257 -17.496   7.487  1.00  0.00     0.091 A 
HETATM    8  S1  UNL     1     -87.566 -17.378   7.397  1.00  0.00    -0.047 SA
BRANCH   7   9
HETATM    9  C8  UNL     1     -90.106 -18.171   8.460  1.00  0.00     0.264 C 
HETATM   10  N1  UNL     1     -91.488 -18.391   8.256  1.00  0.00    -0.320 N 
ATOM     11  H1  UNL     1     -91.914 -18.065   7.388  1.00  0.00     0.169 HD
HETATM   12  O1  UNL     1     -89.605 -18.587   9.539  1.00  0.00    -0.267 OA
BRANCH  10  13
HETATM   13  C7  UNL     1     -92.314 -19.054   9.221  1.00  0.00     0.062 A 
HETATM   14  C2  UNL     1     -93.082 -18.318  10.088  1.00  0.00    -0.034 A 
HETATM   15  C1  UNL     1     -93.086 -16.811  10.045  1.00  0.00     0.050 C 
HETATM   16  C3  UNL     1     -93.880 -18.958  11.026  1.00  0.00     0.009 A 
HETATM   17  C4  UNL     1     -93.888 -20.338  11.075  1.00  0.00     0.002 A 
HETATM   18  C5  UNL     1     -93.119 -21.084  10.210  1.00  0.00     0.026 A 
HETATM   19  C6  UNL     1     -92.340 -20.421   9.291  1.00  0.00     0.061 A 
HETATM   20 CL1  UNL     1     -91.365 -21.419   8.196  1.00  0.00    -0.082 Cl
ENDBRANCH  10  13
ENDBRANCH   7   9
ENDBRANCH   1   3
BRANCH   1  21
HETATM   21  C12 UNL     1     -84.978 -16.120   5.728  1.00  0.00     0.038 A 
HETATM   22  C13 UNL     1     -84.017 -16.258   4.711  1.00  0.00     0.059 A 
HETATM   23  C14 UNL     1     -82.706 -16.505   4.998  1.00  0.00     0.034 A 
HETATM   24  C19 UNL     1     -82.337 -16.616   6.318  1.00  0.00     0.058 A 
HETATM   25  C20 UNL     1     -83.239 -16.489   7.349  1.00  0.00     0.034 A 
HETATM   26  C25 UNL     1     -84.582 -16.237   7.038  1.00  0.00     0.059 A 
BRANCH  23  27
HETATM   27  N4  UNL     1     -81.770 -16.637   3.940  1.00  0.00    -0.377 N 
HETATM   28  C15 UNL     1     -80.732 -17.613   3.846  1.00  0.00     0.149 C 
HETATM   29  C16 UNL     1     -80.720 -18.096   2.389  1.00  0.00     0.187 C 
HETATM   30  O2  UNL     1     -80.310 -17.095   1.552  1.00  0.00    -0.388 OA
HETATM   31  C17 UNL     1     -80.608 -15.822   1.954  1.00  0.00     0.187 C 
HETATM   32  C18 UNL     1     -81.836 -15.701   2.804  1.00  0.00     0.149 C 
ENDBRANCH  23  27
BRANCH  25  33
HETATM   33  N5  UNL     1     -82.817 -16.617   8.695  1.00  0.00    -0.377 N 
HETATM   34  C21 UNL     1     -81.558 -16.076   9.150  1.00  0.00     0.149 C 
HETATM   35  C22 UNL     1     -81.040 -16.794  10.379  1.00  0.00     0.187 C 
HETATM   36  O3  UNL     1     -81.966 -16.971  11.371  1.00  0.00    -0.388 OA
HETATM   37  C23 UNL     1     -83.262 -16.693  11.017  1.00  0.00     0.187 C 
HETATM   38  C24 UNL     1     -83.647 -17.294   9.659  1.00  0.00     0.149 C 
ENDBRANCH  25  33
ENDBRANCH   1  21
TORSDOF 6
ENDMDL
