MODEL 3
REMARK VINA RESULT: -9.809981575      0.996      4.554
REMARK  6 active torsions:
REMARK  status: ('A' for Active; 'I' for Inactive)
REMARK    1  A    between atoms: C7_8  and  N1_9 
REMARK       I    between atoms: N1_9  and  C8_11 
REMARK    2  A    between atoms: C8_11  and  C9_13 
REMARK    3  A    between atoms: C11_17  and  N3_18 
REMARK    4  A    between atoms: N3_18  and  C12_20 
REMARK    5  A    between atoms: C14_22  and  N4_23 
REMARK    6  A    between atoms: C20_30  and  N5_31 
ROOT
HETATM    1  N3  UNL     1     -86.268 -15.797   5.301  1.00  0.00    -0.336 N 
ATOM      2  H3  UNL     1     -86.426 -15.194   4.494  1.00  0.00     0.168 HD
ENDROOT
BRANCH   1   3
HETATM    3  C11 UNL     1     -87.391 -16.365   5.986  1.00  0.00     0.149 A 
HETATM    4  N2  UNL     1     -88.674 -16.289   5.590  1.00  0.00    -0.345 N 
HETATM    5  C10 UNL     1     -89.597 -16.830   6.311  1.00  0.00     0.115 A 
ATOM      6  H2  UNL     1     -88.916 -15.808   4.724  1.00  0.00     0.167 HD
HETATM    7  C9  UNL     1     -89.229 -17.465   7.466  1.00  0.00     0.091 A 
HETATM    8  S1  UNL     1     -87.546 -17.243   7.442  1.00  0.00    -0.047 SA
BRANCH   7   9
HETATM    9  C8  UNL     1     -90.079 -18.140   8.438  1.00  0.00     0.264 C 
HETATM   10  N1  UNL     1     -91.436 -18.454   8.190  1.00  0.00    -0.320 N 
ATOM     11  H1  UNL     1     -91.841 -18.201   7.289  1.00  0.00     0.169 HD
HETATM   12  O1  UNL     1     -89.602 -18.467   9.558  1.00  0.00    -0.267 OA
BRANCH  10  13
HETATM   13  C7  UNL     1     -92.262 -19.115   9.155  1.00  0.00     0.062 A 
HETATM   14  C2  UNL     1     -92.290 -20.486   9.211  1.00  0.00    -0.034 A 
HETATM   15  C1  UNL     1     -91.457 -21.325   8.275  1.00  0.00     0.050 C 
HETATM   16  C3  UNL     1     -93.093 -21.129  10.144  1.00  0.00     0.009 A 
HETATM   17  C4  UNL     1     -93.859 -20.373  11.008  1.00  0.00     0.002 A 
HETATM   18  C5  UNL     1     -93.838 -18.997  10.958  1.00  0.00     0.026 A 
HETATM   19  C6  UNL     1     -93.032 -18.389  10.025  1.00  0.00     0.061 A 
HETATM   20 CL1  UNL     1     -93.036 -16.616   9.994  1.00  0.00    -0.082 Cl
ENDBRANCH  10  13
ENDBRANCH   7   9
ENDBRANCH   1   3
BRANCH   1  21
HETATM   21  C12 UNL     1     -84.953 -16.055   5.720  1.00  0.00     0.038 A 
HETATM   22  C13 UNL     1     -84.017 -16.220   4.684  1.00  0.00     0.059 A 
HETATM   23  C14 UNL     1     -82.707 -16.497   4.944  1.00  0.00     0.034 A 
HETATM   24  C19 UNL     1     -82.314 -16.614   6.257  1.00  0.00     0.058 A 
HETATM   25  C20 UNL     1     -83.191 -16.463   7.305  1.00  0.00     0.034 A 
HETATM   26  C25 UNL     1     -84.534 -16.179   7.022  1.00  0.00     0.059 A 
BRANCH  23  27
HETATM   27  N4  UNL     1     -81.797 -16.655   3.867  1.00  0.00    -0.377 N 
HETATM   28  C15 UNL     1     -80.787 -17.658   3.754  1.00  0.00     0.149 C 
HETATM   29  C16 UNL     1     -80.817 -18.142   2.298  1.00  0.00     0.187 C 
HETATM   30  O2  UNL     1     -80.399 -17.154   1.450  1.00  0.00    -0.388 OA
HETATM   31  C17 UNL     1     -80.656 -15.873   1.856  1.00  0.00     0.187 C 
HETATM   32  C18 UNL     1     -81.862 -15.719   2.731  1.00  0.00     0.149 C 
ENDBRANCH  23  27
BRANCH  25  33
HETATM   33  N5  UNL     1     -82.744 -16.597   8.643  1.00  0.00    -0.377 N 
HETATM   34  C21 UNL     1     -81.467 -16.077   9.073  1.00  0.00     0.149 C 
HETATM   35  C22 UNL     1     -80.937 -16.804  10.292  1.00  0.00     0.187 C 
HETATM   36  O3  UNL     1     -81.846 -16.966  11.301  1.00  0.00    -0.388 OA
HETATM   37  C23 UNL     1     -83.143 -16.666  10.973  1.00  0.00     0.187 C 
HETATM   38  C24 UNL     1     -83.566 -17.261   9.624  1.00  0.00     0.149 C 
ENDBRANCH  25  33
ENDBRANCH   1  21
TORSDOF 6
ENDMDL
