MODEL 3
REMARK VINA RESULT: -9.864167280      1.161      1.396
REMARK  6 active torsions:
REMARK  status: ('A' for Active; 'I' for Inactive)
REMARK    1  A    between atoms: C7_8  and  N1_9 
REMARK       I    between atoms: N1_9  and  C8_11 
REMARK    2  A    between atoms: C8_11  and  C9_13 
REMARK    3  A    between atoms: C11_17  and  N3_18 
REMARK    4  A    between atoms: N3_18  and  C12_20 
REMARK    5  A    between atoms: C16_24  and  C17_25 
REMARK       I    between atoms: C17_25  and  N4_27 
REMARK    6  A    between atoms: C20_30  and  C21_31 
ROOT
HETATM    1  C9  UNL     1     -89.240 -13.986   7.483  1.00  0.00     0.091 A 
HETATM    2  C10 UNL     1     -89.535 -13.456   6.260  1.00  0.00     0.115 A 
HETATM    3  N2  UNL     1     -88.557 -12.962   5.569  1.00  0.00    -0.345 N 
ATOM      4  H2  UNL     1     -88.736 -12.559   4.649  1.00  0.00     0.167 HD
HETATM    5  C11 UNL     1     -87.334 -12.981   6.049  1.00  0.00     0.149 A 
HETATM    6  S1  UNL     1     -87.533 -13.728   7.563  1.00  0.00    -0.047 SA
ENDROOT
BRANCH   5   7
HETATM    7  N3  UNL     1     -86.164 -12.502   5.355  1.00  0.00    -0.337 N 
ATOM      8  H3  UNL     1     -86.237 -12.004   4.469  1.00  0.00     0.168 HD
BRANCH   7   9
HETATM    9  C12 UNL     1     -84.909 -12.756   5.960  1.00  0.00     0.035 A 
HETATM   10  C13 UNL     1     -83.796 -13.114   5.236  1.00  0.00     0.029 A 
HETATM   11  C14 UNL     1     -82.577 -13.303   5.837  1.00  0.00     0.003 A 
HETATM   12  C15 UNL     1     -82.426 -13.142   7.181  1.00  0.00     0.017 A 
HETATM   13  C16 UNL     1     -83.532 -12.773   7.988  1.00  0.00     0.034 A 
HETATM   14  C23 UNL     1     -84.731 -12.597   7.340  1.00  0.00     0.046 A 
BRANCH  13  15
HETATM   15  C17 UNL     1     -83.327 -12.563   9.396  1.00  0.00     0.253 C 
HETATM   16  O2  UNL     1     -82.141 -12.868   9.820  1.00  0.00    -0.267 OA
HETATM   17  N4  UNL     1     -84.246 -12.067  10.342  1.00  0.00    -0.347 N 
HETATM   18  C18 UNL     1     -83.849 -11.886  11.751  1.00  0.00     0.127 C 
HETATM   19  C22 UNL     1     -85.596 -11.657  10.216  1.00  0.00     0.141 C 
HETATM   20  C19 UNL     1     -85.087 -11.721  12.533  1.00  0.00     0.037 C 
HETATM   21  C20 UNL     1     -86.139 -11.283  11.589  1.00  0.00     0.106 C 
BRANCH  21  22
HETATM   22  C21 UNL     1     -87.456 -11.904  11.840  1.00  0.00     0.178 C 
HETATM   23  O3  UNL     1     -87.579 -13.100  12.094  1.00  0.00    -0.648 OA
HETATM   24  O4  UNL     1     -88.584 -11.069  11.781  1.00  0.00    -0.648 OA
ENDBRANCH  21  22
ENDBRANCH  13  15
ENDBRANCH   7   9
ENDBRANCH   5   7
BRANCH   1  25
HETATM   25  C8  UNL     1     -90.093 -14.662   8.484  1.00  0.00     0.264 C 
HETATM   26  N1  UNL     1     -91.394 -15.114   8.262  1.00  0.00    -0.320 N 
ATOM     27  H1  UNL     1     -91.807 -14.958   7.343  1.00  0.00     0.169 HD
HETATM   28  O1  UNL     1     -89.580 -14.841   9.627  1.00  0.00    -0.267 OA
BRANCH  26  29
HETATM   29  C7  UNL     1     -92.182 -15.784   9.248  1.00  0.00     0.062 A 
HETATM   30  C2  UNL     1     -92.162 -17.176   9.220  1.00  0.00    -0.034 A 
HETATM   31  C1  UNL     1     -91.330 -17.851   8.201  1.00  0.00     0.050 C 
HETATM   32  C3  UNL     1     -92.918 -17.906  10.151  1.00  0.00     0.009 A 
HETATM   33  C4  UNL     1     -93.669 -17.252  11.080  1.00  0.00     0.002 A 
HETATM   34  C5  UNL     1     -93.693 -15.882  11.116  1.00  0.00     0.026 A 
HETATM   35  C6  UNL     1     -92.935 -15.149  10.182  1.00  0.00     0.061 A 
HETATM   36 CL1  UNL     1     -92.937 -13.402  10.206  1.00  0.00    -0.082 Cl
ENDBRANCH  26  29
ENDBRANCH   1  25
TORSDOF 6
ENDMDL
