MODEL 14
REMARK VINA RESULT: -9.183026420      3.772      6.226
REMARK  6 active torsions:
REMARK  status: ('A' for Active; 'I' for Inactive)
REMARK    1  A    between atoms: C7_8  and  N1_9 
REMARK       I    between atoms: N1_9  and  C8_11 
REMARK    2  A    between atoms: C8_11  and  C9_13 
REMARK    3  A    between atoms: C11_17  and  N3_18 
REMARK    4  A    between atoms: N3_18  and  C12_20 
REMARK    5  A    between atoms: C16_24  and  C17_25 
REMARK       I    between atoms: C17_25  and  N4_27 
REMARK    6  A    between atoms: C20_30  and  C21_31 
ROOT
HETATM    1  C9  UNL     1     -89.281 -14.035   7.400  1.00  0.00     0.091 A 
HETATM    2  C10 UNL     1     -89.600 -13.420   6.223  1.00  0.00     0.115 A 
HETATM    3  N2  UNL     1     -88.624 -12.997   5.483  1.00  0.00    -0.345 N 
ATOM      4  H2  UNL     1     -88.822 -12.535   4.596  1.00  0.00     0.167 HD
HETATM    5  C11 UNL     1     -87.381 -13.162   5.874  1.00  0.00     0.149 A 
HETATM    6  S1  UNL     1     -87.555 -13.955   7.368  1.00  0.00    -0.047 SA
ENDROOT
BRANCH   5   7
HETATM    7  N3  UNL     1     -86.216 -12.773   5.118  1.00  0.00    -0.337 N 
ATOM      8  H3  UNL     1     -86.286 -12.490   4.140  1.00  0.00     0.168 HD
BRANCH   7   9
HETATM    9  C12 UNL     1     -84.973 -12.801   5.792  1.00  0.00     0.035 A 
HETATM   10  C13 UNL     1     -84.861 -13.105   7.129  1.00  0.00     0.029 A 
HETATM   11  C14 UNL     1     -83.640 -13.178   7.751  1.00  0.00     0.003 A 
HETATM   12  C15 UNL     1     -82.488 -12.950   7.062  1.00  0.00     0.017 A 
HETATM   13  C16 UNL     1     -82.530 -12.632   5.680  1.00  0.00     0.034 A 
HETATM   14  C23 UNL     1     -83.775 -12.569   5.103  1.00  0.00     0.046 A 
BRANCH  13  15
HETATM   15  C17 UNL     1     -81.292 -12.446   4.971  1.00  0.00     0.253 C 
HETATM   16  O2  UNL     1     -80.558 -11.474   5.412  1.00  0.00    -0.267 OA
HETATM   17  N4  UNL     1     -80.796 -13.189   3.882  1.00  0.00    -0.347 N 
HETATM   18  C18 UNL     1     -79.481 -12.875   3.294  1.00  0.00     0.127 C 
HETATM   19  C22 UNL     1     -81.339 -14.286   3.167  1.00  0.00     0.141 C 
HETATM   20  C19 UNL     1     -79.416 -13.551   1.987  1.00  0.00     0.037 C 
HETATM   21  C20 UNL     1     -80.406 -14.650   2.020  1.00  0.00     0.106 C 
BRANCH  21  22
HETATM   22  C21 UNL     1     -81.146 -14.818   0.751  1.00  0.00     0.178 C 
HETATM   23  O3  UNL     1     -80.885 -14.158  -0.252  1.00  0.00    -0.648 OA
HETATM   24  O4  UNL     1     -82.174 -15.775   0.726  1.00  0.00    -0.648 OA
ENDBRANCH  21  22
ENDBRANCH  13  15
ENDBRANCH   7   9
ENDBRANCH   5   7
BRANCH   1  25
HETATM   25  C8  UNL     1     -90.131 -14.667   8.432  1.00  0.00     0.264 C 
HETATM   26  N1  UNL     1     -91.423 -15.153   8.227  1.00  0.00    -0.320 N 
ATOM     27  H1  UNL     1     -91.831 -15.057   7.298  1.00  0.00     0.169 HD
HETATM   28  O1  UNL     1     -89.625 -14.771   9.587  1.00  0.00    -0.267 OA
BRANCH  26  29
HETATM   29  C7  UNL     1     -92.207 -15.778   9.244  1.00  0.00     0.062 A 
HETATM   30  C2  UNL     1     -92.213 -17.170   9.257  1.00  0.00    -0.034 A 
HETATM   31  C1  UNL     1     -91.409 -17.891   8.246  1.00  0.00     0.050 C 
HETATM   32  C3  UNL     1     -92.968 -17.859  10.221  1.00  0.00     0.009 A 
HETATM   33  C4  UNL     1     -93.692 -17.163  11.141  1.00  0.00     0.002 A 
HETATM   34  C5  UNL     1     -93.691 -15.793  11.136  1.00  0.00     0.026 A 
HETATM   35  C6  UNL     1     -92.934 -15.102  10.170  1.00  0.00     0.061 A 
HETATM   36 CL1  UNL     1     -92.903 -13.355  10.142  1.00  0.00    -0.082 Cl
ENDBRANCH  26  29
ENDBRANCH   1  25
TORSDOF 6
ENDMDL
