MODEL 18
REMARK VINA RESULT: -9.104001087      3.948      6.463
REMARK  6 active torsions:
REMARK  status: ('A' for Active; 'I' for Inactive)
REMARK    1  A    between atoms: C7_8  and  N1_9 
REMARK       I    between atoms: N1_9  and  C8_11 
REMARK    2  A    between atoms: C8_11  and  C9_13 
REMARK    3  A    between atoms: C11_17  and  N3_18 
REMARK    4  A    between atoms: N3_18  and  C12_20 
REMARK    5  A    between atoms: C16_24  and  C17_25 
REMARK       I    between atoms: C17_25  and  N4_27 
REMARK    6  A    between atoms: C20_30  and  C21_31 
ROOT
HETATM    1  C9  UNL     1     -89.187 -14.071   7.390  1.00  0.00     0.091 A 
HETATM    2  C10 UNL     1     -89.517 -13.262   6.341  1.00  0.00     0.115 A 
HETATM    3  N2  UNL     1     -88.554 -12.826   5.593  1.00  0.00    -0.345 N 
ATOM      4  H2  UNL     1     -88.761 -12.220   4.799  1.00  0.00     0.167 HD
HETATM    5  C11 UNL     1     -87.311 -13.162   5.854  1.00  0.00     0.149 A 
HETATM    6  S1  UNL     1     -87.467 -14.149   7.230  1.00  0.00    -0.047 SA
ENDROOT
BRANCH   5   7
HETATM    7  N3  UNL     1     -86.165 -12.775   5.070  1.00  0.00    -0.337 N 
ATOM      8  H3  UNL     1     -86.256 -12.507   4.090  1.00  0.00     0.168 HD
BRANCH   7   9
HETATM    9  C12 UNL     1     -84.908 -12.782   5.720  1.00  0.00     0.035 A 
HETATM   10  C13 UNL     1     -84.769 -13.054   7.061  1.00  0.00     0.029 A 
HETATM   11  C14 UNL     1     -83.535 -13.108   7.660  1.00  0.00     0.003 A 
HETATM   12  C15 UNL     1     -82.398 -12.892   6.943  1.00  0.00     0.017 A 
HETATM   13  C16 UNL     1     -82.469 -12.607   5.556  1.00  0.00     0.034 A 
HETATM   14  C23 UNL     1     -83.726 -12.562   5.002  1.00  0.00     0.046 A 
BRANCH  13  15
HETATM   15  C17 UNL     1     -81.246 -12.434   4.817  1.00  0.00     0.253 C 
HETATM   16  O2  UNL     1     -80.502 -11.455   5.227  1.00  0.00    -0.267 OA
HETATM   17  N4  UNL     1     -80.773 -13.195   3.731  1.00  0.00    -0.347 N 
HETATM   18  C18 UNL     1     -79.470 -12.892   3.111  1.00  0.00     0.127 C 
HETATM   19  C22 UNL     1     -81.331 -14.302   3.046  1.00  0.00     0.141 C 
HETATM   20  C19 UNL     1     -79.433 -13.589   1.813  1.00  0.00     0.037 C 
HETATM   21  C20 UNL     1     -80.423 -14.686   1.885  1.00  0.00     0.106 C 
BRANCH  21  22
HETATM   22  C21 UNL     1     -81.189 -14.874   0.634  1.00  0.00     0.178 C 
HETATM   23  O3  UNL     1     -80.970 -14.208  -0.375  1.00  0.00    -0.648 OA
HETATM   24  O4  UNL     1     -82.193 -15.858   0.635  1.00  0.00    -0.648 OA
ENDBRANCH  21  22
ENDBRANCH  13  15
ENDBRANCH   7   9
ENDBRANCH   5   7
BRANCH   1  25
HETATM   25  C8  UNL     1     -90.027 -14.768   8.387  1.00  0.00     0.264 C 
HETATM   26  N1  UNL     1     -91.390 -15.035   8.249  1.00  0.00    -0.320 N 
ATOM     27  H1  UNL     1     -91.859 -14.714   7.402  1.00  0.00     0.169 HD
HETATM   28  O1  UNL     1     -89.443 -15.151   9.442  1.00  0.00    -0.267 OA
BRANCH  26  29
HETATM   29  C7  UNL     1     -92.166 -15.730   9.225  1.00  0.00     0.062 A 
HETATM   30  C2  UNL     1     -92.859 -14.946  10.144  1.00  0.00    -0.034 A 
HETATM   31  C1  UNL     1     -92.756 -13.474  10.037  1.00  0.00     0.050 C 
HETATM   32  C3  UNL     1     -93.638 -15.556  11.140  1.00  0.00     0.009 A 
HETATM   33  C4  UNL     1     -93.715 -16.914  11.206  1.00  0.00     0.002 A 
HETATM   34  C5  UNL     1     -93.038 -17.695  10.305  1.00  0.00     0.026 A 
HETATM   35  C6  UNL     1     -92.256 -17.083   9.306  1.00  0.00     0.061 A 
HETATM   36 CL1  UNL     1     -91.389 -18.048   8.136  1.00  0.00    -0.082 Cl
ENDBRANCH  26  29
ENDBRANCH   1  25
TORSDOF 6
ENDMDL
