MODEL 1
REMARK VINA RESULT: -9.894870602      0.000      0.000
REMARK  6 active torsions:
REMARK  status: ('A' for Active; 'I' for Inactive)
REMARK    1  A    between atoms: C7_8  and  N1_9 
REMARK       I    between atoms: N1_9  and  C8_11 
REMARK    2  A    between atoms: C8_11  and  C9_13 
REMARK    3  A    between atoms: C11_17  and  N3_18 
REMARK    4  A    between atoms: N3_18  and  C12_20 
REMARK    5  A    between atoms: C16_24  and  C17_25 
REMARK       I    between atoms: C17_25  and  N4_27 
REMARK    6  A    between atoms: C20_30  and  C21_31 
ROOT
HETATM    1  C9  UNL     1     -89.556 -13.830   7.026  1.00  0.00     0.091 A 
HETATM    2  C10 UNL     1     -89.587 -13.138   5.849  1.00  0.00     0.115 A 
HETATM    3  N2  UNL     1     -88.453 -12.784   5.332  1.00  0.00    -0.345 N 
ATOM      4  H2  UNL     1     -88.434 -12.268   4.453  1.00  0.00     0.167 HD
HETATM    5  C11 UNL     1     -87.327 -13.090   5.937  1.00  0.00     0.149 A 
HETATM    6  S1  UNL     1     -87.855 -13.924   7.321  1.00  0.00    -0.047 SA
ENDROOT
BRANCH   5   7
HETATM    7  N3  UNL     1     -86.009 -12.788   5.437  1.00  0.00    -0.337 N 
ATOM      8  H3  UNL     1     -85.851 -12.561   4.455  1.00  0.00     0.168 HD
BRANCH   7   9
HETATM    9  C12 UNL     1     -84.944 -12.822   6.368  1.00  0.00     0.035 A 
HETATM   10  C13 UNL     1     -83.664 -13.181   6.018  1.00  0.00     0.029 A 
HETATM   11  C14 UNL     1     -82.635 -13.156   6.926  1.00  0.00     0.003 A 
HETATM   12  C15 UNL     1     -82.848 -12.773   8.215  1.00  0.00     0.017 A 
HETATM   13  C16 UNL     1     -84.144 -12.389   8.644  1.00  0.00     0.034 A 
HETATM   14  C23 UNL     1     -85.141 -12.432   7.699  1.00  0.00     0.046 A 
BRANCH  13  15
HETATM   15  C17 UNL     1     -84.324 -11.942  10.000  1.00  0.00     0.253 C 
HETATM   16  O2  UNL     1     -83.298 -11.337  10.510  1.00  0.00    -0.267 OA
HETATM   17  N4  UNL     1     -85.466 -12.077  10.813  1.00  0.00    -0.347 N 
HETATM   18  C18 UNL     1     -85.484 -11.525  12.180  1.00  0.00     0.127 C 
HETATM   19  C22 UNL     1     -86.726 -12.679  10.573  1.00  0.00     0.141 C 
HETATM   20  C19 UNL     1     -86.629 -12.134  12.880  1.00  0.00     0.037 C 
HETATM   21  C20 UNL     1     -87.567 -12.609  11.840  1.00  0.00     0.106 C 
BRANCH  21  22
HETATM   22  C21 UNL     1     -88.189 -13.913  12.153  1.00  0.00     0.178 C 
HETATM   23  O3  UNL     1     -88.541 -14.214  13.291  1.00  0.00    -0.648 OA
HETATM   24  O4  UNL     1     -88.367 -14.815  11.090  1.00  0.00    -0.648 OA
ENDBRANCH  21  22
ENDBRANCH  13  15
ENDBRANCH   7   9
ENDBRANCH   5   7
BRANCH   1  25
HETATM   25  C8  UNL     1     -90.642 -14.417   7.841  1.00  0.00     0.264 C 
HETATM   26  N1  UNL     1     -90.470 -15.362   8.853  1.00  0.00    -0.320 N 
ATOM     27  H1  UNL     1     -89.525 -15.695   9.045  1.00  0.00     0.169 HD
HETATM   28  O1  UNL     1     -91.813 -14.011   7.589  1.00  0.00    -0.267 OA
BRANCH  26  29
HETATM   29  C7  UNL     1     -91.541 -15.891   9.636  1.00  0.00     0.062 A 
HETATM   30  C2  UNL     1     -91.960 -17.182   9.325  1.00  0.00    -0.034 A 
HETATM   31  C1  UNL     1     -91.270 -17.908   8.236  1.00  0.00     0.050 C 
HETATM   32  C3  UNL     1     -93.014 -17.769  10.044  1.00  0.00     0.009 A 
HETATM   33  C4  UNL     1     -93.624 -17.075  11.044  1.00  0.00     0.002 A 
HETATM   34  C5  UNL     1     -93.217 -15.804  11.358  1.00  0.00     0.026 A 
HETATM   35  C6  UNL     1     -92.160 -15.215  10.637  1.00  0.00     0.061 A 
HETATM   36 CL1  UNL     1     -91.610 -13.601  11.019  1.00  0.00    -0.082 Cl
ENDBRANCH  26  29
ENDBRANCH   1  25
TORSDOF 6
ENDMDL
