MODEL 2
REMARK VINA RESULT: -9.872831795      1.505      2.066
REMARK  6 active torsions:
REMARK  status: ('A' for Active; 'I' for Inactive)
REMARK    1  A    between atoms: C7_8  and  N1_9 
REMARK       I    between atoms: N1_9  and  C8_11 
REMARK    2  A    between atoms: C8_11  and  C9_13 
REMARK    3  A    between atoms: C11_17  and  N3_18 
REMARK    4  A    between atoms: N3_18  and  C12_20 
REMARK    5  A    between atoms: C16_24  and  C17_25 
REMARK       I    between atoms: C17_25  and  N4_27 
REMARK    6  A    between atoms: C20_30  and  C21_31 
ROOT
HETATM    1  C9  UNL     1     -89.096 -14.024   7.422  1.00  0.00     0.091 A 
HETATM    2  C10 UNL     1     -89.379 -13.495   6.195  1.00  0.00     0.115 A 
HETATM    3  N2  UNL     1     -88.399 -12.977   5.526  1.00  0.00    -0.345 N 
ATOM      4  H2  UNL     1     -88.570 -12.573   4.604  1.00  0.00     0.167 HD
HETATM    5  C11 UNL     1     -87.185 -12.970   6.029  1.00  0.00     0.149 A 
HETATM    6  S1  UNL     1     -87.397 -13.728   7.536  1.00  0.00    -0.047 SA
ENDROOT
BRANCH   5   7
HETATM    7  N3  UNL     1     -86.013 -12.462   5.361  1.00  0.00    -0.337 N 
ATOM      8  H3  UNL     1     -86.082 -11.939   4.488  1.00  0.00     0.168 HD
BRANCH   7   9
HETATM    9  C12 UNL     1     -84.762 -12.722   5.970  1.00  0.00     0.035 A 
HETATM   10  C13 UNL     1     -83.653 -13.103   5.252  1.00  0.00     0.029 A 
HETATM   11  C14 UNL     1     -82.437 -13.298   5.857  1.00  0.00     0.003 A 
HETATM   12  C15 UNL     1     -82.284 -13.121   7.198  1.00  0.00     0.017 A 
HETATM   13  C16 UNL     1     -83.387 -12.727   7.999  1.00  0.00     0.034 A 
HETATM   14  C23 UNL     1     -84.584 -12.546   7.348  1.00  0.00     0.046 A 
BRANCH  13  15
HETATM   15  C17 UNL     1     -83.180 -12.500   9.405  1.00  0.00     0.253 C 
HETATM   16  O2  UNL     1     -81.988 -12.780   9.827  1.00  0.00    -0.267 OA
HETATM   17  N4  UNL     1     -84.103 -12.010  10.349  1.00  0.00    -0.347 N 
HETATM   18  C18 UNL     1     -83.705 -11.808  11.754  1.00  0.00     0.127 C 
HETATM   19  C22 UNL     1     -85.461 -11.624  10.224  1.00  0.00     0.141 C 
HETATM   20  C19 UNL     1     -84.943 -11.656  12.539  1.00  0.00     0.037 C 
HETATM   21  C20 UNL     1     -86.005 -11.245  11.595  1.00  0.00     0.106 C 
BRANCH  21  22
HETATM   22  C21 UNL     1     -87.311 -11.886  11.858  1.00  0.00     0.178 C 
HETATM   23  O3  UNL     1     -87.413 -13.081  12.122  1.00  0.00    -0.648 OA
HETATM   24  O4  UNL     1     -88.453 -11.069  11.797  1.00  0.00    -0.648 OA
ENDBRANCH  21  22
ENDBRANCH  13  15
ENDBRANCH   7   9
ENDBRANCH   5   7
BRANCH   1  25
HETATM   25  C8  UNL     1     -89.953 -14.724   8.404  1.00  0.00     0.264 C 
HETATM   26  N1  UNL     1     -91.314 -14.987   8.244  1.00  0.00    -0.320 N 
ATOM     27  H1  UNL     1     -91.770 -14.661   7.392  1.00  0.00     0.169 HD
HETATM   28  O1  UNL     1     -89.385 -15.113   9.465  1.00  0.00    -0.267 OA
BRANCH  26  29
HETATM   29  C7  UNL     1     -92.106 -15.685   9.205  1.00  0.00     0.062 A 
HETATM   30  C2  UNL     1     -92.843 -14.903  10.092  1.00  0.00    -0.034 A 
HETATM   31  C1  UNL     1     -92.766 -13.431   9.968  1.00  0.00     0.050 C 
HETATM   32  C3  UNL     1     -93.640 -15.516  11.072  1.00  0.00     0.009 A 
HETATM   33  C4  UNL     1     -93.691 -16.875  11.154  1.00  0.00     0.002 A 
HETATM   34  C5  UNL     1     -92.971 -17.653  10.285  1.00  0.00     0.026 A 
HETATM   35  C6  UNL     1     -92.172 -17.038   9.302  1.00  0.00     0.061 A 
HETATM   36 CL1  UNL     1     -91.249 -18.000   8.172  1.00  0.00    -0.082 Cl
ENDBRANCH  26  29
ENDBRANCH   1  25
TORSDOF 6
ENDMDL
