MODEL 1
REMARK VINA RESULT: -9.815899668      0.000      0.000
REMARK  9 active torsions:
REMARK  status: ('A' for Active; 'I' for Inactive)
REMARK    1  A    between atoms: C7_8  and  N1_9 
REMARK       I    between atoms: N1_9  and  C8_11 
REMARK    2  A    between atoms: C8_11  and  C9_13 
REMARK    3  A    between atoms: C11_17  and  N3_18 
REMARK    4  A    between atoms: N3_18  and  C12_20 
REMARK    5  A    between atoms: C16_24  and  C17_25 
REMARK    6  A    between atoms: C17_25  and  O2_26 
REMARK    7  A    between atoms: C17_25  and  N4_28 
REMARK    8  A    between atoms: C20_31  and  C21_32 
REMARK    9  A    between atoms: C21_32  and  C22_33 
ROOT
HETATM    1  N3  UNL     1     -86.228 -15.546   5.318  1.00  0.00    -0.337 N 
ATOM      2  H3  UNL     1     -86.316 -15.181   4.370  1.00  0.00     0.168 HD
ENDROOT
BRANCH   1   3
HETATM    3  C11 UNL     1     -87.404 -16.002   5.961  1.00  0.00     0.149 A 
HETATM    4  N2  UNL     1     -88.687 -15.839   5.707  1.00  0.00    -0.345 N 
HETATM    5  C10 UNL     1     -89.591 -16.367   6.456  1.00  0.00     0.115 A 
ATOM      6  H2  UNL     1     -88.970 -15.283   4.900  1.00  0.00     0.167 HD
HETATM    7  C9  UNL     1     -89.179 -17.106   7.532  1.00  0.00     0.091 A 
HETATM    8  S1  UNL     1     -87.485 -16.994   7.396  1.00  0.00    -0.047 SA
BRANCH   7   9
HETATM    9  C8  UNL     1     -90.012 -17.806   8.533  1.00  0.00     0.264 C 
HETATM   10  N1  UNL     1     -91.390 -18.045   8.307  1.00  0.00    -0.320 N 
ATOM     11  H1  UNL     1     -91.811 -17.725   7.435  1.00  0.00     0.169 HD
HETATM   12  O1  UNL     1     -89.493 -18.200   9.606  1.00  0.00    -0.267 OA
BRANCH  10  13
HETATM   13  C7  UNL     1     -92.203 -18.716   9.260  1.00  0.00     0.062 A 
HETATM   14  C2  UNL     1     -92.324 -20.089   9.277  1.00  0.00    -0.034 A 
HETATM   15  C1  UNL     1     -91.563 -20.859   8.251  1.00  0.00     0.050 C 
HETATM   16  C3  UNL     1     -93.126 -20.728  10.217  1.00  0.00     0.009 A 
HETATM   17  C4  UNL     1     -93.830 -20.017  11.166  1.00  0.00     0.002 A 
HETATM   18  C5  UNL     1     -93.707 -18.643  11.146  1.00  0.00     0.026 A 
HETATM   19  C6  UNL     1     -92.905 -18.000  10.206  1.00  0.00     0.061 A 
HETATM   20 CL1  UNL     1     -92.775 -16.252  10.212  1.00  0.00    -0.082 Cl
ENDBRANCH  10  13
ENDBRANCH   7   9
ENDBRANCH   1   3
BRANCH   1  21
HETATM   21  C12 UNL     1     -84.953 -15.561   5.896  1.00  0.00     0.035 A 
HETATM   22  C13 UNL     1     -83.825 -15.827   5.181  1.00  0.00     0.029 A 
HETATM   23  C14 UNL     1     -82.586 -15.835   5.828  1.00  0.00     0.003 A 
HETATM   24  C15 UNL     1     -82.515 -15.578   7.172  1.00  0.00     0.016 A 
HETATM   25  C16 UNL     1     -83.642 -15.298   7.956  1.00  0.00     0.017 A 
HETATM   26  C24 UNL     1     -84.828 -15.301   7.286  1.00  0.00     0.045 A 
BRANCH  25  27
HETATM   27  C17 UNL     1     -83.489 -15.018   9.357  1.00  0.00     0.148 C 
BRANCH  27  28
HETATM   28  O2  UNL     1     -82.461 -14.259   9.634  1.00  0.00    -0.346 OA
ATOM     29  H2  UNL     1     -81.675 -14.489   9.152  1.00  0.00     0.219 HD
ENDBRANCH  27  28
BRANCH  27  30
HETATM   30  N4  UNL     1     -84.286 -15.444  10.449  1.00  0.00    -0.361 N 
HETATM   31  C18 UNL     1     -84.646 -16.739  10.890  1.00  0.00     0.125 C 
HETATM   32  C19 UNL     1     -85.377 -16.535  12.216  1.00  0.00     0.026 C 
HETATM   33  C20 UNL     1     -86.052 -15.204  11.994  1.00  0.00     0.015 C 
HETATM   34  C23 UNL     1     -84.915 -14.439  11.332  1.00  0.00     0.130 C 
BRANCH  33  35
HETATM   35  C21 UNL     1     -87.166 -15.395  11.001  1.00  0.00     0.119 C 
BRANCH  35  36
HETATM   36  C22 UNL     1     -88.444 -14.808  11.478  1.00  0.00     0.172 C 
HETATM   37  O3  UNL     1     -88.427 -13.607  11.847  1.00  0.00    -0.648 OA
HETATM   38  O4  UNL     1     -89.643 -15.503  11.538  1.00  0.00    -0.648 OA
ENDBRANCH  35  36
ENDBRANCH  33  35
ENDBRANCH  27  30
ENDBRANCH  25  27
ENDBRANCH   1  21
TORSDOF 9
ENDMDL
