MODEL 16
REMARK VINA RESULT: -9.046422359      4.211      6.871
REMARK  9 active torsions:
REMARK  status: ('A' for Active; 'I' for Inactive)
REMARK    1  A    between atoms: C7_8  and  N1_9 
REMARK       I    between atoms: N1_9  and  C8_11 
REMARK    2  A    between atoms: C8_11  and  C9_13 
REMARK    3  A    between atoms: C11_17  and  N3_18 
REMARK    4  A    between atoms: N3_18  and  C12_20 
REMARK    5  A    between atoms: C16_24  and  C17_25 
REMARK    6  A    between atoms: C17_25  and  O2_26 
REMARK    7  A    between atoms: C17_25  and  N4_28 
REMARK    8  A    between atoms: C20_31  and  C21_32 
REMARK    9  A    between atoms: C21_32  and  C22_33 
ROOT
HETATM    1  N3  UNL     1     -85.900 -15.392   5.300  1.00  0.00    -0.337 N 
ATOM      2  H3  UNL     1     -86.301 -14.870   4.521  1.00  0.00     0.168 HD
ENDROOT
BRANCH   1   3
HETATM    3  C11 UNL     1     -86.791 -15.946   6.251  1.00  0.00     0.149 A 
HETATM    4  N2  UNL     1     -86.647 -16.313   7.509  1.00  0.00    -0.345 N 
HETATM    5  C10 UNL     1     -87.630 -16.802   8.181  1.00  0.00     0.115 A 
ATOM      6  H2  UNL     1     -85.738 -16.209   7.958  1.00  0.00     0.167 HD
HETATM    7  C9  UNL     1     -88.836 -16.931   7.547  1.00  0.00     0.091 A 
HETATM    8  S1  UNL     1     -88.474 -16.330   5.995  1.00  0.00    -0.047 SA
BRANCH   7   9
HETATM    9  C8  UNL     1     -90.104 -17.459   8.095  1.00  0.00     0.264 C 
HETATM   10  N1  UNL     1     -90.118 -18.324   9.216  1.00  0.00    -0.320 N 
ATOM     11  H1  UNL     1     -89.233 -18.585   9.651  1.00  0.00     0.169 HD
HETATM   12  O1  UNL     1     -91.193 -17.137   7.559  1.00  0.00    -0.267 OA
BRANCH  10  13
HETATM   13  C7  UNL     1     -91.329 -18.839   9.754  1.00  0.00     0.062 A 
HETATM   14  C2  UNL     1     -91.850 -20.049   9.351  1.00  0.00    -0.034 A 
HETATM   15  C1  UNL     1     -91.092 -20.814   8.318  1.00  0.00     0.050 C 
HETATM   16  C3  UNL     1     -93.037 -20.535   9.888  1.00  0.00     0.009 A 
HETATM   17  C4  UNL     1     -93.739 -19.829  10.843  1.00  0.00     0.002 A 
HETATM   18  C5  UNL     1     -93.215 -18.618  11.245  1.00  0.00     0.026 A 
HETATM   19  C6  UNL     1     -92.026 -18.128  10.708  1.00  0.00     0.061 A 
HETATM   20 CL1  UNL     1     -91.392 -16.585  11.244  1.00  0.00    -0.082 Cl
ENDBRANCH  10  13
ENDBRANCH   7   9
ENDBRANCH   1   3
BRANCH   1  21
HETATM   21  C12 UNL     1     -84.506 -15.511   5.356  1.00  0.00     0.035 A 
HETATM   22  C13 UNL     1     -83.846 -15.881   6.488  1.00  0.00     0.029 A 
HETATM   23  C14 UNL     1     -82.451 -15.969   6.472  1.00  0.00     0.003 A 
HETATM   24  C15 UNL     1     -81.760 -15.683   5.324  1.00  0.00     0.016 A 
HETATM   25  C16 UNL     1     -82.388 -15.298   4.133  1.00  0.00     0.017 A 
HETATM   26  C24 UNL     1     -83.747 -15.225   4.192  1.00  0.00     0.045 A 
BRANCH  25  27
HETATM   27  C17 UNL     1     -81.600 -15.032   2.961  1.00  0.00     0.148 C 
BRANCH  27  28
HETATM   28  O2  UNL     1     -81.693 -13.801   2.531  1.00  0.00    -0.346 OA
ATOM     29  H2  UNL     1     -81.082 -13.592   1.833  1.00  0.00     0.219 HD
ENDBRANCH  27  28
BRANCH  27  30
HETATM   30  N4  UNL     1     -80.758 -15.907   2.229  1.00  0.00    -0.361 N 
HETATM   31  C18 UNL     1     -79.611 -15.654   1.440  1.00  0.00     0.125 C 
HETATM   32  C19 UNL     1     -79.060 -17.026   1.060  1.00  0.00     0.026 C 
HETATM   33  C20 UNL     1     -80.320 -17.849   0.965  1.00  0.00     0.015 C 
HETATM   34  C23 UNL     1     -81.053 -17.355   2.203  1.00  0.00     0.130 C 
BRANCH  33  35
HETATM   35  C21 UNL     1     -81.077 -17.419  -0.263  1.00  0.00     0.119 C 
BRANCH  35  36
HETATM   36  C22 UNL     1     -82.096 -18.421  -0.669  1.00  0.00     0.172 C 
HETATM   37  O3  UNL     1     -81.857 -19.627  -0.407  1.00  0.00    -0.648 OA
HETATM   38  O4  UNL     1     -83.283 -18.105  -1.312  1.00  0.00    -0.648 OA
ENDBRANCH  35  36
ENDBRANCH  33  35
ENDBRANCH  27  30
ENDBRANCH  25  27
ENDBRANCH   1  21
TORSDOF 9
ENDMDL
