MODEL 7
REMARK VINA RESULT: -9.308541074      1.473      2.122
REMARK  9 active torsions:
REMARK  status: ('A' for Active; 'I' for Inactive)
REMARK    1  A    between atoms: C7_8  and  N1_9 
REMARK       I    between atoms: N1_9  and  C8_11 
REMARK    2  A    between atoms: C8_11  and  C9_13 
REMARK    3  A    between atoms: C11_17  and  N3_18 
REMARK    4  A    between atoms: N3_18  and  C12_20 
REMARK    5  A    between atoms: C16_24  and  C17_25 
REMARK    6  A    between atoms: C17_25  and  O2_26 
REMARK    7  A    between atoms: C17_25  and  N4_28 
REMARK    8  A    between atoms: C20_31  and  C21_32 
REMARK    9  A    between atoms: C21_32  and  C22_33 
ROOT
HETATM    1  N3  UNL     1     -86.428 -15.200   5.261  1.00  0.00    -0.337 N 
ATOM      2  H3  UNL     1     -86.582 -14.539   4.500  1.00  0.00     0.168 HD
ENDROOT
BRANCH   1   3
HETATM    3  C11 UNL     1     -87.566 -15.766   5.884  1.00  0.00     0.149 A 
HETATM    4  N2  UNL     1     -88.844 -15.798   5.561  1.00  0.00    -0.345 N 
HETATM    5  C10 UNL     1     -89.709 -16.390   6.308  1.00  0.00     0.115 A 
ATOM      6  H2  UNL     1     -89.153 -15.344   4.703  1.00  0.00     0.167 HD
HETATM    7  C9  UNL     1     -89.261 -16.988   7.455  1.00  0.00     0.091 A 
HETATM    8  S1  UNL     1     -87.592 -16.656   7.386  1.00  0.00    -0.047 SA
BRANCH   7   9
HETATM    9  C8  UNL     1     -90.047 -17.723   8.469  1.00  0.00     0.264 C 
HETATM   10  N1  UNL     1     -91.411 -18.041   8.256  1.00  0.00    -0.320 N 
ATOM     11  H1  UNL     1     -91.855 -17.754   7.383  1.00  0.00     0.169 HD
HETATM   12  O1  UNL     1     -89.500 -18.076   9.543  1.00  0.00    -0.267 OA
BRANCH  10  13
HETATM   13  C7  UNL     1     -92.179 -18.747   9.221  1.00  0.00     0.062 A 
HETATM   14  C2  UNL     1     -92.261 -20.122   9.224  1.00  0.00    -0.034 A 
HETATM   15  C1  UNL     1     -91.507 -20.858   8.168  1.00  0.00     0.050 C 
HETATM   16  C3  UNL     1     -93.019 -20.795  10.177  1.00  0.00     0.009 A 
HETATM   17  C4  UNL     1     -93.717 -20.115  11.154  1.00  0.00     0.002 A 
HETATM   18  C5  UNL     1     -93.633 -18.739  11.148  1.00  0.00     0.026 A 
HETATM   19  C6  UNL     1     -92.874 -18.062  10.195  1.00  0.00     0.061 A 
HETATM   20 CL1  UNL     1     -92.793 -16.312  10.221  1.00  0.00    -0.082 Cl
ENDBRANCH  10  13
ENDBRANCH   7   9
ENDBRANCH   1   3
BRANCH   1  21
HETATM   21  C12 UNL     1     -85.105 -15.486   5.618  1.00  0.00     0.035 A 
HETATM   22  C13 UNL     1     -84.153 -15.820   4.704  1.00  0.00     0.029 A 
HETATM   23  C14 UNL     1     -82.854 -16.103   5.135  1.00  0.00     0.003 A 
HETATM   24  C15 UNL     1     -82.549 -16.045   6.470  1.00  0.00     0.016 A 
HETATM   25  C16 UNL     1     -83.488 -15.708   7.453  1.00  0.00     0.017 A 
HETATM   26  C24 UNL     1     -84.741 -15.440   6.989  1.00  0.00     0.045 A 
BRANCH  25  27
HETATM   27  C17 UNL     1     -83.092 -15.647   8.833  1.00  0.00     0.148 C 
BRANCH  27  28
HETATM   28  O2  UNL     1     -81.837 -15.956   9.035  1.00  0.00    -0.346 OA
ATOM     29  H2  UNL     1     -81.647 -16.216   9.929  1.00  0.00     0.219 HD
ENDBRANCH  27  28
BRANCH  27  30
HETATM   30  N4  UNL     1     -83.862 -15.305   9.973  1.00  0.00    -0.361 N 
HETATM   31  C18 UNL     1     -84.759 -14.236  10.204  1.00  0.00     0.125 C 
HETATM   32  C19 UNL     1     -85.395 -14.517  11.564  1.00  0.00     0.026 C 
HETATM   33  C20 UNL     1     -84.270 -15.209  12.294  1.00  0.00     0.015 C 
HETATM   34  C23 UNL     1     -83.771 -16.133  11.193  1.00  0.00     0.130 C 
BRANCH  33  35
HETATM   35  C21 UNL     1     -83.208 -14.189  12.605  1.00  0.00     0.119 C 
BRANCH  35  36
HETATM   36  C22 UNL     1     -83.569 -13.347  13.774  1.00  0.00     0.172 C 
HETATM   37  O3  UNL     1     -83.155 -12.161  13.782  1.00  0.00    -0.648 OA
HETATM   38  O4  UNL     1     -84.331 -13.791  14.844  1.00  0.00    -0.648 OA
ENDBRANCH  35  36
ENDBRANCH  33  35
ENDBRANCH  27  30
ENDBRANCH  25  27
ENDBRANCH   1  21
TORSDOF 9
ENDMDL
