MODEL 3
REMARK VINA RESULT: -9.732695682      0.954      1.491
REMARK  9 active torsions:
REMARK  status: ('A' for Active; 'I' for Inactive)
REMARK    1  A    between atoms: C7_8  and  N1_9 
REMARK       I    between atoms: N1_9  and  C8_11 
REMARK    2  A    between atoms: C8_11  and  C9_13 
REMARK    3  A    between atoms: C11_17  and  N3_18 
REMARK    4  A    between atoms: N3_18  and  C12_20 
REMARK    5  A    between atoms: C16_24  and  C17_25 
REMARK    6  A    between atoms: C17_25  and  O2_26 
REMARK    7  A    between atoms: C17_25  and  N4_28 
REMARK    8  A    between atoms: C20_31  and  C21_32 
REMARK    9  A    between atoms: C21_32  and  C22_33 
ROOT
HETATM    1  N3  UNL     1     -86.132 -15.614   5.261  1.00  0.00    -0.337 N 
ATOM      2  H3  UNL     1     -86.204 -15.283   4.300  1.00  0.00     0.168 HD
ENDROOT
BRANCH   1   3
HETATM    3  C11 UNL     1     -87.320 -16.044   5.901  1.00  0.00     0.149 A 
HETATM    4  N2  UNL     1     -88.598 -15.862   5.637  1.00  0.00    -0.345 N 
HETATM    5  C10 UNL     1     -89.516 -16.367   6.386  1.00  0.00     0.115 A 
ATOM      6  H2  UNL     1     -88.866 -15.310   4.823  1.00  0.00     0.167 HD
HETATM    7  C9  UNL     1     -89.122 -17.101   7.472  1.00  0.00     0.091 A 
HETATM    8  S1  UNL     1     -87.426 -17.019   7.346  1.00  0.00    -0.047 SA
BRANCH   7   9
HETATM    9  C8  UNL     1     -89.974 -17.776   8.475  1.00  0.00     0.264 C 
HETATM   10  N1  UNL     1     -91.366 -17.937   8.271  1.00  0.00    -0.320 N 
ATOM     11  H1  UNL     1     -91.785 -17.578   7.413  1.00  0.00     0.169 HD
HETATM   12  O1  UNL     1     -89.457 -18.219   9.530  1.00  0.00    -0.267 OA
BRANCH  10  13
HETATM   13  C7  UNL     1     -92.196 -18.585   9.226  1.00  0.00     0.062 A 
HETATM   14  C2  UNL     1     -92.938 -17.877  10.147  1.00  0.00    -0.034 A 
HETATM   15  C1  UNL     1     -92.842 -16.389  10.109  1.00  0.00     0.050 C 
HETATM   16  C3  UNL     1     -93.744 -18.529  11.074  1.00  0.00     0.009 A 
HETATM   17  C4  UNL     1     -93.834 -19.905  11.110  1.00  0.00     0.002 A 
HETATM   18  C5  UNL     1     -93.090 -20.611  10.187  1.00  0.00     0.026 A 
HETATM   19  C6  UNL     1     -92.282 -19.960   9.257  1.00  0.00     0.061 A 
HETATM   20 CL1  UNL     1     -91.351 -20.892   8.100  1.00  0.00    -0.082 Cl
ENDBRANCH  10  13
ENDBRANCH   7   9
ENDBRANCH   1   3
BRANCH   1  21
HETATM   21  C12 UNL     1     -84.867 -15.612   5.859  1.00  0.00     0.035 A 
HETATM   22  C13 UNL     1     -83.726 -15.884   5.167  1.00  0.00     0.029 A 
HETATM   23  C14 UNL     1     -82.498 -15.874   5.834  1.00  0.00     0.003 A 
HETATM   24  C15 UNL     1     -82.449 -15.593   7.174  1.00  0.00     0.016 A 
HETATM   25  C16 UNL     1     -83.590 -15.307   7.934  1.00  0.00     0.017 A 
HETATM   26  C24 UNL     1     -84.765 -15.327   7.246  1.00  0.00     0.045 A 
BRANCH  25  27
HETATM   27  C17 UNL     1     -83.461 -15.001   9.333  1.00  0.00     0.148 C 
BRANCH  27  28
HETATM   28  O2  UNL     1     -82.447 -14.223   9.611  1.00  0.00    -0.346 OA
ATOM     29  H2  UNL     1     -81.636 -14.692   9.765  1.00  0.00     0.219 HD
ENDBRANCH  27  28
BRANCH  27  30
HETATM   30  N4  UNL     1     -84.267 -15.421  10.420  1.00  0.00    -0.361 N 
HETATM   31  C18 UNL     1     -84.641 -16.713  10.859  1.00  0.00     0.125 C 
HETATM   32  C19 UNL     1     -85.377 -16.503  12.181  1.00  0.00     0.026 C 
HETATM   33  C20 UNL     1     -86.038 -15.166  11.957  1.00  0.00     0.015 C 
HETATM   34  C23 UNL     1     -84.892 -14.411  11.301  1.00  0.00     0.130 C 
BRANCH  33  35
HETATM   35  C21 UNL     1     -87.149 -15.347  10.958  1.00  0.00     0.119 C 
BRANCH  35  36
HETATM   36  C22 UNL     1     -88.451 -14.855  11.478  1.00  0.00     0.172 C 
HETATM   37  O3  UNL     1     -88.479 -13.695  11.962  1.00  0.00    -0.648 OA
HETATM   38  O4  UNL     1     -89.624 -15.594  11.458  1.00  0.00    -0.648 OA
ENDBRANCH  35  36
ENDBRANCH  33  35
ENDBRANCH  27  30
ENDBRANCH  25  27
ENDBRANCH   1  21
TORSDOF 9
ENDMDL
