MODEL 12
REMARK VINA RESULT: -9.458959208      2.971      5.935
REMARK  7 active torsions:
REMARK  status: ('A' for Active; 'I' for Inactive)
REMARK    1  A    between atoms: C2_2  and  C3_3 
REMARK    2  A    between atoms: C5_5  and  N1_6 
REMARK    3  A    between atoms: N1_6  and  C6_8 
REMARK    4  A    between atoms: C8_12  and  C9_13 
REMARK       I    between atoms: C9_13  and  N3_15 
REMARK    5  A    between atoms: N3_15  and  C10_17 
REMARK    6  A    between atoms: C18_27  and  C19_28 
REMARK       I    between atoms: C19_28  and  N4_30 
REMARK    7  A    between atoms: N4_30  and  C20_32 
ROOT
HETATM    1  C3  UNL     1     -83.146 -15.120   7.271  1.00  0.00    -0.055 A 
HETATM    2  C4  UNL     1     -84.491 -14.828   6.978  1.00  0.00     0.036 A 
HETATM    3  C5  UNL     1     -84.872 -14.662   5.670  1.00  0.00     0.035 A 
HETATM    4  C17 UNL     1     -83.905 -14.789   4.647  1.00  0.00     0.046 A 
HETATM    5  C18 UNL     1     -82.595 -15.071   4.921  1.00  0.00     0.034 A 
HETATM    6  C25 UNL     1     -82.253 -15.230   6.240  1.00  0.00     0.024 A 
ENDROOT
BRANCH   3   7
HETATM    7  N1  UNL     1     -86.187 -14.372   5.326  1.00  0.00    -0.337 N 
ATOM      8  H1  UNL     1     -86.336 -13.711   4.564  1.00  0.00     0.168 HD
BRANCH   7   9
HETATM    9  C6  UNL     1     -87.343 -14.924   5.950  1.00  0.00     0.149 A 
HETATM   10  N2  UNL     1     -88.620 -14.929   5.631  1.00  0.00    -0.345 N 
HETATM   11  C7  UNL     1     -89.499 -15.508   6.374  1.00  0.00     0.115 A 
ATOM     12  H2  UNL     1     -88.920 -14.464   4.775  1.00  0.00     0.167 HD
HETATM   13  C8  UNL     1     -89.059 -16.124   7.520  1.00  0.00     0.091 A 
HETATM   14  S1  UNL     1     -87.384 -15.822   7.446  1.00  0.00    -0.047 SA
BRANCH  13  15
HETATM   15  C9  UNL     1     -89.820 -16.850   8.542  1.00  0.00     0.264 C 
HETATM   16  O1  UNL     1     -89.197 -17.231   9.565  1.00  0.00    -0.267 OA
HETATM   17  N3  UNL     1     -91.188 -17.133   8.432  1.00  0.00    -0.320 N 
ATOM     18  H3  UNL     1     -91.669 -16.813   7.592  1.00  0.00     0.169 HD
BRANCH  17  19
HETATM   19  C10 UNL     1     -91.952 -17.828   9.394  1.00  0.00     0.062 A 
HETATM   20  C11 UNL     1     -92.699 -17.143  10.313  1.00  0.00    -0.034 A 
HETATM   21  C12 UNL     1     -92.706 -15.677  10.298  1.00  0.00     0.050 C 
HETATM   22  C13 UNL     1     -93.461 -17.817  11.272  1.00  0.00     0.009 A 
HETATM   23  C14 UNL     1     -93.469 -19.200  11.303  1.00  0.00     0.002 A 
HETATM   24  C15 UNL     1     -92.719 -19.891  10.380  1.00  0.00     0.026 A 
HETATM   25  C16 UNL     1     -91.965 -19.202   9.432  1.00  0.00     0.061 A 
HETATM   26 CL1  UNL     1     -91.008 -20.075   8.253  1.00  0.00    -0.082 Cl
ENDBRANCH  17  19
ENDBRANCH  13  15
ENDBRANCH   7   9
ENDBRANCH   3   7
BRANCH   1  27
HETATM   27  C2  UNL     1     -82.766 -15.294   8.698  1.00  0.00     0.034 C 
HETATM   28  C1  UNL     1     -83.793 -16.267   9.289  1.00  0.00     0.010 C 
ENDBRANCH   1  27
BRANCH   5  29
HETATM   29  C19 UNL     1     -81.624 -15.193   3.816  1.00  0.00     0.252 C 
HETATM   30  O2  UNL     1     -81.626 -16.210   3.069  1.00  0.00    -0.268 OA
HETATM   31  N4  UNL     1     -80.650 -14.210   3.520  1.00  0.00    -0.352 N 
ATOM     32  H4  UNL     1     -80.602 -13.367   4.091  1.00  0.00     0.163 HD
BRANCH  31  33
HETATM   33  C20 UNL     1     -79.704 -14.378   2.405  1.00  0.00     0.087 C 
HETATM   34  C21 UNL     1     -80.313 -13.663   1.220  1.00  0.00     0.052 C 
HETATM   35  C22 UNL     1     -79.273 -13.297   0.187  1.00  0.00     0.234 C 
HETATM   36  N5  UNL     1     -78.306 -12.359   0.676  1.00  0.00    -0.075 N 
HETATM   37  C23 UNL     1     -78.409 -12.256   2.098  1.00  0.00     0.234 C 
ATOM     38  H52 UNL     1     -77.359 -12.592   0.375  1.00  0.00     0.277 HD
ATOM     39  H51 UNL     1     -78.387 -11.451   0.218  1.00  0.00     0.277 HD
HETATM   40  C24 UNL     1     -78.446 -13.611   2.770  1.00  0.00     0.052 C 
ENDBRANCH  31  33
ENDBRANCH   5  29
TORSDOF 7
ENDMDL
