MODEL 11
REMARK VINA RESULT: -9.478144682      3.012      5.272
REMARK  7 active torsions:
REMARK  status: ('A' for Active; 'I' for Inactive)
REMARK    1  A    between atoms: C2_2  and  C3_3 
REMARK    2  A    between atoms: C5_5  and  N1_6 
REMARK    3  A    between atoms: N1_6  and  C6_8 
REMARK    4  A    between atoms: C8_12  and  C9_13 
REMARK       I    between atoms: C9_13  and  N3_15 
REMARK    5  A    between atoms: N3_15  and  C10_17 
REMARK    6  A    between atoms: C18_27  and  C19_28 
REMARK       I    between atoms: C19_28  and  N4_30 
REMARK    7  A    between atoms: N4_30  and  C20_32 
ROOT
HETATM    1  C3  UNL     1     -83.361 -15.165   7.157  1.00  0.00    -0.055 A 
HETATM    2  C4  UNL     1     -84.706 -15.191   6.741  1.00  0.00     0.036 A 
HETATM    3  C5  UNL     1     -85.018 -14.818   5.459  1.00  0.00     0.035 A 
HETATM    4  C17 UNL     1     -83.984 -14.416   4.583  1.00  0.00     0.046 A 
HETATM    5  C18 UNL     1     -82.674 -14.386   4.977  1.00  0.00     0.034 A 
HETATM    6  C25 UNL     1     -82.402 -14.766   6.266  1.00  0.00     0.024 A 
ENDROOT
BRANCH   3   7
HETATM    7  N1  UNL     1     -86.329 -14.825   4.998  1.00  0.00    -0.337 N 
ATOM      8  H1  UNL     1     -86.488 -14.534   4.033  1.00  0.00     0.168 HD
BRANCH   7   9
HETATM    9  C6  UNL     1     -87.471 -15.206   5.762  1.00  0.00     0.149 A 
HETATM   10  N2  UNL     1     -88.742 -14.873   5.705  1.00  0.00    -0.345 N 
HETATM   11  C7  UNL     1     -89.606 -15.362   6.525  1.00  0.00     0.115 A 
ATOM     12  H2  UNL     1     -89.051 -14.210   4.994  1.00  0.00     0.167 HD
HETATM   13  C8  UNL     1     -89.154 -16.250   7.471  1.00  0.00     0.091 A 
HETATM   14  S1  UNL     1     -87.492 -16.319   7.105  1.00  0.00    -0.047 SA
BRANCH  13  15
HETATM   15  C9  UNL     1     -89.898 -16.956   8.520  1.00  0.00     0.264 C 
HETATM   16  O1  UNL     1     -89.267 -17.274   9.560  1.00  0.00    -0.267 OA
HETATM   17  N3  UNL     1     -91.256 -17.285   8.419  1.00  0.00    -0.320 N 
ATOM     18  H3  UNL     1     -91.742 -17.016   7.564  1.00  0.00     0.169 HD
BRANCH  17  19
HETATM   19  C10 UNL     1     -92.002 -17.962   9.407  1.00  0.00     0.062 A 
HETATM   20  C11 UNL     1     -92.061 -19.328   9.417  1.00  0.00    -0.034 A 
HETATM   21  C12 UNL     1     -91.344 -20.096   8.394  1.00  0.00     0.050 C 
HETATM   22  C13 UNL     1     -92.797 -20.013  10.389  1.00  0.00     0.009 A 
HETATM   23  C14 UNL     1     -93.481 -19.307  11.364  1.00  0.00     0.002 A 
HETATM   24  C15 UNL     1     -93.422 -17.934  11.356  1.00  0.00     0.026 A 
HETATM   25  C16 UNL     1     -92.685 -17.268  10.378  1.00  0.00     0.061 A 
HETATM   26 CL1  UNL     1     -92.605 -15.519  10.362  1.00  0.00    -0.082 Cl
ENDBRANCH  17  19
ENDBRANCH  13  15
ENDBRANCH   7   9
ENDBRANCH   3   7
BRANCH   1  27
HETATM   27  C2  UNL     1     -83.056 -15.576   8.552  1.00  0.00     0.034 C 
HETATM   28  C1  UNL     1     -84.235 -16.448   9.000  1.00  0.00     0.010 C 
ENDBRANCH   1  27
BRANCH   5  29
HETATM   29  C19 UNL     1     -81.631 -13.959   4.024  1.00  0.00     0.252 C 
HETATM   30  O2  UNL     1     -81.322 -14.687   3.042  1.00  0.00    -0.268 OA
HETATM   31  N4  UNL     1     -80.923 -12.738   4.137  1.00  0.00    -0.352 N 
ATOM     32  H4  UNL     1     -81.132 -12.110   4.913  1.00  0.00     0.163 HD
BRANCH  31  33
HETATM   33  C20 UNL     1     -79.891 -12.356   3.160  1.00  0.00     0.087 C 
HETATM   34  C21 UNL     1     -79.935 -10.848   3.064  1.00  0.00     0.052 C 
HETATM   35  C22 UNL     1     -78.640 -10.280   2.530  1.00  0.00     0.234 C 
HETATM   36  N5  UNL     1     -77.524 -10.523   3.395  1.00  0.00    -0.075 N 
HETATM   37  C23 UNL     1     -77.880 -11.498   4.379  1.00  0.00     0.234 C 
ATOM     38  H52 UNL     1     -76.687 -10.789   2.877  1.00  0.00     0.277 HD
ATOM     39  H51 UNL     1     -77.171  -9.664   3.816  1.00  0.00     0.277 HD
HETATM   40  C24 UNL     1     -78.547 -12.711   3.769  1.00  0.00     0.052 C 
ENDBRANCH  31  33
ENDBRANCH   5  29
TORSDOF 7
ENDMDL
