MODEL 1
REMARK VINA RESULT: -9.902351337      0.000      0.000
REMARK  7 active torsions:
REMARK  status: ('A' for Active; 'I' for Inactive)
REMARK    1  A    between atoms: C2_2  and  C3_3 
REMARK    2  A    between atoms: C5_5  and  N1_6 
REMARK    3  A    between atoms: N1_6  and  C6_8 
REMARK    4  A    between atoms: C8_12  and  C9_13 
REMARK       I    between atoms: C9_13  and  N3_15 
REMARK    5  A    between atoms: N3_15  and  C10_17 
REMARK    6  A    between atoms: C18_27  and  C19_28 
REMARK       I    between atoms: C19_28  and  N4_30 
REMARK    7  A    between atoms: N4_30  and  C20_32 
ROOT
HETATM    1  C3  UNL     1     -82.619 -15.154   5.189  1.00  0.00    -0.055 A 
HETATM    2  C4  UNL     1     -83.926 -15.160   4.667  1.00  0.00     0.036 A 
HETATM    3  C5  UNL     1     -84.971 -14.776   5.470  1.00  0.00     0.035 A 
HETATM    4  C17 UNL     1     -84.711 -14.382   6.803  1.00  0.00     0.046 A 
HETATM    5  C18 UNL     1     -83.445 -14.374   7.320  1.00  0.00     0.034 A 
HETATM    6  C25 UNL     1     -82.428 -14.765   6.487  1.00  0.00     0.024 A 
ENDROOT
BRANCH   3   7
HETATM    7  N1  UNL     1     -86.280 -14.764   5.005  1.00  0.00    -0.337 N 
ATOM      8  H1  UNL     1     -86.433 -14.453   4.045  1.00  0.00     0.168 HD
BRANCH   7   9
HETATM    9  C6  UNL     1     -87.427 -15.150   5.758  1.00  0.00     0.149 A 
HETATM   10  N2  UNL     1     -88.701 -14.830   5.683  1.00  0.00    -0.345 N 
HETATM   11  C7  UNL     1     -89.570 -15.322   6.496  1.00  0.00     0.115 A 
ATOM     12  H2  UNL     1     -89.007 -14.176   4.962  1.00  0.00     0.167 HD
HETATM   13  C8  UNL     1     -89.122 -16.198   7.454  1.00  0.00     0.091 A 
HETATM   14  S1  UNL     1     -87.454 -16.253   7.110  1.00  0.00    -0.047 SA
BRANCH  13  15
HETATM   15  C9  UNL     1     -89.871 -16.903   8.500  1.00  0.00     0.264 C 
HETATM   16  O1  UNL     1     -89.248 -17.215   9.546  1.00  0.00    -0.267 OA
HETATM   17  N3  UNL     1     -91.227 -17.237   8.388  1.00  0.00    -0.320 N 
ATOM     18  H3  UNL     1     -91.707 -16.972   7.529  1.00  0.00     0.169 HD
BRANCH  17  19
HETATM   19  C10 UNL     1     -91.979 -17.914   9.373  1.00  0.00     0.062 A 
HETATM   20  C11 UNL     1     -92.028 -19.280   9.391  1.00  0.00    -0.034 A 
HETATM   21  C12 UNL     1     -91.295 -20.048   8.380  1.00  0.00     0.050 C 
HETATM   22  C13 UNL     1     -92.770 -19.964  10.359  1.00  0.00     0.009 A 
HETATM   23  C14 UNL     1     -93.469 -19.257  11.322  1.00  0.00     0.002 A 
HETATM   24  C15 UNL     1     -93.419 -17.883  11.306  1.00  0.00     0.026 A 
HETATM   25  C16 UNL     1     -92.676 -17.219  10.332  1.00  0.00     0.061 A 
HETATM   26 CL1  UNL     1     -92.609 -15.469  10.307  1.00  0.00    -0.082 Cl
ENDBRANCH  17  19
ENDBRANCH  13  15
ENDBRANCH   7   9
ENDBRANCH   3   7
BRANCH   1  27
HETATM   27  C2  UNL     1     -81.510 -15.576   4.294  1.00  0.00     0.034 C 
HETATM   28  C1  UNL     1     -80.348 -15.958   5.218  1.00  0.00     0.010 C 
ENDBRANCH   1  27
BRANCH   5  29
HETATM   29  C19 UNL     1     -83.226 -13.955   8.719  1.00  0.00     0.252 C 
HETATM   30  O2  UNL     1     -82.489 -12.967   8.984  1.00  0.00    -0.268 OA
HETATM   31  N4  UNL     1     -83.810 -14.608   9.831  1.00  0.00    -0.352 N 
ATOM     32  H4  UNL     1     -84.415 -15.414   9.675  1.00  0.00     0.163 HD
BRANCH  31  33
HETATM   33  C20 UNL     1     -83.562 -14.150  11.207  1.00  0.00     0.087 C 
HETATM   34  C21 UNL     1     -84.847 -13.511  11.680  1.00  0.00     0.052 C 
HETATM   35  C22 UNL     1     -84.933 -13.468  13.188  1.00  0.00     0.234 C 
HETATM   36  N5  UNL     1     -84.974 -14.770  13.783  1.00  0.00    -0.075 N 
HETATM   37  C23 UNL     1     -84.617 -15.756  12.811  1.00  0.00     0.234 C 
ATOM     38  H52 UNL     1     -84.394 -14.828  14.620  1.00  0.00     0.277 HD
ATOM     39  H51 UNL     1     -85.878 -14.966  14.216  1.00  0.00     0.277 HD
HETATM   40  C24 UNL     1     -83.358 -15.390  12.058  1.00  0.00     0.052 C 
ENDBRANCH  31  33
ENDBRANCH   5  29
TORSDOF 7
ENDMDL
