MODEL 2
REMARK VINA RESULT: -9.874891888      0.955      1.490
REMARK  7 active torsions:
REMARK  status: ('A' for Active; 'I' for Inactive)
REMARK    1  A    between atoms: C2_2  and  C3_3 
REMARK    2  A    between atoms: C5_5  and  N1_6 
REMARK    3  A    between atoms: N1_6  and  C6_8 
REMARK    4  A    between atoms: C8_12  and  C9_13 
REMARK       I    between atoms: C9_13  and  N3_15 
REMARK    5  A    between atoms: N3_15  and  C10_17 
REMARK    6  A    between atoms: C18_27  and  C19_28 
REMARK       I    between atoms: C19_28  and  N4_30 
REMARK    7  A    between atoms: N4_30  and  C20_32 
ROOT
HETATM    1  C3  UNL     1     -82.519 -15.119   5.239  1.00  0.00    -0.055 A 
HETATM    2  C4  UNL     1     -83.819 -15.135   4.699  1.00  0.00     0.036 A 
HETATM    3  C5  UNL     1     -84.876 -14.754   5.486  1.00  0.00     0.035 A 
HETATM    4  C17 UNL     1     -84.638 -14.353   6.819  1.00  0.00     0.046 A 
HETATM    5  C18 UNL     1     -83.379 -14.334   7.355  1.00  0.00     0.034 A 
HETATM    6  C25 UNL     1     -82.348 -14.722   6.537  1.00  0.00     0.024 A 
ENDROOT
BRANCH   3   7
HETATM    7  N1  UNL     1     -86.179 -14.752   5.002  1.00  0.00    -0.337 N 
ATOM      8  H1  UNL     1     -86.321 -14.447   4.039  1.00  0.00     0.168 HD
BRANCH   7   9
HETATM    9  C6  UNL     1     -87.334 -15.143   5.741  1.00  0.00     0.149 A 
HETATM   10  N2  UNL     1     -88.610 -14.837   5.642  1.00  0.00    -0.345 N 
HETATM   11  C7  UNL     1     -89.487 -15.329   6.447  1.00  0.00     0.115 A 
ATOM     12  H2  UNL     1     -88.912 -14.195   4.910  1.00  0.00     0.167 HD
HETATM   13  C8  UNL     1     -89.044 -16.190   7.422  1.00  0.00     0.091 A 
HETATM   14  S1  UNL     1     -87.371 -16.231   7.105  1.00  0.00    -0.047 SA
BRANCH  13  15
HETATM   15  C9  UNL     1     -89.802 -16.891   8.464  1.00  0.00     0.264 C 
HETATM   16  O1  UNL     1     -89.173 -17.262   9.486  1.00  0.00    -0.267 OA
HETATM   17  N3  UNL     1     -91.174 -17.161   8.373  1.00  0.00    -0.320 N 
ATOM     18  H3  UNL     1     -91.660 -16.849   7.533  1.00  0.00     0.169 HD
BRANCH  17  19
HETATM   19  C10 UNL     1     -91.936 -17.832   9.355  1.00  0.00     0.062 A 
HETATM   20  C11 UNL     1     -92.689 -17.125  10.250  1.00  0.00    -0.034 A 
HETATM   21  C12 UNL     1     -92.706 -15.660  10.192  1.00  0.00     0.050 C 
HETATM   22  C13 UNL     1     -93.448 -17.775  11.228  1.00  0.00     0.009 A 
HETATM   23  C14 UNL     1     -93.446 -19.157  11.301  1.00  0.00     0.002 A 
HETATM   24  C15 UNL     1     -92.690 -19.869  10.400  1.00  0.00     0.026 A 
HETATM   25  C16 UNL     1     -91.939 -19.204   9.433  1.00  0.00     0.061 A 
HETATM   26 CL1  UNL     1     -90.974 -20.106   8.283  1.00  0.00    -0.082 Cl
ENDBRANCH  17  19
ENDBRANCH  13  15
ENDBRANCH   7   9
ENDBRANCH   3   7
BRANCH   1  27
HETATM   27  C2  UNL     1     -81.395 -15.538   4.360  1.00  0.00     0.034 C 
HETATM   28  C1  UNL     1     -80.271 -15.983   5.303  1.00  0.00     0.010 C 
ENDBRANCH   1  27
BRANCH   5  29
HETATM   29  C19 UNL     1     -83.182 -13.907   8.754  1.00  0.00     0.252 C 
HETATM   30  O2  UNL     1     -82.488 -12.889   9.021  1.00  0.00    -0.268 OA
HETATM   31  N4  UNL     1     -83.740 -14.586   9.864  1.00  0.00    -0.352 N 
ATOM     32  H4  UNL     1     -84.310 -15.416   9.706  1.00  0.00     0.163 HD
BRANCH  31  33
HETATM   33  C20 UNL     1     -83.515 -14.119  11.241  1.00  0.00     0.087 C 
HETATM   34  C21 UNL     1     -84.803 -13.462  11.682  1.00  0.00     0.052 C 
HETATM   35  C22 UNL     1     -84.919 -13.405  13.187  1.00  0.00     0.234 C 
HETATM   36  N5  UNL     1     -84.987 -14.702  13.793  1.00  0.00    -0.075 N 
HETATM   37  C23 UNL     1     -84.621 -15.700  12.836  1.00  0.00     0.234 C 
ATOM     38  H52 UNL     1     -84.425 -14.759  14.642  1.00  0.00     0.277 HD
ATOM     39  H51 UNL     1     -85.901 -14.885  14.208  1.00  0.00     0.277 HD
HETATM   40  C24 UNL     1     -83.342 -15.353  12.107  1.00  0.00     0.052 C 
ENDBRANCH  31  33
ENDBRANCH   5  29
TORSDOF 7
ENDMDL
