MODEL 5
REMARK VINA RESULT: -9.663470688      1.499      1.745
REMARK  7 active torsions:
REMARK  status: ('A' for Active; 'I' for Inactive)
REMARK    1  A    between atoms: C2_2  and  C3_3 
REMARK    2  A    between atoms: C5_5  and  N1_6 
REMARK    3  A    between atoms: N1_6  and  C6_8 
REMARK    4  A    between atoms: C8_12  and  C9_13 
REMARK       I    between atoms: C9_13  and  N3_15 
REMARK    5  A    between atoms: N3_15  and  C10_17 
REMARK    6  A    between atoms: C18_27  and  C19_28 
REMARK       I    between atoms: C19_28  and  N4_30 
REMARK    7  A    between atoms: N4_30  and  C20_32 
ROOT
HETATM    1  C3  UNL     1     -82.171 -15.425   5.180  1.00  0.00    -0.055 A 
HETATM    2  C4  UNL     1     -83.464 -15.220   4.663  1.00  0.00     0.036 A 
HETATM    3  C5  UNL     1     -84.478 -14.859   5.514  1.00  0.00     0.035 A 
HETATM    4  C17 UNL     1     -84.202 -14.700   6.891  1.00  0.00     0.046 A 
HETATM    5  C18 UNL     1     -82.949 -14.897   7.405  1.00  0.00     0.034 A 
HETATM    6  C25 UNL     1     -81.962 -15.257   6.522  1.00  0.00     0.024 A 
ENDROOT
BRANCH   3   7
HETATM    7  N1  UNL     1     -85.772 -14.645   5.055  1.00  0.00    -0.337 N 
ATOM      8  H1  UNL     1     -85.879 -14.157   4.166  1.00  0.00     0.168 HD
BRANCH   7   9
HETATM    9  C6  UNL     1     -86.963 -15.052   5.725  1.00  0.00     0.149 A 
HETATM   10  N2  UNL     1     -88.241 -14.881   5.468  1.00  0.00    -0.345 N 
HETATM   11  C7  UNL     1     -89.155 -15.355   6.242  1.00  0.00     0.115 A 
ATOM     12  H2  UNL     1     -88.516 -14.359   4.635  1.00  0.00     0.167 HD
HETATM   13  C8  UNL     1     -88.750 -16.050   7.356  1.00  0.00     0.091 A 
HETATM   14  S1  UNL     1     -87.055 -15.971   7.206  1.00  0.00    -0.047 SA
BRANCH  13  15
HETATM   15  C9  UNL     1     -89.554 -16.691   8.401  1.00  0.00     0.264 C 
HETATM   16  O1  UNL     1     -89.019 -16.848   9.527  1.00  0.00    -0.267 OA
HETATM   17  N3  UNL     1     -90.870 -17.130   8.205  1.00  0.00    -0.320 N 
ATOM     18  H3  UNL     1     -91.280 -16.990   7.281  1.00  0.00     0.169 HD
BRANCH  17  19
HETATM   19  C10 UNL     1     -91.674 -17.750   9.186  1.00  0.00     0.062 A 
HETATM   20  C11 UNL     1     -91.712 -19.112   9.291  1.00  0.00    -0.034 A 
HETATM   21  C12 UNL     1     -90.913 -19.936   8.377  1.00  0.00     0.050 C 
HETATM   22  C13 UNL     1     -92.504 -19.741  10.257  1.00  0.00     0.009 A 
HETATM   23  C14 UNL     1     -93.264 -18.982  11.129  1.00  0.00     0.002 A 
HETATM   24  C15 UNL     1     -93.226 -17.611  11.026  1.00  0.00     0.026 A 
HETATM   25  C16 UNL     1     -92.433 -17.002  10.055  1.00  0.00     0.061 A 
HETATM   26 CL1  UNL     1     -92.380 -15.257   9.918  1.00  0.00    -0.082 Cl
ENDBRANCH  17  19
ENDBRANCH  13  15
ENDBRANCH   7   9
ENDBRANCH   3   7
BRANCH   1  27
HETATM   27  C2  UNL     1     -81.095 -15.815   4.232  1.00  0.00     0.034 C 
HETATM   28  C1  UNL     1     -79.915 -16.266   5.100  1.00  0.00     0.010 C 
ENDBRANCH   1  27
BRANCH   5  29
HETATM   29  C19 UNL     1     -82.712 -14.718   8.851  1.00  0.00     0.252 C 
HETATM   30  O2  UNL     1     -82.993 -13.627   9.416  1.00  0.00    -0.268 OA
HETATM   31  N4  UNL     1     -82.171 -15.726   9.684  1.00  0.00    -0.352 N 
ATOM     32  H4  UNL     1     -81.925 -16.629   9.280  1.00  0.00     0.163 HD
BRANCH  31  33
HETATM   33  C20 UNL     1     -81.955 -15.499  11.122  1.00  0.00     0.087 C 
HETATM   34  C21 UNL     1     -82.702 -16.598  11.842  1.00  0.00     0.052 C 
HETATM   35  C22 UNL     1     -82.171 -16.818  13.240  1.00  0.00     0.234 C 
HETATM   36  N5  UNL     1     -80.814 -17.277  13.256  1.00  0.00    -0.075 N 
HETATM   37  C23 UNL     1     -80.233 -17.112  11.960  1.00  0.00     0.234 C 
ATOM     38  H52 UNL     1     -80.263 -16.822  13.984  1.00  0.00     0.277 HD
ATOM     39  H51 UNL     1     -80.738 -18.237  13.592  1.00  0.00     0.277 HD
HETATM   40  C24 UNL     1     -80.480 -15.732  11.393  1.00  0.00     0.052 C 
ENDBRANCH  31  33
ENDBRANCH   5  29
TORSDOF 7
ENDMDL
