MODEL 2
REMARK VINA RESULT: -10.093428152      0.903      1.408
REMARK  7 active torsions:
REMARK  status: ('A' for Active; 'I' for Inactive)
REMARK    1  A    between atoms: C7_8  and  N1_9 
REMARK       I    between atoms: N1_9  and  C8_11 
REMARK    2  A    between atoms: C8_11  and  C9_13 
REMARK    3  A    between atoms: C11_17  and  N3_18 
REMARK    4  A    between atoms: N3_18  and  C12_20 
REMARK    5  A    between atoms: C14_22  and  C15_23 
REMARK       I    between atoms: C15_23  and  N4_25 
REMARK    6  A    between atoms: N4_25  and  C16_27 
REMARK    7  A    between atoms: C22_36  and  C23_37 
ROOT
HETATM    1  C12 UNL     1     122.055  14.891  44.943  1.00  0.00     0.035 A 
HETATM    2  C13 UNL     1     121.170  14.288  44.047  1.00  0.00     0.046 A 
HETATM    3  C14 UNL     1     119.907  13.915  44.426  1.00  0.00     0.035 A 
HETATM    4  C21 UNL     1     119.514  14.148  45.736  1.00  0.00     0.029 A 
HETATM    5  C22 UNL     1     120.361  14.747  46.668  1.00  0.00    -0.021 A 
HETATM    6  C29 UNL     1     121.618  15.097  46.215  1.00  0.00     0.042 A 
ENDROOT
BRANCH   1   7
HETATM    7  N3  UNL     1     123.335  15.221  44.501  1.00  0.00    -0.337 N 
ATOM      8  H3  UNL     1     123.475  15.297  43.494  1.00  0.00     0.168 HD
BRANCH   7   9
HETATM    9  C11 UNL     1     124.475  15.462  45.344  1.00  0.00     0.149 A 
HETATM   10  N2  UNL     1     125.721  15.038  45.286  1.00  0.00    -0.345 N 
HETATM   11  C10 UNL     1     126.583  15.406  46.176  1.00  0.00     0.115 A 
ATOM     12  H2  UNL     1     126.008  14.414  44.533  1.00  0.00     0.167 HD
HETATM   13  C9  UNL     1     126.156  16.251  47.172  1.00  0.00     0.091 A 
HETATM   14  S1  UNL     1     124.499  16.451  46.736  1.00  0.00    -0.047 SA
BRANCH  13  15
HETATM   15  C8  UNL     1     126.898  16.832  48.291  1.00  0.00     0.264 C 
HETATM   16  N1  UNL     1     128.291  16.899  48.276  1.00  0.00    -0.320 N 
ATOM     17  H1  UNL     1     128.785  16.530  47.463  1.00  0.00     0.169 HD
HETATM   18  O1  UNL     1     126.265  17.280  49.286  1.00  0.00    -0.267 OA
BRANCH  16  19
HETATM   19  C7  UNL     1     129.063  17.457  49.339  1.00  0.00     0.062 A 
HETATM   20  C2  UNL     1     129.607  16.601  50.270  1.00  0.00    -0.034 A 
HETATM   21  C1  UNL     1     129.372  15.155  50.129  1.00  0.00     0.050 C 
HETATM   22  C3  UNL     1     130.369  17.049  51.332  1.00  0.00     0.009 A 
HETATM   23  C4  UNL     1     130.577  18.414  51.440  1.00  0.00     0.002 A 
HETATM   24  C5  UNL     1     130.041  19.282  50.514  1.00  0.00     0.026 A 
HETATM   25  C6  UNL     1     129.271  18.823  49.444  1.00  0.00     0.061 A 
HETATM   26 CL1  UNL     1     128.585  19.913  48.257  1.00  0.00    -0.082 Cl
ENDBRANCH  16  19
ENDBRANCH  13  15
ENDBRANCH   7   9
ENDBRANCH   1   7
BRANCH   3  27
HETATM   27  C15 UNL     1     118.924  13.305  43.538  1.00  0.00     0.252 C 
HETATM   28  O2  UNL     1     118.455  14.012  42.598  1.00  0.00    -0.268 OA
HETATM   29  N4  UNL     1     118.469  11.988  43.656  1.00  0.00    -0.352 N 
ATOM     30  H4  UNL     1     118.858  11.432  44.418  1.00  0.00     0.163 HD
BRANCH  29  31
HETATM   31  C16 UNL     1     117.493  11.336  42.796  1.00  0.00     0.087 C 
HETATM   32  C17 UNL     1     116.096  11.508  43.267  1.00  0.00     0.052 C 
HETATM   33  C18 UNL     1     115.155  10.893  42.253  1.00  0.00     0.234 C 
HETATM   34  N5  UNL     1     115.429   9.476  42.098  1.00  0.00    -0.075 N 
HETATM   35  C19 UNL     1     116.804   9.257  41.693  1.00  0.00     0.234 C 
ATOM     36  H52 UNL     1     115.197   8.953  42.941  1.00  0.00     0.277 HD
ATOM     37  H51 UNL     1     114.773   9.034  41.456  1.00  0.00     0.277 HD
HETATM   38  C20 UNL     1     117.803   9.866  42.642  1.00  0.00     0.052 C 
ENDBRANCH  29  31
ENDBRANCH   3  27
BRANCH   5  39
HETATM   39  C23 UNL     1     119.928  14.977  48.038  1.00  0.00    -0.002 A 
HETATM   40  C24 UNL     1     119.389  16.194  48.386  1.00  0.00     0.014 A 
HETATM   41  C25 UNL     1     118.952  16.504  49.655  1.00  0.00     0.001 A 
HETATM   42  C26 UNL     1     119.052  15.543  50.655  1.00  0.00     0.002 A 
HETATM   43  C27 UNL     1     119.580  14.331  50.341  1.00  0.00     0.027 A 
HETATM   44  C28 UNL     1     120.013  14.050  49.046  1.00  0.00     0.057 A 
HETATM   45  N6  UNL     1     120.549  12.788  48.788  1.00  0.00    -0.102 NA
ENDBRANCH   5  39
TORSDOF 7
ENDMDL
