MODEL 1
REMARK VINA RESULT: -10.180524098      0.000      0.000
REMARK  7 active torsions:
REMARK  status: ('A' for Active; 'I' for Inactive)
REMARK    1  A    between atoms: C7_8  and  N1_9 
REMARK       I    between atoms: N1_9  and  C8_11 
REMARK    2  A    between atoms: C8_11  and  C9_13 
REMARK    3  A    between atoms: C11_17  and  N3_18 
REMARK    4  A    between atoms: N3_18  and  C12_20 
REMARK    5  A    between atoms: C14_22  and  C15_23 
REMARK       I    between atoms: C15_23  and  N4_25 
REMARK    6  A    between atoms: N4_25  and  C16_27 
REMARK    7  A    between atoms: C22_36  and  C23_37 
ROOT
HETATM    1  C12 UNL     1     122.050  14.905  44.945  1.00  0.00     0.035 A 
HETATM    2  C13 UNL     1     121.166  14.301  44.049  1.00  0.00     0.046 A 
HETATM    3  C14 UNL     1     119.896  13.946  44.420  1.00  0.00     0.035 A 
HETATM    4  C21 UNL     1     119.494  14.200  45.723  1.00  0.00     0.029 A 
HETATM    5  C22 UNL     1     120.339  14.800  46.656  1.00  0.00    -0.021 A 
HETATM    6  C29 UNL     1     121.604  15.130  46.211  1.00  0.00     0.042 A 
ENDROOT
BRANCH   1   7
HETATM    7  N3  UNL     1     123.337  15.215  44.512  1.00  0.00    -0.337 N 
ATOM      8  H3  UNL     1     123.483  15.297  43.505  1.00  0.00     0.168 HD
BRANCH   7   9
HETATM    9  C11 UNL     1     124.478  15.429  45.361  1.00  0.00     0.149 A 
HETATM   10  N2  UNL     1     125.723  15.003  45.291  1.00  0.00    -0.345 N 
HETATM   11  C10 UNL     1     126.585  15.344  46.192  1.00  0.00     0.115 A 
ATOM     12  H2  UNL     1     126.008  14.400  44.520  1.00  0.00     0.167 HD
HETATM   13  C9  UNL     1     126.161  16.161  47.211  1.00  0.00     0.091 A 
HETATM   14  S1  UNL     1     124.505  16.378  46.780  1.00  0.00    -0.047 SA
BRANCH  13  15
HETATM   15  C8  UNL     1     126.904  16.708  48.346  1.00  0.00     0.264 C 
HETATM   16  N1  UNL     1     128.258  17.028  48.235  1.00  0.00    -0.320 N 
ATOM     17  H1  UNL     1     128.721  16.869  47.341  1.00  0.00     0.169 HD
HETATM   18  O1  UNL     1     126.309  16.895  49.442  1.00  0.00    -0.267 OA
BRANCH  16  19
HETATM   19  C7  UNL     1     129.029  17.566  49.309  1.00  0.00     0.062 A 
HETATM   20  C2  UNL     1     129.146  18.935  49.407  1.00  0.00    -0.034 A 
HETATM   21  C1  UNL     1     128.474  19.778  48.406  1.00  0.00     0.050 C 
HETATM   22  C3  UNL     1     129.871  19.545  50.412  1.00  0.00     0.009 A 
HETATM   23  C4  UNL     1     130.492  18.728  51.342  1.00  0.00     0.002 A 
HETATM   24  C5  UNL     1     130.381  17.357  51.257  1.00  0.00     0.026 A 
HETATM   25  C6  UNL     1     129.648  16.746  50.239  1.00  0.00     0.061 A 
HETATM   26 CL1  UNL     1     129.495  15.005  50.120  1.00  0.00    -0.082 Cl
ENDBRANCH  16  19
ENDBRANCH  13  15
ENDBRANCH   7   9
ENDBRANCH   1   7
BRANCH   3  27
HETATM   27  C15 UNL     1     118.914  13.337  43.530  1.00  0.00     0.252 C 
HETATM   28  O2  UNL     1     118.475  14.032  42.567  1.00  0.00    -0.268 OA
HETATM   29  N4  UNL     1     118.429  12.033  43.670  1.00  0.00    -0.352 N 
ATOM     30  H4  UNL     1     118.794  11.486  44.450  1.00  0.00     0.163 HD
BRANCH  29  31
HETATM   31  C16 UNL     1     117.454  11.382  42.809  1.00  0.00     0.087 C 
HETATM   32  C17 UNL     1     116.052  11.604  43.247  1.00  0.00     0.052 C 
HETATM   33  C18 UNL     1     115.115  10.985  42.232  1.00  0.00     0.234 C 
HETATM   34  N5  UNL     1     115.355   9.558  42.122  1.00  0.00    -0.075 N 
HETATM   35  C19 UNL     1     116.731   9.292  41.751  1.00  0.00     0.234 C 
ATOM     36  H52 UNL     1     115.093   9.065  42.974  1.00  0.00     0.277 HD
ATOM     37  H51 UNL     1     114.700   9.114  41.479  1.00  0.00     0.277 HD
HETATM   38  C20 UNL     1     117.728   9.901  42.702  1.00  0.00     0.052 C 
ENDBRANCH  29  31
ENDBRANCH   3  27
BRANCH   5  39
HETATM   39  C23 UNL     1     119.896  15.050  48.019  1.00  0.00    -0.002 A 
HETATM   40  C24 UNL     1     119.399  16.287  48.357  1.00  0.00     0.014 A 
HETATM   41  C25 UNL     1     118.956  16.617  49.618  1.00  0.00     0.001 A 
HETATM   42  C26 UNL     1     119.007  15.657  50.622  1.00  0.00     0.002 A 
HETATM   43  C27 UNL     1     119.494  14.425  50.320  1.00  0.00     0.027 A 
HETATM   44  C28 UNL     1     119.933  14.124  49.031  1.00  0.00     0.057 A 
HETATM   45  N6  UNL     1     120.426  12.842  48.784  1.00  0.00    -0.102 NA
ENDBRANCH   5  39
TORSDOF 7
ENDMDL
