MODEL 4
REMARK VINA RESULT: -9.968370087      0.826      1.149
REMARK  7 active torsions:
REMARK  status: ('A' for Active; 'I' for Inactive)
REMARK    1  A    between atoms: C7_8  and  N1_9 
REMARK       I    between atoms: N1_9  and  C8_11 
REMARK    2  A    between atoms: C8_11  and  C9_13 
REMARK    3  A    between atoms: C11_17  and  N3_18 
REMARK    4  A    between atoms: N3_18  and  C12_20 
REMARK    5  A    between atoms: C14_22  and  C15_23 
REMARK       I    between atoms: C15_23  and  N4_25 
REMARK    6  A    between atoms: N4_25  and  C16_27 
REMARK    7  A    between atoms: C22_36  and  C23_37 
ROOT
HETATM    1  C12 UNL     1     121.716  14.773  45.002  1.00  0.00     0.035 A 
HETATM    2  C13 UNL     1     120.879  14.179  44.055  1.00  0.00     0.046 A 
HETATM    3  C14 UNL     1     119.692  13.596  44.411  1.00  0.00     0.035 A 
HETATM    4  C21 UNL     1     119.327  13.603  45.750  1.00  0.00     0.029 A 
HETATM    5  C22 UNL     1     120.128  14.183  46.732  1.00  0.00    -0.021 A 
HETATM    6  C29 UNL     1     121.310  14.752  46.301  1.00  0.00     0.042 A 
ENDROOT
BRANCH   1   7
HETATM    7  N3  UNL     1     122.924  15.324  44.578  1.00  0.00    -0.337 N 
ATOM      8  H3  UNL     1     122.971  15.658  43.615  1.00  0.00     0.168 HD
BRANCH   7   9
HETATM    9  C11 UNL     1     124.110  15.461  45.381  1.00  0.00     0.149 A 
HETATM   10  N2  UNL     1     125.321  14.957  45.259  1.00  0.00    -0.345 N 
HETATM   11  C10 UNL     1     126.239  15.238  46.124  1.00  0.00     0.115 A 
ATOM     12  H2  UNL     1     125.535  14.340  44.476  1.00  0.00     0.167 HD
HETATM   13  C9  UNL     1     125.909  16.075  47.161  1.00  0.00     0.091 A 
HETATM   14  S1  UNL     1     124.254  16.399  46.800  1.00  0.00    -0.047 SA
BRANCH  13  15
HETATM   15  C8  UNL     1     126.731  16.568  48.267  1.00  0.00     0.264 C 
HETATM   16  N1  UNL     1     128.050  16.974  48.060  1.00  0.00    -0.320 N 
ATOM     17  H1  UNL     1     128.432  16.917  47.116  1.00  0.00     0.169 HD
HETATM   18  O1  UNL     1     126.237  16.629  49.426  1.00  0.00    -0.267 OA
BRANCH  16  19
HETATM   19  C7  UNL     1     128.894  17.465  49.101  1.00  0.00     0.062 A 
HETATM   20  C2  UNL     1     128.987  18.828  49.278  1.00  0.00    -0.034 A 
HETATM   21  C1  UNL     1     128.215  19.713  48.393  1.00  0.00     0.050 C 
HETATM   22  C3  UNL     1     129.777  19.393  50.259  1.00  0.00     0.009 A 
HETATM   23  C4  UNL     1     130.492  18.537  51.081  1.00  0.00     0.002 A 
HETATM   24  C5  UNL     1     130.407  17.172  50.916  1.00  0.00     0.026 A 
HETATM   25  C6  UNL     1     129.608  16.606  49.922  1.00  0.00     0.061 A 
HETATM   26 CL1  UNL     1     129.486  14.872  49.701  1.00  0.00    -0.082 Cl
ENDBRANCH  16  19
ENDBRANCH  13  15
ENDBRANCH   7   9
ENDBRANCH   1   7
BRANCH   3  27
HETATM   27  C15 UNL     1     118.759  12.982  43.473  1.00  0.00     0.252 C 
HETATM   28  O2  UNL     1     118.364  13.675  42.490  1.00  0.00    -0.268 OA
HETATM   29  N4  UNL     1     118.274  11.675  43.589  1.00  0.00    -0.352 N 
ATOM     30  H4  UNL     1     118.603  11.130  44.386  1.00  0.00     0.163 HD
BRANCH  29  31
HETATM   31  C16 UNL     1     117.347  11.019  42.680  1.00  0.00     0.087 C 
HETATM   32  C17 UNL     1     115.924  11.293  43.005  1.00  0.00     0.052 C 
HETATM   33  C18 UNL     1     115.046  10.662  41.945  1.00  0.00     0.234 C 
HETATM   34  N5  UNL     1     115.253   9.226  41.901  1.00  0.00    -0.075 N 
HETATM   35  C19 UNL     1     116.645   8.912  41.642  1.00  0.00     0.234 C 
ATOM     36  H52 UNL     1     114.915   8.771  42.748  1.00  0.00     0.277 HD
ATOM     37  H51 UNL     1     114.634   8.777  41.227  1.00  0.00     0.277 HD
HETATM   38  C20 UNL     1     117.585   9.528  42.644  1.00  0.00     0.052 C 
ENDBRANCH  29  31
ENDBRANCH   3  27
BRANCH   5  39
HETATM   39  C23 UNL     1     119.726  14.173  48.131  1.00  0.00    -0.002 A 
HETATM   40  C24 UNL     1     119.674  12.982  48.815  1.00  0.00     0.014 A 
HETATM   41  C25 UNL     1     119.305  12.873  50.138  1.00  0.00     0.001 A 
HETATM   42  C26 UNL     1     118.964  14.024  50.839  1.00  0.00     0.002 A 
HETATM   43  C27 UNL     1     119.006  15.217  50.190  1.00  0.00     0.027 A 
HETATM   44  C28 UNL     1     119.384  15.292  48.850  1.00  0.00     0.057 A 
HETATM   45  N6  UNL     1     119.404  16.545  48.238  1.00  0.00    -0.102 NA
ENDBRANCH   5  39
TORSDOF 7
ENDMDL
