MODEL 12
REMARK VINA RESULT: -9.660065731      2.204      6.103
REMARK  7 active torsions:
REMARK  status: ('A' for Active; 'I' for Inactive)
REMARK    1  A    between atoms: C7_8  and  N1_9 
REMARK       I    between atoms: N1_9  and  C8_11 
REMARK    2  A    between atoms: C8_11  and  C9_13 
REMARK    3  A    between atoms: C11_17  and  N3_18 
REMARK    4  A    between atoms: N3_18  and  C12_20 
REMARK    5  A    between atoms: C14_22  and  C15_23 
REMARK       I    between atoms: C15_23  and  N4_25 
REMARK    6  A    between atoms: N4_25  and  C16_27 
REMARK    7  A    between atoms: C22_36  and  C23_37 
ROOT
HETATM    1  C12 UNL     1     122.304  14.918  45.266  1.00  0.00     0.035 A 
HETATM    2  C13 UNL     1     121.936  15.332  46.547  1.00  0.00     0.046 A 
HETATM    3  C14 UNL     1     120.648  15.693  46.845  1.00  0.00     0.035 A 
HETATM    4  C21 UNL     1     119.698  15.641  45.835  1.00  0.00     0.029 A 
HETATM    5  C22 UNL     1     120.015  15.235  44.540  1.00  0.00    -0.021 A 
HETATM    6  C29 UNL     1     121.332  14.885  44.313  1.00  0.00     0.042 A 
ENDROOT
BRANCH   1   7
HETATM    7  N3  UNL     1     123.636  14.591  45.022  1.00  0.00    -0.337 N 
ATOM      8  H3  UNL     1     123.824  13.936  44.264  1.00  0.00     0.168 HD
BRANCH   7   9
HETATM    9  C11 UNL     1     124.769  15.098  45.749  1.00  0.00     0.149 A 
HETATM   10  N2  UNL     1     126.048  15.182  45.443  1.00  0.00    -0.345 N 
HETATM   11  C10 UNL     1     126.891  15.694  46.279  1.00  0.00     0.115 A 
ATOM     12  H2  UNL     1     126.375  14.840  44.540  1.00  0.00     0.167 HD
HETATM   13  C9  UNL     1     126.408  16.147  47.482  1.00  0.00     0.091 A 
HETATM   14  S1  UNL     1     124.730  15.785  47.312  1.00  0.00    -0.047 SA
BRANCH  13  15
HETATM   15  C8  UNL     1     127.113  16.771  48.601  1.00  0.00     0.264 C 
HETATM   16  N1  UNL     1     128.477  17.058  48.524  1.00  0.00    -0.320 N 
ATOM     17  H1  UNL     1     128.974  16.820  47.666  1.00  0.00     0.169 HD
HETATM   18  O1  UNL     1     126.477  17.056  49.653  1.00  0.00    -0.267 OA
BRANCH  16  19
HETATM   19  C7  UNL     1     129.212  17.669  49.584  1.00  0.00     0.062 A 
HETATM   20  C2  UNL     1     129.345  19.040  49.581  1.00  0.00    -0.034 A 
HETATM   21  C1  UNL     1     128.725  19.812  48.493  1.00  0.00     0.050 C 
HETATM   22  C3  UNL     1     130.039  19.717  50.565  1.00  0.00     0.009 A 
HETATM   23  C4  UNL     1     130.611  18.967  51.579  1.00  0.00     0.002 A 
HETATM   24  C5  UNL     1     130.484  17.595  51.595  1.00  0.00     0.026 A 
HETATM   25  C6  UNL     1     129.783  16.916  50.598  1.00  0.00     0.061 A 
HETATM   26 CL1  UNL     1     129.610  15.173  50.606  1.00  0.00    -0.082 Cl
ENDBRANCH  16  19
ENDBRANCH  13  15
ENDBRANCH   7   9
ENDBRANCH   1   7
BRANCH   3  27
HETATM   27  C15 UNL     1     120.191  16.110  48.165  1.00  0.00     0.252 C 
HETATM   28  O2  UNL     1     118.943  16.207  48.357  1.00  0.00    -0.268 OA
HETATM   29  N4  UNL     1     121.042  16.408  49.234  1.00  0.00    -0.352 N 
ATOM     30  H4  UNL     1     122.045  16.324  49.063  1.00  0.00     0.163 HD
BRANCH  29  31
HETATM   31  C16 UNL     1     120.635  16.825  50.567  1.00  0.00     0.087 C 
HETATM   32  C17 UNL     1     121.115  18.185  50.922  1.00  0.00     0.052 C 
HETATM   33  C18 UNL     1     120.550  18.569  52.273  1.00  0.00     0.234 C 
HETATM   34  N5  UNL     1     120.986  17.633  53.292  1.00  0.00    -0.075 N 
HETATM   35  C19 UNL     1     120.588  16.279  52.956  1.00  0.00     0.234 C 
ATOM     36  H52 UNL     1     121.990  17.699  53.460  1.00  0.00     0.277 HD
ATOM     37  H51 UNL     1     120.657  17.903  54.219  1.00  0.00     0.277 HD
HETATM   38  C20 UNL     1     121.092  15.833  51.609  1.00  0.00     0.052 C 
ENDBRANCH  29  31
ENDBRANCH   3  27
BRANCH   5  39
HETATM   39  C23 UNL     1     119.001  15.193  43.496  1.00  0.00    -0.002 A 
HETATM   40  C24 UNL     1     118.555  16.367  42.935  1.00  0.00     0.014 A 
HETATM   41  C25 UNL     1     117.600  16.428  41.944  1.00  0.00     0.001 A 
HETATM   42  C26 UNL     1     117.044  15.245  41.471  1.00  0.00     0.002 A 
HETATM   43  C27 UNL     1     117.464  14.070  42.007  1.00  0.00     0.027 A 
HETATM   44  C28 UNL     1     118.434  14.043  43.009  1.00  0.00     0.057 A 
HETATM   45  N6  UNL     1     118.821  12.804  43.520  1.00  0.00    -0.102 NA
ENDBRANCH   5  39
TORSDOF 7
ENDMDL
