MODEL 9
REMARK VINA RESULT: -9.805230912      2.809      5.629
REMARK  7 active torsions:
REMARK  status: ('A' for Active; 'I' for Inactive)
REMARK    1  A    between atoms: C7_8  and  N1_9 
REMARK       I    between atoms: N1_9  and  C8_11 
REMARK    2  A    between atoms: C8_11  and  C9_13 
REMARK    3  A    between atoms: C11_17  and  N3_18 
REMARK    4  A    between atoms: N3_18  and  C12_20 
REMARK    5  A    between atoms: C14_22  and  C15_23 
REMARK       I    between atoms: C15_23  and  N4_25 
REMARK    6  A    between atoms: N4_25  and  C16_27 
REMARK    7  A    between atoms: C22_36  and  C23_37 
ROOT
HETATM    1  C12 UNL     1     122.217  14.942  45.282  1.00  0.00     0.035 A 
HETATM    2  C13 UNL     1     121.987  14.327  46.514  1.00  0.00     0.046 A 
HETATM    3  C14 UNL     1     120.724  14.202  47.030  1.00  0.00     0.035 A 
HETATM    4  C21 UNL     1     119.658  14.705  46.298  1.00  0.00     0.029 A 
HETATM    5  C22 UNL     1     119.836  15.327  45.063  1.00  0.00    -0.021 A 
HETATM    6  C29 UNL     1     121.136  15.417  44.606  1.00  0.00     0.042 A 
ENDROOT
BRANCH   1   7
HETATM    7  N3  UNL     1     123.528  15.062  44.827  1.00  0.00    -0.337 N 
ATOM      8  H3  UNL     1     123.693  14.898  43.834  1.00  0.00     0.168 HD
BRANCH   7   9
HETATM    9  C11 UNL     1     124.669  15.397  45.637  1.00  0.00     0.149 A 
HETATM   10  N2  UNL     1     125.940  15.065  45.551  1.00  0.00    -0.345 N 
HETATM   11  C10 UNL     1     126.795  15.507  46.414  1.00  0.00     0.115 A 
ATOM     12  H2  UNL     1     126.253  14.453  44.797  1.00  0.00     0.167 HD
HETATM   13  C9  UNL     1     126.333  16.331  47.411  1.00  0.00     0.091 A 
HETATM   14  S1  UNL     1     124.655  16.404  47.016  1.00  0.00    -0.047 SA
BRANCH  13  15
HETATM   15  C8  UNL     1     127.058  16.979  48.504  1.00  0.00     0.264 C 
HETATM   16  N1  UNL     1     128.453  17.009  48.526  1.00  0.00    -0.320 N 
ATOM     17  H1  UNL     1     128.959  16.564  47.760  1.00  0.00     0.169 HD
HETATM   18  O1  UNL     1     126.410  17.522  49.440  1.00  0.00    -0.267 OA
BRANCH  16  19
HETATM   19  C7  UNL     1     129.209  17.630  49.565  1.00  0.00     0.062 A 
HETATM   20  C2  UNL     1     129.755  16.828  50.544  1.00  0.00    -0.034 A 
HETATM   21  C1  UNL     1     129.537  15.374  50.474  1.00  0.00     0.050 C 
HETATM   22  C3  UNL     1     130.502  17.339  51.587  1.00  0.00     0.009 A 
HETATM   23  C4  UNL     1     130.694  18.710  51.627  1.00  0.00     0.002 A 
HETATM   24  C5  UNL     1     130.155  19.523  50.654  1.00  0.00     0.026 A 
HETATM   25  C6  UNL     1     129.400  19.002  49.603  1.00  0.00     0.061 A 
HETATM   26 CL1  UNL     1     128.712  20.022  48.356  1.00  0.00    -0.082 Cl
ENDBRANCH  16  19
ENDBRANCH  13  15
ENDBRANCH   7   9
ENDBRANCH   1   7
BRANCH   3  27
HETATM   27  C15 UNL     1     120.409  13.549  48.296  1.00  0.00     0.252 C 
HETATM   28  O2  UNL     1     119.712  12.493  48.262  1.00  0.00    -0.268 OA
HETATM   29  N4  UNL     1     120.831  14.015  49.546  1.00  0.00    -0.352 N 
ATOM     30  H4  UNL     1     121.393  14.866  49.556  1.00  0.00     0.163 HD
BRANCH  29  31
HETATM   31  C16 UNL     1     120.545  13.399  50.833  1.00  0.00     0.087 C 
HETATM   32  C17 UNL     1     119.580  14.179  51.649  1.00  0.00     0.052 C 
HETATM   33  C18 UNL     1     119.265  13.407  52.912  1.00  0.00     0.234 C 
HETATM   34  N5  UNL     1     120.471  13.188  53.689  1.00  0.00    -0.075 N 
HETATM   35  C19 UNL     1     121.466  12.477  52.910  1.00  0.00     0.234 C 
ATOM     36  H52 UNL     1     120.841  14.060  54.065  1.00  0.00     0.277 HD
ATOM     37  H51 UNL     1     120.272  12.712  54.568  1.00  0.00     0.277 HD
HETATM   38  C20 UNL     1     121.814  13.173  51.620  1.00  0.00     0.052 C 
ENDBRANCH  29  31
ENDBRANCH   3  27
BRANCH   5  39
HETATM   39  C23 UNL     1     118.702  15.852  44.317  1.00  0.00    -0.002 A 
HETATM   40  C24 UNL     1     117.823  16.712  44.931  1.00  0.00     0.014 A 
HETATM   41  C25 UNL     1     116.723  17.259  44.308  1.00  0.00     0.001 A 
HETATM   42  C26 UNL     1     116.472  16.934  42.979  1.00  0.00     0.002 A 
HETATM   43  C27 UNL     1     117.323  16.086  42.345  1.00  0.00     0.027 A 
HETATM   44  C28 UNL     1     118.428  15.551  43.006  1.00  0.00     0.057 A 
HETATM   45  N6  UNL     1     119.263  14.684  42.302  1.00  0.00    -0.102 NA
ENDBRANCH   5  39
TORSDOF 7
ENDMDL
