MODEL 11
REMARK VINA RESULT: -9.670001530      1.515      1.630
REMARK  7 active torsions:
REMARK  status: ('A' for Active; 'I' for Inactive)
REMARK    1  A    between atoms: C7_8  and  N1_9 
REMARK       I    between atoms: N1_9  and  C8_11 
REMARK    2  A    between atoms: C8_11  and  C9_13 
REMARK    3  A    between atoms: C11_17  and  N3_18 
REMARK    4  A    between atoms: N3_18  and  C12_20 
REMARK    5  A    between atoms: C14_22  and  C15_23 
REMARK       I    between atoms: C15_23  and  N4_25 
REMARK    6  A    between atoms: N4_25  and  C16_27 
REMARK    7  A    between atoms: C22_36  and  C23_37 
ROOT
HETATM    1  C12 UNL     1     122.785  15.143  45.546  1.00  0.00     0.035 A 
HETATM    2  C13 UNL     1     121.662  14.704  44.844  1.00  0.00     0.046 A 
HETATM    3  C14 UNL     1     120.408  14.749  45.394  1.00  0.00     0.035 A 
HETATM    4  C21 UNL     1     120.268  15.246  46.682  1.00  0.00     0.029 A 
HETATM    5  C22 UNL     1     121.359  15.696  47.424  1.00  0.00    -0.021 A 
HETATM    6  C29 UNL     1     122.592  15.621  46.806  1.00  0.00     0.042 A 
ENDROOT
BRANCH   1   7
HETATM    7  N3  UNL     1     124.036  15.044  44.941  1.00  0.00    -0.337 N 
ATOM      8  H3  UNL     1     124.057  14.777  43.957  1.00  0.00     0.168 HD
BRANCH   7   9
HETATM    9  C11 UNL     1     125.300  15.285  45.584  1.00  0.00     0.149 A 
HETATM   10  N2  UNL     1     126.537  14.998  45.234  1.00  0.00    -0.345 N 
HETATM   11  C10 UNL     1     127.529  15.330  45.994  1.00  0.00     0.115 A 
ATOM     12  H2  UNL     1     126.714  14.510  44.356  1.00  0.00     0.167 HD
HETATM   13  C9  UNL     1     127.247  15.990  47.165  1.00  0.00     0.091 A 
HETATM   14  S1  UNL     1     125.527  16.079  47.079  1.00  0.00    -0.047 SA
BRANCH  13  15
HETATM   15  C8  UNL     1     128.151  16.490  48.201  1.00  0.00     0.264 C 
HETATM   16  N1  UNL     1     127.765  17.519  49.061  1.00  0.00    -0.320 N 
ATOM     17  H1  UNL     1     126.833  17.919  48.949  1.00  0.00     0.169 HD
HETATM   18  O1  UNL     1     129.299  15.980  48.320  1.00  0.00    -0.267 OA
BRANCH  16  19
HETATM   19  C7  UNL     1     128.605  18.041  50.090  1.00  0.00     0.062 A 
HETATM   20  C2  UNL     1     129.329  19.183  49.824  1.00  0.00    -0.034 A 
HETATM   21  C1  UNL     1     129.204  19.811  48.500  1.00  0.00     0.050 C 
HETATM   22  C3  UNL     1     130.167  19.760  50.758  1.00  0.00     0.009 A 
HETATM   23  C4  UNL     1     130.264  19.150  51.997  1.00  0.00     0.002 A 
HETATM   24  C5  UNL     1     129.544  18.009  52.277  1.00  0.00     0.026 A 
HETATM   25  C6  UNL     1     128.700  17.429  51.329  1.00  0.00     0.061 A 
HETATM   26 CL1  UNL     1     127.775  15.981  51.670  1.00  0.00    -0.082 Cl
ENDBRANCH  16  19
ENDBRANCH  13  15
ENDBRANCH   7   9
ENDBRANCH   1   7
BRANCH   3  27
HETATM   27  C15 UNL     1     119.190  14.331  44.709  1.00  0.00     0.252 C 
HETATM   28  O2  UNL     1     118.473  15.227  44.174  1.00  0.00    -0.268 OA
HETATM   29  N4  UNL     1     118.764  13.003  44.603  1.00  0.00    -0.352 N 
ATOM     30  H4  UNL     1     119.353  12.293  45.039  1.00  0.00     0.163 HD
BRANCH  29  31
HETATM   31  C16 UNL     1     117.561  12.538  43.930  1.00  0.00     0.087 C 
HETATM   32  C17 UNL     1     116.452  12.231  44.869  1.00  0.00     0.052 C 
HETATM   33  C18 UNL     1     115.218  11.864  44.071  1.00  0.00     0.234 C 
HETATM   34  N5  UNL     1     115.475  10.698  43.246  1.00  0.00    -0.075 N 
HETATM   35  C19 UNL     1     116.591  10.933  42.351  1.00  0.00     0.234 C 
ATOM     36  H52 UNL     1     115.614   9.860  43.810  1.00  0.00     0.277 HD
ATOM     37  H51 UNL     1     114.640  10.405  42.738  1.00  0.00     0.277 HD
HETATM   38  C20 UNL     1     117.852  11.330  43.071  1.00  0.00     0.052 C 
ENDBRANCH  29  31
ENDBRANCH   3  27
BRANCH   5  39
HETATM   39  C23 UNL     1     121.188  16.208  48.775  1.00  0.00    -0.002 A 
HETATM   40  C24 UNL     1     121.082  17.564  48.981  1.00  0.00     0.014 A 
HETATM   41  C25 UNL     1     120.918  18.141  50.220  1.00  0.00     0.001 A 
HETATM   42  C26 UNL     1     120.853  17.321  51.341  1.00  0.00     0.002 A 
HETATM   43  C27 UNL     1     120.955  15.977  51.170  1.00  0.00     0.027 A 
HETATM   44  C28 UNL     1     121.119  15.425  49.900  1.00  0.00     0.057 A 
HETATM   45  N6  UNL     1     121.221  14.039  49.791  1.00  0.00    -0.102 NA
ENDBRANCH   5  39
TORSDOF 7
ENDMDL
