MODEL 10
REMARK VINA RESULT: -9.733168529      1.702      1.938
REMARK  7 active torsions:
REMARK  status: ('A' for Active; 'I' for Inactive)
REMARK    1  A    between atoms: C7_8  and  N1_9 
REMARK       I    between atoms: N1_9  and  C8_11 
REMARK    2  A    between atoms: C8_11  and  C9_13 
REMARK    3  A    between atoms: C11_17  and  N3_18 
REMARK    4  A    between atoms: N3_18  and  C12_20 
REMARK    5  A    between atoms: C14_22  and  C15_23 
REMARK       I    between atoms: C15_23  and  N4_25 
REMARK    6  A    between atoms: N4_25  and  C16_27 
REMARK    7  A    between atoms: C22_36  and  C23_37 
ROOT
HETATM    1  C12 UNL     1     122.494  14.999  45.153  1.00  0.00     0.035 A 
HETATM    2  C13 UNL     1     121.528  14.948  44.147  1.00  0.00     0.046 A 
HETATM    3  C14 UNL     1     120.190  15.035  44.429  1.00  0.00     0.035 A 
HETATM    4  C21 UNL     1     119.802  15.178  45.753  1.00  0.00     0.029 A 
HETATM    5  C22 UNL     1     120.728  15.234  46.794  1.00  0.00    -0.021 A 
HETATM    6  C29 UNL     1     122.058  15.140  46.435  1.00  0.00     0.042 A 
ENDROOT
BRANCH   1   7
HETATM    7  N3  UNL     1     123.836  14.876  44.802  1.00  0.00    -0.337 N 
ATOM      8  H3  UNL     1     124.043  14.477  43.886  1.00  0.00     0.168 HD
BRANCH   7   9
HETATM    9  C11 UNL     1     124.955  15.261  45.620  1.00  0.00     0.149 A 
HETATM   10  N2  UNL     1     126.255  15.121  45.459  1.00  0.00    -0.345 N 
HETATM   11  C10 UNL     1     127.079  15.565  46.351  1.00  0.00     0.115 A 
ATOM     12  H2  UNL     1     126.614  14.659  44.624  1.00  0.00     0.167 HD
HETATM   13  C9  UNL     1     126.553  16.185  47.458  1.00  0.00     0.091 A 
HETATM   14  S1  UNL     1     124.866  16.073  47.119  1.00  0.00    -0.047 SA
BRANCH  13  15
HETATM   15  C8  UNL     1     127.231  16.784  48.608  1.00  0.00     0.264 C 
HETATM   16  N1  UNL     1     128.589  17.100  48.561  1.00  0.00    -0.320 N 
ATOM     17  H1  UNL     1     129.103  16.900  47.702  1.00  0.00     0.169 HD
HETATM   18  O1  UNL     1     126.574  17.021  49.659  1.00  0.00    -0.267 OA
BRANCH  16  19
HETATM   19  C7  UNL     1     129.298  17.687  49.651  1.00  0.00     0.062 A 
HETATM   20  C2  UNL     1     129.430  19.058  49.681  1.00  0.00    -0.034 A 
HETATM   21  C1  UNL     1     128.836  19.853  48.594  1.00  0.00     0.050 C 
HETATM   22  C3  UNL     1     130.098  19.715  50.696  1.00  0.00     0.009 A 
HETATM   23  C4  UNL     1     130.646  18.943  51.708  1.00  0.00     0.002 A 
HETATM   24  C5  UNL     1     130.520  17.572  51.691  1.00  0.00     0.026 A 
HETATM   25  C6  UNL     1     129.845  16.913  50.662  1.00  0.00     0.061 A 
HETATM   26 CL1  UNL     1     129.673  15.171  50.629  1.00  0.00    -0.082 Cl
ENDBRANCH  16  19
ENDBRANCH  13  15
ENDBRANCH   7   9
ENDBRANCH   1   7
BRANCH   3  27
HETATM   27  C15 UNL     1     119.131  15.015  43.426  1.00  0.00     0.252 C 
HETATM   28  O2  UNL     1     118.083  15.687  43.656  1.00  0.00    -0.268 OA
HETATM   29  N4  UNL     1     119.200  14.302  42.225  1.00  0.00    -0.352 N 
ATOM     30  H4  UNL     1     120.052  13.767  42.054  1.00  0.00     0.163 HD
BRANCH  29  31
HETATM   31  C16 UNL     1     118.173  14.252  41.195  1.00  0.00     0.087 C 
HETATM   32  C17 UNL     1     117.384  12.994  41.223  1.00  0.00     0.052 C 
HETATM   33  C18 UNL     1     116.277  13.084  40.194  1.00  0.00     0.234 C 
HETATM   34  N5  UNL     1     116.832  13.265  38.865  1.00  0.00    -0.075 N 
HETATM   35  C19 UNL     1     117.659  14.454  38.807  1.00  0.00     0.234 C 
ATOM     36  H52 UNL     1     117.339  12.438  38.552  1.00  0.00     0.277 HD
ATOM     37  H51 UNL     1     116.103  13.278  38.151  1.00  0.00     0.277 HD
HETATM   38  C20 UNL     1     118.771  14.450  39.823  1.00  0.00     0.052 C 
ENDBRANCH  29  31
ENDBRANCH   3  27
BRANCH   5  39
HETATM   39  C23 UNL     1     120.296  15.378  48.176  1.00  0.00    -0.002 A 
HETATM   40  C24 UNL     1     119.975  16.624  48.662  1.00  0.00     0.014 A 
HETATM   41  C25 UNL     1     119.557  16.860  49.953  1.00  0.00     0.001 A 
HETATM   42  C26 UNL     1     119.447  15.787  50.831  1.00  0.00     0.002 A 
HETATM   43  C27 UNL     1     119.756  14.543  50.380  1.00  0.00     0.027 A 
HETATM   44  C28 UNL     1     120.176  14.340  49.066  1.00  0.00     0.057 A 
HETATM   45  N6  UNL     1     120.483  13.040  48.664  1.00  0.00    -0.102 NA
ENDBRANCH   5  39
TORSDOF 7
ENDMDL
