MODEL 8
REMARK VINA RESULT: -9.847367829      2.664      5.450
REMARK  7 active torsions:
REMARK  status: ('A' for Active; 'I' for Inactive)
REMARK    1  A    between atoms: C7_8  and  N1_9 
REMARK       I    between atoms: N1_9  and  C8_11 
REMARK    2  A    between atoms: C8_11  and  C9_13 
REMARK    3  A    between atoms: C11_17  and  N3_18 
REMARK    4  A    between atoms: N3_18  and  C12_20 
REMARK    5  A    between atoms: C14_22  and  C15_23 
REMARK       I    between atoms: C15_23  and  N4_25 
REMARK    6  A    between atoms: N4_25  and  C16_27 
REMARK    7  A    between atoms: C22_36  and  C23_37 
ROOT
HETATM    1  C12 UNL     1     122.229  14.973  45.270  1.00  0.00     0.035 A 
HETATM    2  C13 UNL     1     121.998  14.355  46.500  1.00  0.00     0.046 A 
HETATM    3  C14 UNL     1     120.735  14.225  47.014  1.00  0.00     0.035 A 
HETATM    4  C21 UNL     1     119.669  14.727  46.282  1.00  0.00     0.029 A 
HETATM    5  C22 UNL     1     119.847  15.354  45.049  1.00  0.00    -0.021 A 
HETATM    6  C29 UNL     1     121.147  15.448  44.593  1.00  0.00     0.042 A 
ENDROOT
BRANCH   1   7
HETATM    7  N3  UNL     1     123.540  15.098  44.817  1.00  0.00    -0.337 N 
ATOM      8  H3  UNL     1     123.703  14.964  43.819  1.00  0.00     0.168 HD
BRANCH   7   9
HETATM    9  C11 UNL     1     124.685  15.399  45.635  1.00  0.00     0.149 A 
HETATM   10  N2  UNL     1     125.961  15.097  45.513  1.00  0.00    -0.345 N 
HETATM   11  C10 UNL     1     126.817  15.495  46.394  1.00  0.00     0.115 A 
ATOM     12  H2  UNL     1     126.275  14.544  44.715  1.00  0.00     0.167 HD
HETATM   13  C9  UNL     1     126.353  16.241  47.450  1.00  0.00     0.091 A 
HETATM   14  S1  UNL     1     124.669  16.308  47.080  1.00  0.00    -0.047 SA
BRANCH  13  15
HETATM   15  C8  UNL     1     127.079  16.826  48.577  1.00  0.00     0.264 C 
HETATM   16  N1  UNL     1     128.448  17.088  48.495  1.00  0.00    -0.320 N 
ATOM     17  H1  UNL     1     128.933  16.859  47.628  1.00  0.00     0.169 HD
HETATM   18  O1  UNL     1     126.457  17.101  49.639  1.00  0.00    -0.267 OA
BRANCH  16  19
HETATM   19  C7  UNL     1     129.204  17.660  49.562  1.00  0.00     0.062 A 
HETATM   20  C2  UNL     1     129.371  19.028  49.583  1.00  0.00    -0.034 A 
HETATM   21  C1  UNL     1     128.765  19.834  48.512  1.00  0.00     0.050 C 
HETATM   22  C3  UNL     1     130.086  19.669  50.576  1.00  0.00     0.009 A 
HETATM   23  C4  UNL     1     130.644  18.887  51.573  1.00  0.00     0.002 A 
HETATM   24  C5  UNL     1     130.482  17.519  51.565  1.00  0.00     0.026 A 
HETATM   25  C6  UNL     1     129.760  16.875  50.559  1.00  0.00     0.061 A 
HETATM   26 CL1  UNL     1     129.542  15.137  50.537  1.00  0.00    -0.082 Cl
ENDBRANCH  16  19
ENDBRANCH  13  15
ENDBRANCH   7   9
ENDBRANCH   1   7
BRANCH   3  27
HETATM   27  C15 UNL     1     120.421  13.569  48.278  1.00  0.00     0.252 C 
HETATM   28  O2  UNL     1     119.751  12.495  48.238  1.00  0.00    -0.268 OA
HETATM   29  N4  UNL     1     120.814  14.048  49.532  1.00  0.00    -0.352 N 
ATOM     30  H4  UNL     1     121.354  14.914  49.546  1.00  0.00     0.163 HD
BRANCH  29  31
HETATM   31  C16 UNL     1     120.526  13.429  50.817  1.00  0.00     0.087 C 
HETATM   32  C17 UNL     1     119.615  14.242  51.662  1.00  0.00     0.052 C 
HETATM   33  C18 UNL     1     119.291  13.468  52.922  1.00  0.00     0.234 C 
HETATM   34  N5  UNL     1     120.502  13.184  53.671  1.00  0.00    -0.075 N 
HETATM   35  C19 UNL     1     121.447  12.439  52.862  1.00  0.00     0.234 C 
ATOM     36  H52 UNL     1     120.918  14.034  54.050  1.00  0.00     0.277 HD
ATOM     37  H51 UNL     1     120.299  12.706  54.548  1.00  0.00     0.277 HD
HETATM   38  C20 UNL     1     121.800  13.135  51.574  1.00  0.00     0.052 C 
ENDBRANCH  29  31
ENDBRANCH   3  27
BRANCH   5  39
HETATM   39  C23 UNL     1     118.713  15.878  44.302  1.00  0.00    -0.002 A 
HETATM   40  C24 UNL     1     117.839  16.746  44.914  1.00  0.00     0.014 A 
HETATM   41  C25 UNL     1     116.739  17.292  44.290  1.00  0.00     0.001 A 
HETATM   42  C26 UNL     1     116.483  16.959  42.965  1.00  0.00     0.002 A 
HETATM   43  C27 UNL     1     117.329  16.103  42.334  1.00  0.00     0.027 A 
HETATM   44  C28 UNL     1     118.433  15.568  42.995  1.00  0.00     0.057 A 
HETATM   45  N6  UNL     1     119.263  14.693  42.294  1.00  0.00    -0.102 NA
ENDBRANCH   5  39
TORSDOF 7
ENDMDL
