MODEL 9
REMARK VINA RESULT: -9.393210503      1.590      1.904
REMARK  6 active torsions:
REMARK  status: ('A' for Active; 'I' for Inactive)
REMARK    1  A    between atoms: C7_8  and  N1_9 
REMARK       I    between atoms: N1_9  and  C8_11 
REMARK    2  A    between atoms: C8_11  and  C9_13 
REMARK    3  A    between atoms: C11_17  and  N3_18 
REMARK    4  A    between atoms: N3_18  and  C12_20 
REMARK    5  A    between atoms: C14_22  and  N4_23 
REMARK    6  A    between atoms: C20_30  and  S1_31 
ROOT
HETATM    1  C9  UNL     1    -101.500 -15.161  45.834  1.00  0.00     0.091 A 
HETATM    2  C10 UNL     1    -100.275 -15.122  46.444  1.00  0.00     0.115 A 
HETATM    3  N2  UNL     1     -99.277 -14.659  45.768  1.00  0.00    -0.345 N 
ATOM      4  H2  UNL     1     -98.354 -14.619  46.200  1.00  0.00     0.167 HD
HETATM    5  C11 UNL     1     -99.432 -14.236  44.529  1.00  0.00     0.149 A 
HETATM    6  S2  UNL     1    -101.129 -14.516  44.299  1.00  0.00    -0.047 SA
ENDROOT
BRANCH   5   7
HETATM    7  N3  UNL     1     -98.549 -13.690  43.563  1.00  0.00    -0.336 N 
ATOM      8  H3  UNL     1     -98.936 -13.340  42.687  1.00  0.00     0.168 HD
BRANCH   7   9
HETATM    9  C12 UNL     1     -97.166 -13.616  43.767  1.00  0.00     0.037 A 
HETATM   10  C13 UNL     1     -96.354 -13.875  42.657  1.00  0.00     0.059 A 
HETATM   11  C14 UNL     1     -94.981 -13.839  42.702  1.00  0.00     0.033 A 
HETATM   12  C19 UNL     1     -94.393 -13.524  43.938  1.00  0.00     0.053 A 
HETATM   13  C20 UNL     1     -95.154 -13.265  45.047  1.00  0.00     0.063 A 
HETATM   14  C22 UNL     1     -96.549 -13.313  44.953  1.00  0.00     0.053 A 
BRANCH  11  15
HETATM   15  N4  UNL     1     -94.119 -14.094  41.612  1.00  0.00    -0.377 N 
HETATM   16  C15 UNL     1     -93.312 -15.278  41.536  1.00  0.00     0.149 C 
HETATM   17  C16 UNL     1     -93.748 -16.014  40.285  1.00  0.00     0.187 C 
HETATM   18  O2  UNL     1     -93.697 -15.183  39.186  1.00  0.00    -0.388 OA
HETATM   19  C17 UNL     1     -93.192 -13.919  39.430  1.00  0.00     0.187 C 
HETATM   20  C18 UNL     1     -93.999 -13.175  40.500  1.00  0.00     0.149 C 
ENDBRANCH  11  15
BRANCH  13  21
HETATM   21  S1  UNL     1     -94.375 -12.879  46.557  1.00  0.00     0.172 S 
HETATM   22  C21 UNL     1     -92.630 -13.119  46.345  1.00  0.00     0.167 C 
HETATM   23  O3  UNL     1     -94.715 -11.487  46.973  1.00  0.00    -0.223 OA
HETATM   24  O4  UNL     1     -94.846 -13.841  47.626  1.00  0.00    -0.223 OA
ENDBRANCH  13  21
ENDBRANCH   7   9
ENDBRANCH   5   7
BRANCH   1  25
HETATM   25  C8  UNL     1    -102.789 -15.631  46.358  1.00  0.00     0.264 C 
HETATM   26  N1  UNL     1    -102.875 -16.477  47.465  1.00  0.00    -0.320 N 
ATOM     27  H1  UNL     1    -102.003 -16.765  47.908  1.00  0.00     0.169 HD
HETATM   28  O1  UNL     1    -103.846 -15.258  45.792  1.00  0.00    -0.267 OA
BRANCH  26  29
HETATM   29  C7  UNL     1    -104.084 -16.967  48.020  1.00  0.00     0.062 A 
HETATM   30  C2  UNL     1    -104.643 -18.131  47.595  1.00  0.00    -0.034 A 
HETATM   31  C1  UNL     1    -103.957 -18.893  46.525  1.00  0.00     0.050 C 
HETATM   32  C3  UNL     1    -105.837 -18.569  48.176  1.00  0.00     0.009 A 
HETATM   33  C4  UNL     1    -106.446 -17.815  49.182  1.00  0.00     0.002 A 
HETATM   34  C5  UNL     1    -105.870 -16.640  49.602  1.00  0.00     0.026 A 
HETATM   35  C6  UNL     1    -104.688 -16.225  49.013  1.00  0.00     0.061 A 
HETATM   36 CL1  UNL     1    -103.941 -14.725  49.542  1.00  0.00    -0.082 Cl
ENDBRANCH  26  29
ENDBRANCH   1  25
TORSDOF 6
ENDMDL
