MODEL 1
REMARK VINA RESULT: -9.996335470      0.000      0.000
REMARK  6 active torsions:
REMARK  status: ('A' for Active; 'I' for Inactive)
REMARK    1  A    between atoms: C7_8  and  N1_9 
REMARK       I    between atoms: N1_9  and  C8_11 
REMARK    2  A    between atoms: C8_11  and  C9_13 
REMARK    3  A    between atoms: C11_17  and  N3_18 
REMARK    4  A    between atoms: N3_18  and  C12_20 
REMARK    5  A    between atoms: C14_22  and  N4_23 
REMARK    6  A    between atoms: C20_30  and  S1_31 
ROOT
HETATM    1  C9  UNL     1    -101.912 -15.204  45.624  1.00  0.00     0.091 A 
HETATM    2  C10 UNL     1    -102.333 -14.486  44.536  1.00  0.00     0.115 A 
HETATM    3  N2  UNL     1    -101.434 -13.986  43.757  1.00  0.00    -0.345 N 
ATOM      4  H2  UNL     1    -101.722 -13.447  42.940  1.00  0.00     0.167 HD
HETATM    5  C11 UNL     1    -100.150 -14.161  43.998  1.00  0.00     0.149 A 
HETATM    6  S2  UNL     1    -100.218 -15.111  45.449  1.00  0.00    -0.047 SA
ENDROOT
BRANCH   5   7
HETATM    7  N3  UNL     1     -98.964 -13.745  43.341  1.00  0.00    -0.336 N 
ATOM      8  H3  UNL     1     -99.018 -13.457  42.365  1.00  0.00     0.168 HD
BRANCH   7   9
HETATM    9  C12 UNL     1     -97.721 -13.718  43.985  1.00  0.00     0.037 A 
HETATM   10  C13 UNL     1     -96.630 -14.215  43.262  1.00  0.00     0.059 A 
HETATM   11  C14 UNL     1     -95.349 -14.254  43.759  1.00  0.00     0.033 A 
HETATM   12  C19 UNL     1     -95.158 -13.761  45.061  1.00  0.00     0.053 A 
HETATM   13  C20 UNL     1     -96.200 -13.266  45.800  1.00  0.00     0.063 A 
HETATM   14  C22 UNL     1     -97.487 -13.248  45.251  1.00  0.00     0.053 A 
BRANCH  11  15
HETATM   15  N4  UNL     1     -94.219 -14.746  43.072  1.00  0.00    -0.377 N 
HETATM   16  C15 UNL     1     -94.177 -14.845  41.641  1.00  0.00     0.149 C 
HETATM   17  C16 UNL     1     -93.032 -13.964  41.184  1.00  0.00     0.187 C 
HETATM   18  O2  UNL     1     -91.867 -14.297  41.841  1.00  0.00    -0.388 OA
HETATM   19  C17 UNL     1     -91.962 -15.387  42.687  1.00  0.00     0.187 C 
HETATM   20  C18 UNL     1     -93.028 -15.182  43.770  1.00  0.00     0.149 C 
ENDBRANCH  11  15
BRANCH  13  21
HETATM   21  S1  UNL     1     -95.909 -12.668  47.410  1.00  0.00     0.172 S 
HETATM   22  C21 UNL     1     -95.406 -14.040  48.417  1.00  0.00     0.167 C 
HETATM   23  O3  UNL     1     -94.891 -11.577  47.380  1.00  0.00    -0.223 OA
HETATM   24  O4  UNL     1     -97.198 -12.123  47.985  1.00  0.00    -0.223 OA
ENDBRANCH  13  21
ENDBRANCH   7   9
ENDBRANCH   5   7
BRANCH   1  25
HETATM   25  C8  UNL     1    -102.704 -15.876  46.663  1.00  0.00     0.264 C 
HETATM   26  N1  UNL     1    -104.063 -16.152  46.496  1.00  0.00    -0.320 N 
ATOM     27  H1  UNL     1    -104.497 -15.871  45.617  1.00  0.00     0.169 HD
HETATM   28  O1  UNL     1    -102.141 -16.211  47.734  1.00  0.00    -0.267 OA
BRANCH  26  29
HETATM   29  C7  UNL     1    -104.884 -16.795  47.457  1.00  0.00     0.062 A 
HETATM   30  C2  UNL     1    -105.041 -18.144  47.471  1.00  0.00    -0.034 A 
HETATM   31  C1  UNL     1    -104.329 -18.948  46.449  1.00  0.00     0.050 C 
HETATM   32  C3  UNL     1    -105.863 -18.728  48.440  1.00  0.00     0.009 A 
HETATM   33  C4  UNL     1    -106.513 -17.928  49.382  1.00  0.00     0.002 A 
HETATM   34  C5  UNL     1    -106.345 -16.565  49.357  1.00  0.00     0.026 A 
HETATM   35  C6  UNL     1    -105.528 -16.008  48.389  1.00  0.00     0.061 A 
HETATM   36 CL1  UNL     1    -105.304 -14.266  48.346  1.00  0.00    -0.082 Cl
ENDBRANCH  26  29
ENDBRANCH   1  25
TORSDOF 6
ENDMDL
