MODEL 12
REMARK VINA RESULT: -9.150975054      1.518      1.685
REMARK  6 active torsions:
REMARK  status: ('A' for Active; 'I' for Inactive)
REMARK    1  A    between atoms: C7_8  and  N1_9 
REMARK       I    between atoms: N1_9  and  C8_11 
REMARK    2  A    between atoms: C8_11  and  C9_13 
REMARK    3  A    between atoms: C11_17  and  N3_18 
REMARK    4  A    between atoms: N3_18  and  C12_20 
REMARK    5  A    between atoms: C14_22  and  N4_23 
REMARK    6  A    between atoms: C20_30  and  S1_31 
ROOT
HETATM    1  C9  UNL     1    -101.512 -15.149  45.820  1.00  0.00     0.091 A 
HETATM    2  C10 UNL     1    -100.283 -15.109  46.423  1.00  0.00     0.115 A 
HETATM    3  N2  UNL     1     -99.290 -14.642  45.743  1.00  0.00    -0.345 N 
ATOM      4  H2  UNL     1     -98.365 -14.602  46.170  1.00  0.00     0.167 HD
HETATM    5  C11 UNL     1     -99.453 -14.216  44.506  1.00  0.00     0.149 A 
HETATM    6  S2  UNL     1    -101.151 -14.499  44.285  1.00  0.00    -0.047 SA
ENDROOT
BRANCH   5   7
HETATM    7  N3  UNL     1     -98.577 -13.666  43.536  1.00  0.00    -0.336 N 
ATOM      8  H3  UNL     1     -98.970 -13.307  42.667  1.00  0.00     0.168 HD
BRANCH   7   9
HETATM    9  C12 UNL     1     -97.192 -13.599  43.729  1.00  0.00     0.037 A 
HETATM   10  C13 UNL     1     -96.390 -13.857  42.611  1.00  0.00     0.059 A 
HETATM   11  C14 UNL     1     -95.017 -13.827  42.643  1.00  0.00     0.033 A 
HETATM   12  C19 UNL     1     -94.417 -13.519  43.876  1.00  0.00     0.053 A 
HETATM   13  C20 UNL     1     -95.167 -13.260  44.993  1.00  0.00     0.063 A 
HETATM   14  C22 UNL     1     -96.563 -13.302  44.910  1.00  0.00     0.053 A 
BRANCH  11  15
HETATM   15  N4  UNL     1     -94.166 -14.081  41.545  1.00  0.00    -0.377 N 
HETATM   16  C15 UNL     1     -93.912 -13.098  40.531  1.00  0.00     0.149 C 
HETATM   17  C16 UNL     1     -92.420 -12.835  40.556  1.00  0.00     0.187 C 
HETATM   18  O2  UNL     1     -91.713 -14.012  40.438  1.00  0.00    -0.388 OA
HETATM   19  C17 UNL     1     -92.485 -15.142  40.241  1.00  0.00     0.187 C 
HETATM   20  C18 UNL     1     -93.495 -15.353  41.375  1.00  0.00     0.149 C 
ENDBRANCH  11  15
BRANCH  13  21
HETATM   21  S1  UNL     1     -94.374 -12.884  46.497  1.00  0.00     0.172 S 
HETATM   22  C21 UNL     1     -92.631 -13.129  46.269  1.00  0.00     0.167 C 
HETATM   23  O3  UNL     1     -94.705 -11.492  46.922  1.00  0.00    -0.223 OA
HETATM   24  O4  UNL     1     -94.838 -13.849  47.566  1.00  0.00    -0.223 OA
ENDBRANCH  13  21
ENDBRANCH   7   9
ENDBRANCH   5   7
BRANCH   1  25
HETATM   25  C8  UNL     1    -102.797 -15.622  46.351  1.00  0.00     0.264 C 
HETATM   26  N1  UNL     1    -102.875 -16.472  47.455  1.00  0.00    -0.320 N 
ATOM     27  H1  UNL     1    -101.999 -16.759  47.892  1.00  0.00     0.169 HD
HETATM   28  O1  UNL     1    -103.858 -15.250  45.791  1.00  0.00    -0.267 OA
BRANCH  26  29
HETATM   29  C7  UNL     1    -104.080 -16.966  48.016  1.00  0.00     0.062 A 
HETATM   30  C2  UNL     1    -104.638 -18.130  47.592  1.00  0.00    -0.034 A 
HETATM   31  C1  UNL     1    -103.956 -18.889  46.518  1.00  0.00     0.050 C 
HETATM   32  C3  UNL     1    -105.829 -18.572  48.179  1.00  0.00     0.009 A 
HETATM   33  C4  UNL     1    -106.434 -17.821  49.189  1.00  0.00     0.002 A 
HETATM   34  C5  UNL     1    -105.858 -16.646  49.608  1.00  0.00     0.026 A 
HETATM   35  C6  UNL     1    -104.681 -16.227  49.013  1.00  0.00     0.061 A 
HETATM   36 CL1  UNL     1    -103.934 -14.726  49.540  1.00  0.00    -0.082 Cl
ENDBRANCH  26  29
ENDBRANCH   1  25
TORSDOF 6
ENDMDL
