MODEL 2
REMARK VINA RESULT: -9.952343915      0.957      1.516
REMARK  6 active torsions:
REMARK  status: ('A' for Active; 'I' for Inactive)
REMARK    1  A    between atoms: C7_8  and  N1_9 
REMARK       I    between atoms: N1_9  and  C8_11 
REMARK    2  A    between atoms: C8_11  and  C9_13 
REMARK    3  A    between atoms: C11_17  and  N3_18 
REMARK    4  A    between atoms: N3_18  and  C12_20 
REMARK    5  A    between atoms: C14_22  and  N4_23 
REMARK    6  A    between atoms: C20_30  and  S1_31 
ROOT
HETATM    1  C9  UNL     1    -101.904 -15.146  45.671  1.00  0.00     0.091 A 
HETATM    2  C10 UNL     1    -102.304 -14.382  44.607  1.00  0.00     0.115 A 
HETATM    3  N2  UNL     1    -101.393 -13.927  43.813  1.00  0.00    -0.345 N 
ATOM      4  H2  UNL     1    -101.666 -13.355  43.014  1.00  0.00     0.167 HD
HETATM    5  C11 UNL     1    -100.119 -14.189  44.018  1.00  0.00     0.149 A 
HETATM    6  S2  UNL     1    -100.212 -15.160  45.454  1.00  0.00    -0.047 SA
ENDROOT
BRANCH   5   7
HETATM    7  N3  UNL     1     -98.924 -13.840  43.338  1.00  0.00    -0.336 N 
ATOM      8  H3  UNL     1     -98.971 -13.623  42.343  1.00  0.00     0.168 HD
BRANCH   7   9
HETATM    9  C12 UNL     1     -97.683 -13.782  43.983  1.00  0.00     0.037 A 
HETATM   10  C13 UNL     1     -96.582 -14.265  43.268  1.00  0.00     0.059 A 
HETATM   11  C14 UNL     1     -95.301 -14.274  43.767  1.00  0.00     0.033 A 
HETATM   12  C19 UNL     1     -95.122 -13.765  45.064  1.00  0.00     0.053 A 
HETATM   13  C20 UNL     1     -96.175 -13.283  45.796  1.00  0.00     0.063 A 
HETATM   14  C22 UNL     1     -97.461 -13.295  45.245  1.00  0.00     0.053 A 
BRANCH  11  15
HETATM   15  N4  UNL     1     -94.160 -14.752  43.087  1.00  0.00    -0.377 N 
HETATM   16  C15 UNL     1     -94.094 -14.812  41.654  1.00  0.00     0.149 C 
HETATM   17  C16 UNL     1     -92.938 -13.924  41.242  1.00  0.00     0.187 C 
HETATM   18  O2  UNL     1     -91.786 -14.278  41.910  1.00  0.00    -0.388 OA
HETATM   19  C17 UNL     1     -91.899 -15.389  42.725  1.00  0.00     0.187 C 
HETATM   20  C18 UNL     1     -92.983 -15.209  43.794  1.00  0.00     0.149 C 
ENDBRANCH  11  15
BRANCH  13  21
HETATM   21  S1  UNL     1     -95.899 -12.663  47.401  1.00  0.00     0.172 S 
HETATM   22  C21 UNL     1     -95.399 -14.020  48.429  1.00  0.00     0.167 C 
HETATM   23  O3  UNL     1     -94.884 -11.569  47.365  1.00  0.00    -0.223 OA
HETATM   24  O4  UNL     1     -97.194 -12.115  47.958  1.00  0.00    -0.223 OA
ENDBRANCH  13  21
ENDBRANCH   7   9
ENDBRANCH   5   7
BRANCH   1  25
HETATM   25  C8  UNL     1    -102.712 -15.784  46.718  1.00  0.00     0.264 C 
HETATM   26  N1  UNL     1    -104.072 -16.051  46.545  1.00  0.00    -0.320 N 
ATOM     27  H1  UNL     1    -104.496 -15.787  45.656  1.00  0.00     0.169 HD
HETATM   28  O1  UNL     1    -102.162 -16.099  47.802  1.00  0.00    -0.267 OA
BRANCH  26  29
HETATM   29  C7  UNL     1    -104.908 -16.662  47.513  1.00  0.00     0.062 A 
HETATM   30  C2  UNL     1    -105.622 -15.925  48.405  1.00  0.00    -0.034 A 
HETATM   31  C1  UNL     1    -105.510 -14.449  48.349  1.00  0.00     0.050 C 
HETATM   32  C3  UNL     1    -106.431 -16.578  49.340  1.00  0.00     0.009 A 
HETATM   33  C4  UNL     1    -106.503 -17.973  49.353  1.00  0.00     0.002 A 
HETATM   34  C5  UNL     1    -105.777 -18.705  48.445  1.00  0.00     0.026 A 
HETATM   35  C6  UNL     1    -104.982 -18.039  47.529  1.00  0.00     0.061 A 
HETATM   36 CL1  UNL     1    -104.048 -18.964  46.363  1.00  0.00    -0.082 Cl
ENDBRANCH  26  29
ENDBRANCH   1  25
TORSDOF 6
ENDMDL
