MODEL 18
REMARK VINA RESULT: -8.916424948      2.472      4.764
REMARK  6 active torsions:
REMARK  status: ('A' for Active; 'I' for Inactive)
REMARK    1  A    between atoms: C7_8  and  N1_9 
REMARK       I    between atoms: N1_9  and  C8_11 
REMARK    2  A    between atoms: C8_11  and  C9_13 
REMARK    3  A    between atoms: C11_17  and  N3_18 
REMARK    4  A    between atoms: N3_18  and  C12_20 
REMARK    5  A    between atoms: C14_22  and  N4_23 
REMARK    6  A    between atoms: C20_30  and  S1_31 
ROOT
HETATM    1  C9  UNL     1    -101.854 -14.806  45.322  1.00  0.00     0.091 A 
HETATM    2  C10 UNL     1    -101.759 -13.953  44.255  1.00  0.00     0.115 A 
HETATM    3  N2  UNL     1    -100.580 -13.646  43.828  1.00  0.00    -0.345 N 
ATOM      4  H2  UNL     1    -100.483 -13.012  43.035  1.00  0.00     0.167 HD
HETATM    5  C11 UNL     1     -99.500 -14.138  44.401  1.00  0.00     0.149 A 
HETATM    6  S2  UNL     1    -100.209 -15.117  45.647  1.00  0.00    -0.047 SA
ENDROOT
BRANCH   5   7
HETATM    7  N3  UNL     1     -98.110 -13.989  44.162  1.00  0.00    -0.336 N 
ATOM      8  H3  UNL     1     -97.764 -14.073  43.207  1.00  0.00     0.168 HD
BRANCH   7   9
HETATM    9  C12 UNL     1     -97.196 -13.732  45.191  1.00  0.00     0.037 A 
HETATM   10  C13 UNL     1     -97.735 -13.447  46.451  1.00  0.00     0.059 A 
HETATM   11  C14 UNL     1     -96.966 -13.176  47.557  1.00  0.00     0.033 A 
HETATM   12  C19 UNL     1     -95.572 -13.191  47.382  1.00  0.00     0.053 A 
HETATM   13  C20 UNL     1     -95.006 -13.465  46.164  1.00  0.00     0.063 A 
HETATM   14  C22 UNL     1     -95.831 -13.736  45.066  1.00  0.00     0.053 A 
BRANCH  11  15
HETATM   15  N4  UNL     1     -97.461 -12.882  48.847  1.00  0.00    -0.377 N 
HETATM   16  C15 UNL     1     -98.862 -12.926  49.156  1.00  0.00     0.149 C 
HETATM   17  C16 UNL     1     -99.027 -13.970  50.241  1.00  0.00     0.187 C 
HETATM   18  O2  UNL     1     -98.188 -13.709  51.303  1.00  0.00    -0.388 OA
HETATM   19  C17 UNL     1     -97.457 -12.540  51.199  1.00  0.00     0.187 C 
HETATM   20  C18 UNL     1     -96.584 -12.519  49.940  1.00  0.00     0.149 C 
ENDBRANCH  11  15
BRANCH  13  21
HETATM   21  S1  UNL     1     -93.272 -13.472  46.000  1.00  0.00     0.172 S 
HETATM   22  C21 UNL     1     -92.573 -13.165  47.602  1.00  0.00     0.167 C 
HETATM   23  O3  UNL     1     -92.813 -14.766  45.414  1.00  0.00    -0.223 OA
HETATM   24  O4  UNL     1     -92.849 -12.342  45.088  1.00  0.00    -0.223 OA
ENDBRANCH  13  21
ENDBRANCH   7   9
ENDBRANCH   5   7
BRANCH   1  25
HETATM   25  C8  UNL     1    -103.049 -15.319  46.004  1.00  0.00     0.264 C 
HETATM   26  N1  UNL     1    -102.967 -16.097  47.160  1.00  0.00    -0.320 N 
ATOM     27  H1  UNL     1    -102.037 -16.303  47.525  1.00  0.00     0.169 HD
HETATM   28  O1  UNL     1    -104.181 -15.048  45.531  1.00  0.00    -0.267 OA
BRANCH  26  29
HETATM   29  C7  UNL     1    -104.079 -16.622  47.866  1.00  0.00     0.062 A 
HETATM   30  C2  UNL     1    -104.738 -15.891  48.802  1.00  0.00    -0.034 A 
HETATM   31  C1  UNL     1    -104.271 -14.512  49.079  1.00  0.00     0.050 C 
HETATM   32  C3  UNL     1    -105.829 -16.457  49.469  1.00  0.00     0.009 A 
HETATM   33  C4  UNL     1    -106.233 -17.761  49.173  1.00  0.00     0.002 A 
HETATM   34  C5  UNL     1    -105.556 -18.489  48.224  1.00  0.00     0.026 A 
HETATM   35  C6  UNL     1    -104.480 -17.910  47.576  1.00  0.00     0.061 A 
HETATM   36 CL1  UNL     1    -103.607 -18.830  46.360  1.00  0.00    -0.082 Cl
ENDBRANCH  26  29
ENDBRANCH   1  25
TORSDOF 6
ENDMDL
