MODEL 14
REMARK VINA RESULT: -9.052542427      2.604      5.050
REMARK  6 active torsions:
REMARK  status: ('A' for Active; 'I' for Inactive)
REMARK    1  A    between atoms: C7_8  and  N1_9 
REMARK       I    between atoms: N1_9  and  C8_11 
REMARK    2  A    between atoms: C8_11  and  C9_13 
REMARK    3  A    between atoms: C11_17  and  N3_18 
REMARK    4  A    between atoms: N3_18  and  C12_20 
REMARK    5  A    between atoms: C14_22  and  N4_23 
REMARK    6  A    between atoms: C20_30  and  S1_31 
ROOT
HETATM    1  C9  UNL     1    -101.903 -15.011  45.646  1.00  0.00     0.091 A 
HETATM    2  C10 UNL     1    -101.732 -14.331  44.470  1.00  0.00     0.115 A 
HETATM    3  N2  UNL     1    -100.534 -13.982  44.141  1.00  0.00    -0.345 N 
ATOM      4  H2  UNL     1    -100.381 -13.475  43.269  1.00  0.00     0.167 HD
HETATM    5  C11 UNL     1     -99.505 -14.272  44.911  1.00  0.00     0.149 A 
HETATM    6  S2  UNL     1    -100.296 -15.106  46.211  1.00  0.00    -0.047 SA
ENDROOT
BRANCH   5   7
HETATM    7  N3  UNL     1     -98.111 -14.028  44.818  1.00  0.00    -0.336 N 
ATOM      8  H3  UNL     1     -97.628 -14.266  43.952  1.00  0.00     0.168 HD
BRANCH   7   9
HETATM    9  C12 UNL     1     -97.374 -13.474  45.871  1.00  0.00     0.037 A 
HETATM   10  C13 UNL     1     -98.016 -13.397  47.112  1.00  0.00     0.059 A 
HETATM   11  C14 UNL     1     -97.422 -12.880  48.239  1.00  0.00     0.033 A 
HETATM   12  C19 UNL     1     -96.104 -12.414  48.105  1.00  0.00     0.053 A 
HETATM   13  C20 UNL     1     -95.441 -12.472  46.907  1.00  0.00     0.063 A 
HETATM   14  C22 UNL     1     -96.088 -13.008  45.787  1.00  0.00     0.053 A 
BRANCH  11  15
HETATM   15  N4  UNL     1     -98.028 -12.779  49.510  1.00  0.00    -0.377 N 
HETATM   16  C15 UNL     1     -99.423 -13.045  49.716  1.00  0.00     0.149 C 
HETATM   17  C16 UNL     1     -99.498 -14.198  50.696  1.00  0.00     0.187 C 
HETATM   18  O2  UNL     1     -98.767 -13.923  51.832  1.00  0.00    -0.388 OA
HETATM   19  C17 UNL     1     -98.208 -12.660  51.878  1.00  0.00     0.187 C 
HETATM   20  C18 UNL     1     -97.276 -12.401  50.688  1.00  0.00     0.149 C 
ENDBRANCH  11  15
BRANCH  13  21
HETATM   21  S1  UNL     1     -93.807 -11.880  46.794  1.00  0.00     0.172 S 
HETATM   22  C21 UNL     1     -93.000 -12.757  45.479  1.00  0.00     0.167 C 
HETATM   23  O3  UNL     1     -93.806 -10.403  46.581  1.00  0.00    -0.223 OA
HETATM   24  O4  UNL     1     -93.069 -12.192  48.077  1.00  0.00    -0.223 OA
ENDBRANCH  13  21
ENDBRANCH   7   9
ENDBRANCH   5   7
BRANCH   1  25
HETATM   25  C8  UNL     1    -103.136 -15.522  46.258  1.00  0.00     0.264 C 
HETATM   26  N1  UNL     1    -103.119 -16.325  47.401  1.00  0.00    -0.320 N 
ATOM     27  H1  UNL     1    -102.210 -16.548  47.807  1.00  0.00     0.169 HD
HETATM   28  O1  UNL     1    -104.239 -15.229  45.736  1.00  0.00    -0.267 OA
BRANCH  26  29
HETATM   29  C7  UNL     1    -104.269 -16.851  48.040  1.00  0.00     0.062 A 
HETATM   30  C2  UNL     1    -104.923 -16.160  49.011  1.00  0.00    -0.034 A 
HETATM   31  C1  UNL     1    -104.407 -14.826  49.398  1.00  0.00     0.050 C 
HETATM   32  C3  UNL     1    -106.054 -16.726  49.610  1.00  0.00     0.009 A 
HETATM   33  C4  UNL     1    -106.502 -17.987  49.211  1.00  0.00     0.002 A 
HETATM   34  C5  UNL     1    -105.832 -18.673  48.228  1.00  0.00     0.026 A 
HETATM   35  C6  UNL     1    -104.715 -18.096  47.649  1.00  0.00     0.061 A 
HETATM   36 CL1  UNL     1    -103.849 -18.963  46.390  1.00  0.00    -0.082 Cl
ENDBRANCH  26  29
ENDBRANCH   1  25
TORSDOF 6
ENDMDL
