MODEL 11
REMARK VINA RESULT: -9.153499629      2.754      5.062
REMARK  6 active torsions:
REMARK  status: ('A' for Active; 'I' for Inactive)
REMARK    1  A    between atoms: C7_8  and  N1_9 
REMARK       I    between atoms: N1_9  and  C8_11 
REMARK    2  A    between atoms: C8_11  and  C9_13 
REMARK    3  A    between atoms: C11_17  and  N3_18 
REMARK    4  A    between atoms: N3_18  and  C12_20 
REMARK    5  A    between atoms: C14_22  and  N4_23 
REMARK    6  A    between atoms: C20_30  and  S1_31 
ROOT
HETATM    1  C9  UNL     1    -101.803 -15.007  45.728  1.00  0.00     0.091 A 
HETATM    2  C10 UNL     1    -101.573 -14.395  44.524  1.00  0.00     0.115 A 
HETATM    3  N2  UNL     1    -100.375 -13.986  44.272  1.00  0.00    -0.345 N 
ATOM      4  H2  UNL     1    -100.179 -13.527  43.383  1.00  0.00     0.167 HD
HETATM    5  C11 UNL     1     -99.402 -14.151  45.145  1.00  0.00     0.149 A 
HETATM    6  S2  UNL     1    -100.250 -14.952  46.430  1.00  0.00    -0.047 SA
ENDROOT
BRANCH   5   7
HETATM    7  N3  UNL     1     -98.023 -13.818  45.151  1.00  0.00    -0.336 N 
ATOM      8  H3  UNL     1     -97.496 -13.893  44.281  1.00  0.00     0.168 HD
BRANCH   7   9
HETATM    9  C12 UNL     1     -97.361 -13.389  46.307  1.00  0.00     0.037 A 
HETATM   10  C13 UNL     1     -98.017 -13.608  47.523  1.00  0.00     0.059 A 
HETATM   11  C14 UNL     1     -97.493 -13.244  48.740  1.00  0.00     0.033 A 
HETATM   12  C19 UNL     1     -96.234 -12.621  48.729  1.00  0.00     0.053 A 
HETATM   13  C20 UNL     1     -95.560 -12.389  47.559  1.00  0.00     0.063 A 
HETATM   14  C22 UNL     1     -96.134 -12.778  46.344  1.00  0.00     0.053 A 
BRANCH  11  15
HETATM   15  N4  UNL     1     -98.116 -13.442  49.992  1.00  0.00    -0.377 N 
HETATM   16  C15 UNL     1     -97.363 -13.610  51.203  1.00  0.00     0.149 C 
HETATM   17  C16 UNL     1     -97.770 -12.474  52.119  1.00  0.00     0.187 C 
HETATM   18  O2  UNL     1     -99.139 -12.430  52.267  1.00  0.00    -0.388 OA
HETATM   19  C17 UNL     1     -99.829 -13.451  51.640  1.00  0.00     0.187 C 
HETATM   20  C18 UNL     1     -99.556 -13.487  50.132  1.00  0.00     0.149 C 
ENDBRANCH  11  15
BRANCH  13  21
HETATM   21  S1  UNL     1     -94.001 -11.612  47.601  1.00  0.00     0.172 S 
HETATM   22  C21 UNL     1     -92.797 -12.781  47.022  1.00  0.00     0.167 C 
HETATM   23  O3  UNL     1     -94.024 -10.363  46.784  1.00  0.00    -0.223 OA
HETATM   24  O4  UNL     1     -93.652 -11.260  49.030  1.00  0.00    -0.223 OA
ENDBRANCH  13  21
ENDBRANCH   7   9
ENDBRANCH   5   7
BRANCH   1  25
HETATM   25  C8  UNL     1    -103.050 -15.563  46.269  1.00  0.00     0.264 C 
HETATM   26  N1  UNL     1    -103.064 -16.398  47.389  1.00  0.00    -0.320 N 
ATOM     27  H1  UNL     1    -102.170 -16.614  47.828  1.00  0.00     0.169 HD
HETATM   28  O1  UNL     1    -104.135 -15.278  45.707  1.00  0.00    -0.267 OA
BRANCH  26  29
HETATM   29  C7  UNL     1    -104.230 -16.967  47.961  1.00  0.00     0.062 A 
HETATM   30  C2  UNL     1    -104.695 -18.182  47.569  1.00  0.00    -0.034 A 
HETATM   31  C1  UNL     1    -103.953 -18.916  46.516  1.00  0.00     0.050 C 
HETATM   32  C3  UNL     1    -105.850 -18.698  48.165  1.00  0.00     0.009 A 
HETATM   33  C4  UNL     1    -106.515 -17.969  49.153  1.00  0.00     0.002 A 
HETATM   34  C5  UNL     1    -106.033 -16.742  49.541  1.00  0.00     0.026 A 
HETATM   35  C6  UNL     1    -104.889 -16.250  48.937  1.00  0.00     0.061 A 
HETATM   36 CL1  UNL     1    -104.262 -14.682  49.423  1.00  0.00    -0.082 Cl
ENDBRANCH  26  29
ENDBRANCH   1  25
TORSDOF 6
ENDMDL
