MODEL 3
REMARK VINA RESULT: -8.208458780      1.668      5.798
REMARK  5 active torsions:
REMARK  status: ('A' for Active; 'I' for Inactive)
REMARK    1  A    between atoms: O1_2  and  C2_3 
REMARK    2  A    between atoms: C6_7  and  O2_8 
REMARK    3  A    between atoms: C8_10  and  O3_11 
REMARK    4  A    between atoms: C13_16  and  O4_17 
REMARK    5  A    between atoms: C18_23  and  N1_24 
REMARK       I    between atoms: N1_24  and  C19_26 
ROOT
HETATM    1  C2  UNL     1     -11.454  16.899 -24.596  1.00  0.00     0.104 A 
HETATM    2  C3  UNL     1     -11.433  16.772 -23.229  1.00  0.00     0.047 A 
HETATM    3  C4  UNL     1     -11.952  15.660 -22.615  1.00  0.00    -0.041 A 
HETATM    4  C5  UNL     1     -12.502  14.671 -23.445  1.00  0.00     0.017 A 
HETATM    5  C6  UNL     1     -12.530  14.771 -24.804  1.00  0.00     0.116 A 
HETATM    6  C8  UNL     1     -12.002  15.899 -25.388  1.00  0.00     0.136 A 
HETATM    7  C10 UNL     1     -13.185  13.466 -23.015  1.00  0.00    -0.014 C 
HETATM    8  C11 UNL     1     -14.186  13.350 -23.948  1.00  0.00     0.016 C 
HETATM    9  C12 UNL     1     -14.839  12.175 -24.229  1.00  0.00     0.042 C 
HETATM   10  C13 UNL     1     -14.696  10.922 -23.617  1.00  0.00     0.118 C 
HETATM   11  C15 UNL     1     -14.004  10.591 -22.457  1.00  0.00     0.205 C 
HETATM   12  O5  UNL     1     -14.130   9.420 -22.040  1.00  0.00    -0.285 OA
HETATM   13  C16 UNL     1     -13.169  11.407 -21.677  1.00  0.00     0.068 C 
HETATM   14  C17 UNL     1     -12.859  12.714 -21.890  1.00  0.00    -0.020 C 
HETATM   15  C18 UNL     1     -12.135  13.180 -20.656  1.00  0.00     0.119 C 
HETATM   16  C21 UNL     1     -12.534  14.626 -20.392  1.00  0.00     0.034 C 
HETATM   17  C22 UNL     1     -11.802  15.651 -21.151  1.00  0.00     0.042 C 
ENDROOT
BRANCH  15  18
HETATM   18  N1  UNL     1     -10.735  12.959 -20.714  1.00  0.00    -0.353 N 
HETATM   19  C19 UNL     1      -9.982  12.550 -19.571  1.00  0.00     0.214 C 
HETATM   20  C20 UNL     1      -8.538  12.310 -19.586  1.00  0.00     0.117 C 
HETATM   21  O6  UNL     1     -10.611  12.390 -18.492  1.00  0.00    -0.274 OA
ATOM     22  H1  UNL     1     -10.249  13.096 -21.601  1.00  0.00     0.163 HD
ENDBRANCH  15  18
BRANCH   5  23
HETATM   23  O2  UNL     1     -13.056  13.761 -25.581  1.00  0.00    -0.352 OA
HETATM   24  C7  UNL     1     -12.296  13.249 -26.705  1.00  0.00     0.210 C 
ENDBRANCH   5  23
BRANCH  10  25
HETATM   25  O4  UNL     1     -15.339   9.898 -24.278  1.00  0.00    -0.352 OA
HETATM   26  C14 UNL     1     -15.396   9.814 -25.684  1.00  0.00     0.210 C 
ENDBRANCH  10  25
BRANCH   6  27
HETATM   27  O3  UNL     1     -12.053  15.967 -26.768  1.00  0.00    -0.351 OA
HETATM   28  C9  UNL     1     -13.291  16.370 -27.340  1.00  0.00     0.210 C 
ENDBRANCH   6  27
BRANCH   1  29
HETATM   29  O1  UNL     1     -10.925  18.036 -25.194  1.00  0.00    -0.353 OA
HETATM   30  C1  UNL     1     -11.767  19.145 -25.386  1.00  0.00     0.210 C 
ENDBRANCH   1  29
TORSDOF 5
ENDMDL
