MODEL 1
REMARK VINA RESULT: -8.983417650      0.000      0.000
REMARK  5 active torsions:
REMARK  status: ('A' for Active; 'I' for Inactive)
REMARK    1  A    between atoms: O1_2  and  C2_3 
REMARK    2  A    between atoms: C6_7  and  O2_8 
REMARK    3  A    between atoms: C8_10  and  O3_11 
REMARK    4  A    between atoms: C13_16  and  O4_17 
REMARK    5  A    between atoms: C18_23  and  N1_24 
REMARK       I    between atoms: N1_24  and  C19_26 
ROOT
HETATM    1  C2  UNL     1     -14.573  11.075 -22.984  1.00  0.00     0.104 A 
HETATM    2  C3  UNL     1     -13.734  11.399 -21.946  1.00  0.00     0.047 A 
HETATM    3  C4  UNL     1     -13.002  12.559 -21.965  1.00  0.00    -0.041 A 
HETATM    4  C5  UNL     1     -13.150  13.389 -23.088  1.00  0.00     0.017 A 
HETATM    5  C6  UNL     1     -13.980  13.093 -24.127  1.00  0.00     0.116 A 
HETATM    6  C8  UNL     1     -14.699  11.922 -24.078  1.00  0.00     0.136 A 
HETATM    7  C10 UNL     1     -12.412  14.607 -23.364  1.00  0.00    -0.014 C 
HETATM    8  C11 UNL     1     -12.231  14.535 -24.724  1.00  0.00     0.016 C 
HETATM    9  C12 UNL     1     -11.963  15.621 -25.519  1.00  0.00     0.042 C 
HETATM   10  C13 UNL     1     -11.752  16.956 -25.143  1.00  0.00     0.118 C 
HETATM   11  C15 UNL     1     -11.573  17.485 -23.870  1.00  0.00     0.205 C 
HETATM   12  O5  UNL     1     -11.273  18.696 -23.799  1.00  0.00    -0.285 OA
HETATM   13  C16 UNL     1     -11.687  16.834 -22.630  1.00  0.00     0.068 C 
HETATM   14  C17 UNL     1     -11.994  15.528 -22.409  1.00  0.00    -0.020 C 
HETATM   15  C18 UNL     1     -11.753  15.283 -20.944  1.00  0.00     0.119 C 
HETATM   16  C21 UNL     1     -11.203  13.871 -20.786  1.00  0.00     0.034 C 
HETATM   17  C22 UNL     1     -12.196  12.787 -20.755  1.00  0.00     0.042 C 
ENDROOT
BRANCH  15  18
HETATM   18  N1  UNL     1     -12.885  15.566 -20.138  1.00  0.00    -0.353 N 
HETATM   19  C19 UNL     1     -12.788  16.322 -18.931  1.00  0.00     0.214 C 
HETATM   20  C20 UNL     1     -13.929  16.637 -18.068  1.00  0.00     0.117 C 
HETATM   21  O6  UNL     1     -11.646  16.736 -18.599  1.00  0.00    -0.274 OA
ATOM     22  H1  UNL     1     -13.798  15.217 -20.429  1.00  0.00     0.163 HD
ENDBRANCH  15  18
BRANCH   5  23
HETATM   23  O2  UNL     1     -14.115  13.951 -25.198  1.00  0.00    -0.352 OA
HETATM   24  C7  UNL     1     -15.251  14.850 -25.260  1.00  0.00     0.210 C 
ENDBRANCH   5  23
BRANCH  10  25
HETATM   25  O4  UNL     1     -11.723  17.839 -26.200  1.00  0.00    -0.352 OA
HETATM   26  C14 UNL     1     -11.245  17.485 -27.478  1.00  0.00     0.210 C 
ENDBRANCH  10  25
BRANCH   6  27
HETATM   27  O3  UNL     1     -15.527  11.653 -25.152  1.00  0.00    -0.351 OA
HETATM   28  C9  UNL     1     -14.981  10.846 -26.189  1.00  0.00     0.210 C 
ENDBRANCH   6  27
BRANCH   1  29
HETATM   29  O1  UNL     1     -15.301   9.893 -22.942  1.00  0.00    -0.353 OA
HETATM   30  C1  UNL     1     -15.320   9.161 -21.742  1.00  0.00     0.210 C 
ENDBRANCH   1  29
TORSDOF 5
ENDMDL
