MODEL 2
REMARK VINA RESULT: -8.708308050      1.605      5.797
REMARK  5 active torsions:
REMARK  status: ('A' for Active; 'I' for Inactive)
REMARK    1  A    between atoms: O1_2  and  C2_3 
REMARK    2  A    between atoms: C6_7  and  O2_8 
REMARK    3  A    between atoms: C8_10  and  O3_11 
REMARK    4  A    between atoms: C13_16  and  O4_17 
REMARK    5  A    between atoms: C18_23  and  N1_24 
REMARK       I    between atoms: N1_24  and  C19_26 
ROOT
HETATM    1  C2  UNL     1     -12.136  17.945 -24.489  1.00  0.00     0.104 A 
HETATM    2  C3  UNL     1     -12.147  17.782 -23.126  1.00  0.00     0.047 A 
HETATM    3  C4  UNL     1     -12.523  16.590 -22.560  1.00  0.00    -0.041 A 
HETATM    4  C5  UNL     1     -12.893  15.557 -23.435  1.00  0.00     0.017 A 
HETATM    5  C6  UNL     1     -12.885  15.692 -24.791  1.00  0.00     0.116 A 
HETATM    6  C8  UNL     1     -12.504  16.900 -25.327  1.00  0.00     0.136 A 
HETATM    7  C10 UNL     1     -13.411  14.254 -23.062  1.00  0.00    -0.014 C 
HETATM    8  C11 UNL     1     -14.349  14.024 -24.038  1.00  0.00     0.016 C 
HETATM    9  C12 UNL     1     -14.815  12.777 -24.373  1.00  0.00     0.042 C 
HETATM   10  C13 UNL     1     -14.516  11.539 -23.786  1.00  0.00     0.118 C 
HETATM   11  C15 UNL     1     -13.828  11.277 -22.607  1.00  0.00     0.205 C 
HETATM   12  O5  UNL     1     -13.798  10.088 -22.223  1.00  0.00    -0.285 OA
HETATM   13  C16 UNL     1     -13.148  12.181 -21.774  1.00  0.00     0.068 C 
HETATM   14  C17 UNL     1     -13.022  13.524 -21.944  1.00  0.00    -0.020 C 
HETATM   15  C18 UNL     1     -12.419  14.052 -20.670  1.00  0.00     0.119 C 
HETATM   16  C21 UNL     1     -13.032  15.418 -20.388  1.00  0.00     0.034 C 
HETATM   17  C22 UNL     1     -12.427  16.559 -21.092  1.00  0.00     0.042 C 
ENDROOT
BRANCH  15  18
HETATM   18  N1  UNL     1     -11.000  14.036 -20.676  1.00  0.00    -0.353 N 
HETATM   19  C19 UNL     1     -10.247  13.192 -19.804  1.00  0.00     0.214 C 
HETATM   20  C20 UNL     1      -8.783  13.142 -19.777  1.00  0.00     0.117 C 
HETATM   21  O6  UNL     1     -10.892  12.452 -19.016  1.00  0.00    -0.274 OA
ATOM     22  H1  UNL     1     -10.502  14.646 -21.324  1.00  0.00     0.163 HD
ENDBRANCH  15  18
BRANCH   5  23
HETATM   23  O2  UNL     1     -13.231  14.641 -25.614  1.00  0.00    -0.352 OA
HETATM   24  C7  UNL     1     -12.217  14.005 -26.433  1.00  0.00     0.210 C 
ENDBRANCH   5  23
BRANCH  10  25
HETATM   25  O4  UNL     1     -14.980  10.454 -24.497  1.00  0.00    -0.352 OA
HETATM   26  C14 UNL     1     -15.299  10.519 -25.869  1.00  0.00     0.210 C 
ENDBRANCH  10  25
BRANCH   6  27
HETATM   27  O3  UNL     1     -12.513  17.001 -26.705  1.00  0.00    -0.351 OA
HETATM   28  C9  UNL     1     -11.250  17.166 -27.339  1.00  0.00     0.210 C 
ENDBRANCH   6  27
BRANCH   1  29
HETATM   29  O1  UNL     1     -11.754  19.163 -25.038  1.00  0.00    -0.353 OA
HETATM   30  C1  UNL     1     -12.708  20.193 -25.111  1.00  0.00     0.210 C 
ENDBRANCH   1  29
TORSDOF 5
ENDMDL
