MODEL 1
REMARK VINA RESULT: -9.370247637      0.000      0.000
REMARK  8 active torsions:
REMARK  status: ('A' for Active; 'I' for Inactive)
REMARK    1  A    between atoms: C2_2  and  O1_3 
REMARK    2  A    between atoms: O1_3  and  C3_4 
REMARK    3  A    between atoms: C6_7  and  C7_8 
REMARK    4  A    between atoms: C10_12  and  N1_13 
REMARK       I    between atoms: N1_13  and  C11_15 
REMARK    5  A    between atoms: C11_15  and  C12_17 
REMARK    6  A    between atoms: C14_19  and  N2_20 
REMARK       I    between atoms: N2_20  and  C15_22 
REMARK    7  A    between atoms: C18_26  and  N3_27 
REMARK       I    between atoms: N3_27  and  C19_29 
REMARK    8  A    between atoms: C19_29  and  C20_31 
ROOT
HETATM    1  C12 UNL     1      10.686  13.725   9.037  1.00  0.00     0.036 A 
HETATM    2  C13 UNL     1      10.705  15.069   8.820  1.00  0.00     0.046 A 
HETATM    3  C14 UNL     1       9.507  15.790   8.804  1.00  0.00     0.037 A 
HETATM    4  C17 UNL     1       8.329  15.076   9.015  1.00  0.00     0.059 A 
HETATM    5  C18 UNL     1       8.279  13.728   9.235  1.00  0.00     0.038 A 
HETATM    6  C24 UNL     1       9.484  13.063   9.242  1.00  0.00     0.046 A 
ENDROOT
BRANCH   1   7
HETATM    7  C11 UNL     1      11.938  12.933   9.050  1.00  0.00     0.256 C 
HETATM    8  N1  UNL     1      11.955  11.613   9.494  1.00  0.00    -0.320 N 
ATOM      9  H1  UNL     1      11.067  11.226   9.811  1.00  0.00     0.169 HD
HETATM   10  O3  UNL     1      12.983  13.491   8.647  1.00  0.00    -0.267 OA
BRANCH   8  11
HETATM   11  C10 UNL     1      13.078  10.756   9.551  1.00  0.00     0.069 A 
HETATM   12  C3  UNL     1      13.499  10.294  10.820  1.00  0.00     0.095 A 
HETATM   13  C4  UNL     1      14.569   9.467  10.960  1.00  0.00     0.040 A 
HETATM   14  C5  UNL     1      15.265   9.066   9.833  1.00  0.00     0.018 A 
HETATM   15  C6  UNL     1      14.912   9.476   8.575  1.00  0.00     0.012 A 
HETATM   16  C9  UNL     1      13.804  10.328   8.471  1.00  0.00     0.047 A 
BRANCH  12  17
HETATM   17  O1  UNL     1      12.805  10.694  11.936  1.00  0.00    -0.349 OA
BRANCH  17  18
HETATM   18  C2  UNL     1      13.280  10.719  13.246  1.00  0.00     0.171 C 
HETATM   19  C1  UNL     1      12.288  11.127  14.284  1.00  0.00     0.034 C 
ENDBRANCH  17  18
ENDBRANCH  12  17
BRANCH  15  20
HETATM   20  C7  UNL     1      15.632   9.064   7.381  1.00  0.00     0.155 C 
HETATM   21  C8  UNL     1      15.143   9.417   6.023  1.00  0.00     0.096 C 
HETATM   22  O2  UNL     1      16.685   8.400   7.462  1.00  0.00    -0.293 OA
ENDBRANCH  15  20
ENDBRANCH   8  11
ENDBRANCH   1   7
BRANCH   3  23
HETATM   23  N2  UNL     1       9.558  17.186   8.597  1.00  0.00    -0.327 N 
HETATM   24  C15 UNL     1       9.895  17.854   7.408  1.00  0.00     0.218 C 
HETATM   25  C16 UNL     1       9.890  19.362   7.372  1.00  0.00     0.117 C 
HETATM   26  O4  UNL     1      10.196  17.218   6.384  1.00  0.00    -0.274 OA
ATOM     27  H2  UNL     1       9.326  17.773   9.398  1.00  0.00     0.169 HD
ENDBRANCH   3  23
BRANCH   5  28
HETATM   28  N3  UNL     1       7.103  13.019   9.452  1.00  0.00    -0.321 N 
HETATM   29  C19 UNL     1       5.766  13.437   9.306  1.00  0.00     0.279 C 
HETATM   30  O5  UNL     1       5.517  14.598   8.937  1.00  0.00    -0.265 OA
ATOM     31  H3  UNL     1       7.226  12.055   9.761  1.00  0.00     0.169 HD
BRANCH  29  32
HETATM   32  C20 UNL     1       4.632  12.529   9.583  1.00  0.00     0.142 A 
HETATM   33  C21 UNL     1       4.686  11.173   9.790  1.00  0.00     0.045 A 
HETATM   34  C22 UNL     1       3.409  10.735  10.008  1.00  0.00     0.027 A 
HETATM   35  C23 UNL     1       2.605  11.852   9.928  1.00  0.00     0.143 A 
HETATM   36  O6  UNL     1       3.379  12.881   9.675  1.00  0.00    -0.317 OA
ENDBRANCH  29  32
ENDBRANCH   5  28
TORSDOF 8
ENDMDL
