MODEL 3
REMARK VINA RESULT: -9.129927546      2.493      8.979
REMARK  8 active torsions:
REMARK  status: ('A' for Active; 'I' for Inactive)
REMARK    1  A    between atoms: C2_2  and  O1_3 
REMARK    2  A    between atoms: O1_3  and  C3_4 
REMARK    3  A    between atoms: C6_7  and  C7_8 
REMARK    4  A    between atoms: C10_12  and  N1_13 
REMARK       I    between atoms: N1_13  and  C11_15 
REMARK    5  A    between atoms: C11_15  and  C12_17 
REMARK    6  A    between atoms: C14_19  and  N2_20 
REMARK       I    between atoms: N2_20  and  C15_22 
REMARK    7  A    between atoms: C18_26  and  N3_27 
REMARK       I    between atoms: N3_27  and  C19_29 
REMARK    8  A    between atoms: C19_29  and  C20_31 
ROOT
HETATM    1  C12 UNL     1      10.696  12.478   9.517  1.00  0.00     0.036 A 
HETATM    2  C13 UNL     1      11.592  11.677  10.157  1.00  0.00     0.046 A 
HETATM    3  C14 UNL     1      12.930  11.661   9.750  1.00  0.00     0.037 A 
HETATM    4  C17 UNL     1      13.281  12.487   8.683  1.00  0.00     0.059 A 
HETATM    5  C18 UNL     1      12.405  13.300   8.022  1.00  0.00     0.038 A 
HETATM    6  C24 UNL     1      11.100  13.280   8.460  1.00  0.00     0.046 A 
ENDROOT
BRANCH   1   7
HETATM    7  C11 UNL     1       9.270  12.507   9.920  1.00  0.00     0.256 C 
HETATM    8  N1  UNL     1       8.250  12.509   8.971  1.00  0.00    -0.320 N 
ATOM      9  H1  UNL     1       8.536  12.492   7.992  1.00  0.00     0.169 HD
HETATM   10  O3  UNL     1       9.012  12.532  11.143  1.00  0.00    -0.267 OA
BRANCH   8  11
HETATM   11  C10 UNL     1       6.860  12.531   9.227  1.00  0.00     0.069 A 
HETATM   12  C3  UNL     1       6.172  13.755   9.055  1.00  0.00     0.095 A 
HETATM   13  C4  UNL     1       4.835  13.860   9.280  1.00  0.00     0.040 A 
HETATM   14  C5  UNL     1       4.128  12.743   9.686  1.00  0.00     0.018 A 
HETATM   15  C6  UNL     1       4.732  11.527   9.872  1.00  0.00     0.012 A 
HETATM   16  C9  UNL     1       6.110  11.458   9.631  1.00  0.00     0.047 A 
BRANCH  12  17
HETATM   17  O1  UNL     1       6.877  14.862   8.652  1.00  0.00    -0.349 OA
BRANCH  17  18
HETATM   18  C2  UNL     1       7.532  15.777   9.475  1.00  0.00     0.171 C 
HETATM   19  C1  UNL     1       8.898  16.180   9.030  1.00  0.00     0.034 C 
ENDBRANCH  17  18
ENDBRANCH  12  17
BRANCH  15  20
HETATM   20  C7  UNL     1       4.004  10.342  10.298  1.00  0.00     0.155 C 
HETATM   21  C8  UNL     1       4.704   9.184  10.909  1.00  0.00     0.096 C 
HETATM   22  O2  UNL     1       2.766  10.264  10.161  1.00  0.00    -0.293 OA
ENDBRANCH  15  20
ENDBRANCH   8  11
ENDBRANCH   1   7
BRANCH   3  23
HETATM   23  N2  UNL     1      13.840  10.837  10.445  1.00  0.00    -0.327 N 
HETATM   24  C15 UNL     1      14.419   9.642   9.988  1.00  0.00     0.218 C 
HETATM   25  C16 UNL     1      15.384   8.893  10.874  1.00  0.00     0.117 C 
HETATM   26  O4  UNL     1      14.148   9.192   8.862  1.00  0.00    -0.274 OA
ATOM     27  H2  UNL     1      14.108  11.143  11.381  1.00  0.00     0.169 HD
ENDBRANCH   3  23
BRANCH   5  28
HETATM   28  N3  UNL     1      12.760  14.128   6.962  1.00  0.00    -0.321 N 
HETATM   29  C19 UNL     1      12.740  15.533   6.881  1.00  0.00     0.279 C 
HETATM   30  O5  UNL     1      12.361  16.206   7.855  1.00  0.00    -0.265 OA
ATOM     31  H3  UNL     1      13.081  13.647   6.123  1.00  0.00     0.169 HD
BRANCH  29  32
HETATM   32  C20 UNL     1      13.162  16.248   5.656  1.00  0.00     0.142 A 
HETATM   33  C21 UNL     1      12.370  16.980   4.808  1.00  0.00     0.045 A 
HETATM   34  C22 UNL     1      13.167  17.463   3.807  1.00  0.00     0.027 A 
HETATM   35  C23 UNL     1      14.438  17.005   4.080  1.00  0.00     0.143 A 
HETATM   36  O6  UNL     1      14.376  16.294   5.180  1.00  0.00    -0.317 OA
ENDBRANCH  29  32
ENDBRANCH   5  28
TORSDOF 8
ENDMDL
