MODEL 2
REMARK VINA RESULT: -9.146843132      2.267      8.222
REMARK  8 active torsions:
REMARK  status: ('A' for Active; 'I' for Inactive)
REMARK    1  A    between atoms: C2_2  and  O1_3 
REMARK    2  A    between atoms: O1_3  and  C3_4 
REMARK    3  A    between atoms: C6_7  and  C7_8 
REMARK    4  A    between atoms: C10_12  and  N1_13 
REMARK       I    between atoms: N1_13  and  C11_15 
REMARK    5  A    between atoms: C11_15  and  C12_17 
REMARK    6  A    between atoms: C14_19  and  N2_20 
REMARK       I    between atoms: N2_20  and  C15_22 
REMARK    7  A    between atoms: C18_26  and  N3_27 
REMARK       I    between atoms: N3_27  and  C19_29 
REMARK    8  A    between atoms: C19_29  and  C20_31 
ROOT
HETATM    1  C12 UNL     1      10.290  15.161   8.968  1.00  0.00     0.036 A 
HETATM    2  C13 UNL     1      11.324  14.275   9.002  1.00  0.00     0.046 A 
HETATM    3  C14 UNL     1      11.082  12.930   9.296  1.00  0.00     0.037 A 
HETATM    4  C17 UNL     1       9.762  12.559   9.545  1.00  0.00     0.059 A 
HETATM    5  C18 UNL     1       8.704  13.424   9.518  1.00  0.00     0.038 A 
HETATM    6  C24 UNL     1       8.994  14.738   9.224  1.00  0.00     0.046 A 
ENDROOT
BRANCH   1   7
HETATM    7  C11 UNL     1      10.518  16.594   8.670  1.00  0.00     0.256 C 
HETATM    8  N1  UNL     1       9.938  17.203   7.559  1.00  0.00    -0.320 N 
ATOM      9  H1  UNL     1       9.357  16.613   6.965  1.00  0.00     0.169 HD
HETATM   10  O3  UNL     1      11.250  17.241   9.451  1.00  0.00    -0.267 OA
BRANCH   8  11
HETATM   11  C10 UNL     1      10.075  18.556   7.171  1.00  0.00     0.069 A 
HETATM   12  C3  UNL     1      11.174  18.905   6.351  1.00  0.00     0.095 A 
HETATM   13  C4  UNL     1      11.376  20.183   5.935  1.00  0.00     0.040 A 
HETATM   14  C5  UNL     1      10.485  21.168   6.321  1.00  0.00     0.018 A 
HETATM   15  C6  UNL     1       9.400  20.900   7.114  1.00  0.00     0.012 A 
HETATM   16  C9  UNL     1       9.226  19.571   7.523  1.00  0.00     0.047 A 
BRANCH  12  17
HETATM   17  O1  UNL     1      12.055  17.924   5.969  1.00  0.00    -0.349 OA
BRANCH  17  18
HETATM   18  C2  UNL     1      12.258  17.445   4.676  1.00  0.00     0.171 C 
HETATM   19  C1  UNL     1      11.080  16.786   4.040  1.00  0.00     0.034 C 
ENDBRANCH  17  18
ENDBRANCH  12  17
BRANCH  15  20
HETATM   20  C7  UNL     1       8.455  21.923   7.529  1.00  0.00     0.155 C 
HETATM   21  C8  UNL     1       7.178  22.136   6.800  1.00  0.00     0.096 C 
HETATM   22  O2  UNL     1       8.688  22.655   8.513  1.00  0.00    -0.293 OA
ENDBRANCH  15  20
ENDBRANCH   8  11
ENDBRANCH   1   7
BRANCH   3  23
HETATM   23  N2  UNL     1      12.170  12.031   9.305  1.00  0.00    -0.327 N 
HETATM   24  C15 UNL     1      12.450  11.050  10.269  1.00  0.00     0.218 C 
HETATM   25  C16 UNL     1      13.665  10.170  10.108  1.00  0.00     0.117 C 
HETATM   26  O4  UNL     1      11.710  10.896  11.255  1.00  0.00    -0.274 OA
ATOM     27  H2  UNL     1      12.825  12.102   8.525  1.00  0.00     0.169 HD
ENDBRANCH   3  23
BRANCH   5  28
HETATM   28  N3  UNL     1       7.387  13.050   9.760  1.00  0.00    -0.321 N 
HETATM   29  C19 UNL     1       6.607  12.064   9.127  1.00  0.00     0.279 C 
HETATM   30  O5  UNL     1       7.093  11.386   8.205  1.00  0.00    -0.265 OA
ATOM     31  H3  UNL     1       6.918  13.565  10.505  1.00  0.00     0.169 HD
BRANCH  29  32
HETATM   32  C20 UNL     1       5.207  11.803   9.528  1.00  0.00     0.142 A 
HETATM   33  C21 UNL     1       4.138  12.656   9.412  1.00  0.00     0.045 A 
HETATM   34  C22 UNL     1       3.037  12.012   9.905  1.00  0.00     0.027 A 
HETATM   35  C23 UNL     1       3.474  10.768  10.310  1.00  0.00     0.143 A 
HETATM   36  O6  UNL     1       4.760  10.701  10.065  1.00  0.00    -0.317 OA
ENDBRANCH  29  32
ENDBRANCH   5  28
TORSDOF 8
ENDMDL
