MODEL 1
REMARK VINA RESULT: -5.928322569      0.000      0.000
REMARK  5 active torsions:
REMARK  status: ('A' for Active; 'I' for Inactive)
REMARK    1  A    between atoms: O1_1  and  C1_3 
REMARK    2  A    between atoms: C1_3  and  C2_4 
REMARK    3  A    between atoms: C4_8  and  O2_9 
REMARK    4  A    between atoms: C5_11  and  O3_12 
REMARK    5  A    between atoms: C6_14  and  O4_15 
ROOT
HETATM    1  C2  UNL     1     -14.662 -32.084  96.975  1.00  0.00     0.131 C 
HETATM    2  N1  UNL     1     -14.734 -32.476  95.598  1.00  0.00    -0.410 N 
ATOM      3  H1  UNL     1     -15.591 -32.395  95.049  1.00  0.00     0.153 HD
HETATM    4  C3  UNL     1     -13.522 -32.987  95.054  1.00  0.00     0.148 C 
HETATM    5  C4  UNL     1     -12.366 -32.017  95.309  1.00  0.00     0.166 C 
HETATM    6  C5  UNL     1     -12.246 -31.956  96.838  1.00  0.00     0.179 C 
HETATM    7  C6  UNL     1     -13.483 -31.205  97.288  1.00  0.00     0.173 C 
ENDROOT
BRANCH   1   8
HETATM    8  C1  UNL     1     -15.975 -31.488  97.397  1.00  0.00     0.191 C 
BRANCH   8   9
HETATM    9  O1  UNL     1     -16.065 -30.220  96.816  1.00  0.00    -0.399 OA
ATOM     10  H1  UNL     1     -15.708 -29.597  97.438  1.00  0.00     0.209 HD
ENDBRANCH   8   9
ENDBRANCH   1   8
BRANCH   7  11
HETATM   11  O4  UNL     1     -13.482 -30.918  98.636  1.00  0.00    -0.391 OA
ATOM     12  H4  UNL     1     -13.295 -31.713  99.122  1.00  0.00     0.210 HD
ENDBRANCH   7  11
BRANCH   6  13
HETATM   13  O3  UNL     1     -11.077 -31.376  97.248  1.00  0.00    -0.390 OA
ATOM     14  H3  UNL     1     -11.095 -30.429  97.170  1.00  0.00     0.210 HD
ENDBRANCH   6  13
BRANCH   5  15
HETATM   15  O2  UNL     1     -11.202 -32.423  94.711  1.00  0.00    -0.391 OA
ATOM     16  H2  UNL     1     -10.906 -33.267  95.032  1.00  0.00     0.210 HD
ENDBRANCH   5  15
TORSDOF 5
ENDMDL
