MODEL 13
REMARK VINA RESULT: -4.317517560      3.347      4.336
REMARK  5 active torsions:
REMARK  status: ('A' for Active; 'I' for Inactive)
REMARK    1  A    between atoms: O1_1  and  C1_3 
REMARK    2  A    between atoms: C1_3  and  C2_4 
REMARK    3  A    between atoms: C4_8  and  O2_9 
REMARK    4  A    between atoms: C5_11  and  O3_12 
REMARK    5  A    between atoms: C6_14  and  O4_15 
ROOT
HETATM    1  C2  UNL     1     -14.356 -34.200  96.562  1.00  0.00     0.131 C 
HETATM    2  N1  UNL     1     -15.613 -34.818  96.868  1.00  0.00    -0.410 N 
ATOM      3  H1  UNL     1     -16.279 -34.410  97.525  1.00  0.00     0.153 HD
HETATM    4  C3  UNL     1     -15.862 -36.043  96.186  1.00  0.00     0.148 C 
HETATM    5  C4  UNL     1     -15.665 -35.869  94.678  1.00  0.00     0.166 C 
HETATM    6  C5  UNL     1     -14.183 -35.499  94.524  1.00  0.00     0.179 C 
HETATM    7  C6  UNL     1     -14.080 -34.096  95.088  1.00  0.00     0.173 C 
ENDROOT
BRANCH   1   8
HETATM    8  C1  UNL     1     -14.257 -32.883  97.279  1.00  0.00     0.191 C 
BRANCH   8   9
HETATM    9  O1  UNL     1     -14.593 -31.882  96.364  1.00  0.00    -0.399 OA
ATOM     10  H1  UNL     1     -15.306 -31.380  96.741  1.00  0.00     0.209 HD
ENDBRANCH   8   9
ENDBRANCH   1   8
BRANCH   7  11
HETATM   11  O4  UNL     1     -12.838 -33.528  94.902  1.00  0.00    -0.391 OA
ATOM     12  H4  UNL     1     -12.653 -32.943  95.628  1.00  0.00     0.210 HD
ENDBRANCH   7  11
BRANCH   6  13
HETATM   13  O3  UNL     1     -13.750 -35.599  93.231  1.00  0.00    -0.390 OA
ATOM     14  H3  UNL     1     -13.179 -34.882  92.983  1.00  0.00     0.210 HD
ENDBRANCH   6  13
BRANCH   5  15
HETATM   15  O2  UNL     1     -15.996 -36.998  93.975  1.00  0.00    -0.391 OA
ATOM     16  H2  UNL     1     -16.045 -36.839  93.039  1.00  0.00     0.210 HD
ENDBRANCH   5  15
TORSDOF 5
ENDMDL
