MODEL 12
REMARK VINA RESULT: -4.358098090      3.386      4.978
REMARK  5 active torsions:
REMARK  status: ('A' for Active; 'I' for Inactive)
REMARK    1  A    between atoms: O1_1  and  C1_3 
REMARK    2  A    between atoms: C1_3  and  C2_4 
REMARK    3  A    between atoms: C4_8  and  O2_9 
REMARK    4  A    between atoms: C5_11  and  O3_12 
REMARK    5  A    between atoms: C6_14  and  O4_15 
ROOT
HETATM    1  C2  UNL     1     -14.674 -36.124  95.368  1.00  0.00     0.131 C 
HETATM    2  N1  UNL     1     -14.386 -36.063  96.771  1.00  0.00    -0.410 N 
ATOM      3  H1  UNL     1     -14.158 -36.892  97.320  1.00  0.00     0.153 HD
HETATM    4  C3  UNL     1     -14.440 -34.758  97.340  1.00  0.00     0.148 C 
HETATM    5  C4  UNL     1     -13.574 -33.785  96.537  1.00  0.00     0.166 C 
HETATM    6  C5  UNL     1     -14.218 -33.755  95.144  1.00  0.00     0.179 C 
HETATM    7  C6  UNL     1     -13.912 -35.117  94.553  1.00  0.00     0.173 C 
ENDROOT
BRANCH   1   8
HETATM    8  C1  UNL     1     -14.501 -37.535  94.881  1.00  0.00     0.191 C 
BRANCH   8   9
HETATM    9  O1  UNL     1     -13.247 -37.615  94.269  1.00  0.00    -0.399 OA
ATOM     10  H1  UNL     1     -13.068 -36.769  93.876  1.00  0.00     0.209 HD
ENDBRANCH   8   9
ENDBRANCH   1   8
BRANCH   7  11
HETATM   11  O4  UNL     1     -14.288 -35.230  93.232  1.00  0.00    -0.391 OA
ATOM     12  H4  UNL     1     -14.402 -36.149  93.020  1.00  0.00     0.210 HD
ENDBRANCH   7  11
BRANCH   6  13
HETATM   13  O3  UNL     1     -13.765 -32.715  94.380  1.00  0.00    -0.390 OA
ATOM     14  H3  UNL     1     -14.284 -32.589  93.594  1.00  0.00     0.210 HD
ENDBRANCH   6  13
BRANCH   5  15
HETATM   15  O2  UNL     1     -13.516 -32.542  97.111  1.00  0.00    -0.391 OA
ATOM     16  H2  UNL     1     -12.653 -32.151  97.042  1.00  0.00     0.210 HD
ENDBRANCH   5  15
TORSDOF 5
ENDMDL
