MODEL 15
REMARK VINA RESULT: -4.207577377      4.779      6.112
REMARK  5 active torsions:
REMARK  status: ('A' for Active; 'I' for Inactive)
REMARK    1  A    between atoms: O1_1  and  C1_3 
REMARK    2  A    between atoms: C1_3  and  C2_4 
REMARK    3  A    between atoms: C4_8  and  O2_9 
REMARK    4  A    between atoms: C5_11  and  O3_12 
REMARK    5  A    between atoms: C6_14  and  O4_15 
ROOT
HETATM    1  C2  UNL     1     -14.680 -35.251  95.388  1.00  0.00     0.131 C 
HETATM    2  N1  UNL     1     -15.668 -35.554  96.381  1.00  0.00    -0.410 N 
ATOM      3  H1  UNL     1     -15.986 -34.867  97.066  1.00  0.00     0.153 HD
HETATM    4  C3  UNL     1     -16.172 -36.886  96.342  1.00  0.00     0.148 C 
HETATM    5  C4  UNL     1     -16.656 -37.236  94.932  1.00  0.00     0.166 C 
HETATM    6  C5  UNL     1     -15.395 -37.147  94.060  1.00  0.00     0.179 C 
HETATM    7  C6  UNL     1     -15.077 -35.667  93.999  1.00  0.00     0.173 C 
ENDROOT
BRANCH   1   8
HETATM    8  C1  UNL     1     -14.297 -33.802  95.487  1.00  0.00     0.191 C 
BRANCH   8   9
HETATM    9  O1  UNL     1     -12.942 -33.703  95.160  1.00  0.00    -0.399 OA
ATOM     10  H1  UNL     1     -12.692 -32.792  95.253  1.00  0.00     0.209 HD
ENDBRANCH   8   9
ENDBRANCH   1   8
BRANCH   7  11
HETATM   11  O4  UNL     1     -14.049 -35.370  93.130  1.00  0.00    -0.391 OA
ATOM     12  H4  UNL     1     -13.599 -34.592  93.437  1.00  0.00     0.210 HD
ENDBRANCH   7  11
BRANCH   6  13
HETATM   13  O3  UNL     1     -15.569 -37.718  92.830  1.00  0.00    -0.390 OA
ATOM     14  H3  UNL     1     -15.070 -38.520  92.728  1.00  0.00     0.210 HD
ENDBRANCH   6  13
BRANCH   5  15
HETATM   15  O2  UNL     1     -17.244 -38.472  94.875  1.00  0.00    -0.391 OA
ATOM     16  H2  UNL     1     -17.560 -38.681  94.003  1.00  0.00     0.210 HD
ENDBRANCH   5  15
TORSDOF 5
ENDMDL
