MODEL 6
REMARK VINA RESULT: -4.766054469      2.611      4.604
REMARK  8 active torsions:
REMARK  status: ('A' for Active; 'I' for Inactive)
REMARK    1  A    between atoms: O1_1  and  C1_3 
REMARK    2  A    between atoms: C1_3  and  C2_4 
REMARK    3  A    between atoms: C2_4  and  N1_5 
REMARK    4  A    between atoms: C4_7  and  O2_8 
REMARK    5  A    between atoms: C5_10  and  O3_11 
REMARK    6  A    between atoms: C6_13  and  O4_14 
REMARK    7  A    between atoms: C7_16  and  C8_17 
REMARK    8  A    between atoms: C8_17  and  O5_18 
ROOT
HETATM    1  N1  UNL     1     -14.467 -36.551  95.567  1.00  0.00     0.102 N 
HETATM    2  C3  UNL     1     -14.532 -35.440  96.470  1.00  0.00     0.307 C 
HETATM    3  C4  UNL     1     -14.262 -34.114  95.865  1.00  0.00     0.177 C 
HETATM    4  C5  UNL     1     -15.071 -33.929  94.583  1.00  0.00     0.179 C 
HETATM    5  C6  UNL     1     -14.606 -35.081  93.693  1.00  0.00     0.184 C 
HETATM    6  C7  UNL     1     -15.178 -36.335  94.327  1.00  0.00     0.277 C 
ENDROOT
BRANCH   1   7
HETATM    7  C2  UNL     1     -14.882 -37.734  96.260  1.00  0.00     0.299 C 
BRANCH   7   8
HETATM    8  C1  UNL     1     -13.745 -38.554  96.805  1.00  0.00     0.194 C 
BRANCH   8   9
HETATM    9  O1  UNL     1     -12.662 -38.419  95.937  1.00  0.00    -0.399 OA
ATOM     10  H1  UNL     1     -12.850 -38.923  95.154  1.00  0.00     0.209 HD
ENDBRANCH   8   9
ENDBRANCH   7   8
ENDBRANCH   1   7
BRANCH   6  11
HETATM   11  C8  UNL     1     -14.802 -37.457  93.366  1.00  0.00     0.202 C 
BRANCH  11  12
HETATM   12  O5  UNL     1     -13.440 -37.350  93.134  1.00  0.00    -0.399 OA
ATOM     13  H5  UNL     1     -13.298 -36.514  92.706  1.00  0.00     0.209 HD
ENDBRANCH  11  12
ENDBRANCH   6  11
BRANCH   3  14
HETATM   14  O2  UNL     1     -14.582 -33.123  96.791  1.00  0.00    -0.391 OA
ATOM     15  H2  UNL     1     -13.988 -33.188  97.529  1.00  0.00     0.210 HD
ENDBRANCH   3  14
BRANCH   5  16
HETATM   16  O4  UNL     1     -14.979 -34.923  92.383  1.00  0.00    -0.391 OA
ATOM     17  H4  UNL     1     -15.747 -35.435  92.156  1.00  0.00     0.210 HD
ENDBRANCH   5  16
BRANCH   4  18
HETATM   18  O3  UNL     1     -14.883 -32.703  94.006  1.00  0.00    -0.390 OA
ATOM     19  H3  UNL     1     -15.083 -32.696  93.077  1.00  0.00     0.210 HD
ENDBRANCH   4  18
TORSDOF 8
ENDMDL
