MODEL 7
REMARK VINA RESULT: -4.721376096      2.321      5.412
REMARK  8 active torsions:
REMARK  status: ('A' for Active; 'I' for Inactive)
REMARK    1  A    between atoms: O1_1  and  C1_3 
REMARK    2  A    between atoms: C1_3  and  C2_4 
REMARK    3  A    between atoms: C2_4  and  N1_5 
REMARK    4  A    between atoms: C4_7  and  O2_8 
REMARK    5  A    between atoms: C5_10  and  O3_11 
REMARK    6  A    between atoms: C6_13  and  O4_14 
REMARK    7  A    between atoms: C7_16  and  C8_17 
REMARK    8  A    between atoms: C8_17  and  O5_18 
ROOT
HETATM    1  N1  UNL     1     -15.943 -34.234  94.960  1.00  0.00     0.102 N 
HETATM    2  C3  UNL     1     -16.948 -35.255  94.960  1.00  0.00     0.307 C 
HETATM    3  C4  UNL     1     -16.867 -36.225  93.842  1.00  0.00     0.177 C 
HETATM    4  C5  UNL     1     -15.441 -36.747  93.681  1.00  0.00     0.179 C 
HETATM    5  C6  UNL     1     -14.620 -35.485  93.418  1.00  0.00     0.184 C 
HETATM    6  C7  UNL     1     -14.605 -34.734  94.737  1.00  0.00     0.277 C 
ENDROOT
BRANCH   1   7
HETATM    7  C2  UNL     1     -16.067 -33.465  96.162  1.00  0.00     0.299 C 
BRANCH   7   8
HETATM    8  C1  UNL     1     -16.855 -32.195  95.998  1.00  0.00     0.194 C 
BRANCH   8   9
HETATM    9  O1  UNL     1     -16.795 -31.822  94.655  1.00  0.00    -0.399 OA
ATOM     10  H1  UNL     1     -17.564 -31.299  94.462  1.00  0.00     0.209 HD
ENDBRANCH   8   9
ENDBRANCH   7   8
ENDBRANCH   1   7
BRANCH   6  11
HETATM   11  C8  UNL     1     -13.691 -33.540  94.488  1.00  0.00     0.202 C 
BRANCH  11  12
HETATM   12  O5  UNL     1     -14.236 -32.828  93.432  1.00  0.00    -0.399 OA
ATOM     13  H5  UNL     1     -15.016 -33.294  93.158  1.00  0.00     0.209 HD
ENDBRANCH  11  12
ENDBRANCH   6  11
BRANCH   3  14
HETATM   14  O2  UNL     1     -17.746 -37.276  94.092  1.00  0.00    -0.391 OA
ATOM     15  H2  UNL     1     -18.611 -36.921  94.258  1.00  0.00     0.210 HD
ENDBRANCH   3  14
BRANCH   5  16
HETATM   16  O4  UNL     1     -13.365 -35.758  92.941  1.00  0.00    -0.391 OA
ATOM     17  H4  UNL     1     -12.848 -36.280  93.544  1.00  0.00     0.210 HD
ENDBRANCH   5  16
BRANCH   4  18
HETATM   18  O3  UNL     1     -15.322 -37.676  92.683  1.00  0.00    -0.390 OA
ATOM     19  H3  UNL     1     -16.075 -37.695  92.104  1.00  0.00     0.210 HD
ENDBRANCH   4  18
TORSDOF 8
ENDMDL
