MODEL 1
REMARK VINA RESULT: -6.081659393      0.000      0.000
REMARK  8 active torsions:
REMARK  status: ('A' for Active; 'I' for Inactive)
REMARK    1  A    between atoms: O1_1  and  C1_3 
REMARK    2  A    between atoms: C1_3  and  C2_4 
REMARK    3  A    between atoms: C2_4  and  N1_5 
REMARK    4  A    between atoms: C4_7  and  O2_8 
REMARK    5  A    between atoms: C5_10  and  O3_11 
REMARK    6  A    between atoms: C6_13  and  O4_14 
REMARK    7  A    between atoms: C7_16  and  C8_17 
REMARK    8  A    between atoms: C8_17  and  O5_18 
ROOT
HETATM    1  N1  UNL     1     -14.743 -32.836  94.577  1.00  0.00     0.102 N 
HETATM    2  C3  UNL     1     -13.327 -32.791  94.790  1.00  0.00     0.307 C 
HETATM    3  C4  UNL     1     -12.859 -31.734  95.718  1.00  0.00     0.177 C 
HETATM    4  C5  UNL     1     -13.689 -31.734  97.001  1.00  0.00     0.179 C 
HETATM    5  C6  UNL     1     -15.114 -31.488  96.510  1.00  0.00     0.184 C 
HETATM    6  C7  UNL     1     -15.518 -32.764  95.794  1.00  0.00     0.277 C 
ENDROOT
BRANCH   1   7
HETATM    7  C2  UNL     1     -15.053 -33.982  93.775  1.00  0.00     0.299 C 
BRANCH   7   8
HETATM    8  C1  UNL     1     -14.371 -35.245  94.224  1.00  0.00     0.194 C 
BRANCH   8   9
HETATM    9  O1  UNL     1     -13.803 -35.850  93.103  1.00  0.00    -0.399 OA
ATOM     10  H1  UNL     1     -13.094 -35.295  92.799  1.00  0.00     0.209 HD
ENDBRANCH   8   9
ENDBRANCH   7   8
ENDBRANCH   1   7
BRANCH   6  11
HETATM   11  C8  UNL     1     -16.978 -32.544  95.413  1.00  0.00     0.202 C 
BRANCH  11  12
HETATM   12  O5  UNL     1     -17.053 -31.299  94.809  1.00  0.00    -0.399 OA
ATOM     13  H5  UNL     1     -17.262 -31.448  93.894  1.00  0.00     0.209 HD
ENDBRANCH  11  12
ENDBRANCH   6  11
BRANCH   3  14
HETATM   14  O2  UNL     1     -11.514 -31.952  96.008  1.00  0.00    -0.391 OA
ATOM     15  H2  UNL     1     -11.424 -32.125  96.938  1.00  0.00     0.210 HD
ENDBRANCH   3  14
BRANCH   5  16
HETATM   16  O4  UNL     1     -15.972 -31.146  97.522  1.00  0.00    -0.391 OA
ATOM     17  H4  UNL     1     -16.601 -31.830  97.719  1.00  0.00     0.210 HD
ENDBRANCH   5  16
BRANCH   4  18
HETATM   18  O3  UNL     1     -13.270 -30.798  97.907  1.00  0.00    -0.390 OA
ATOM     19  H3  UNL     1     -13.101 -31.164  98.767  1.00  0.00     0.210 HD
ENDBRANCH   4  18
TORSDOF 8
ENDMDL
