MODEL 9
REMARK VINA RESULT: -4.709407241      2.055      4.419
REMARK  8 active torsions:
REMARK  status: ('A' for Active; 'I' for Inactive)
REMARK    1  A    between atoms: O1_1  and  C1_3 
REMARK    2  A    between atoms: C1_3  and  C2_4 
REMARK    3  A    between atoms: C2_4  and  N1_5 
REMARK    4  A    between atoms: C4_7  and  O2_8 
REMARK    5  A    between atoms: C5_10  and  O3_11 
REMARK    6  A    between atoms: C6_13  and  O4_14 
REMARK    7  A    between atoms: C7_16  and  C8_17 
REMARK    8  A    between atoms: C8_17  and  O5_18 
ROOT
HETATM    1  N1  UNL     1     -14.797 -33.456  96.036  1.00  0.00     0.102 N 
HETATM    2  C3  UNL     1     -14.049 -34.613  96.431  1.00  0.00     0.307 C 
HETATM    3  C4  UNL     1     -14.751 -35.908  96.266  1.00  0.00     0.177 C 
HETATM    4  C5  UNL     1     -15.380 -36.010  94.878  1.00  0.00     0.179 C 
HETATM    5  C6  UNL     1     -16.336 -34.819  94.826  1.00  0.00     0.184 C 
HETATM    6  C7  UNL     1     -15.446 -33.593  94.752  1.00  0.00     0.277 C 
ENDROOT
BRANCH   1   7
HETATM    7  C2  UNL     1     -13.948 -32.306  96.122  1.00  0.00     0.299 C 
BRANCH   7   8
HETATM    8  C1  UNL     1     -14.068 -31.552  97.418  1.00  0.00     0.194 C 
BRANCH   8   9
HETATM    9  O1  UNL     1     -15.408 -31.201  97.588  1.00  0.00    -0.399 OA
ATOM     10  H1  UNL     1     -15.778 -31.771  98.252  1.00  0.00     0.209 HD
ENDBRANCH   8   9
ENDBRANCH   7   8
ENDBRANCH   1   7
BRANCH   6  11
HETATM   11  C8  UNL     1     -16.413 -32.426  94.585  1.00  0.00     0.202 C 
BRANCH  11  12
HETATM   12  O5  UNL     1     -17.272 -32.456  95.673  1.00  0.00    -0.399 OA
ATOM     13  H5  UNL     1     -17.462 -31.554  95.899  1.00  0.00     0.209 HD
ENDBRANCH  11  12
ENDBRANCH   6  11
BRANCH   3  14
HETATM   14  O2  UNL     1     -13.839 -36.943  96.465  1.00  0.00    -0.391 OA
ATOM     15  H2  UNL     1     -14.132 -37.474  97.197  1.00  0.00     0.210 HD
ENDBRANCH   3  14
BRANCH   5  16
HETATM   16  O4  UNL     1     -17.227 -34.900  93.788  1.00  0.00    -0.391 OA
ATOM     17  H4  UNL     1     -17.911 -35.541  93.939  1.00  0.00     0.210 HD
ENDBRANCH   5  16
BRANCH   4  18
HETATM   18  O3  UNL     1     -16.009 -37.207  94.664  1.00  0.00    -0.390 OA
ATOM     19  H3  UNL     1     -16.080 -37.429  93.744  1.00  0.00     0.210 HD
ENDBRANCH   4  18
TORSDOF 8
ENDMDL
