MODEL 10
REMARK VINA RESULT: -6.485236267      3.570      5.537
REMARK  10 active torsions:
REMARK  status: ('A' for Active; 'I' for Inactive)
REMARK    1  A    between atoms: C4_7  and  C5_8 
REMARK    2  A    between atoms: C8_11  and  C9_12 
REMARK    3  A    between atoms: C9_12  and  N2_13 
REMARK       I    between atoms: N2_13  and  C10_15 
REMARK    4  A    between atoms: C10_15  and  C11_17 
REMARK    5  A    between atoms: C13_19  and  O2_20 
REMARK       I    between atoms: N3_23  and  C15_24 
REMARK    6  A    between atoms: C15_24  and  C16_26 
REMARK    7  A    between atoms: C16_26  and  N4_27 
REMARK    8  A    between atoms: C16_26  and  C19_34 
REMARK       I    between atoms: N4_27  and  C17_29 
REMARK    9  A    between atoms: C17_29  and  C18_31 
REMARK   10  A    between atoms: C18_31  and  O5_32 
ROOT
HETATM    1  C11 UNL     1      11.719  52.998  89.588  1.00  0.00     0.181 C 
HETATM    2  C12 UNL     1      12.252  52.015  90.613  1.00  0.00     0.068 C 
HETATM    3  C13 UNL     1      11.839  50.667  90.103  1.00  0.00     0.138 C 
HETATM    4  C14 UNL     1      10.956  50.915  88.885  1.00  0.00     0.158 C 
HETATM    5  N3  UNL     1      10.596  52.318  88.999  1.00  0.00    -0.334 N 
HETATM    6  C15 UNL     1       9.345  52.865  88.631  1.00  0.00     0.244 C 
HETATM    7  O3  UNL     1       9.261  54.146  88.798  1.00  0.00    -0.271 OA
ENDROOT
BRANCH   1   8
HETATM    8  C10 UNL     1      12.740  53.489  88.677  1.00  0.00     0.241 C 
HETATM    9  N2  UNL     1      12.654  53.465  87.259  1.00  0.00    -0.355 N 
ATOM     10  H2  UNL     1      11.816  53.079  86.822  1.00  0.00     0.162 HD
HETATM   11  O1  UNL     1      13.833  53.997  89.123  1.00  0.00    -0.271 OA
BRANCH   9  12
HETATM   12  C9  UNL     1      13.719  53.971  86.412  1.00  0.00     0.161 C 
BRANCH  12  13
HETATM   13  C8  UNL     1      13.788  53.120  85.172  1.00  0.00    -0.040 A 
HETATM   14  C7  UNL     1      12.748  52.314  84.820  1.00  0.00     0.010 A 
HETATM   15  C6  UNL     1      12.742  51.519  83.710  1.00  0.00     0.013 A 
HETATM   16  C5  UNL     1      13.860  51.518  82.873  1.00  0.00    -0.017 A 
HETATM   17  C24 UNL     1      14.905  52.316  83.209  1.00  0.00     0.013 A 
HETATM   18  C23 UNL     1      14.891  53.131  84.362  1.00  0.00     0.010 A 
BRANCH  16  19
HETATM   19  C4  UNL     1      13.837  50.650  81.691  1.00  0.00     0.038 A 
HETATM   20  C2  UNL     1      14.565  50.555  80.559  1.00  0.00     0.023 A 
HETATM   21  C1  UNL     1      15.735  51.475  80.241  1.00  0.00     0.069 C 
HETATM   22  N1  UNL     1      14.236  49.632  79.695  1.00  0.00    -0.362 N 
HETATM   23  C3  UNL     1      13.228  48.822  79.920  1.00  0.00     0.139 A 
ATOM     24  H1  UNL     1      14.771  49.540  78.831  1.00  0.00     0.165 HD
HETATM   25  S1  UNL     1      12.680  49.360  81.436  1.00  0.00    -0.082 SA
ENDBRANCH  16  19
ENDBRANCH  12  13
ENDBRANCH   9  12
ENDBRANCH   1   8
BRANCH   3  26
HETATM   26  O2  UNL     1      11.187  49.913  91.075  1.00  0.00    -0.394 OA
ATOM     27  H2  UNL     1      10.802  49.121  90.718  1.00  0.00     0.210 HD
ENDBRANCH   3  26
BRANCH   6  28
HETATM   28  C16 UNL     1       8.182  52.135  88.104  1.00  0.00     0.184 C 
BRANCH  28  29
HETATM   29  N4  UNL     1       6.934  52.837  88.494  1.00  0.00    -0.345 N 
HETATM   30  C17 UNL     1       6.320  52.599  89.753  1.00  0.00     0.241 C 
HETATM   31  O4  UNL     1       6.885  51.769  90.515  1.00  0.00    -0.271 OA
ATOM     32  H4  UNL     1       6.509  53.501  87.847  1.00  0.00     0.163 HD
BRANCH  30  33
HETATM   33  C18 UNL     1       5.077  53.266  90.198  1.00  0.00     0.266 C 
BRANCH  33  34
HETATM   34  O5  UNL     1       5.355  54.240  91.148  1.00  0.00    -0.392 OA
ATOM     35  H5  UNL     1       4.587  54.772  91.319  1.00  0.00     0.210 HD
ENDBRANCH  33  34
ENDBRANCH  30  33
ENDBRANCH  28  29
BRANCH  28  36
HETATM   36  C19 UNL     1       8.165  51.881  86.634  1.00  0.00    -0.022 C 
HETATM   37  C20 UNL     1       9.127  52.744  85.859  1.00  0.00     0.017 C 
HETATM   38  C21 UNL     1       6.720  52.248  86.190  1.00  0.00     0.017 C 
HETATM   39  C22 UNL     1       8.339  50.429  86.333  1.00  0.00     0.017 C 
ENDBRANCH  28  36
ENDBRANCH   6  28
TORSDOF 10
ENDMDL
