MODEL 3
REMARK VINA RESULT: -7.649893388      0.851      1.564
REMARK  10 active torsions:
REMARK  status: ('A' for Active; 'I' for Inactive)
REMARK    1  A    between atoms: C4_7  and  C5_8 
REMARK    2  A    between atoms: C8_11  and  C9_12 
REMARK    3  A    between atoms: C9_12  and  N2_13 
REMARK       I    between atoms: N2_13  and  C10_15 
REMARK    4  A    between atoms: C10_15  and  C11_17 
REMARK    5  A    between atoms: C13_19  and  O2_20 
REMARK       I    between atoms: N3_23  and  C15_24 
REMARK    6  A    between atoms: C15_24  and  C16_26 
REMARK    7  A    between atoms: C16_26  and  N4_27 
REMARK    8  A    between atoms: C16_26  and  C19_34 
REMARK       I    between atoms: N4_27  and  C17_29 
REMARK    9  A    between atoms: C17_29  and  C18_31 
REMARK   10  A    between atoms: C18_31  and  O5_32 
ROOT
HETATM    1  C11 UNL     1      12.174  53.797  90.110  1.00  0.00     0.181 C 
HETATM    2  C12 UNL     1      13.265  54.644  89.484  1.00  0.00     0.068 C 
HETATM    3  C13 UNL     1      14.436  54.508  90.411  1.00  0.00     0.138 C 
HETATM    4  C14 UNL     1      13.946  53.714  91.616  1.00  0.00     0.158 C 
HETATM    5  N3  UNL     1      12.498  53.785  91.512  1.00  0.00    -0.334 N 
HETATM    6  C15 UNL     1      11.612  53.872  92.610  1.00  0.00     0.244 C 
HETATM    7  O3  UNL     1      10.361  53.898  92.276  1.00  0.00    -0.271 OA
ENDROOT
BRANCH   1   8
HETATM    8  C10 UNL     1      12.007  52.505  89.464  1.00  0.00     0.241 C 
HETATM    9  N2  UNL     1      11.382  52.292  88.205  1.00  0.00    -0.355 N 
ATOM     10  H2  UNL     1      11.016  53.096  87.694  1.00  0.00     0.162 HD
HETATM   11  O1  UNL     1      12.433  51.430  90.021  1.00  0.00    -0.271 OA
BRANCH   9  12
HETATM   12  C9  UNL     1      11.248  50.969  87.624  1.00  0.00     0.161 C 
BRANCH  12  13
HETATM   13  C8  UNL     1      11.965  50.953  86.302  1.00  0.00    -0.040 A 
HETATM   14  C7  UNL     1      12.344  52.114  85.699  1.00  0.00     0.010 A 
HETATM   15  C6  UNL     1      12.999  52.173  84.501  1.00  0.00     0.013 A 
HETATM   16  C5  UNL     1      13.308  50.983  83.840  1.00  0.00    -0.017 A 
HETATM   17  C24 UNL     1      12.938  49.817  84.427  1.00  0.00     0.013 A 
HETATM   18  C23 UNL     1      12.261  49.777  85.666  1.00  0.00     0.010 A 
BRANCH  16  19
HETATM   19  C4  UNL     1      14.002  51.069  82.552  1.00  0.00     0.038 A 
HETATM   20  C2  UNL     1      13.705  50.732  81.280  1.00  0.00     0.023 A 
HETATM   21  C1  UNL     1      12.381  50.099  80.873  1.00  0.00     0.069 C 
HETATM   22  N1  UNL     1      14.606  50.954  80.360  1.00  0.00    -0.362 N 
HETATM   23  C3  UNL     1      15.767  51.487  80.664  1.00  0.00     0.139 A 
ATOM     24  H1  UNL     1      14.405  50.708  79.391  1.00  0.00     0.165 HD
HETATM   25  S1  UNL     1      15.620  51.707  82.343  1.00  0.00    -0.082 SA
ENDBRANCH  16  19
ENDBRANCH  12  13
ENDBRANCH   9  12
ENDBRANCH   1   8
BRANCH   3  26
HETATM   26  O2  UNL     1      14.962  55.743  90.779  1.00  0.00    -0.394 OA
ATOM     27  H2  UNL     1      14.840  55.925  91.703  1.00  0.00     0.210 HD
ENDBRANCH   3  26
BRANCH   6  28
HETATM   28  C16 UNL     1      11.972  53.938  94.034  1.00  0.00     0.184 C 
BRANCH  28  29
HETATM   29  N4  UNL     1      11.245  55.058  94.681  1.00  0.00    -0.345 N 
HETATM   30  C17 UNL     1      11.888  56.297  94.942  1.00  0.00     0.241 C 
HETATM   31  O4  UNL     1      13.096  56.397  94.599  1.00  0.00    -0.271 OA
ATOM     32  H4  UNL     1      10.267  54.936  94.944  1.00  0.00     0.163 HD
BRANCH  30  33
HETATM   33  C18 UNL     1      11.217  57.449  95.584  1.00  0.00     0.266 C 
BRANCH  33  34
HETATM   34  O5  UNL     1      12.140  58.431  95.919  1.00  0.00    -0.392 OA
ATOM     35  H5  UNL     1      11.880  58.879  96.716  1.00  0.00     0.210 HD
ENDBRANCH  33  34
ENDBRANCH  30  33
ENDBRANCH  28  29
BRANCH  28  36
HETATM   36  C19 UNL     1      11.770  52.693  94.831  1.00  0.00    -0.022 C 
HETATM   37  C20 UNL     1      10.459  52.655  95.573  1.00  0.00     0.017 C 
HETATM   38  C21 UNL     1      12.920  52.709  95.879  1.00  0.00     0.017 C 
HETATM   39  C22 UNL     1      11.982  51.473  93.996  1.00  0.00     0.017 C 
ENDBRANCH  28  36
ENDBRANCH   6  28
TORSDOF 10
ENDMDL
