MODEL 2
REMARK VINA RESULT: -7.665384214      0.484      1.186
REMARK  10 active torsions:
REMARK  status: ('A' for Active; 'I' for Inactive)
REMARK    1  A    between atoms: C4_7  and  C5_8 
REMARK    2  A    between atoms: C8_11  and  C9_12 
REMARK    3  A    between atoms: C9_12  and  N2_13 
REMARK       I    between atoms: N2_13  and  C10_15 
REMARK    4  A    between atoms: C10_15  and  C11_17 
REMARK    5  A    between atoms: C13_19  and  O2_20 
REMARK       I    between atoms: N3_23  and  C15_24 
REMARK    6  A    between atoms: C15_24  and  C16_26 
REMARK    7  A    between atoms: C16_26  and  N4_27 
REMARK    8  A    between atoms: C16_26  and  C19_34 
REMARK       I    between atoms: N4_27  and  C17_29 
REMARK    9  A    between atoms: C17_29  and  C18_31 
REMARK   10  A    between atoms: C18_31  and  O5_32 
ROOT
HETATM    1  C11 UNL     1      12.123  53.788  90.049  1.00  0.00     0.181 C 
HETATM    2  C12 UNL     1      13.292  54.553  89.459  1.00  0.00     0.068 C 
HETATM    3  C13 UNL     1      14.412  54.361  90.439  1.00  0.00     0.138 C 
HETATM    4  C14 UNL     1      13.820  53.621  91.633  1.00  0.00     0.158 C 
HETATM    5  N3  UNL     1      12.386  53.781  91.464  1.00  0.00    -0.334 N 
HETATM    6  C15 UNL     1      11.461  53.942  92.521  1.00  0.00     0.244 C 
HETATM    7  O3  UNL     1      10.230  54.041  92.132  1.00  0.00    -0.271 OA
ENDROOT
BRANCH   1   8
HETATM    8  C10 UNL     1      11.902  52.498  89.416  1.00  0.00     0.241 C 
HETATM    9  N2  UNL     1      11.306  52.302  88.141  1.00  0.00    -0.355 N 
ATOM     10  H2  UNL     1      11.004  53.117  87.607  1.00  0.00     0.162 HD
HETATM   11  O1  UNL     1      12.249  51.409  90.001  1.00  0.00    -0.271 OA
BRANCH   9  12
HETATM   12  C9  UNL     1      11.114  50.980  87.574  1.00  0.00     0.161 C 
BRANCH  12  13
HETATM   13  C8  UNL     1      11.882  50.897  86.283  1.00  0.00    -0.040 A 
HETATM   14  C7  UNL     1      12.248  52.026  85.615  1.00  0.00     0.010 A 
HETATM   15  C6  UNL     1      12.946  52.026  84.442  1.00  0.00     0.013 A 
HETATM   16  C5  UNL     1      13.316  50.804  83.875  1.00  0.00    -0.017 A 
HETATM   17  C24 UNL     1      12.958  49.669  84.527  1.00  0.00     0.013 A 
HETATM   18  C23 UNL     1      12.236  49.691  85.740  1.00  0.00     0.010 A 
BRANCH  16  19
HETATM   19  C4  UNL     1      14.056  50.825  82.610  1.00  0.00     0.038 A 
HETATM   20  C2  UNL     1      15.209  51.381  82.185  1.00  0.00     0.023 A 
HETATM   21  C1  UNL     1      16.106  52.227  83.079  1.00  0.00     0.069 C 
HETATM   22  N1  UNL     1      15.561  51.189  80.941  1.00  0.00    -0.362 N 
HETATM   23  C3  UNL     1      14.815  50.477  80.129  1.00  0.00     0.139 A 
ATOM     24  H1  UNL     1      16.429  51.599  80.596  1.00  0.00     0.165 HD
HETATM   25  S1  UNL     1      13.526  50.030  81.142  1.00  0.00    -0.082 SA
ENDBRANCH  16  19
ENDBRANCH  12  13
ENDBRANCH   9  12
ENDBRANCH   1   8
BRANCH   3  26
HETATM   26  O2  UNL     1      14.998  55.567  90.811  1.00  0.00    -0.394 OA
ATOM     27  H2  UNL     1      15.366  55.533  91.686  1.00  0.00     0.210 HD
ENDBRANCH   3  26
BRANCH   6  28
HETATM   28  C16 UNL     1      11.763  54.011  93.958  1.00  0.00     0.184 C 
BRANCH  28  29
HETATM   29  N4  UNL     1      11.091  55.192  94.554  1.00  0.00    -0.345 N 
HETATM   30  C17 UNL     1      11.832  56.335  94.955  1.00  0.00     0.241 C 
HETATM   31  O4  UNL     1      13.079  56.296  94.780  1.00  0.00    -0.271 OA
ATOM     32  H4  UNL     1      10.078  55.183  94.678  1.00  0.00     0.163 HD
BRANCH  30  33
HETATM   33  C18 UNL     1      11.219  57.541  95.554  1.00  0.00     0.266 C 
BRANCH  33  34
HETATM   34  O5  UNL     1      12.191  58.482  95.868  1.00  0.00    -0.392 OA
ATOM     35  H5  UNL     1      12.760  58.160  96.557  1.00  0.00     0.210 HD
ENDBRANCH  33  34
ENDBRANCH  30  33
ENDBRANCH  28  29
BRANCH  28  36
HETATM   36  C19 UNL     1      11.439  52.799  94.766  1.00  0.00    -0.022 C 
HETATM   37  C20 UNL     1      10.099  52.870  95.453  1.00  0.00     0.017 C 
HETATM   38  C21 UNL     1      12.543  52.753  95.861  1.00  0.00     0.017 C 
HETATM   39  C22 UNL     1      11.597  51.552  93.961  1.00  0.00     0.017 C 
ENDBRANCH  28  36
ENDBRANCH   6  28
TORSDOF 10
ENDMDL
