MODEL 1
REMARK VINA RESULT: -7.995729106      0.000      0.000
REMARK  10 active torsions:
REMARK  status: ('A' for Active; 'I' for Inactive)
REMARK    1  A    between atoms: C4_7  and  C5_8 
REMARK    2  A    between atoms: C8_11  and  C9_12 
REMARK    3  A    between atoms: C9_12  and  N2_13 
REMARK       I    between atoms: N2_13  and  C10_15 
REMARK    4  A    between atoms: C10_15  and  C11_17 
REMARK    5  A    between atoms: C13_19  and  O2_20 
REMARK       I    between atoms: N3_23  and  C15_24 
REMARK    6  A    between atoms: C15_24  and  C16_26 
REMARK    7  A    between atoms: C16_26  and  N4_27 
REMARK    8  A    between atoms: C16_26  and  C19_34 
REMARK       I    between atoms: N4_27  and  C17_29 
REMARK    9  A    between atoms: C17_29  and  C18_31 
REMARK   10  A    between atoms: C18_31  and  O5_32 
ROOT
HETATM    1  C11 UNL     1      12.290  53.904  89.987  1.00  0.00     0.181 C 
HETATM    2  C12 UNL     1      13.358  54.744  89.314  1.00  0.00     0.068 C 
HETATM    3  C13 UNL     1      14.572  54.591  90.182  1.00  0.00     0.138 C 
HETATM    4  C14 UNL     1      14.132  53.793  91.404  1.00  0.00     0.158 C 
HETATM    5  N3  UNL     1      12.682  53.879  91.371  1.00  0.00    -0.334 N 
HETATM    6  C15 UNL     1      11.851  53.967  92.512  1.00  0.00     0.244 C 
HETATM    7  O3  UNL     1      10.586  54.007  92.239  1.00  0.00    -0.271 OA
ENDROOT
BRANCH   1   8
HETATM    8  C10 UNL     1      12.079  52.618  89.342  1.00  0.00     0.241 C 
HETATM    9  N2  UNL     1      11.546  52.433  88.038  1.00  0.00    -0.355 N 
ATOM     10  H2  UNL     1      11.285  53.253  87.490  1.00  0.00     0.162 HD
HETATM   11  O1  UNL     1      12.377  51.523  89.942  1.00  0.00    -0.271 OA
BRANCH   9  12
HETATM   12  C9  UNL     1      11.359  51.114  87.460  1.00  0.00     0.161 C 
BRANCH  12  13
HETATM   13  C8  UNL     1      12.078  51.066  86.139  1.00  0.00    -0.040 A 
HETATM   14  C7  UNL     1      12.330  49.877  85.525  1.00  0.00     0.010 A 
HETATM   15  C6  UNL     1      12.974  49.760  84.326  1.00  0.00     0.013 A 
HETATM   16  C5  UNL     1      13.409  50.916  83.675  1.00  0.00    -0.017 A 
HETATM   17  C24 UNL     1      13.166  52.110  84.274  1.00  0.00     0.013 A 
HETATM   18  C23 UNL     1      12.498  52.210  85.514  1.00  0.00     0.010 A 
BRANCH  16  19
HETATM   19  C4  UNL     1      14.107  50.767  82.395  1.00  0.00     0.038 A 
HETATM   20  C2  UNL     1      15.307  51.147  81.909  1.00  0.00     0.023 A 
HETATM   21  C1  UNL     1      16.329  51.924  82.727  1.00  0.00     0.069 C 
HETATM   22  N1  UNL     1      15.593  50.837  80.673  1.00  0.00    -0.362 N 
HETATM   23  C3  UNL     1      14.740  50.178  79.925  1.00  0.00     0.139 A 
ATOM     24  H1  UNL     1      16.495  51.113  80.282  1.00  0.00     0.165 HD
HETATM   25  S1  UNL     1      13.437  49.959  80.993  1.00  0.00    -0.082 SA
ENDBRANCH  16  19
ENDBRANCH  12  13
ENDBRANCH   9  12
ENDBRANCH   1   8
BRANCH   3  26
HETATM   26  O2  UNL     1      15.127  55.819  90.532  1.00  0.00    -0.394 OA
ATOM     27  H2  UNL     1      14.517  56.537  90.410  1.00  0.00     0.210 HD
ENDBRANCH   3  26
BRANCH   6  28
HETATM   28  C16 UNL     1      12.281  54.020  93.917  1.00  0.00     0.184 C 
BRANCH  28  29
HETATM   29  N4  UNL     1      11.360  54.892  94.688  1.00  0.00    -0.345 N 
HETATM   30  C17 UNL     1      11.728  56.217  95.043  1.00  0.00     0.241 C 
HETATM   31  O4  UNL     1      12.867  56.611  94.674  1.00  0.00    -0.271 OA
ATOM     32  H4  UNL     1      10.447  54.533  94.968  1.00  0.00     0.163 HD
BRANCH  30  33
HETATM   33  C18 UNL     1      10.855  57.132  95.810  1.00  0.00     0.266 C 
BRANCH  33  34
HETATM   34  O5  UNL     1      11.577  58.222  96.280  1.00  0.00    -0.392 OA
ATOM     35  H5  UNL     1      11.876  58.069  97.168  1.00  0.00     0.210 HD
ENDBRANCH  33  34
ENDBRANCH  30  33
ENDBRANCH  28  29
BRANCH  28  36
HETATM   36  C19 UNL     1      12.425  52.711  94.619  1.00  0.00    -0.022 C 
HETATM   37  C20 UNL     1      12.490  51.528  93.688  1.00  0.00     0.017 C 
HETATM   38  C21 UNL     1      11.132  52.583  95.475  1.00  0.00     0.017 C 
HETATM   39  C22 UNL     1      13.564  52.736  95.584  1.00  0.00     0.017 C 
ENDBRANCH  28  36
ENDBRANCH   6  28
TORSDOF 10
ENDMDL
