MODEL 14
REMARK VINA RESULT: -6.295286394      4.245     11.282
REMARK  10 active torsions:
REMARK  status: ('A' for Active; 'I' for Inactive)
REMARK    1  A    between atoms: C4_7  and  C5_8 
REMARK    2  A    between atoms: C8_11  and  C9_12 
REMARK    3  A    between atoms: C9_12  and  N2_13 
REMARK       I    between atoms: N2_13  and  C10_15 
REMARK    4  A    between atoms: C10_15  and  C11_17 
REMARK    5  A    between atoms: C13_19  and  O2_20 
REMARK       I    between atoms: N3_23  and  C15_24 
REMARK    6  A    between atoms: C15_24  and  C16_26 
REMARK    7  A    between atoms: C16_26  and  N4_27 
REMARK    8  A    between atoms: C16_26  and  C19_34 
REMARK       I    between atoms: N4_27  and  C17_29 
REMARK    9  A    between atoms: C17_29  and  C18_31 
REMARK   10  A    between atoms: C18_31  and  O5_32 
ROOT
HETATM    1  C11 UNL     1      11.217  51.645  86.259  1.00  0.00     0.181 C 
HETATM    2  C12 UNL     1      10.920  50.478  87.181  1.00  0.00     0.068 C 
HETATM    3  C13 UNL     1      11.780  49.359  86.673  1.00  0.00     0.138 C 
HETATM    4  C14 UNL     1      12.434  49.861  85.391  1.00  0.00     0.158 C 
HETATM    5  N3  UNL     1      11.641  51.025  85.031  1.00  0.00    -0.334 N 
HETATM    6  C15 UNL     1      11.330  51.414  83.708  1.00  0.00     0.244 C 
HETATM    7  O3  UNL     1      10.631  52.501  83.630  1.00  0.00    -0.271 OA
ENDROOT
BRANCH   1   8
HETATM    8  C10 UNL     1      12.117  52.625  86.844  1.00  0.00     0.241 C 
HETATM    9  N2  UNL     1      12.210  52.930  88.229  1.00  0.00    -0.355 N 
ATOM     10  H2  UNL     1      11.608  52.431  88.885  1.00  0.00     0.162 HD
HETATM   11  O1  UNL     1      12.919  53.307  86.108  1.00  0.00    -0.271 OA
BRANCH   9  12
HETATM   12  C9  UNL     1      13.132  53.927  88.740  1.00  0.00     0.161 C 
BRANCH  12  13
HETATM   13  C8  UNL     1      12.982  53.994  90.236  1.00  0.00    -0.040 A 
HETATM   14  C7  UNL     1      11.849  53.547  90.845  1.00  0.00     0.010 A 
HETATM   15  C6  UNL     1      11.647  53.575  92.195  1.00  0.00     0.013 A 
HETATM   16  C5  UNL     1      12.649  54.091  93.019  1.00  0.00    -0.017 A 
HETATM   17  C24 UNL     1      13.785  54.542  92.428  1.00  0.00     0.013 A 
HETATM   18  C23 UNL     1      13.975  54.504  91.030  1.00  0.00     0.010 A 
BRANCH  16  19
HETATM   19  C4  UNL     1      12.408  54.122  94.464  1.00  0.00     0.038 A 
HETATM   20  C2  UNL     1      12.048  55.069  95.355  1.00  0.00     0.023 A 
HETATM   21  C1  UNL     1      11.779  56.517  94.968  1.00  0.00     0.069 C 
HETATM   22  N1  UNL     1      11.937  54.721  96.609  1.00  0.00    -0.362 N 
HETATM   23  C3  UNL     1      12.170  53.488  96.992  1.00  0.00     0.139 A 
ATOM     24  H1  UNL     1      11.666  55.419  97.302  1.00  0.00     0.165 HD
HETATM   25  S1  UNL     1      12.573  52.736  95.522  1.00  0.00    -0.082 SA
ENDBRANCH  16  19
ENDBRANCH  12  13
ENDBRANCH   9  12
ENDBRANCH   1   8
BRANCH   3  26
HETATM   26  O2  UNL     1      11.055  48.190  86.466  1.00  0.00    -0.394 OA
ATOM     27  H2  UNL     1      11.615  47.453  86.251  1.00  0.00     0.210 HD
ENDBRANCH   3  26
BRANCH   6  28
HETATM   28  C16 UNL     1      11.710  50.718  82.470  1.00  0.00     0.184 C 
BRANCH  28  29
HETATM   29  N4  UNL     1      13.175  50.485  82.457  1.00  0.00    -0.345 N 
HETATM   30  C17 UNL     1      13.960  50.802  81.316  1.00  0.00     0.241 C 
HETATM   31  O4  UNL     1      13.354  51.287  80.324  1.00  0.00    -0.271 OA
ATOM     32  H4  UNL     1      13.627  50.090  83.282  1.00  0.00     0.163 HD
BRANCH  30  33
HETATM   33  C18 UNL     1      15.423  50.592  81.244  1.00  0.00     0.266 C 
BRANCH  33  34
HETATM   34  O5  UNL     1      15.839  50.482  79.923  1.00  0.00    -0.392 OA
ATOM     35  H5  UNL     1      15.220  49.968  79.418  1.00  0.00     0.210 HD
ENDBRANCH  33  34
ENDBRANCH  30  33
ENDBRANCH  28  29
BRANCH  28  36
HETATM   36  C19 UNL     1      11.004  49.436  82.183  1.00  0.00    -0.022 C 
HETATM   37  C20 UNL     1      11.897  48.224  82.253  1.00  0.00     0.017 C 
HETATM   38  C21 UNL     1      10.503  49.584  80.717  1.00  0.00     0.017 C 
HETATM   39  C22 UNL     1       9.782  49.288  83.029  1.00  0.00     0.017 C 
ENDBRANCH  28  36
ENDBRANCH   6  28
TORSDOF 10
ENDMDL
