MODEL 9
REMARK VINA RESULT: -6.586638560      4.371     11.171
REMARK  10 active torsions:
REMARK  status: ('A' for Active; 'I' for Inactive)
REMARK    1  A    between atoms: C4_7  and  C5_8 
REMARK    2  A    between atoms: C8_11  and  C9_12 
REMARK    3  A    between atoms: C9_12  and  N2_13 
REMARK       I    between atoms: N2_13  and  C10_15 
REMARK    4  A    between atoms: C10_15  and  C11_17 
REMARK    5  A    between atoms: C13_19  and  O2_20 
REMARK       I    between atoms: N3_23  and  C15_24 
REMARK    6  A    between atoms: C15_24  and  C16_26 
REMARK    7  A    between atoms: C16_26  and  N4_27 
REMARK    8  A    between atoms: C16_26  and  C19_34 
REMARK       I    between atoms: N4_27  and  C17_29 
REMARK    9  A    between atoms: C17_29  and  C18_31 
REMARK   10  A    between atoms: C18_31  and  O5_32 
ROOT
HETATM    1  C11 UNL     1      10.511  52.420  87.697  1.00  0.00     0.181 C 
HETATM    2  C12 UNL     1       9.549  51.621  88.555  1.00  0.00     0.068 C 
HETATM    3  C13 UNL     1       9.764  50.194  88.145  1.00  0.00     0.138 C 
HETATM    4  C14 UNL     1      10.728  50.222  86.965  1.00  0.00     0.158 C 
HETATM    5  N3  UNL     1      10.697  51.607  86.525  1.00  0.00    -0.334 N 
HETATM    6  C15 UNL     1      10.789  52.029  85.178  1.00  0.00     0.244 C 
HETATM    7  O3  UNL     1      10.764  53.315  85.028  1.00  0.00    -0.271 OA
ENDROOT
BRANCH   1   8
HETATM    8  C10 UNL     1      11.711  52.830  88.408  1.00  0.00     0.241 C 
HETATM    9  N2  UNL     1      11.808  53.018  89.813  1.00  0.00    -0.355 N 
ATOM     10  H2  UNL     1      10.983  52.855  90.391  1.00  0.00     0.162 HD
HETATM   11  O1  UNL     1      12.806  53.059  87.777  1.00  0.00    -0.271 OA
BRANCH   9  12
HETATM   12  C9  UNL     1      13.042  53.434  90.453  1.00  0.00     0.161 C 
BRANCH  12  13
HETATM   13  C8  UNL     1      12.726  53.882  91.855  1.00  0.00    -0.040 A 
HETATM   14  C7  UNL     1      11.483  53.706  92.380  1.00  0.00     0.010 A 
HETATM   15  C6  UNL     1      11.127  54.086  93.643  1.00  0.00     0.013 A 
HETATM   16  C5  UNL     1      12.082  54.694  94.460  1.00  0.00    -0.017 A 
HETATM   17  C24 UNL     1      13.328  54.877  93.952  1.00  0.00     0.013 A 
HETATM   18  C23 UNL     1      13.675  54.476  92.643  1.00  0.00     0.010 A 
BRANCH  16  19
HETATM   19  C4  UNL     1      11.678  55.103  95.809  1.00  0.00     0.038 A 
HETATM   20  C2  UNL     1      11.378  56.276  96.403  1.00  0.00     0.023 A 
HETATM   21  C1  UNL     1      11.405  57.612  95.672  1.00  0.00     0.069 C 
HETATM   22  N1  UNL     1      11.061  56.257  97.670  1.00  0.00    -0.362 N 
HETATM   23  C3  UNL     1      11.035  55.132  98.345  1.00  0.00     0.139 A 
ATOM     24  H1  UNL     1      10.830  57.132  98.143  1.00  0.00     0.165 HD
HETATM   25  S1  UNL     1      11.479  54.002  97.156  1.00  0.00    -0.082 SA
ENDBRANCH  16  19
ENDBRANCH  12  13
ENDBRANCH   9  12
ENDBRANCH   1   8
BRANCH   3  26
HETATM   26  O2  UNL     1       8.570  49.552  87.828  1.00  0.00    -0.394 OA
ATOM     27  H2  UNL     1       8.524  48.677  88.195  1.00  0.00     0.210 HD
ENDBRANCH   3  26
BRANCH   6  28
HETATM   28  C16 UNL     1      10.899  51.173  83.988  1.00  0.00     0.184 C 
BRANCH  28  29
HETATM   29  N4  UNL     1      10.193  51.810  82.848  1.00  0.00    -0.345 N 
HETATM   30  C17 UNL     1       8.833  51.515  82.569  1.00  0.00     0.241 C 
HETATM   31  O4  UNL     1       8.260  50.692  83.332  1.00  0.00    -0.271 OA
ATOM     32  H4  UNL     1      10.695  52.471  82.255  1.00  0.00     0.163 HD
BRANCH  30  33
HETATM   33  C18 UNL     1       8.077  52.117  81.449  1.00  0.00     0.266 C 
BRANCH  33  34
HETATM   34  O5  UNL     1       7.780  53.447  81.714  1.00  0.00    -0.392 OA
ATOM     35  H5  UNL     1       7.926  53.647  82.631  1.00  0.00     0.210 HD
ENDBRANCH  33  34
ENDBRANCH  30  33
ENDBRANCH  28  29
BRANCH  28  36
HETATM   36  C19 UNL     1      12.279  50.795  83.565  1.00  0.00    -0.022 C 
HETATM   37  C20 UNL     1      13.334  51.783  83.989  1.00  0.00     0.017 C 
HETATM   38  C21 UNL     1      12.221  50.784  82.010  1.00  0.00     0.017 C 
HETATM   39  C22 UNL     1      12.610  49.400  83.981  1.00  0.00     0.017 C 
ENDBRANCH  28  36
ENDBRANCH   6  28
TORSDOF 10
ENDMDL
