MODEL 4
REMARK VINA RESULT: -7.943894005      1.177      1.523
REMARK  9 active torsions:
REMARK  status: ('A' for Active; 'I' for Inactive)
REMARK    1  A    between atoms: C4_7  and  C5_8 
REMARK    2  A    between atoms: C8_11  and  C9_12 
REMARK    3  A    between atoms: C9_12  and  N2_13 
REMARK       I    between atoms: N2_13  and  C10_15 
REMARK    4  A    between atoms: C10_15  and  C11_17 
REMARK    5  A    between atoms: C13_19  and  O2_20 
REMARK       I    between atoms: N3_23  and  C15_24 
REMARK    6  A    between atoms: C15_24  and  C16_26 
REMARK    7  A    between atoms: C16_26  and  N4_27 
REMARK    8  A    between atoms: C16_26  and  C21_34 
REMARK       I    between atoms: N4_27  and  C17_29 
REMARK    9  A    between atoms: C17_29  and  C18_31 
ROOT
HETATM    1  C11 UNL     1      11.261  53.860  90.304  1.00  0.00     0.181 C 
HETATM    2  C12 UNL     1      12.557  54.461  89.813  1.00  0.00     0.068 C 
HETATM    3  C13 UNL     1      13.609  54.027  90.793  1.00  0.00     0.138 C 
HETATM    4  C14 UNL     1      12.884  53.169  91.822  1.00  0.00     0.158 C 
HETATM    5  N3  UNL     1      11.490  53.512  91.693  1.00  0.00    -0.334 N 
HETATM    6  C15 UNL     1      10.524  53.534  92.718  1.00  0.00     0.244 C 
HETATM    7  O3  UNL     1       9.327  53.859  92.443  1.00  0.00    -0.271 OA
ENDROOT
BRANCH   1   8
HETATM    8  C10 UNL     1      10.792  52.753  89.467  1.00  0.00     0.241 C 
HETATM    9  N2  UNL     1      11.162  52.672  88.073  1.00  0.00    -0.355 N 
ATOM     10  H2  UNL     1      11.756  53.400  87.677  1.00  0.00     0.162 HD
HETATM   11  O1  UNL     1      10.059  51.811  89.858  1.00  0.00    -0.271 OA
BRANCH   9  12
HETATM   12  C9  UNL     1      10.717  51.593  87.220  1.00  0.00     0.161 C 
BRANCH  12  13
HETATM   13  C8  UNL     1      11.574  51.426  86.009  1.00  0.00    -0.040 A 
HETATM   14  C7  UNL     1      11.755  50.222  85.391  1.00  0.00     0.010 A 
HETATM   15  C6  UNL     1      12.565  50.133  84.276  1.00  0.00     0.013 A 
HETATM   16  C5  UNL     1      13.224  51.244  83.741  1.00  0.00    -0.017 A 
HETATM   17  C26 UNL     1      13.035  52.416  84.362  1.00  0.00     0.013 A 
HETATM   18  C25 UNL     1      12.210  52.530  85.503  1.00  0.00     0.010 A 
BRANCH  16  19
HETATM   19  C4  UNL     1      14.044  51.016  82.567  1.00  0.00     0.038 A 
HETATM   20  C2  UNL     1      15.316  51.380  82.213  1.00  0.00     0.023 A 
HETATM   21  C1  UNL     1      16.220  52.207  83.129  1.00  0.00     0.069 C 
HETATM   22  N1  UNL     1      15.750  50.987  81.047  1.00  0.00    -0.362 N 
HETATM   23  C3  UNL     1      15.002  50.276  80.247  1.00  0.00     0.139 A 
ATOM     24  H1  UNL     1      16.693  51.242  80.753  1.00  0.00     0.165 HD
HETATM   25  S1  UNL     1      13.574  50.114  81.144  1.00  0.00    -0.082 SA
ENDBRANCH  16  19
ENDBRANCH  12  13
ENDBRANCH   9  12
ENDBRANCH   1   8
BRANCH   3  26
HETATM   26  O2  UNL     1      14.247  55.118  91.381  1.00  0.00    -0.394 OA
ATOM     27  H2  UNL     1      13.864  55.340  92.221  1.00  0.00     0.210 HD
ENDBRANCH   3  26
BRANCH   6  28
HETATM   28  C16 UNL     1      10.915  53.184  94.103  1.00  0.00     0.184 C 
BRANCH  28  29
HETATM   29  N4  UNL     1      10.593  54.390  94.896  1.00  0.00    -0.347 N 
HETATM   30  C17 UNL     1      11.558  55.325  95.302  1.00  0.00     0.222 C 
HETATM   31  O4  UNL     1      12.755  55.083  94.947  1.00  0.00    -0.273 OA
ATOM     32  H4  UNL     1       9.622  54.550  95.162  1.00  0.00     0.163 HD
BRANCH  30  33
HETATM   33  C18 UNL     1      11.253  56.538  96.097  1.00  0.00     0.078 A 
HETATM   34  C19 UNL     1      10.001  57.299  95.847  1.00  0.00     0.015 A 
HETATM   35  C20 UNL     1      11.324  57.875  95.457  1.00  0.00     0.015 A 
ENDBRANCH  30  33
ENDBRANCH  28  29
BRANCH  28  36
HETATM   36  C21 UNL     1      10.122  52.014  94.675  1.00  0.00    -0.022 C 
HETATM   37  C22 UNL     1      10.254  50.844  93.744  1.00  0.00     0.017 C 
HETATM   38  C23 UNL     1      10.836  51.664  95.989  1.00  0.00     0.017 C 
HETATM   39  C24 UNL     1       8.690  52.369  94.949  1.00  0.00     0.017 C 
ENDBRANCH  28  36
ENDBRANCH   6  28
TORSDOF 9
ENDMDL
