MODEL 2
REMARK VINA RESULT: -8.505544990      0.585      1.038
REMARK  9 active torsions:
REMARK  status: ('A' for Active; 'I' for Inactive)
REMARK    1  A    between atoms: C4_7  and  C5_8 
REMARK    2  A    between atoms: C8_11  and  C9_12 
REMARK    3  A    between atoms: C9_12  and  N2_13 
REMARK       I    between atoms: N2_13  and  C10_15 
REMARK    4  A    between atoms: C10_15  and  C11_17 
REMARK    5  A    between atoms: C13_19  and  O2_20 
REMARK       I    between atoms: N3_23  and  C15_24 
REMARK    6  A    between atoms: C15_24  and  C16_26 
REMARK    7  A    between atoms: C16_26  and  N4_27 
REMARK    8  A    between atoms: C16_26  and  C21_34 
REMARK       I    between atoms: N4_27  and  C17_29 
REMARK    9  A    between atoms: C17_29  and  C18_31 
ROOT
HETATM    1  C11 UNL     1      12.250  53.940  89.955  1.00  0.00     0.181 C 
HETATM    2  C12 UNL     1      13.297  54.777  89.258  1.00  0.00     0.068 C 
HETATM    3  C13 UNL     1      14.541  54.657  90.090  1.00  0.00     0.138 C 
HETATM    4  C14 UNL     1      14.176  53.733  91.245  1.00  0.00     0.158 C 
HETATM    5  N3  UNL     1      12.736  53.749  91.308  1.00  0.00    -0.334 N 
HETATM    6  C15 UNL     1      11.936  53.628  92.461  1.00  0.00     0.244 C 
HETATM    7  O3  UNL     1      10.671  53.660  92.352  1.00  0.00    -0.271 OA
ENDROOT
BRANCH   1   8
HETATM    8  C10 UNL     1      11.940  52.701  89.238  1.00  0.00     0.241 C 
HETATM    9  N2  UNL     1      11.173  52.727  88.014  1.00  0.00    -0.355 N 
ATOM     10  H2  UNL     1      10.849  53.624  87.654  1.00  0.00     0.162 HD
HETATM   11  O1  UNL     1      12.292  51.550  89.597  1.00  0.00    -0.271 OA
BRANCH   9  12
HETATM   12  C9  UNL     1      10.851  51.523  87.282  1.00  0.00     0.161 C 
BRANCH  12  13
HETATM   13  C8  UNL     1      11.666  51.369  86.040  1.00  0.00    -0.040 A 
HETATM   14  C7  UNL     1      12.304  52.416  85.439  1.00  0.00     0.010 A 
HETATM   15  C6  UNL     1      13.039  52.208  84.288  1.00  0.00     0.013 A 
HETATM   16  C5  UNL     1      13.161  50.947  83.697  1.00  0.00    -0.017 A 
HETATM   17  C26 UNL     1      12.528  49.933  84.302  1.00  0.00     0.013 A 
HETATM   18  C25 UNL     1      11.771  50.123  85.480  1.00  0.00     0.010 A 
BRANCH  16  19
HETATM   19  C4  UNL     1      13.963  50.863  82.492  1.00  0.00     0.038 A 
HETATM   20  C2  UNL     1      15.194  51.345  82.136  1.00  0.00     0.023 A 
HETATM   21  C1  UNL     1      16.060  52.173  83.088  1.00  0.00     0.069 C 
HETATM   22  N1  UNL     1      15.622  51.068  80.935  1.00  0.00    -0.362 N 
HETATM   23  C3  UNL     1      14.906  50.360  80.104  1.00  0.00     0.139 A 
ATOM     24  H1  UNL     1      16.535  51.413  80.639  1.00  0.00     0.165 HD
HETATM   25  S1  UNL     1      13.520  50.029  81.019  1.00  0.00    -0.082 SA
ENDBRANCH  16  19
ENDBRANCH  12  13
ENDBRANCH   9  12
ENDBRANCH   1   8
BRANCH   3  26
HETATM   26  O2  UNL     1      14.985  55.901  90.538  1.00  0.00    -0.394 OA
ATOM     27  H2  UNL     1      14.618  56.121  91.385  1.00  0.00     0.210 HD
ENDBRANCH   3  26
BRANCH   6  28
HETATM   28  C16 UNL     1      12.578  53.470  93.787  1.00  0.00     0.184 C 
BRANCH  28  29
HETATM   29  N4  UNL     1      11.680  54.182  94.721  1.00  0.00    -0.347 N 
HETATM   30  C17 UNL     1      11.835  55.536  95.058  1.00  0.00     0.222 C 
HETATM   31  O4  UNL     1      12.809  56.140  94.508  1.00  0.00    -0.273 OA
ATOM     32  H4  UNL     1      10.910  53.664  95.143  1.00  0.00     0.163 HD
BRANCH  30  33
HETATM   33  C18 UNL     1      10.945  56.264  95.993  1.00  0.00     0.078 A 
HETATM   34  C19 UNL     1       9.565  56.627  95.579  1.00  0.00     0.015 A 
HETATM   35  C20 UNL     1      10.609  57.686  95.733  1.00  0.00     0.015 A 
ENDBRANCH  30  33
ENDBRANCH  28  29
BRANCH  28  36
HETATM   36  C21 UNL     1      12.679  52.018  94.239  1.00  0.00    -0.022 C 
HETATM   37  C22 UNL     1      13.795  51.902  95.236  1.00  0.00     0.017 C 
HETATM   38  C23 UNL     1      11.356  51.742  94.966  1.00  0.00     0.017 C 
HETATM   39  C24 UNL     1      12.839  51.068  93.088  1.00  0.00     0.017 C 
ENDBRANCH  28  36
ENDBRANCH   6  28
TORSDOF 9
ENDMDL
