MODEL 11
REMARK VINA RESULT: -6.589996340      4.175     11.096
REMARK  9 active torsions:
REMARK  status: ('A' for Active; 'I' for Inactive)
REMARK    1  A    between atoms: C4_7  and  C5_8 
REMARK    2  A    between atoms: C8_11  and  C9_12 
REMARK    3  A    between atoms: C9_12  and  N2_13 
REMARK       I    between atoms: N2_13  and  C10_15 
REMARK    4  A    between atoms: C10_15  and  C11_17 
REMARK    5  A    between atoms: C13_19  and  O2_20 
REMARK       I    between atoms: N3_23  and  C15_24 
REMARK    6  A    between atoms: C15_24  and  C16_26 
REMARK    7  A    between atoms: C16_26  and  N4_27 
REMARK    8  A    between atoms: C16_26  and  C21_34 
REMARK       I    between atoms: N4_27  and  C17_29 
REMARK    9  A    between atoms: C17_29  and  C18_31 
ROOT
HETATM    1  C11 UNL     1      10.123  52.207  87.907  1.00  0.00     0.181 C 
HETATM    2  C12 UNL     1       8.990  51.529  88.641  1.00  0.00     0.068 C 
HETATM    3  C13 UNL     1       8.859  50.165  88.027  1.00  0.00     0.138 C 
HETATM    4  C14 UNL     1       9.941  50.090  86.958  1.00  0.00     0.158 C 
HETATM    5  N3  UNL     1      10.298  51.458  86.678  1.00  0.00    -0.334 N 
HETATM    6  C15 UNL     1      10.718  51.989  85.442  1.00  0.00     0.244 C 
HETATM    7  O3  UNL     1      11.001  53.225  85.356  1.00  0.00    -0.271 OA
ENDROOT
BRANCH   1   8
HETATM    8  C10 UNL     1      11.334  52.336  88.721  1.00  0.00     0.241 C 
HETATM    9  N2  UNL     1      11.778  53.629  89.186  1.00  0.00    -0.355 N 
ATOM     10  H2  UNL     1      11.235  54.456  88.938  1.00  0.00     0.162 HD
HETATM   11  O1  UNL     1      12.069  51.383  89.078  1.00  0.00    -0.271 OA
BRANCH   9  12
HETATM   12  C9  UNL     1      12.968  53.791  89.990  1.00  0.00     0.161 C 
BRANCH  12  13
HETATM   13  C8  UNL     1      12.660  54.038  91.430  1.00  0.00    -0.040 A 
HETATM   14  C7  UNL     1      13.578  54.538  92.309  1.00  0.00     0.010 A 
HETATM   15  C6  UNL     1      13.232  54.740  93.630  1.00  0.00     0.013 A 
HETATM   16  C5  UNL     1      11.955  54.449  94.120  1.00  0.00    -0.017 A 
HETATM   17  C26 UNL     1      11.068  53.959  93.244  1.00  0.00     0.013 A 
HETATM   18  C25 UNL     1      11.401  53.745  91.887  1.00  0.00     0.010 A 
BRANCH  16  19
HETATM   19  C4  UNL     1      11.719  54.708  95.527  1.00  0.00     0.038 A 
HETATM   20  C2  UNL     1      11.397  55.829  96.245  1.00  0.00     0.023 A 
HETATM   21  C1  UNL     1      11.203  57.197  95.588  1.00  0.00     0.069 C 
HETATM   22  N1  UNL     1      11.253  55.695  97.534  1.00  0.00    -0.362 N 
HETATM   23  C3  UNL     1      11.408  54.538  98.120  1.00  0.00     0.139 A 
ATOM     24  H1  UNL     1      11.013  56.511  98.097  1.00  0.00     0.165 HD
HETATM   25  S1  UNL     1      11.786  53.526  96.815  1.00  0.00    -0.082 SA
ENDBRANCH  16  19
ENDBRANCH  12  13
ENDBRANCH   9  12
ENDBRANCH   1   8
BRANCH   3  26
HETATM   26  O2  UNL     1       7.586  49.957  87.497  1.00  0.00    -0.394 OA
ATOM     27  H2  UNL     1       7.237  50.746  87.101  1.00  0.00     0.210 HD
ENDBRANCH   3  26
BRANCH   6  28
HETATM   28  C16 UNL     1      10.820  51.104  84.259  1.00  0.00     0.184 C 
BRANCH  28  29
HETATM   29  N4  UNL     1      10.157  51.859  83.173  1.00  0.00    -0.347 N 
HETATM   30  C17 UNL     1       8.795  51.728  82.864  1.00  0.00     0.222 C 
HETATM   31  O4  UNL     1       8.136  50.909  83.579  1.00  0.00    -0.273 OA
ATOM     32  H4  UNL     1      10.719  52.506  82.621  1.00  0.00     0.163 HD
BRANCH  30  33
HETATM   33  C18 UNL     1       8.116  52.475  81.779  1.00  0.00     0.078 A 
HETATM   34  C19 UNL     1       6.642  52.666  81.814  1.00  0.00     0.015 A 
HETATM   35  C20 UNL     1       7.260  51.749  80.808  1.00  0.00     0.015 A 
ENDBRANCH  30  33
ENDBRANCH  28  29
BRANCH  28  36
HETATM   36  C21 UNL     1      12.257  50.826  83.836  1.00  0.00    -0.022 C 
HETATM   37  C22 UNL     1      12.701  49.536  84.463  1.00  0.00     0.017 C 
HETATM   38  C23 UNL     1      12.185  50.621  82.316  1.00  0.00     0.017 C 
HETATM   39  C24 UNL     1      13.181  51.966  84.155  1.00  0.00     0.017 C 
ENDBRANCH  28  36
ENDBRANCH   6  28
TORSDOF 9
ENDMDL
