MODEL 3
REMARK VINA RESULT: -8.349942751      0.936      1.460
REMARK  9 active torsions:
REMARK  status: ('A' for Active; 'I' for Inactive)
REMARK    1  A    between atoms: C4_7  and  C5_8 
REMARK    2  A    between atoms: C8_11  and  C9_12 
REMARK    3  A    between atoms: C9_12  and  N2_13 
REMARK       I    between atoms: N2_13  and  C10_15 
REMARK    4  A    between atoms: C10_15  and  C11_17 
REMARK    5  A    between atoms: C13_19  and  O2_20 
REMARK       I    between atoms: N3_23  and  C15_24 
REMARK    6  A    between atoms: C15_24  and  C16_26 
REMARK    7  A    between atoms: C16_26  and  N4_27 
REMARK    8  A    between atoms: C16_26  and  C21_34 
REMARK       I    between atoms: N4_27  and  C17_29 
REMARK    9  A    between atoms: C17_29  and  C18_31 
ROOT
HETATM    1  C11 UNL     1      12.295  53.990  89.978  1.00  0.00     0.181 C 
HETATM    2  C12 UNL     1      13.287  54.869  89.254  1.00  0.00     0.068 C 
HETATM    3  C13 UNL     1      14.547  54.828  90.070  1.00  0.00     0.138 C 
HETATM    4  C14 UNL     1      14.247  53.905  91.244  1.00  0.00     0.158 C 
HETATM    5  N3  UNL     1      12.809  53.846  91.327  1.00  0.00    -0.334 N 
HETATM    6  C15 UNL     1      12.031  53.701  92.493  1.00  0.00     0.244 C 
HETATM    7  O3  UNL     1      10.765  53.665  92.401  1.00  0.00    -0.271 OA
ENDROOT
BRANCH   1   8
HETATM    8  C10 UNL     1      12.042  52.725  89.284  1.00  0.00     0.241 C 
HETATM    9  N2  UNL     1      11.406  52.707  87.987  1.00  0.00    -0.355 N 
ATOM     10  H2  UNL     1      11.134  53.592  87.559  1.00  0.00     0.162 HD
HETATM   11  O1  UNL     1      12.337  51.586  89.725  1.00  0.00    -0.271 OA
BRANCH   9  12
HETATM   12  C9  UNL     1      11.142  51.477  87.276  1.00  0.00     0.161 C 
BRANCH  12  13
HETATM   13  C8  UNL     1      11.900  51.379  85.994  1.00  0.00    -0.040 A 
HETATM   14  C7  UNL     1      12.504  52.454  85.407  1.00  0.00     0.010 A 
HETATM   15  C6  UNL     1      13.187  52.300  84.217  1.00  0.00     0.013 A 
HETATM   16  C5  UNL     1      13.289  51.064  83.570  1.00  0.00    -0.017 A 
HETATM   17  C26 UNL     1      12.690  50.022  84.160  1.00  0.00     0.013 A 
HETATM   18  C25 UNL     1      11.986  50.158  85.378  1.00  0.00     0.010 A 
BRANCH  16  19
HETATM   19  C4  UNL     1      14.035  51.036  82.327  1.00  0.00     0.038 A 
HETATM   20  C2  UNL     1      13.726  50.673  81.043  1.00  0.00     0.023 A 
HETATM   21  C1  UNL     1      12.339  50.165  80.644  1.00  0.00     0.069 C 
HETATM   22  N1  UNL     1      14.667  50.781  80.146  1.00  0.00    -0.362 N 
HETATM   23  C3  UNL     1      15.858  51.217  80.459  1.00  0.00     0.139 A 
ATOM     24  H1  UNL     1      14.469  50.520  79.180  1.00  0.00     0.165 HD
HETATM   25  S1  UNL     1      15.705  51.513  82.119  1.00  0.00    -0.082 SA
ENDBRANCH  16  19
ENDBRANCH  12  13
ENDBRANCH   9  12
ENDBRANCH   1   8
BRANCH   3  26
HETATM   26  O2  UNL     1      14.930  56.100  90.492  1.00  0.00    -0.394 OA
ATOM     27  H2  UNL     1      14.544  56.324  91.330  1.00  0.00     0.210 HD
ENDBRANCH   3  26
BRANCH   6  28
HETATM   28  C16 UNL     1      12.698  53.599  93.812  1.00  0.00     0.184 C 
BRANCH  28  29
HETATM   29  N4  UNL     1      11.751  54.228  94.757  1.00  0.00    -0.347 N 
HETATM   30  C17 UNL     1      11.782  55.592  95.087  1.00  0.00     0.222 C 
HETATM   31  O4  UNL     1      12.687  56.283  94.520  1.00  0.00    -0.273 OA
ATOM     32  H4  UNL     1      11.038  53.642  95.191  1.00  0.00     0.163 HD
BRANCH  30  33
HETATM   33  C18 UNL     1      10.841  56.238  96.032  1.00  0.00     0.078 A 
HETATM   34  C19 UNL     1       9.455  56.559  95.602  1.00  0.00     0.015 A 
HETATM   35  C20 UNL     1      10.447  57.654  95.827  1.00  0.00     0.015 A 
ENDBRANCH  30  33
ENDBRANCH  28  29
BRANCH  28  36
HETATM   36  C21 UNL     1      12.931  52.161  94.259  1.00  0.00    -0.022 C 
HETATM   37  C22 UNL     1      13.903  52.165  95.403  1.00  0.00     0.017 C 
HETATM   38  C23 UNL     1      11.569  51.691  94.789  1.00  0.00     0.017 C 
HETATM   39  C24 UNL     1      13.376  51.274  93.133  1.00  0.00     0.017 C 
ENDBRANCH  28  36
ENDBRANCH   6  28
TORSDOF 9
ENDMDL
