MODEL 10
REMARK VINA RESULT: -6.732320684      4.482     10.805
REMARK  9 active torsions:
REMARK  status: ('A' for Active; 'I' for Inactive)
REMARK    1  A    between atoms: C4_7  and  C5_8 
REMARK    2  A    between atoms: C8_11  and  C9_12 
REMARK    3  A    between atoms: C9_12  and  N2_13 
REMARK       I    between atoms: N2_13  and  C10_15 
REMARK    4  A    between atoms: C10_15  and  C11_17 
REMARK    5  A    between atoms: C13_19  and  O2_20 
REMARK       I    between atoms: N3_23  and  C15_24 
REMARK    6  A    between atoms: C15_24  and  C16_26 
REMARK    7  A    between atoms: C16_26  and  N4_27 
REMARK    8  A    between atoms: C16_26  and  C21_34 
REMARK       I    between atoms: N4_27  and  C17_29 
REMARK    9  A    between atoms: C17_29  and  C18_31 
ROOT
HETATM    1  C11 UNL     1       8.879  52.220  83.003  1.00  0.00     0.181 C 
HETATM    2  C12 UNL     1       7.946  52.287  81.816  1.00  0.00     0.068 C 
HETATM    3  C13 UNL     1       7.927  50.906  81.229  1.00  0.00     0.138 C 
HETATM    4  C14 UNL     1       8.846  50.070  82.111  1.00  0.00     0.158 C 
HETATM    5  N3  UNL     1       9.672  51.020  82.812  1.00  0.00    -0.334 N 
HETATM    6  C15 UNL     1      11.009  50.843  83.221  1.00  0.00     0.244 C 
HETATM    7  O3  UNL     1      11.605  51.782  83.834  1.00  0.00    -0.271 OA
ENDROOT
BRANCH   1   8
HETATM    8  C10 UNL     1       8.175  52.286  84.286  1.00  0.00     0.241 C 
HETATM    9  N2  UNL     1       8.894  52.549  85.511  1.00  0.00    -0.355 N 
ATOM     10  H2  UNL     1       9.904  52.688  85.470  1.00  0.00     0.162 HD
HETATM   11  O1  UNL     1       6.939  52.130  84.442  1.00  0.00    -0.271 OA
BRANCH   9  12
HETATM   12  C9  UNL     1       8.230  52.621  86.793  1.00  0.00     0.161 C 
BRANCH  12  13
HETATM   13  C8  UNL     1       9.169  52.934  87.911  1.00  0.00    -0.040 A 
HETATM   14  C7  UNL     1       8.832  53.743  88.957  1.00  0.00     0.010 A 
HETATM   15  C6  UNL     1       9.748  53.998  89.958  1.00  0.00     0.013 A 
HETATM   16  C5  UNL     1      11.035  53.452  89.948  1.00  0.00    -0.017 A 
HETATM   17  C26 UNL     1      11.348  52.660  88.914  1.00  0.00     0.013 A 
HETATM   18  C25 UNL     1      10.426  52.387  87.879  1.00  0.00     0.010 A 
BRANCH  16  19
HETATM   19  C4  UNL     1      11.901  53.795  91.060  1.00  0.00     0.038 A 
HETATM   20  C2  UNL     1      13.004  54.597  91.191  1.00  0.00     0.023 A 
HETATM   21  C1  UNL     1      13.595  55.380  90.017  1.00  0.00     0.069 C 
HETATM   22  N1  UNL     1      13.547  54.680  92.374  1.00  0.00    -0.362 N 
HETATM   23  C3  UNL     1      13.060  54.026  93.394  1.00  0.00     0.139 A 
ATOM     24  H1  UNL     1      14.370  55.269  92.505  1.00  0.00     0.165 HD
HETATM   25  S1  UNL     1      11.742  53.218  92.703  1.00  0.00    -0.082 SA
ENDBRANCH  16  19
ENDBRANCH  12  13
ENDBRANCH   9  12
ENDBRANCH   1   8
BRANCH   3  26
HETATM   26  O2  UNL     1       8.342  50.905  79.897  1.00  0.00    -0.394 OA
ATOM     27  H2  UNL     1       7.610  51.011  79.301  1.00  0.00     0.210 HD
ENDBRANCH   3  26
BRANCH   6  28
HETATM   28  C16 UNL     1      11.705  49.569  82.925  1.00  0.00     0.184 C 
BRANCH  28  29
HETATM   29  N4  UNL     1      13.113  49.959  82.700  1.00  0.00    -0.347 N 
HETATM   30  C17 UNL     1      13.646  50.225  81.430  1.00  0.00     0.222 C 
HETATM   31  O4  UNL     1      12.841  50.115  80.452  1.00  0.00    -0.273 OA
ATOM     32  H4  UNL     1      13.729  50.037  83.510  1.00  0.00     0.163 HD
BRANCH  30  33
HETATM   33  C18 UNL     1      15.055  50.616  81.187  1.00  0.00     0.078 A 
HETATM   34  C19 UNL     1      15.651  51.758  81.928  1.00  0.00     0.015 A 
HETATM   35  C20 UNL     1      15.356  51.878  80.467  1.00  0.00     0.015 A 
ENDBRANCH  30  33
ENDBRANCH  28  29
BRANCH  28  36
HETATM   36  C21 UNL     1      11.664  48.578  84.082  1.00  0.00    -0.022 C 
HETATM   37  C22 UNL     1      10.381  48.774  84.837  1.00  0.00     0.017 C 
HETATM   38  C23 UNL     1      11.620  47.198  83.412  1.00  0.00     0.017 C 
HETATM   39  C24 UNL     1      12.871  48.680  84.968  1.00  0.00     0.017 C 
ENDBRANCH  28  36
ENDBRANCH   6  28
TORSDOF 9
ENDMDL
