MODEL 6
REMARK VINA RESULT: -7.027619585      1.276      1.410
REMARK  9 active torsions:
REMARK  status: ('A' for Active; 'I' for Inactive)
REMARK    1  A    between atoms: C4_7  and  C5_8 
REMARK    2  A    between atoms: C8_11  and  C9_12 
REMARK    3  A    between atoms: C9_12  and  N2_13 
REMARK       I    between atoms: N2_13  and  C10_15 
REMARK    4  A    between atoms: C10_15  and  C11_17 
REMARK    5  A    between atoms: C13_19  and  O2_20 
REMARK       I    between atoms: N3_23  and  C15_24 
REMARK    6  A    between atoms: C15_24  and  C16_26 
REMARK    7  A    between atoms: C16_26  and  N4_27 
REMARK    8  A    between atoms: C16_26  and  C21_34 
REMARK       I    between atoms: N4_27  and  C17_29 
REMARK    9  A    between atoms: C17_29  and  C18_31 
ROOT
HETATM    1  C11 UNL     1      12.170  53.841  90.201  1.00  0.00     0.181 C 
HETATM    2  C12 UNL     1      13.249  54.591  89.455  1.00  0.00     0.068 C 
HETATM    3  C13 UNL     1      14.389  54.740  90.421  1.00  0.00     0.138 C 
HETATM    4  C14 UNL     1      13.936  54.052  91.703  1.00  0.00     0.158 C 
HETATM    5  N3  UNL     1      12.500  53.973  91.607  1.00  0.00    -0.334 N 
HETATM    6  C15 UNL     1      11.574  54.035  92.668  1.00  0.00     0.244 C 
HETATM    7  O3  UNL     1      10.331  53.949  92.420  1.00  0.00    -0.271 OA
ENDROOT
BRANCH   1   8
HETATM    8  C10 UNL     1      12.012  52.460  89.739  1.00  0.00     0.241 C 
HETATM    9  N2  UNL     1      11.401  52.173  88.461  1.00  0.00    -0.355 N 
ATOM     10  H2  UNL     1      11.079  52.949  87.883  1.00  0.00     0.162 HD
HETATM   11  O1  UNL     1      12.373  51.439  90.375  1.00  0.00    -0.271 OA
BRANCH   9  12
HETATM   12  C9  UNL     1      11.230  50.823  87.976  1.00  0.00     0.161 C 
BRANCH  12  13
HETATM   13  C8  UNL     1      11.276  50.736  86.486  1.00  0.00    -0.040 A 
HETATM   14  C7  UNL     1      10.704  49.713  85.786  1.00  0.00     0.010 A 
HETATM   15  C6  UNL     1      10.786  49.688  84.408  1.00  0.00     0.013 A 
HETATM   16  C5  UNL     1      11.444  50.685  83.681  1.00  0.00    -0.017 A 
HETATM   17  C26 UNL     1      11.999  51.680  84.385  1.00  0.00     0.013 A 
HETATM   18  C25 UNL     1      11.927  51.725  85.796  1.00  0.00     0.010 A 
BRANCH  16  19
HETATM   19  C4  UNL     1      11.457  50.543  82.238  1.00  0.00     0.038 A 
HETATM   20  C2  UNL     1      12.453  50.485  81.299  1.00  0.00     0.023 A 
HETATM   21  C1  UNL     1      13.935  50.572  81.667  1.00  0.00     0.069 C 
HETATM   22  N1  UNL     1      12.094  50.345  80.053  1.00  0.00    -0.362 N 
HETATM   23  C3  UNL     1      10.836  50.263  79.712  1.00  0.00     0.139 A 
ATOM     24  H1  UNL     1      12.812  50.298  79.329  1.00  0.00     0.165 HD
HETATM   25  S1  UNL     1      10.052  50.385  81.208  1.00  0.00    -0.082 SA
ENDBRANCH  16  19
ENDBRANCH  12  13
ENDBRANCH   9  12
ENDBRANCH   1   8
BRANCH   3  26
HETATM   26  O2  UNL     1      14.713  56.080  90.635  1.00  0.00    -0.394 OA
ATOM     27  H2  UNL     1      15.599  56.180  90.960  1.00  0.00     0.210 HD
ENDBRANCH   3  26
BRANCH   6  28
HETATM   28  C16 UNL     1      12.060  54.206  94.056  1.00  0.00     0.184 C 
BRANCH  28  29
HETATM   29  N4  UNL     1      11.008  55.005  94.722  1.00  0.00    -0.347 N 
HETATM   30  C17 UNL     1      11.215  56.309  95.196  1.00  0.00     0.222 C 
HETATM   31  O4  UNL     1      12.380  56.788  95.022  1.00  0.00    -0.273 OA
ATOM     32  H4  UNL     1      10.086  54.586  94.843  1.00  0.00     0.163 HD
BRANCH  30  33
HETATM   33  C18 UNL     1      10.173  57.123  95.865  1.00  0.00     0.078 A 
HETATM   34  C19 UNL     1       9.511  56.620  97.097  1.00  0.00     0.015 A 
HETATM   35  C20 UNL     1       8.754  56.692  95.811  1.00  0.00     0.015 A 
ENDBRANCH  30  33
ENDBRANCH  28  29
BRANCH  28  36
HETATM   36  C21 UNL     1      12.205  52.889  94.810  1.00  0.00    -0.022 C 
HETATM   37  C22 UNL     1      13.464  52.939  95.626  1.00  0.00     0.017 C 
HETATM   38  C23 UNL     1      11.010  52.857  95.774  1.00  0.00     0.017 C 
HETATM   39  C24 UNL     1      12.161  51.697  93.898  1.00  0.00     0.017 C 
ENDBRANCH  28  36
ENDBRANCH   6  28
TORSDOF 9
ENDMDL
