MODEL 1
REMARK VINA RESULT: -8.591107547      0.000      0.000
REMARK  9 active torsions:
REMARK  status: ('A' for Active; 'I' for Inactive)
REMARK    1  A    between atoms: C4_7  and  C5_8 
REMARK    2  A    between atoms: C8_11  and  C9_12 
REMARK    3  A    between atoms: C9_12  and  N2_13 
REMARK       I    between atoms: N2_13  and  C10_15 
REMARK    4  A    between atoms: C10_15  and  C11_17 
REMARK    5  A    between atoms: C13_19  and  O2_20 
REMARK       I    between atoms: N3_23  and  C15_24 
REMARK    6  A    between atoms: C15_24  and  C16_26 
REMARK    7  A    between atoms: C16_26  and  N4_27 
REMARK    8  A    between atoms: C16_26  and  C21_34 
REMARK       I    between atoms: N4_27  and  C17_29 
REMARK    9  A    between atoms: C17_29  and  C18_31 
ROOT
HETATM    1  C11 UNL     1      12.292  54.046  89.836  1.00  0.00     0.181 C 
HETATM    2  C12 UNL     1      13.416  54.794  89.158  1.00  0.00     0.068 C 
HETATM    3  C13 UNL     1      14.552  54.811  90.140  1.00  0.00     0.138 C 
HETATM    4  C14 UNL     1      14.051  54.051  91.362  1.00  0.00     0.158 C 
HETATM    5  N3  UNL     1      12.614  54.052  91.251  1.00  0.00    -0.334 N 
HETATM    6  C15 UNL     1      11.681  54.080  92.307  1.00  0.00     0.244 C 
HETATM    7  O3  UNL     1      10.438  54.077  92.045  1.00  0.00    -0.271 OA
ENDROOT
BRANCH   1   8
HETATM    8  C10 UNL     1      12.070  52.714  89.269  1.00  0.00     0.241 C 
HETATM    9  N2  UNL     1      11.382  52.554  88.008  1.00  0.00    -0.355 N 
ATOM     10  H2  UNL     1      11.053  53.384  87.517  1.00  0.00     0.162 HD
HETATM   11  O1  UNL     1      12.435  51.633  89.794  1.00  0.00    -0.271 OA
BRANCH   9  12
HETATM   12  C9  UNL     1      11.147  51.255  87.420  1.00  0.00     0.161 C 
BRANCH  12  13
HETATM   13  C8  UNL     1      11.837  51.084  86.107  1.00  0.00    -0.040 A 
HETATM   14  C7  UNL     1      12.020  49.865  85.520  1.00  0.00     0.010 A 
HETATM   15  C6  UNL     1      12.670  49.773  84.306  1.00  0.00     0.013 A 
HETATM   16  C5  UNL     1      13.163  50.897  83.635  1.00  0.00    -0.017 A 
HETATM   17  C26 UNL     1      12.974  52.084  84.227  1.00  0.00     0.013 A 
HETATM   18  C25 UNL     1      12.310  52.201  85.469  1.00  0.00     0.010 A 
BRANCH  16  19
HETATM   19  C4  UNL     1      13.826  50.665  82.367  1.00  0.00     0.038 A 
HETATM   20  C2  UNL     1      15.051  51.007  81.860  1.00  0.00     0.023 A 
HETATM   21  C1  UNL     1      16.079  51.807  82.663  1.00  0.00     0.069 C 
HETATM   22  N1  UNL     1      15.328  50.618  80.646  1.00  0.00    -0.362 N 
HETATM   23  C3  UNL     1      14.471  49.931  79.939  1.00  0.00     0.139 A 
ATOM     24  H1  UNL     1      16.232  50.857  80.239  1.00  0.00     0.165 HD
HETATM   25  S1  UNL     1      13.163  49.788  81.006  1.00  0.00    -0.082 SA
ENDBRANCH  16  19
ENDBRANCH  12  13
ENDBRANCH   9  12
ENDBRANCH   1   8
BRANCH   3  26
HETATM   26  O2  UNL     1      14.940  56.111  90.459  1.00  0.00    -0.394 OA
ATOM     27  H2  UNL     1      15.710  56.123  91.015  1.00  0.00     0.210 HD
ENDBRANCH   3  26
BRANCH   6  28
HETATM   28  C16 UNL     1      12.160  54.119  93.708  1.00  0.00     0.184 C 
BRANCH  28  29
HETATM   29  N4  UNL     1      11.138  54.909  94.428  1.00  0.00    -0.347 N 
HETATM   30  C17 UNL     1      11.409  56.143  95.039  1.00  0.00     0.222 C 
HETATM   31  O4  UNL     1      12.605  56.564  94.944  1.00  0.00    -0.273 OA
ATOM     32  H4  UNL     1      10.190  54.539  94.483  1.00  0.00     0.163 HD
BRANCH  30  33
HETATM   33  C18 UNL     1      10.397  56.948  95.765  1.00  0.00     0.078 A 
HETATM   34  C19 UNL     1       9.763  56.412  96.997  1.00  0.00     0.015 A 
HETATM   35  C20 UNL     1       8.971  56.538  95.736  1.00  0.00     0.015 A 
ENDBRANCH  30  33
ENDBRANCH  28  29
BRANCH  28  36
HETATM   36  C21 UNL     1      12.238  52.742  94.356  1.00  0.00    -0.022 C 
HETATM   37  C22 UNL     1      13.363  52.743  95.352  1.00  0.00     0.017 C 
HETATM   38  C23 UNL     1      10.918  52.596  95.125  1.00  0.00     0.017 C 
HETATM   39  C24 UNL     1      12.369  51.638  93.347  1.00  0.00     0.017 C 
ENDBRANCH  28  36
ENDBRANCH   6  28
TORSDOF 9
ENDMDL
