MODEL 14
REMARK VINA RESULT: -6.832546031      3.175      4.872
REMARK  10 active torsions:
REMARK  status: ('A' for Active; 'I' for Inactive)
REMARK    1  A    between atoms: C4_7  and  C5_8 
REMARK    2  A    between atoms: C8_11  and  C9_12 
REMARK    3  A    between atoms: C9_12  and  N2_13 
REMARK       I    between atoms: N2_13  and  C10_15 
REMARK    4  A    between atoms: C10_15  and  C11_17 
REMARK    5  A    between atoms: C13_19  and  O2_20 
REMARK    6  A    between atoms: N3_23  and  C15_24 
REMARK    7  A    between atoms: C15_24  and  O3_25 
REMARK    8  A    between atoms: C16_27  and  N4_28 
REMARK    9  A    between atoms: C16_27  and  C21_36 
REMARK       I    between atoms: N4_28  and  C17_30 
REMARK   10  A    between atoms: C17_30  and  C18_32 
ROOT
HETATM    1  C11 UNL     1       8.070  50.488  87.905  1.00  0.00     0.181 C 
HETATM    2  C12 UNL     1       6.612  51.019  88.046  1.00  0.00     0.068 C 
HETATM    3  C13 UNL     1       6.603  51.966  86.875  1.00  0.00     0.138 C 
HETATM    4  C14 UNL     1       7.938  52.604  86.915  1.00  0.00     0.157 C 
HETATM    5  N3  UNL     1       8.800  51.704  87.766  1.00  0.00    -0.344 N 
ENDROOT
BRANCH   1   6
HETATM    6  C10 UNL     1       8.146  49.739  86.605  1.00  0.00     0.240 C 
HETATM    7  N2  UNL     1       9.409  49.738  85.940  1.00  0.00    -0.355 N 
ATOM      8  H2  UNL     1      10.203  50.227  86.353  1.00  0.00     0.162 HD
HETATM    9  O1  UNL     1       7.165  49.137  86.105  1.00  0.00    -0.271 OA
BRANCH   7  10
HETATM   10  C9  UNL     1       9.557  49.054  84.703  1.00  0.00     0.161 C 
BRANCH  10  11
HETATM   11  C8  UNL     1      10.757  49.508  83.959  1.00  0.00    -0.040 A 
HETATM   12  C7  UNL     1      11.306  48.778  82.930  1.00  0.00     0.010 A 
HETATM   13  C6  UNL     1      12.414  49.227  82.252  1.00  0.00     0.013 A 
HETATM   14  C5  UNL     1      13.056  50.438  82.554  1.00  0.00    -0.017 A 
HETATM   15  C26 UNL     1      12.504  51.150  83.571  1.00  0.00     0.013 A 
HETATM   16  C25 UNL     1      11.369  50.696  84.268  1.00  0.00     0.010 A 
BRANCH  14  17
HETATM   17  C4  UNL     1      14.213  50.804  81.745  1.00  0.00     0.038 A 
HETATM   18  C2  UNL     1      15.308  51.587  81.953  1.00  0.00     0.023 A 
HETATM   19  C1  UNL     1      15.560  52.332  83.256  1.00  0.00     0.069 C 
HETATM   20  N1  UNL     1      16.174  51.676  80.984  1.00  0.00    -0.362 N 
HETATM   21  C3  UNL     1      16.003  51.037  79.853  1.00  0.00     0.139 A 
ATOM     22  H1  UNL     1      17.004  52.256  81.109  1.00  0.00     0.165 HD
HETATM   23  S1  UNL     1      14.529  50.240  80.125  1.00  0.00    -0.082 SA
ENDBRANCH  14  17
ENDBRANCH  10  11
ENDBRANCH   7  10
ENDBRANCH   1   6
BRANCH   5  24
HETATM   24  C15 UNL     1      10.014  52.144  88.249  1.00  0.00     0.163 C 
HETATM   25  C16 UNL     1      10.403  52.909  89.391  1.00  0.00     0.070 C 
BRANCH  24  26
HETATM   26  O3  UNL     1      11.061  51.785  87.495  1.00  0.00    -0.345 OA
ATOM     27  H3  UNL     1      11.885  51.764  87.966  1.00  0.00     0.219 HD
ENDBRANCH  24  26
BRANCH  25  28
HETATM   28  N4  UNL     1      11.494  53.855  89.072  1.00  0.00    -0.323 N 
HETATM   29  C17 UNL     1      12.794  53.736  89.616  1.00  0.00     0.262 C 
HETATM   30  O4  UNL     1      13.064  52.794  90.405  1.00  0.00    -0.269 OA
ATOM     31  H4  UNL     1      11.301  54.627  88.434  1.00  0.00     0.169 HD
BRANCH  29  32
HETATM   32  C18 UNL     1      13.859  54.738  89.249  1.00  0.00     0.184 A 
HETATM   33  F1  UNL     1      14.004  55.018  87.922  1.00  0.00    -0.233 F 
HETATM   34  C19 UNL     1      13.862  55.919  90.179  1.00  0.00     0.057 A 
HETATM   35  C20 UNL     1      14.973  54.916  90.181  1.00  0.00     0.057 A 
ENDBRANCH  29  32
ENDBRANCH  25  28
BRANCH  25  36
HETATM   36  C21 UNL     1       9.508  53.544  90.357  1.00  0.00    -0.004 C 
HETATM   37  C22 UNL     1       8.579  54.582  89.806  1.00  0.00     0.021 C 
HETATM   38  C23 UNL     1       8.556  52.387  90.835  1.00  0.00     0.021 C 
HETATM   39  C24 UNL     1      10.161  54.002  91.647  1.00  0.00     0.021 C 
ENDBRANCH  25  36
ENDBRANCH   5  24
BRANCH   3  40
HETATM   40  O2  UNL     1       5.555  52.903  86.993  1.00  0.00    -0.394 OA
ATOM     41  H2  UNL     1       5.695  53.643  86.414  1.00  0.00     0.210 HD
ENDBRANCH   3  40
TORSDOF 10
ENDMDL
