MODEL 15
REMARK VINA RESULT: -6.777089749      4.711     11.457
REMARK  10 active torsions:
REMARK  status: ('A' for Active; 'I' for Inactive)
REMARK    1  A    between atoms: C4_7  and  C5_8 
REMARK    2  A    between atoms: C8_11  and  C9_12 
REMARK    3  A    between atoms: C9_12  and  N2_13 
REMARK       I    between atoms: N2_13  and  C10_15 
REMARK    4  A    between atoms: C10_15  and  C11_17 
REMARK    5  A    between atoms: C13_19  and  O2_20 
REMARK    6  A    between atoms: N3_23  and  C15_24 
REMARK    7  A    between atoms: C15_24  and  O3_25 
REMARK    8  A    between atoms: C16_27  and  N4_28 
REMARK    9  A    between atoms: C16_27  and  C21_36 
REMARK       I    between atoms: N4_28  and  C17_30 
REMARK   10  A    between atoms: C17_30  and  C18_32 
ROOT
HETATM    1  C11 UNL     1      11.114  52.803  88.157  1.00  0.00     0.181 C 
HETATM    2  C12 UNL     1      10.344  51.663  88.892  1.00  0.00     0.068 C 
HETATM    3  C13 UNL     1      11.425  50.615  88.874  1.00  0.00     0.138 C 
HETATM    4  C14 UNL     1      12.034  50.745  87.531  1.00  0.00     0.157 C 
HETATM    5  N3  UNL     1      11.632  52.109  87.026  1.00  0.00    -0.344 N 
ENDROOT
BRANCH   1   6
HETATM    6  C10 UNL     1      12.265  53.199  89.036  1.00  0.00     0.240 C 
HETATM    7  N2  UNL     1      12.050  53.126  90.445  1.00  0.00    -0.355 N 
ATOM      8  H2  UNL     1      11.149  52.814  90.808  1.00  0.00     0.162 HD
HETATM    9  O1  UNL     1      13.371  53.580  88.583  1.00  0.00    -0.271 OA
BRANCH   7  10
HETATM   10  C9  UNL     1      13.092  53.490  91.341  1.00  0.00     0.161 C 
BRANCH  10  11
HETATM   11  C8  UNL     1      12.564  53.952  92.647  1.00  0.00    -0.040 A 
HETATM   12  C7  UNL     1      13.355  54.577  93.583  1.00  0.00     0.010 A 
HETATM   13  C6  UNL     1      12.838  55.003  94.783  1.00  0.00     0.013 A 
HETATM   14  C5  UNL     1      11.491  54.833  95.137  1.00  0.00    -0.017 A 
HETATM   15  C26 UNL     1      10.719  54.215  94.205  1.00  0.00     0.013 A 
HETATM   16  C25 UNL     1      11.243  53.778  92.974  1.00  0.00     0.010 A 
BRANCH  14  17
HETATM   17  C4  UNL     1      11.068  55.347  96.435  1.00  0.00     0.038 A 
HETATM   18  C2  UNL     1      10.585  56.544  96.871  1.00  0.00     0.023 A 
HETATM   19  C1  UNL     1      10.368  57.736  95.951  1.00  0.00     0.069 C 
HETATM   20  N1  UNL     1      10.288  56.645  98.135  1.00  0.00    -0.362 N 
HETATM   21  C3  UNL     1      10.444  55.636  98.957  1.00  0.00     0.139 A 
ATOM     22  H1  UNL     1       9.925  57.528  98.492  1.00  0.00     0.165 HD
HETATM   23  S1  UNL     1      11.052  54.436  97.922  1.00  0.00    -0.082 SA
ENDBRANCH  14  17
ENDBRANCH  10  11
ENDBRANCH   7  10
ENDBRANCH   1   6
BRANCH   5  24
HETATM   24  C15 UNL     1      11.782  52.439  85.695  1.00  0.00     0.163 C 
HETATM   25  C16 UNL     1      10.954  52.289  84.542  1.00  0.00     0.070 C 
BRANCH  24  26
HETATM   26  O3  UNL     1      12.952  53.025  85.411  1.00  0.00    -0.345 OA
ATOM     27  H3  UNL     1      13.710  52.487  85.606  1.00  0.00     0.219 HD
ENDBRANCH  24  26
BRANCH  25  28
HETATM   28  N4  UNL     1      11.740  51.918  83.346  1.00  0.00    -0.323 N 
HETATM   29  C17 UNL     1      12.631  50.820  83.326  1.00  0.00     0.262 C 
HETATM   30  O4  UNL     1      12.782  50.110  84.354  1.00  0.00    -0.269 OA
ATOM     31  H4  UNL     1      11.636  52.477  82.499  1.00  0.00     0.169 HD
BRANCH  29  32
HETATM   32  C18 UNL     1      13.404  50.499  82.072  1.00  0.00     0.184 A 
HETATM   33  F1  UNL     1      14.762  50.444  82.189  1.00  0.00    -0.233 F 
HETATM   34  C19 UNL     1      12.762  49.391  81.285  1.00  0.00     0.057 A 
HETATM   35  C20 UNL     1      12.772  50.804  80.788  1.00  0.00     0.057 A 
ENDBRANCH  29  32
ENDBRANCH  25  28
BRANCH  25  36
HETATM   36  C21 UNL     1       9.666  51.600  84.481  1.00  0.00    -0.004 C 
HETATM   37  C22 UNL     1       9.566  50.325  85.262  1.00  0.00     0.021 C 
HETATM   38  C23 UNL     1       8.661  52.573  85.199  1.00  0.00     0.021 C 
HETATM   39  C24 UNL     1       9.069  51.455  83.093  1.00  0.00     0.021 C 
ENDBRANCH  25  36
ENDBRANCH   5  24
BRANCH   3  40
HETATM   40  O2  UNL     1      10.884  49.331  89.098  1.00  0.00    -0.394 OA
ATOM     41  H2  UNL     1      10.150  49.372  89.700  1.00  0.00     0.210 HD
ENDBRANCH   3  40
TORSDOF 10
ENDMDL
