MODEL 9
REMARK VINA RESULT: -7.055889077      5.149     11.562
REMARK  10 active torsions:
REMARK  status: ('A' for Active; 'I' for Inactive)
REMARK    1  A    between atoms: C4_7  and  C5_8 
REMARK    2  A    between atoms: C8_11  and  C9_12 
REMARK    3  A    between atoms: C9_12  and  N2_13 
REMARK       I    between atoms: N2_13  and  C10_15 
REMARK    4  A    between atoms: C10_15  and  C11_17 
REMARK    5  A    between atoms: C13_19  and  O2_20 
REMARK    6  A    between atoms: N3_23  and  C15_24 
REMARK    7  A    between atoms: C15_24  and  O3_25 
REMARK    8  A    between atoms: C16_27  and  N4_28 
REMARK    9  A    between atoms: C16_27  and  C21_36 
REMARK       I    between atoms: N4_28  and  C17_30 
REMARK   10  A    between atoms: C17_30  and  C18_32 
ROOT
HETATM    1  C11 UNL     1      11.663  52.820  85.410  1.00  0.00     0.181 C 
HETATM    2  C12 UNL     1      10.687  52.307  86.512  1.00  0.00     0.068 C 
HETATM    3  C13 UNL     1      11.532  51.185  87.055  1.00  0.00     0.138 C 
HETATM    4  C14 UNL     1      12.138  50.572  85.852  1.00  0.00     0.157 C 
HETATM    5  N3  UNL     1      12.015  51.604  84.757  1.00  0.00    -0.344 N 
ENDROOT
BRANCH   1   6
HETATM    6  C10 UNL     1      12.881  53.352  86.109  1.00  0.00     0.240 C 
HETATM    7  N2  UNL     1      12.728  53.706  87.483  1.00  0.00    -0.355 N 
ATOM      8  H2  UNL     1      11.825  53.590  87.942  1.00  0.00     0.162 HD
HETATM    9  O1  UNL     1      13.991  53.489  85.538  1.00  0.00    -0.271 OA
BRANCH   7  10
HETATM   10  C9  UNL     1      13.836  54.221  88.210  1.00  0.00     0.161 C 
BRANCH  10  11
HETATM   11  C8  UNL     1      13.569  54.269  89.668  1.00  0.00    -0.040 A 
HETATM   12  C7  UNL     1      12.399  53.799  90.219  1.00  0.00     0.010 A 
HETATM   13  C6  UNL     1      12.181  53.848  91.575  1.00  0.00     0.013 A 
HETATM   14  C5  UNL     1      13.116  54.374  92.480  1.00  0.00    -0.017 A 
HETATM   15  C26 UNL     1      14.267  54.835  91.924  1.00  0.00     0.013 A 
HETATM   16  C25 UNL     1      14.496  54.785  90.536  1.00  0.00     0.010 A 
BRANCH  14  17
HETATM   17  C4  UNL     1      12.766  54.351  93.895  1.00  0.00     0.038 A 
HETATM   18  C2  UNL     1      12.937  53.449  94.902  1.00  0.00     0.023 A 
HETATM   19  C1  UNL     1      13.622  52.105  94.704  1.00  0.00     0.069 C 
HETATM   20  N1  UNL     1      12.499  53.779  96.083  1.00  0.00    -0.362 N 
HETATM   21  C3  UNL     1      11.917  54.934  96.299  1.00  0.00     0.139 A 
ATOM     22  H1  UNL     1      12.611  53.124  96.857  1.00  0.00     0.165 HD
HETATM   23  S1  UNL     1      11.968  55.640  94.756  1.00  0.00    -0.082 SA
ENDBRANCH  14  17
ENDBRANCH  10  11
ENDBRANCH   7  10
ENDBRANCH   1   6
BRANCH   5  24
HETATM   24  C15 UNL     1      12.213  51.257  83.438  1.00  0.00     0.163 C 
HETATM   25  C16 UNL     1      11.348  51.142  82.307  1.00  0.00     0.070 C 
BRANCH  24  26
HETATM   26  O3  UNL     1      13.485  50.960  83.139  1.00  0.00    -0.345 OA
ATOM     27  H3  UNL     1      13.821  50.202  83.601  1.00  0.00     0.219 HD
ENDBRANCH  24  26
BRANCH  25  28
HETATM   28  N4  UNL     1      11.700  49.979  81.463  1.00  0.00    -0.323 N 
HETATM   29  C17 UNL     1      12.707  50.029  80.472  1.00  0.00     0.262 C 
HETATM   30  O4  UNL     1      13.349  51.094  80.277  1.00  0.00    -0.269 OA
ATOM     31  H4  UNL     1      11.194  49.104  81.601  1.00  0.00     0.169 HD
BRANCH  29  32
HETATM   32  C18 UNL     1      13.012  48.806  79.645  1.00  0.00     0.184 A 
HETATM   33  F1  UNL     1      14.263  48.730  79.107  1.00  0.00    -0.233 F 
HETATM   34  C19 UNL     1      12.488  47.551  80.285  1.00  0.00     0.057 A 
HETATM   35  C20 UNL     1      11.885  48.103  79.031  1.00  0.00     0.057 A 
ENDBRANCH  29  32
ENDBRANCH  25  28
BRANCH  25  36
HETATM   36  C21 UNL     1       9.894  51.290  82.307  1.00  0.00    -0.004 C 
HETATM   37  C22 UNL     1       9.373  52.656  82.637  1.00  0.00     0.021 C 
HETATM   38  C23 UNL     1       9.473  51.067  80.808  1.00  0.00     0.021 C 
HETATM   39  C24 UNL     1       9.128  50.205  83.041  1.00  0.00     0.021 C 
ENDBRANCH  25  36
ENDBRANCH   5  24
BRANCH   3  40
HETATM   40  O2  UNL     1      10.745  50.270  87.786  1.00  0.00    -0.394 OA
ATOM     41  H2  UNL     1      11.150  49.410  87.800  1.00  0.00     0.210 HD
ENDBRANCH   3  40
TORSDOF 10
ENDMDL
