MODEL 9
REMARK VINA RESULT: -7.032788126      2.879      4.990
REMARK  11 active torsions:
REMARK  status: ('A' for Active; 'I' for Inactive)
REMARK       I    between atoms: C2_2  and  N1_4 
REMARK    1  A    between atoms: N1_4  and  C3_6 
REMARK    2  A    between atoms: C3_6  and  C4_7 
REMARK       I    between atoms: C4_7  and  N2_9 
REMARK    3  A    between atoms: N2_9  and  C5_11 
REMARK    4  A    between atoms: C5_11  and  C23_40 
REMARK    5  A    between atoms: C6_12  and  O3_13 
REMARK    6  A    between atoms: C6_12  and  N3_15 
REMARK    7  A    between atoms: C8_17  and  O4_18 
REMARK    8  A    between atoms: C10_21  and  C11_22 
REMARK       I    between atoms: C11_22  and  N4_24 
REMARK    9  A    between atoms: N4_24  and  C12_26 
REMARK   10  A    between atoms: C12_26  and  C13_27 
REMARK   11  A    between atoms: C16_30  and  C17_31 
ROOT
HETATM    1  N3  UNL     1      10.904  50.244  91.914  1.00  0.00    -0.344 N 
HETATM    2  C7  UNL     1      10.046  49.107  91.902  1.00  0.00     0.157 C 
HETATM    3  C8  UNL     1      10.032  48.711  90.412  1.00  0.00     0.138 C 
HETATM    4  C9  UNL     1      11.537  48.731  90.174  1.00  0.00     0.068 C 
HETATM    5  C10 UNL     1      11.899  50.027  90.841  1.00  0.00     0.181 C 
ENDROOT
BRANCH   1   6
HETATM    6  C6  UNL     1      10.963  51.376  92.730  1.00  0.00     0.163 C 
HETATM    7  C5  UNL     1      10.349  52.681  92.708  1.00  0.00     0.070 C 
BRANCH   7   8
HETATM    8  N2  UNL     1      11.386  53.733  92.911  1.00  0.00    -0.324 N 
HETATM    9  C4  UNL     1      11.729  54.259  94.163  1.00  0.00     0.250 C 
HETATM   10  O2  UNL     1      11.117  53.817  95.189  1.00  0.00    -0.270 OA
ATOM     11  H2  UNL     1      11.875  54.090  92.090  1.00  0.00     0.169 HD
BRANCH   9  12
HETATM   12  C3  UNL     1      12.790  55.321  94.352  1.00  0.00     0.114 A 
HETATM   13  C27 UNL     1      13.523  55.168  95.645  1.00  0.00     0.044 A 
HETATM   14  C28 UNL     1      12.590  56.307  95.471  1.00  0.00     0.044 A 
BRANCH  12  15
HETATM   15  N1  UNL     1      13.475  55.794  93.187  1.00  0.00    -0.343 N 
HETATM   16  C2  UNL     1      14.385  54.993  92.478  1.00  0.00     0.214 C 
HETATM   17  C1  UNL     1      15.105  55.488  91.260  1.00  0.00     0.117 C 
HETATM   18  O1  UNL     1      14.642  53.827  92.827  1.00  0.00    -0.274 OA
ATOM     19  H1  UNL     1      13.295  56.743  92.860  1.00  0.00     0.163 HD
ENDBRANCH  12  15
ENDBRANCH   9  12
ENDBRANCH   7   8
BRANCH   7  20
HETATM   20  C23 UNL     1       9.308  53.098  91.780  1.00  0.00    -0.004 C 
HETATM   21  C24 UNL     1       8.510  51.964  91.205  1.00  0.00     0.021 C 
HETATM   22  C25 UNL     1       8.251  53.942  92.563  1.00  0.00     0.021 C 
HETATM   23  C26 UNL     1       9.737  53.998  90.643  1.00  0.00     0.021 C 
ENDBRANCH   7  20
BRANCH   6  24
HETATM   24  O3  UNL     1      11.789  51.194  93.765  1.00  0.00    -0.345 OA
ATOM     25  H3  UNL     1      12.687  51.444  93.581  1.00  0.00     0.219 HD
ENDBRANCH   6  24
ENDBRANCH   1   6
BRANCH   5  26
HETATM   26  C11 UNL     1      11.996  51.148  89.907  1.00  0.00     0.240 C 
HETATM   27  O5  UNL     1      12.777  52.100  90.276  1.00  0.00    -0.271 OA
HETATM   28  N4  UNL     1      11.360  51.320  88.676  1.00  0.00    -0.355 N 
ATOM     29  H4  UNL     1      10.742  50.588  88.329  1.00  0.00     0.162 HD
BRANCH  28  30
HETATM   30  C12 UNL     1      11.558  52.510  87.883  1.00  0.00     0.161 C 
BRANCH  30  31
HETATM   31  C13 UNL     1      12.303  52.274  86.620  1.00  0.00    -0.040 A 
HETATM   32  C14 UNL     1      13.042  53.285  86.038  1.00  0.00     0.010 A 
HETATM   33  C15 UNL     1      13.743  53.065  84.842  1.00  0.00     0.013 A 
HETATM   34  C16 UNL     1      13.737  51.873  84.199  1.00  0.00    -0.017 A 
HETATM   35  C21 UNL     1      12.979  50.850  84.801  1.00  0.00     0.013 A 
HETATM   36  C22 UNL     1      12.290  51.061  85.974  1.00  0.00     0.010 A 
BRANCH  34  37
HETATM   37  C17 UNL     1      14.404  51.542  82.938  1.00  0.00     0.038 A 
HETATM   38  S1  UNL     1      13.682  50.715  81.584  1.00  0.00    -0.082 SA
HETATM   39  C18 UNL     1      15.012  50.722  80.531  1.00  0.00     0.139 A 
HETATM   40  N5  UNL     1      15.919  51.339  81.248  1.00  0.00    -0.362 N 
HETATM   41  C19 UNL     1      15.660  51.765  82.450  1.00  0.00     0.023 A 
ATOM     42  H5  UNL     1      16.848  51.490  80.855  1.00  0.00     0.165 HD
HETATM   43  C20 UNL     1      16.736  52.498  83.240  1.00  0.00     0.069 C 
ENDBRANCH  34  37
ENDBRANCH  30  31
ENDBRANCH  28  30
ENDBRANCH   5  26
BRANCH   3  44
HETATM   44  O4  UNL     1       9.454  47.487  90.198  1.00  0.00    -0.394 OA
ATOM     45  H4  UNL     1      10.083  46.776  90.231  1.00  0.00     0.210 HD
ENDBRANCH   3  44
TORSDOF 11
ENDMDL
