MODEL 2
REMARK VINA RESULT: -7.647347655      1.673      2.494
REMARK  11 active torsions:
REMARK  status: ('A' for Active; 'I' for Inactive)
REMARK       I    between atoms: C2_2  and  N1_4 
REMARK    1  A    between atoms: N1_4  and  C3_6 
REMARK    2  A    between atoms: C3_6  and  C4_7 
REMARK       I    between atoms: C4_7  and  N2_9 
REMARK    3  A    between atoms: N2_9  and  C5_11 
REMARK    4  A    between atoms: C5_11  and  C23_40 
REMARK    5  A    between atoms: C6_12  and  O3_13 
REMARK    6  A    between atoms: C6_12  and  N3_15 
REMARK    7  A    between atoms: C8_17  and  O4_18 
REMARK    8  A    between atoms: C10_21  and  C11_22 
REMARK       I    between atoms: C11_22  and  N4_24 
REMARK    9  A    between atoms: N4_24  and  C12_26 
REMARK   10  A    between atoms: C12_26  and  C13_27 
REMARK   11  A    between atoms: C16_30  and  C17_31 
ROOT
HETATM    1  N3  UNL     1      13.411  54.483  92.143  1.00  0.00    -0.344 N 
HETATM    2  C7  UNL     1      14.672  55.145  92.176  1.00  0.00     0.157 C 
HETATM    3  C8  UNL     1      14.723  55.841  90.801  1.00  0.00     0.138 C 
HETATM    4  C9  UNL     1      13.344  56.486  90.839  1.00  0.00     0.068 C 
HETATM    5  C10 UNL     1      12.517  55.330  91.322  1.00  0.00     0.181 C 
ENDROOT
BRANCH   1   6
HETATM    6  C6  UNL     1      12.940  53.314  92.745  1.00  0.00     0.163 C 
HETATM    7  C5  UNL     1      12.607  52.927  94.094  1.00  0.00     0.070 C 
BRANCH   7   8
HETATM    8  N2  UNL     1      13.253  51.622  94.420  1.00  0.00    -0.324 N 
HETATM    9  C4  UNL     1      12.597  50.387  94.342  1.00  0.00     0.250 C 
HETATM   10  O2  UNL     1      11.377  50.376  93.973  1.00  0.00    -0.270 OA
ATOM     11  H2  UNL     1      14.228  51.630  94.718  1.00  0.00     0.169 HD
BRANCH   9  12
HETATM   12  C3  UNL     1      13.269  49.071  94.669  1.00  0.00     0.114 A 
HETATM   13  C27 UNL     1      12.881  48.555  96.016  1.00  0.00     0.044 A 
HETATM   14  C28 UNL     1      14.257  49.063  95.804  1.00  0.00     0.044 A 
BRANCH  12  15
HETATM   15  N1  UNL     1      13.514  48.162  93.590  1.00  0.00    -0.343 N 
HETATM   16  C2  UNL     1      14.017  48.590  92.351  1.00  0.00     0.214 C 
HETATM   17  C1  UNL     1      14.269  47.639  91.220  1.00  0.00     0.117 C 
HETATM   18  O1  UNL     1      14.280  49.784  92.128  1.00  0.00    -0.274 OA
ATOM     19  H1  UNL     1      13.315  47.171  93.726  1.00  0.00     0.163 HD
ENDBRANCH  12  15
ENDBRANCH   9  12
ENDBRANCH   7   8
BRANCH   7  20
HETATM   20  C23 UNL     1      12.568  53.829  95.236  1.00  0.00    -0.004 C 
HETATM   21  C24 UNL     1      11.790  55.090  94.994  1.00  0.00     0.021 C 
HETATM   22  C25 UNL     1      11.794  53.127  96.399  1.00  0.00     0.021 C 
HETATM   23  C26 UNL     1      13.899  54.204  95.847  1.00  0.00     0.021 C 
ENDBRANCH   7  20
BRANCH   6  24
HETATM   24  O3  UNL     1      12.768  52.334  91.852  1.00  0.00    -0.345 OA
ATOM     25  H3  UNL     1      12.682  52.647  90.959  1.00  0.00     0.219 HD
ENDBRANCH   6  24
ENDBRANCH   1   6
BRANCH   5  26
HETATM   26  C11 UNL     1      11.861  54.598  90.238  1.00  0.00     0.240 C 
HETATM   27  O5  UNL     1      10.578  54.566  90.301  1.00  0.00    -0.271 OA
HETATM   28  N4  UNL     1      12.439  53.936  89.154  1.00  0.00    -0.355 N 
ATOM     29  H4  UNL     1      13.453  53.944  89.049  1.00  0.00     0.162 HD
BRANCH  28  30
HETATM   30  C12 UNL     1      11.635  53.241  88.177  1.00  0.00     0.161 C 
BRANCH  30  31
HETATM   31  C13 UNL     1      12.368  52.895  86.932  1.00  0.00    -0.040 A 
HETATM   32  C14 UNL     1      13.291  53.769  86.391  1.00  0.00     0.010 A 
HETATM   33  C15 UNL     1      13.981  53.446  85.213  1.00  0.00     0.013 A 
HETATM   34  C16 UNL     1      13.789  52.282  84.548  1.00  0.00    -0.017 A 
HETATM   35  C21 UNL     1      12.846  51.399  85.108  1.00  0.00     0.013 A 
HETATM   36  C22 UNL     1      12.166  51.712  86.264  1.00  0.00     0.010 A 
BRANCH  34  37
HETATM   37  C17 UNL     1      14.429  51.856  83.301  1.00  0.00     0.038 A 
HETATM   38  S1  UNL     1      13.667  50.963  82.013  1.00  0.00    -0.082 SA
HETATM   39  C18 UNL     1      14.981  50.872  80.943  1.00  0.00     0.139 A 
HETATM   40  N5  UNL     1      15.913  51.511  81.607  1.00  0.00    -0.362 N 
HETATM   41  C19 UNL     1      15.682  52.018  82.783  1.00  0.00     0.023 A 
ATOM     42  H5  UNL     1      16.839  51.614  81.192  1.00  0.00     0.165 HD
HETATM   43  C20 UNL     1      16.787  52.773  83.509  1.00  0.00     0.069 C 
ENDBRANCH  34  37
ENDBRANCH  30  31
ENDBRANCH  28  30
ENDBRANCH   5  26
BRANCH   3  44
HETATM   44  O4  UNL     1      15.753  56.740  90.705  1.00  0.00    -0.394 OA
ATOM     45  H4  UNL     1      16.347  56.539  89.992  1.00  0.00     0.210 HD
ENDBRANCH   3  44
TORSDOF 11
ENDMDL
