MODEL 11
REMARK VINA RESULT: -6.864029803      4.385     11.260
REMARK  11 active torsions:
REMARK  status: ('A' for Active; 'I' for Inactive)
REMARK       I    between atoms: C2_2  and  N1_4 
REMARK    1  A    between atoms: N1_4  and  C3_6 
REMARK    2  A    between atoms: C3_6  and  C4_7 
REMARK       I    between atoms: C4_7  and  N2_9 
REMARK    3  A    between atoms: N2_9  and  C5_11 
REMARK    4  A    between atoms: C5_11  and  C23_40 
REMARK    5  A    between atoms: C6_12  and  O3_13 
REMARK    6  A    between atoms: C6_12  and  N3_15 
REMARK    7  A    between atoms: C8_17  and  O4_18 
REMARK    8  A    between atoms: C10_21  and  C11_22 
REMARK       I    between atoms: C11_22  and  N4_24 
REMARK    9  A    between atoms: N4_24  and  C12_26 
REMARK   10  A    between atoms: C12_26  and  C13_27 
REMARK   11  A    between atoms: C16_30  and  C17_31 
ROOT
HETATM    1  N3  UNL     1      11.905  50.933  87.554  1.00  0.00    -0.344 N 
HETATM    2  C7  UNL     1      12.430  49.627  87.776  1.00  0.00     0.157 C 
HETATM    3  C8  UNL     1      12.821  49.670  89.266  1.00  0.00     0.138 C 
HETATM    4  C9  UNL     1      11.519  50.243  89.810  1.00  0.00     0.068 C 
HETATM    5  C10 UNL     1      11.280  51.352  88.828  1.00  0.00     0.181 C 
ENDROOT
BRANCH   1   6
HETATM    6  C6  UNL     1      11.859  51.754  86.426  1.00  0.00     0.163 C 
HETATM    7  C5  UNL     1      10.940  51.923  85.326  1.00  0.00     0.070 C 
BRANCH   7   8
HETATM    8  N2  UNL     1      11.688  51.918  84.035  1.00  0.00    -0.324 N 
HETATM    9  C4  UNL     1      12.605  50.924  83.670  1.00  0.00     0.250 C 
HETATM   10  O2  UNL     1      12.815  49.970  84.487  1.00  0.00    -0.270 OA
ATOM     11  H2  UNL     1      11.523  52.683  83.381  1.00  0.00     0.169 HD
BRANCH   9  12
HETATM   12  C3  UNL     1      13.350  50.930  82.352  1.00  0.00     0.114 A 
HETATM   13  C27 UNL     1      12.500  51.409  81.221  1.00  0.00     0.044 A 
HETATM   14  C28 UNL     1      12.879  49.977  81.288  1.00  0.00     0.044 A 
BRANCH  12  15
HETATM   15  N1  UNL     1      14.749  51.231  82.380  1.00  0.00    -0.343 N 
HETATM   16  C2  UNL     1      15.288  52.206  83.235  1.00  0.00     0.214 C 
HETATM   17  C1  UNL     1      16.753  52.524  83.262  1.00  0.00     0.117 C 
HETATM   18  O1  UNL     1      14.574  52.859  84.016  1.00  0.00    -0.274 OA
ATOM     19  H1  UNL     1      15.376  50.719  81.759  1.00  0.00     0.163 HD
ENDBRANCH  12  15
ENDBRANCH   9  12
ENDBRANCH   7   8
BRANCH   7  20
HETATM   20  C23 UNL     1       9.640  51.276  85.217  1.00  0.00    -0.004 C 
HETATM   21  C24 UNL     1       8.608  51.813  86.167  1.00  0.00     0.021 C 
HETATM   22  C25 UNL     1       9.047  51.583  83.804  1.00  0.00     0.021 C 
HETATM   23  C26 UNL     1       9.627  49.767  85.308  1.00  0.00     0.021 C 
ENDBRANCH   7  20
BRANCH   6  24
HETATM   24  O3  UNL     1      12.921  52.563  86.360  1.00  0.00    -0.345 OA
ATOM     25  H3  UNL     1      12.702  53.456  86.122  1.00  0.00     0.219 HD
ENDBRANCH   6  24
ENDBRANCH   1   6
BRANCH   5  26
HETATM   26  C11 UNL     1      11.751  52.654  89.302  1.00  0.00     0.240 C 
HETATM   27  O5  UNL     1      11.175  53.670  88.766  1.00  0.00    -0.271 OA
HETATM   28  N4  UNL     1      12.733  52.936  90.252  1.00  0.00    -0.355 N 
ATOM     29  H4  UNL     1      13.210  52.165  90.719  1.00  0.00     0.162 HD
BRANCH  28  30
HETATM   30  C12 UNL     1      13.089  54.293  90.591  1.00  0.00     0.161 C 
BRANCH  30  31
HETATM   31  C13 UNL     1      12.910  54.621  92.029  1.00  0.00    -0.040 A 
HETATM   32  C14 UNL     1      13.953  55.142  92.768  1.00  0.00     0.010 A 
HETATM   33  C15 UNL     1      13.788  55.448  94.128  1.00  0.00     0.013 A 
HETATM   34  C16 UNL     1      12.618  55.255  94.784  1.00  0.00    -0.017 A 
HETATM   35  C21 UNL     1      11.562  54.723  94.020  1.00  0.00     0.013 A 
HETATM   36  C22 UNL     1      11.720  54.421  92.686  1.00  0.00     0.010 A 
BRANCH  34  37
HETATM   37  C17 UNL     1      12.343  55.510  96.200  1.00  0.00     0.038 A 
HETATM   38  S1  UNL     1      12.397  54.330  97.481  1.00  0.00    -0.082 SA
HETATM   39  C18 UNL     1      12.004  55.341  98.786  1.00  0.00     0.139 A 
HETATM   40  N5  UNL     1      11.854  56.500  98.192  1.00  0.00    -0.362 N 
HETATM   41  C19 UNL     1      12.014  56.630  96.908  1.00  0.00     0.023 A 
ATOM     42  H5  UNL     1      11.608  57.317  98.750  1.00  0.00     0.165 HD
HETATM   43  C20 UNL     1      11.853  58.000  96.263  1.00  0.00     0.069 C 
ENDBRANCH  34  37
ENDBRANCH  30  31
ENDBRANCH  28  30
ENDBRANCH   5  26
BRANCH   3  44
HETATM   44  O4  UNL     1      13.132  48.431  89.764  1.00  0.00    -0.394 OA
ATOM     45  H4  UNL     1      14.013  48.158  89.537  1.00  0.00     0.210 HD
ENDBRANCH   3  44
TORSDOF 11
ENDMDL
