MODEL 1
REMARK VINA RESULT: -8.420764931      0.000      0.000
REMARK  9 active torsions:
REMARK  status: ('A' for Active; 'I' for Inactive)
REMARK    1  A    between atoms: C4_7  and  C5_8 
REMARK    2  A    between atoms: C8_11  and  C9_12 
REMARK    3  A    between atoms: C9_12  and  N2_13 
REMARK       I    between atoms: N2_13  and  C10_15 
REMARK    4  A    between atoms: C10_15  and  C11_17 
REMARK    5  A    between atoms: C13_19  and  O2_20 
REMARK       I    between atoms: N3_23  and  C15_24 
REMARK    6  A    between atoms: C15_24  and  C16_26 
REMARK    7  A    between atoms: C16_26  and  N4_27 
REMARK    8  A    between atoms: C16_26  and  C22_35 
REMARK       I    between atoms: N4_27  and  C17_29 
REMARK    9  A    between atoms: C17_29  and  C18_31 
ROOT
HETATM    1  C11 UNL     1      12.379  55.203  91.088  1.00  0.00     0.181 C 
HETATM    2  C12 UNL     1      13.326  56.141  90.389  1.00  0.00     0.068 C 
HETATM    3  C13 UNL     1      14.652  55.528  90.755  1.00  0.00     0.138 C 
HETATM    4  C14 UNL     1      14.431  54.775  92.039  1.00  0.00     0.158 C 
HETATM    5  N3  UNL     1      13.044  54.984  92.355  1.00  0.00    -0.334 N 
HETATM    6  C15 UNL     1      12.393  54.984  93.624  1.00  0.00     0.244 C 
HETATM    7  O3  UNL     1      11.127  55.235  93.558  1.00  0.00    -0.271 OA
ENDROOT
BRANCH   1   8
HETATM    8  C10 UNL     1      12.210  54.012  90.255  1.00  0.00     0.241 C 
HETATM    9  N2  UNL     1      11.779  53.943  88.923  1.00  0.00    -0.355 N 
ATOM     10  H2  UNL     1      11.544  54.807  88.435  1.00  0.00     0.162 HD
HETATM   11  O1  UNL     1      12.487  52.883  90.795  1.00  0.00    -0.271 OA
BRANCH   9  12
HETATM   12  C9  UNL     1      11.657  52.685  88.221  1.00  0.00     0.161 C 
BRANCH  12  13
HETATM   13  C8  UNL     1      12.434  52.611  86.974  1.00  0.00    -0.040 A 
HETATM   14  C7  UNL     1      12.411  51.449  86.240  1.00  0.00     0.010 A 
HETATM   15  C6  UNL     1      13.118  51.335  85.064  1.00  0.00     0.013 A 
HETATM   16  C5  UNL     1      13.882  52.415  84.590  1.00  0.00    -0.017 A 
HETATM   17  C27 UNL     1      13.879  53.540  85.341  1.00  0.00     0.013 A 
HETATM   18  C26 UNL     1      13.161  53.659  86.537  1.00  0.00     0.010 A 
BRANCH  16  19
HETATM   19  C4  UNL     1      14.595  52.201  83.330  1.00  0.00     0.038 A 
HETATM   20  C2  UNL     1      15.870  52.453  82.916  1.00  0.00     0.023 A 
HETATM   21  C1  UNL     1      16.927  53.088  83.813  1.00  0.00     0.069 C 
HETATM   22  N1  UNL     1      16.181  52.127  81.693  1.00  0.00    -0.362 N 
HETATM   23  C3  UNL     1      15.303  51.577  80.891  1.00  0.00     0.139 A 
ATOM     24  H1  UNL     1      17.127  52.304  81.353  1.00  0.00     0.165 HD
HETATM   25  S1  UNL     1      13.928  51.494  81.883  1.00  0.00    -0.082 SA
ENDBRANCH  16  19
ENDBRANCH  12  13
ENDBRANCH   9  12
ENDBRANCH   1   8
BRANCH   3  26
HETATM   26  O2  UNL     1      15.565  56.569  90.972  1.00  0.00    -0.394 OA
ATOM     27  H2  UNL     1      16.230  56.256  91.573  1.00  0.00     0.210 HD
ENDBRANCH   3  26
BRANCH   6  28
HETATM   28  C16 UNL     1      12.904  54.756  94.945  1.00  0.00     0.184 C 
BRANCH  28  29
HETATM   29  N4  UNL     1      11.988  55.394  95.916  1.00  0.00    -0.347 N 
HETATM   30  C17 UNL     1      12.040  56.749  96.261  1.00  0.00     0.222 C 
HETATM   31  O4  UNL     1      12.898  57.490  95.733  1.00  0.00    -0.273 OA
ATOM     32  H4  UNL     1      11.277  54.813  96.359  1.00  0.00     0.163 HD
BRANCH  30  33
HETATM   33  C18 UNL     1      11.090  57.320  97.246  1.00  0.00     0.078 C 
HETATM   34  C19 UNL     1      10.705  58.759  96.968  1.00  0.00     0.014 C 
HETATM   35  C20 UNL     1       9.280  58.365  97.304  1.00  0.00     0.002 C 
HETATM   36  C21 UNL     1       9.671  56.935  96.950  1.00  0.00     0.014 C 
ENDBRANCH  30  33
ENDBRANCH  28  29
BRANCH  28  37
HETATM   37  C22 UNL     1      13.091  53.377  95.452  1.00  0.00    -0.022 C 
HETATM   38  C23 UNL     1      11.797  52.804  96.034  1.00  0.00     0.017 C 
HETATM   39  C24 UNL     1      13.972  53.570  96.726  1.00  0.00     0.017 C 
HETATM   40  C25 UNL     1      13.859  52.418  94.624  1.00  0.00     0.017 C 
ENDBRANCH  28  37
ENDBRANCH   6  28
TORSDOF 9
ENDMDL
