MODEL 15
REMARK VINA RESULT: -7.297243986      3.890     11.596
REMARK  9 active torsions:
REMARK  status: ('A' for Active; 'I' for Inactive)
REMARK    1  A    between atoms: C4_7  and  C5_8 
REMARK    2  A    between atoms: C8_11  and  C9_12 
REMARK    3  A    between atoms: C9_12  and  N2_13 
REMARK       I    between atoms: N2_13  and  C10_15 
REMARK    4  A    between atoms: C10_15  and  C11_17 
REMARK    5  A    between atoms: C13_19  and  O2_20 
REMARK       I    between atoms: N3_23  and  C15_24 
REMARK    6  A    between atoms: C15_24  and  C16_26 
REMARK    7  A    between atoms: C16_26  and  N4_27 
REMARK    8  A    between atoms: C16_26  and  C22_35 
REMARK       I    between atoms: N4_27  and  C17_29 
REMARK    9  A    between atoms: C17_29  and  C18_31 
ROOT
HETATM    1  C11 UNL     1      10.813  52.846  86.827  1.00  0.00     0.181 C 
HETATM    2  C12 UNL     1      10.097  51.944  87.796  1.00  0.00     0.068 C 
HETATM    3  C13 UNL     1      10.989  50.730  87.762  1.00  0.00     0.138 C 
HETATM    4  C14 UNL     1      11.687  50.755  86.429  1.00  0.00     0.158 C 
HETATM    5  N3  UNL     1      11.183  51.929  85.770  1.00  0.00    -0.334 N 
HETATM    6  C15 UNL     1      11.054  52.202  84.377  1.00  0.00     0.244 C 
HETATM    7  O3  UNL     1      10.532  53.356  84.119  1.00  0.00    -0.271 OA
ENDROOT
BRANCH   1   8
HETATM    8  C10 UNL     1      11.931  53.482  87.527  1.00  0.00     0.241 C 
HETATM    9  N2  UNL     1      12.016  53.830  88.881  1.00  0.00    -0.355 N 
ATOM     10  H2  UNL     1      11.224  53.634  89.493  1.00  0.00     0.162 HD
HETATM   11  O1  UNL     1      12.968  53.760  86.827  1.00  0.00    -0.271 OA
BRANCH   9  12
HETATM   12  C9  UNL     1      13.193  54.459  89.438  1.00  0.00     0.161 C 
BRANCH  12  13
HETATM   13  C8  UNL     1      13.118  54.709  90.885  1.00  0.00    -0.040 A 
HETATM   14  C7  UNL     1      11.995  54.319  91.574  1.00  0.00     0.010 A 
HETATM   15  C6  UNL     1      11.881  54.526  92.930  1.00  0.00     0.013 A 
HETATM   16  C5  UNL     1      12.922  55.148  93.640  1.00  0.00    -0.017 A 
HETATM   17  C27 UNL     1      14.011  55.517  92.926  1.00  0.00     0.013 A 
HETATM   18  C26 UNL     1      14.129  55.307  91.547  1.00  0.00     0.010 A 
BRANCH  16  19
HETATM   19  C4  UNL     1      12.713  55.322  95.078  1.00  0.00     0.038 A 
HETATM   20  C2  UNL     1      12.974  54.545  96.167  1.00  0.00     0.023 A 
HETATM   21  C1  UNL     1      13.620  53.168  96.073  1.00  0.00     0.069 C 
HETATM   22  N1  UNL     1      12.650  55.020  97.338  1.00  0.00    -0.362 N 
HETATM   23  C3  UNL     1      12.096  56.201  97.463  1.00  0.00     0.139 A 
ATOM     24  H1  UNL     1      12.832  54.462  98.173  1.00  0.00     0.165 HD
HETATM   25  S1  UNL     1      12.003  56.715  95.848  1.00  0.00    -0.082 SA
ENDBRANCH  16  19
ENDBRANCH  12  13
ENDBRANCH   9  12
ENDBRANCH   1   8
BRANCH   3  26
HETATM   26  O2  UNL     1      10.174  49.593  87.845  1.00  0.00    -0.394 OA
ATOM     27  H2  UNL     1      10.696  48.883  88.198  1.00  0.00     0.210 HD
ENDBRANCH   3  26
BRANCH   6  28
HETATM   28  C16 UNL     1      11.400  51.417  83.227  1.00  0.00     0.184 C 
BRANCH  28  29
HETATM   29  N4  UNL     1      12.873  51.277  83.184  1.00  0.00    -0.347 N 
HETATM   30  C17 UNL     1      13.655  51.613  82.074  1.00  0.00     0.222 C 
HETATM   31  O4  UNL     1      13.108  52.063  81.044  1.00  0.00    -0.273 OA
ATOM     32  H4  UNL     1      13.344  50.915  84.013  1.00  0.00     0.163 HD
BRANCH  30  33
HETATM   33  C18 UNL     1      15.128  51.442  82.102  1.00  0.00     0.078 C 
HETATM   34  C19 UNL     1      15.881  52.445  81.252  1.00  0.00     0.014 C 
HETATM   35  C20 UNL     1      16.864  52.569  82.399  1.00  0.00     0.002 C 
HETATM   36  C21 UNL     1      15.746  52.078  83.312  1.00  0.00     0.014 C 
ENDBRANCH  30  33
ENDBRANCH  28  29
BRANCH  28  37
HETATM   37  C22 UNL     1      10.885  50.038  83.074  1.00  0.00    -0.022 C 
HETATM   38  C23 UNL     1      11.986  48.993  83.267  1.00  0.00     0.017 C 
HETATM   39  C24 UNL     1      10.583  49.924  81.547  1.00  0.00     0.017 C 
HETATM   40  C25 UNL     1       9.599  49.687  83.722  1.00  0.00     0.017 C 
ENDBRANCH  28  37
ENDBRANCH   6  28
TORSDOF 9
ENDMDL
