MODEL 13
REMARK VINA RESULT: -7.360325914      3.842     11.422
REMARK  9 active torsions:
REMARK  status: ('A' for Active; 'I' for Inactive)
REMARK    1  A    between atoms: C4_7  and  C5_8 
REMARK    2  A    between atoms: C8_11  and  C9_12 
REMARK    3  A    between atoms: C9_12  and  N2_13 
REMARK       I    between atoms: N2_13  and  C10_15 
REMARK    4  A    between atoms: C10_15  and  C11_17 
REMARK    5  A    between atoms: C13_19  and  O2_20 
REMARK       I    between atoms: N3_23  and  C15_24 
REMARK    6  A    between atoms: C15_24  and  C16_26 
REMARK    7  A    between atoms: C16_26  and  N4_27 
REMARK    8  A    between atoms: C16_26  and  C22_35 
REMARK       I    between atoms: N4_27  and  C17_29 
REMARK    9  A    between atoms: C17_29  and  C18_31 
ROOT
HETATM    1  C11 UNL     1      10.661  52.200  88.560  1.00  0.00     0.181 C 
HETATM    2  C12 UNL     1      10.207  51.230  89.617  1.00  0.00     0.068 C 
HETATM    3  C13 UNL     1      11.329  50.225  89.579  1.00  0.00     0.138 C 
HETATM    4  C14 UNL     1      11.930  50.313  88.202  1.00  0.00     0.158 C 
HETATM    5  N3  UNL     1      11.155  51.317  87.524  1.00  0.00    -0.334 N 
HETATM    6  C15 UNL     1      10.892  51.473  86.132  1.00  0.00     0.244 C 
HETATM    7  O3  UNL     1      10.127  52.478  85.857  1.00  0.00    -0.271 OA
ENDROOT
BRANCH   1   8
HETATM    8  C10 UNL     1      11.659  53.093  89.152  1.00  0.00     0.241 C 
HETATM    9  N2  UNL     1      11.834  53.419  90.503  1.00  0.00    -0.355 N 
ATOM     10  H2  UNL     1      11.210  53.005  91.196  1.00  0.00     0.162 HD
HETATM   11  O1  UNL     1      12.484  53.653  88.346  1.00  0.00    -0.271 OA
BRANCH   9  12
HETATM   12  C9  UNL     1      12.871  54.325  90.945  1.00  0.00     0.161 C 
BRANCH  12  13
HETATM   13  C8  UNL     1      12.762  54.726  92.355  1.00  0.00    -0.040 A 
HETATM   14  C7  UNL     1      11.562  54.565  93.006  1.00  0.00     0.010 A 
HETATM   15  C6  UNL     1      11.414  54.921  94.328  1.00  0.00     0.013 A 
HETATM   16  C5  UNL     1      12.498  55.461  95.040  1.00  0.00    -0.017 A 
HETATM   17  C27 UNL     1      13.662  55.604  94.365  1.00  0.00     0.013 A 
HETATM   18  C26 UNL     1      13.814  55.243  93.021  1.00  0.00     0.010 A 
BRANCH  16  19
HETATM   19  C4  UNL     1      12.246  55.805  96.441  1.00  0.00     0.038 A 
HETATM   20  C2  UNL     1      11.996  56.977  97.091  1.00  0.00     0.023 A 
HETATM   21  C1  UNL     1      11.921  58.324  96.381  1.00  0.00     0.069 C 
HETATM   22  N1  UNL     1      11.813  56.924  98.381  1.00  0.00    -0.362 N 
HETATM   23  C3  UNL     1      11.865  55.786  99.028  1.00  0.00     0.139 A 
ATOM     24  H1  UNL     1      11.624  57.784  98.896  1.00  0.00     0.165 HD
HETATM   25  S1  UNL     1      12.195  54.687  97.777  1.00  0.00    -0.082 SA
ENDBRANCH  16  19
ENDBRANCH  12  13
ENDBRANCH   9  12
ENDBRANCH   1   8
BRANCH   3  26
HETATM   26  O2  UNL     1      10.776  48.952  89.770  1.00  0.00    -0.394 OA
ATOM     27  H2  UNL     1      11.393  48.312  89.437  1.00  0.00     0.210 HD
ENDBRANCH   3  26
BRANCH   6  28
HETATM   28  C16 UNL     1      11.329  50.709  84.999  1.00  0.00     0.184 C 
BRANCH  28  29
HETATM   29  N4  UNL     1      12.797  50.856  84.876  1.00  0.00    -0.347 N 
HETATM   30  C17 UNL     1      13.426  51.546  83.834  1.00  0.00     0.222 C 
HETATM   31  O4  UNL     1      12.735  52.084  82.941  1.00  0.00    -0.273 OA
ATOM     32  H4  UNL     1      13.383  50.428  85.592  1.00  0.00     0.163 HD
BRANCH  30  33
HETATM   33  C18 UNL     1      14.904  51.648  83.774  1.00  0.00     0.078 C 
HETATM   34  C19 UNL     1      15.470  51.576  82.370  1.00  0.00     0.014 C 
HETATM   35  C20 UNL     1      16.394  52.711  82.763  1.00  0.00     0.002 C 
HETATM   36  C21 UNL     1      15.373  53.071  83.837  1.00  0.00     0.014 C 
ENDBRANCH  30  33
ENDBRANCH  28  29
BRANCH  28  37
HETATM   37  C22 UNL     1      11.088  49.250  84.937  1.00  0.00    -0.022 C 
HETATM   38  C23 UNL     1      12.363  48.450  85.214  1.00  0.00     0.017 C 
HETATM   39  C24 UNL     1      10.850  48.979  83.419  1.00  0.00     0.017 C 
HETATM   40  C25 UNL     1       9.878  48.704  85.595  1.00  0.00     0.017 C 
ENDBRANCH  28  37
ENDBRANCH   6  28
TORSDOF 9
ENDMDL
