MODEL 12
REMARK VINA RESULT: -7.377044893      3.794      5.715
REMARK  9 active torsions:
REMARK  status: ('A' for Active; 'I' for Inactive)
REMARK    1  A    between atoms: C4_7  and  C5_8 
REMARK    2  A    between atoms: C8_11  and  C9_12 
REMARK    3  A    between atoms: C9_12  and  N2_13 
REMARK       I    between atoms: N2_13  and  C10_15 
REMARK    4  A    between atoms: C10_15  and  C11_17 
REMARK    5  A    between atoms: C13_19  and  O2_20 
REMARK       I    between atoms: N3_23  and  C15_24 
REMARK    6  A    between atoms: C15_24  and  C16_26 
REMARK    7  A    between atoms: C16_26  and  N4_27 
REMARK    8  A    between atoms: C16_26  and  C22_35 
REMARK       I    between atoms: N4_27  and  C17_29 
REMARK    9  A    between atoms: C17_29  and  C18_31 
ROOT
HETATM    1  C11 UNL     1      11.980  54.279  90.599  1.00  0.00     0.181 C 
HETATM    2  C12 UNL     1      12.504  53.271  91.585  1.00  0.00     0.068 C 
HETATM    3  C13 UNL     1      12.281  51.990  90.825  1.00  0.00     0.138 C 
HETATM    4  C14 UNL     1      11.159  52.261  89.859  1.00  0.00     0.158 C 
HETATM    5  N3  UNL     1      10.788  53.629  90.099  1.00  0.00    -0.334 N 
HETATM    6  C15 UNL     1       9.532  54.276  89.902  1.00  0.00     0.244 C 
HETATM    7  O3  UNL     1       9.530  55.521  90.247  1.00  0.00    -0.271 OA
ENDROOT
BRANCH   1   8
HETATM    8  C10 UNL     1      13.022  54.534  89.601  1.00  0.00     0.241 C 
HETATM    9  N2  UNL     1      12.903  54.519  88.206  1.00  0.00    -0.355 N 
ATOM     10  H2  UNL     1      11.996  54.310  87.789  1.00  0.00     0.162 HD
HETATM   11  O1  UNL     1      14.193  54.807  90.045  1.00  0.00    -0.271 OA
BRANCH   9  12
HETATM   12  C9  UNL     1      14.027  54.791  87.337  1.00  0.00     0.161 C 
BRANCH  12  13
HETATM   13  C8  UNL     1      14.059  53.974  86.116  1.00  0.00    -0.040 A 
HETATM   14  C7  UNL     1      12.985  53.169  85.821  1.00  0.00     0.010 A 
HETATM   15  C6  UNL     1      12.966  52.390  84.685  1.00  0.00     0.013 A 
HETATM   16  C5  UNL     1      14.057  52.406  83.800  1.00  0.00    -0.017 A 
HETATM   17  C27 UNL     1      15.095  53.211  84.125  1.00  0.00     0.013 A 
HETATM   18  C26 UNL     1      15.116  54.003  85.279  1.00  0.00     0.010 A 
BRANCH  16  19
HETATM   19  C4  UNL     1      13.945  51.549  82.619  1.00  0.00     0.038 A 
HETATM   20  C2  UNL     1      14.637  51.469  81.446  1.00  0.00     0.023 A 
HETATM   21  C1  UNL     1      15.812  52.380  81.108  1.00  0.00     0.069 C 
HETATM   22  N1  UNL     1      14.262  50.563  80.586  1.00  0.00    -0.362 N 
HETATM   23  C3  UNL     1      13.259  49.759  80.839  1.00  0.00     0.139 A 
ATOM     24  H1  UNL     1      14.759  50.479  79.699  1.00  0.00     0.165 HD
HETATM   25  S1  UNL     1      12.778  50.277  82.383  1.00  0.00    -0.082 SA
ENDBRANCH  16  19
ENDBRANCH  12  13
ENDBRANCH   9  12
ENDBRANCH   1   8
BRANCH   3  26
HETATM   26  O2  UNL     1      11.886  51.007  91.741  1.00  0.00    -0.394 OA
ATOM     27  H2  UNL     1      12.655  50.504  91.981  1.00  0.00     0.210 HD
ENDBRANCH   3  26
BRANCH   6  28
HETATM   28  C16 UNL     1       8.286  53.780  89.394  1.00  0.00     0.184 C 
BRANCH  28  29
HETATM   29  N4  UNL     1       7.335  54.909  89.309  1.00  0.00    -0.347 N 
HETATM   30  C17 UNL     1       6.436  55.249  90.325  1.00  0.00     0.222 C 
HETATM   31  O4  UNL     1       6.413  54.579  91.381  1.00  0.00    -0.273 OA
ATOM     32  H4  UNL     1       7.334  55.473  88.459  1.00  0.00     0.163 HD
BRANCH  30  33
HETATM   33  C18 UNL     1       5.507  56.394  90.168  1.00  0.00     0.078 C 
HETATM   34  C19 UNL     1       6.186  57.748  90.207  1.00  0.00     0.014 C 
HETATM   35  C20 UNL     1       5.300  58.144  89.043  1.00  0.00     0.002 C 
HETATM   36  C21 UNL     1       5.174  56.657  88.730  1.00  0.00     0.014 C 
ENDBRANCH  30  33
ENDBRANCH  28  29
BRANCH  28  37
HETATM   37  C22 UNL     1       8.221  53.129  88.065  1.00  0.00    -0.022 C 
HETATM   38  C23 UNL     1       9.190  53.769  87.069  1.00  0.00     0.017 C 
HETATM   39  C24 UNL     1       6.831  53.569  87.507  1.00  0.00     0.017 C 
HETATM   40  C25 UNL     1       8.181  51.649  88.005  1.00  0.00     0.017 C 
ENDBRANCH  28  37
ENDBRANCH   6  28
TORSDOF 9
ENDMDL
