MODEL 5
REMARK VINA RESULT: -7.779398791      1.267      1.434
REMARK  9 active torsions:
REMARK  status: ('A' for Active; 'I' for Inactive)
REMARK    1  A    between atoms: C4_7  and  C5_8 
REMARK    2  A    between atoms: C8_11  and  C9_12 
REMARK    3  A    between atoms: C9_12  and  N2_13 
REMARK       I    between atoms: N2_13  and  C10_15 
REMARK    4  A    between atoms: C10_15  and  C11_17 
REMARK    5  A    between atoms: C13_19  and  O2_20 
REMARK       I    between atoms: N3_23  and  C15_24 
REMARK    6  A    between atoms: C15_24  and  C16_26 
REMARK    7  A    between atoms: C16_26  and  N4_27 
REMARK    8  A    between atoms: C16_26  and  C22_35 
REMARK       I    between atoms: N4_27  and  C17_29 
REMARK    9  A    between atoms: C17_29  and  C18_31 
ROOT
HETATM    1  C11 UNL     1      10.979  53.648  91.372  1.00  0.00     0.181 C 
HETATM    2  C12 UNL     1      11.188  54.893  90.554  1.00  0.00     0.068 C 
HETATM    3  C13 UNL     1      12.692  54.970  90.537  1.00  0.00     0.138 C 
HETATM    4  C14 UNL     1      13.168  54.240  91.764  1.00  0.00     0.158 C 
HETATM    5  N3  UNL     1      11.966  53.799  92.420  1.00  0.00    -0.334 N 
HETATM    6  C15 UNL     1      11.731  53.539  93.801  1.00  0.00     0.244 C 
HETATM    7  O3  UNL     1      10.517  53.178  94.063  1.00  0.00    -0.271 OA
ENDROOT
BRANCH   1   8
HETATM    8  C10 UNL     1      11.161  52.486  90.500  1.00  0.00     0.241 C 
HETATM    9  N2  UNL     1      11.145  52.446  89.100  1.00  0.00    -0.355 N 
ATOM     10  H2  UNL     1      10.992  53.311  88.583  1.00  0.00     0.162 HD
HETATM   11  O1  UNL     1      11.362  51.358  91.074  1.00  0.00    -0.271 OA
BRANCH   9  12
HETATM   12  C9  UNL     1      11.340  51.215  88.366  1.00  0.00     0.161 C 
BRANCH  12  13
HETATM   13  C8  UNL     1      12.038  51.381  87.082  1.00  0.00    -0.040 A 
HETATM   14  C7  UNL     1      12.482  50.266  86.413  1.00  0.00     0.010 A 
HETATM   15  C6  UNL     1      13.135  50.371  85.205  1.00  0.00     0.013 A 
HETATM   16  C5  UNL     1      13.361  51.634  84.632  1.00  0.00    -0.017 A 
HETATM   17  C27 UNL     1      12.910  52.707  85.321  1.00  0.00     0.013 A 
HETATM   18  C26 UNL     1      12.245  52.602  86.549  1.00  0.00     0.010 A 
BRANCH  16  19
HETATM   19  C4  UNL     1      14.059  51.646  83.345  1.00  0.00     0.038 A 
HETATM   20  C2  UNL     1      15.229  52.199  82.915  1.00  0.00     0.023 A 
HETATM   21  C1  UNL     1      16.147  53.014  83.818  1.00  0.00     0.069 C 
HETATM   22  N1  UNL     1      15.562  52.009  81.669  1.00  0.00    -0.362 N 
HETATM   23  C3  UNL     1      14.803  51.312  80.860  1.00  0.00     0.139 A 
ATOM     24  H1  UNL     1      16.431  52.411  81.316  1.00  0.00     0.165 HD
HETATM   25  S1  UNL     1      13.518  50.874  81.879  1.00  0.00    -0.082 SA
ENDBRANCH  16  19
ENDBRANCH  12  13
ENDBRANCH   9  12
ENDBRANCH   1   8
BRANCH   3  26
HETATM   26  O2  UNL     1      13.057  56.320  90.622  1.00  0.00    -0.394 OA
ATOM     27  H2  UNL     1      12.286  56.844  90.441  1.00  0.00     0.210 HD
ENDBRANCH   3  26
BRANCH   6  28
HETATM   28  C16 UNL     1      12.605  53.612  94.936  1.00  0.00     0.184 C 
BRANCH  28  29
HETATM   29  N4  UNL     1      12.085  54.646  95.859  1.00  0.00    -0.347 N 
HETATM   30  C17 UNL     1      12.427  56.000  95.783  1.00  0.00     0.222 C 
HETATM   31  O4  UNL     1      13.214  56.392  94.893  1.00  0.00    -0.273 OA
ATOM     32  H4  UNL     1      11.439  54.354  96.592  1.00  0.00     0.163 HD
BRANCH  30  33
HETATM   33  C18 UNL     1      11.869  56.981  96.746  1.00  0.00     0.078 C 
HETATM   34  C19 UNL     1      11.985  58.423  96.294  1.00  0.00     0.014 C 
HETATM   35  C20 UNL     1      10.566  58.616  96.791  1.00  0.00     0.002 C 
HETATM   36  C21 UNL     1      10.381  57.112  96.618  1.00  0.00     0.014 C 
ENDBRANCH  30  33
ENDBRANCH  28  29
BRANCH  28  37
HETATM   37  C22 UNL     1      12.832  52.424  95.790  1.00  0.00    -0.022 C 
HETATM   38  C23 UNL     1      11.998  52.476  97.072  1.00  0.00     0.017 C 
HETATM   39  C24 UNL     1      14.283  52.629  96.329  1.00  0.00     0.017 C 
HETATM   40  C25 UNL     1      12.871  51.090  95.147  1.00  0.00     0.017 C 
ENDBRANCH  28  37
ENDBRANCH   6  28
TORSDOF 9
ENDMDL
