MODEL 1
REMARK VINA RESULT: -7.858364897      0.000      0.000
REMARK  10 active torsions:
REMARK  status: ('A' for Active; 'I' for Inactive)
REMARK    1  A    between atoms: N1_1  and  N2_4 
REMARK       I    between atoms: N2_4  and  C1_6 
REMARK    2  A    between atoms: C1_6  and  C2_8 
REMARK    3  A    between atoms: C2_8  and  O2_9 
REMARK    4  A    between atoms: C2_8  and  C3_11 
REMARK    5  A    between atoms: C3_11  and  O3_12 
REMARK    6  A    between atoms: C3_11  and  C4_14 
REMARK    7  A    between atoms: C4_14  and  O4_15 
REMARK    8  A    between atoms: C4_14  and  C5_17 
REMARK    9  A    between atoms: C5_17  and  O5_18 
REMARK   10  A    between atoms: O5_18  and  P1_19 
ROOT
HETATM    1  C3  UNL     1      20.935  15.215   9.613  1.00  0.00     0.187 C 
ENDROOT
BRANCH   1   2
HETATM    2  C2  UNL     1      19.928  14.145   9.926  1.00  0.00     0.242 C 
BRANCH   2   3
HETATM    3  C1  UNL     1      18.624  14.357   9.263  1.00  0.00     0.267 C 
HETATM    4  N2  UNL     1      17.448  14.598  10.030  1.00  0.00    -0.274 N 
ATOM      5  H2  UNL     1      17.487  14.627  11.049  1.00  0.00     0.189 HD
HETATM    6  O1  UNL     1      18.609  14.315   8.004  1.00  0.00    -0.269 OA
BRANCH   4   7
HETATM    7  N1  UNL     1      16.254  14.791   9.361  1.00  0.00    -0.343 N 
ATOM      8  H12 UNL     1      16.160  14.488   8.392  1.00  0.00     0.176 HD
ATOM      9  H11 UNL     1      15.485  15.238   9.861  1.00  0.00     0.176 HD
ENDBRANCH   4   7
ENDBRANCH   2   3
BRANCH   2  10
HETATM   10  O2  UNL     1      20.471  12.895   9.643  1.00  0.00    -0.383 OA
ATOM     11  H2  UNL     1      21.143  12.935   8.971  1.00  0.00     0.210 HD
ENDBRANCH   2  10
ENDBRANCH   1   2
BRANCH   1  12
HETATM   12  O3  UNL     1      22.058  15.163  10.423  1.00  0.00    -0.390 OA
ATOM     13  H3  UNL     1      21.981  15.695  11.207  1.00  0.00     0.210 HD
ENDBRANCH   1  12
BRANCH   1  14
HETATM   14  C4  UNL     1      20.243  16.552   9.774  1.00  0.00     0.174 C 
BRANCH  14  15
HETATM   15  O4  UNL     1      20.341  17.263   8.590  1.00  0.00    -0.391 OA
ATOM     16  H4  UNL     1      19.807  16.842   7.927  1.00  0.00     0.210 HD
ENDBRANCH  14  15
BRANCH  14  17
HETATM   17  C5  UNL     1      20.792  17.298  10.929  1.00  0.00     0.217 C 
BRANCH  17  18
HETATM   18  O5  UNL     1      19.821  18.280  11.234  1.00  0.00    -0.280 OA
BRANCH  18  19
HETATM   19  P1  UNL     1      20.278  19.727  11.494  1.00  0.00     0.422 P 
HETATM   20  O6  UNL     1      20.571  21.229  11.624  1.00  0.00    -0.617 OA
HETATM   21  O7  UNL     1      20.088  19.959   9.842  1.00  0.00    -0.617 OA
HETATM   22  O8  UNL     1      18.985  19.881  12.495  1.00  0.00    -0.617 OA
ENDBRANCH  18  19
ENDBRANCH  17  18
ENDBRANCH  14  17
ENDBRANCH   1  14
TORSDOF 10
ENDMDL
