MODEL 16
REMARK VINA RESULT: -6.833615866      3.477      5.682
REMARK  10 active torsions:
REMARK  status: ('A' for Active; 'I' for Inactive)
REMARK    1  A    between atoms: N1_1  and  N2_4 
REMARK       I    between atoms: N2_4  and  C1_6 
REMARK    2  A    between atoms: C1_6  and  C2_8 
REMARK    3  A    between atoms: C2_8  and  O2_9 
REMARK    4  A    between atoms: C2_8  and  C3_11 
REMARK    5  A    between atoms: C3_11  and  O3_12 
REMARK    6  A    between atoms: C3_11  and  C4_14 
REMARK    7  A    between atoms: C4_14  and  O4_15 
REMARK    8  A    between atoms: C4_14  and  C5_17 
REMARK    9  A    between atoms: C5_17  and  O5_18 
REMARK   10  A    between atoms: O5_18  and  P1_19 
ROOT
HETATM    1  C3  UNL     1      21.661  18.307  10.360  1.00  0.00     0.187 C 
ENDROOT
BRANCH   1   2
HETATM    2  C2  UNL     1      20.492  19.234  10.543  1.00  0.00     0.242 C 
BRANCH   2   3
HETATM    3  C1  UNL     1      20.485  19.914  11.855  1.00  0.00     0.267 C 
HETATM    4  N2  UNL     1      19.932  21.220  11.994  1.00  0.00    -0.274 N 
ATOM      5  H2  UNL     1      19.534  21.706  11.191  1.00  0.00     0.189 HD
HETATM    6  O1  UNL     1      20.984  19.289  12.827  1.00  0.00    -0.269 OA
BRANCH   4   7
HETATM    7  N1  UNL     1      19.949  21.812  13.243  1.00  0.00    -0.343 N 
ATOM      8  H12 UNL     1      20.466  22.679  13.387  1.00  0.00     0.176 HD
ATOM      9  H11 UNL     1      19.435  21.361  14.001  1.00  0.00     0.176 HD
ENDBRANCH   4   7
ENDBRANCH   2   3
BRANCH   2  10
HETATM   10  O2  UNL     1      20.436  20.130   9.479  1.00  0.00    -0.383 OA
ATOM     11  H2  UNL     1      21.157  20.016   8.870  1.00  0.00     0.210 HD
ENDBRANCH   2  10
ENDBRANCH   1   2
BRANCH   1  12
HETATM   12  O3  UNL     1      22.870  18.969  10.227  1.00  0.00    -0.390 OA
ATOM     13  H3  UNL     1      23.214  18.948   9.341  1.00  0.00     0.210 HD
ENDBRANCH   1  12
BRANCH   1  14
HETATM   14  C4  UNL     1      21.389  17.472   9.127  1.00  0.00     0.174 C 
BRANCH  14  15
HETATM   15  O4  UNL     1      20.044  17.549   8.810  1.00  0.00    -0.391 OA
ATOM     16  H4  UNL     1      19.924  17.326   7.894  1.00  0.00     0.210 HD
ENDBRANCH  14  15
BRANCH  14  17
HETATM   17  C5  UNL     1      21.846  16.077   9.320  1.00  0.00     0.217 C 
BRANCH  17  18
HETATM   18  O5  UNL     1      20.805  15.270   8.802  1.00  0.00    -0.280 OA
BRANCH  18  19
HETATM   19  P1  UNL     1      19.667  14.827   9.739  1.00  0.00     0.422 P 
HETATM   20  O6  UNL     1      18.485  14.238  10.523  1.00  0.00    -0.617 OA
HETATM   21  O7  UNL     1      18.707  14.786   8.361  1.00  0.00    -0.617 OA
HETATM   22  O8  UNL     1      20.590  13.526  10.130  1.00  0.00    -0.617 OA
ENDBRANCH  18  19
ENDBRANCH  17  18
ENDBRANCH  14  17
ENDBRANCH   1  14
TORSDOF 10
ENDMDL
