MODEL 17
REMARK VINA RESULT: -6.771706604      3.109      5.046
REMARK  10 active torsions:
REMARK  status: ('A' for Active; 'I' for Inactive)
REMARK    1  A    between atoms: N1_1  and  N2_4 
REMARK       I    between atoms: N2_4  and  C1_6 
REMARK    2  A    between atoms: C1_6  and  C2_8 
REMARK    3  A    between atoms: C2_8  and  O2_9 
REMARK    4  A    between atoms: C2_8  and  C3_11 
REMARK    5  A    between atoms: C3_11  and  O3_12 
REMARK    6  A    between atoms: C3_11  and  C4_14 
REMARK    7  A    between atoms: C4_14  and  O4_15 
REMARK    8  A    between atoms: C4_14  and  C5_17 
REMARK    9  A    between atoms: C5_17  and  O5_18 
REMARK   10  A    between atoms: O5_18  and  P1_19 
ROOT
HETATM    1  C3  UNL     1      21.651  17.272   8.896  1.00  0.00     0.187 C 
ENDROOT
BRANCH   1   2
HETATM    2  C2  UNL     1      22.056  18.459   9.725  1.00  0.00     0.242 C 
BRANCH   2   3
HETATM    3  C1  UNL     1      20.907  19.240  10.229  1.00  0.00     0.267 C 
HETATM    4  N2  UNL     1      20.499  19.137  11.591  1.00  0.00    -0.274 N 
ATOM      5  H2  UNL     1      20.993  18.523  12.238  1.00  0.00     0.189 HD
HETATM    6  O1  UNL     1      20.318  19.988   9.406  1.00  0.00    -0.269 OA
BRANCH   4   7
HETATM    7  N1  UNL     1      19.419  19.889  12.012  1.00  0.00    -0.343 N 
ATOM      8  H12 UNL     1      19.565  20.678  12.642  1.00  0.00     0.176 HD
ATOM      9  H11 UNL     1      18.490  19.634  11.678  1.00  0.00     0.176 HD
ENDBRANCH   4   7
ENDBRANCH   2   3
BRANCH   2  10
HETATM   10  O2  UNL     1      22.908  18.047  10.745  1.00  0.00    -0.383 OA
ATOM     11  H2  UNL     1      23.815  17.998  10.464  1.00  0.00     0.210 HD
ENDBRANCH   2  10
ENDBRANCH   1   2
BRANCH   1  12
HETATM   12  O3  UNL     1      20.306  17.269   8.565  1.00  0.00    -0.390 OA
ATOM     13  H3  UNL     1      20.046  18.021   8.043  1.00  0.00     0.210 HD
ENDBRANCH   1  12
BRANCH   1  14
HETATM   14  C4  UNL     1      21.991  16.028   9.689  1.00  0.00     0.174 C 
BRANCH  14  15
HETATM   15  O4  UNL     1      22.456  15.050   8.826  1.00  0.00    -0.391 OA
ATOM     16  H4  UNL     1      21.735  14.482   8.579  1.00  0.00     0.210 HD
ENDBRANCH  14  15
BRANCH  14  17
HETATM   17  C5  UNL     1      20.830  15.573  10.487  1.00  0.00     0.217 C 
BRANCH  17  18
HETATM   18  O5  UNL     1      20.203  14.580   9.699  1.00  0.00    -0.280 OA
BRANCH  18  19
HETATM   19  P1  UNL     1      18.666  14.495   9.691  1.00  0.00     0.422 P 
HETATM   20  O6  UNL     1      17.136  14.621   9.633  1.00  0.00    -0.617 OA
HETATM   21  O7  UNL     1      18.699  15.932  10.560  1.00  0.00    -0.617 OA
HETATM   22  O8  UNL     1      18.743  14.530   8.051  1.00  0.00    -0.617 OA
ENDBRANCH  18  19
ENDBRANCH  17  18
ENDBRANCH  14  17
ENDBRANCH   1  14
TORSDOF 10
ENDMDL
