MODEL 7
REMARK VINA RESULT: -7.567759359      0.644      1.091
REMARK  10 active torsions:
REMARK  status: ('A' for Active; 'I' for Inactive)
REMARK    1  A    between atoms: N1_1  and  N2_4 
REMARK       I    between atoms: N2_4  and  C1_6 
REMARK    2  A    between atoms: C1_6  and  C2_8 
REMARK    3  A    between atoms: C2_8  and  O2_9 
REMARK    4  A    between atoms: C2_8  and  C3_11 
REMARK    5  A    between atoms: C3_11  and  O3_12 
REMARK    6  A    between atoms: C3_11  and  C4_14 
REMARK    7  A    between atoms: C4_14  and  O4_15 
REMARK    8  A    between atoms: C4_14  and  C5_17 
REMARK    9  A    between atoms: C5_17  and  O5_18 
REMARK   10  A    between atoms: O5_18  and  P1_19 
ROOT
HETATM    1  C3  UNL     1      21.016  15.236   9.606  1.00  0.00     0.187 C 
ENDROOT
BRANCH   1   2
HETATM    2  C2  UNL     1      19.991  14.203   9.977  1.00  0.00     0.242 C 
BRANCH   2   3
HETATM    3  C1  UNL     1      18.658  14.466   9.395  1.00  0.00     0.267 C 
HETATM    4  N2  UNL     1      17.540  14.740  10.234  1.00  0.00    -0.274 N 
ATOM      5  H2  UNL     1      17.640  14.759  11.249  1.00  0.00     0.189 HD
HETATM    6  O1  UNL     1      18.565  14.434   8.140  1.00  0.00    -0.269 OA
BRANCH   4   7
HETATM    7  N1  UNL     1      16.315  14.981   9.640  1.00  0.00    -0.343 N 
ATOM      8  H12 UNL     1      16.104  15.906   9.268  1.00  0.00     0.176 HD
ATOM      9  H11 UNL     1      15.643  14.215   9.587  1.00  0.00     0.176 HD
ENDBRANCH   4   7
ENDBRANCH   2   3
BRANCH   2  10
HETATM   10  O2  UNL     1      20.469  12.935   9.658  1.00  0.00    -0.383 OA
ATOM     11  H2  UNL     1      21.035  12.942   8.895  1.00  0.00     0.210 HD
ENDBRANCH   2  10
ENDBRANCH   1   2
BRANCH   1  12
HETATM   12  O3  UNL     1      22.157  15.182  10.390  1.00  0.00    -0.390 OA
ATOM     13  H3  UNL     1      22.954  15.375   9.909  1.00  0.00     0.210 HD
ENDBRANCH   1  12
BRANCH   1  14
HETATM   14  C4  UNL     1      20.361  16.595   9.740  1.00  0.00     0.174 C 
BRANCH  14  15
HETATM   15  O4  UNL     1      20.964  17.481   8.864  1.00  0.00    -0.391 OA
ATOM     16  H4  UNL     1      21.050  17.071   8.012  1.00  0.00     0.210 HD
ENDBRANCH  14  15
BRANCH  14  17
HETATM   17  C5  UNL     1      20.403  17.068  11.142  1.00  0.00     0.217 C 
BRANCH  17  18
HETATM   18  O5  UNL     1      19.450  18.112  11.211  1.00  0.00    -0.280 OA
BRANCH  18  19
HETATM   19  P1  UNL     1      19.843  19.437  11.890  1.00  0.00     0.422 P 
HETATM   20  O6  UNL     1      20.440  20.707  12.516  1.00  0.00    -0.617 OA
HETATM   21  O7  UNL     1      21.075  18.560  12.622  1.00  0.00    -0.617 OA
HETATM   22  O8  UNL     1      20.067  20.059  10.387  1.00  0.00    -0.617 OA
ENDBRANCH  18  19
ENDBRANCH  17  18
ENDBRANCH  14  17
ENDBRANCH   1  14
TORSDOF 10
ENDMDL
