MODEL 4
REMARK VINA RESULT: -7.646638613      1.217      1.761
REMARK  10 active torsions:
REMARK  status: ('A' for Active; 'I' for Inactive)
REMARK    1  A    between atoms: N1_1  and  N2_4 
REMARK       I    between atoms: N2_4  and  C1_6 
REMARK    2  A    between atoms: C1_6  and  C2_8 
REMARK    3  A    between atoms: C2_8  and  O2_9 
REMARK    4  A    between atoms: C2_8  and  C3_11 
REMARK    5  A    between atoms: C3_11  and  O3_12 
REMARK    6  A    between atoms: C3_11  and  C4_14 
REMARK    7  A    between atoms: C4_14  and  O4_15 
REMARK    8  A    between atoms: C4_14  and  C5_17 
REMARK    9  A    between atoms: C5_17  and  O5_18 
REMARK   10  A    between atoms: O5_18  and  P1_19 
ROOT
HETATM    1  C3  UNL     1      21.155  15.375   9.350  1.00  0.00     0.187 C 
ENDROOT
BRANCH   1   2
HETATM    2  C2  UNL     1      20.074  14.651  10.103  1.00  0.00     0.242 C 
BRANCH   2   3
HETATM    3  C1  UNL     1      18.782  14.623   9.387  1.00  0.00     0.267 C 
HETATM    4  N2  UNL     1      17.553  14.718  10.102  1.00  0.00    -0.274 N 
ATOM      5  H2  UNL     1      17.545  14.806  11.118  1.00  0.00     0.189 HD
HETATM    6  O1  UNL     1      18.824  14.512   8.134  1.00  0.00    -0.269 OA
BRANCH   4   7
HETATM    7  N1  UNL     1      16.371  14.687   9.385  1.00  0.00    -0.343 N 
ATOM      8  H12 UNL     1      15.934  15.560   9.090  1.00  0.00     0.176 HD
ATOM      9  H11 UNL     1      15.960  13.780   9.166  1.00  0.00     0.176 HD
ENDBRANCH   4   7
ENDBRANCH   2   3
BRANCH   2  10
HETATM   10  O2  UNL     1      20.518  13.378  10.449  1.00  0.00    -0.383 OA
ATOM     11  H2  UNL     1      20.813  13.329  11.351  1.00  0.00     0.210 HD
ENDBRANCH   2  10
ENDBRANCH   1   2
BRANCH   1  12
HETATM   12  O3  UNL     1      22.012  14.524   8.670  1.00  0.00    -0.390 OA
ATOM     13  H3  UNL     1      21.846  13.605   8.845  1.00  0.00     0.210 HD
ENDBRANCH   1  12
BRANCH   1  14
HETATM   14  C4  UNL     1      21.934  16.199  10.354  1.00  0.00     0.174 C 
BRANCH  14  15
HETATM   15  O4  UNL     1      22.965  15.434  10.872  1.00  0.00    -0.391 OA
ATOM     16  H4  UNL     1      23.613  16.007  11.264  1.00  0.00     0.210 HD
ENDBRANCH  14  15
BRANCH  14  17
HETATM   17  C5  UNL     1      21.041  16.733  11.407  1.00  0.00     0.217 C 
BRANCH  17  18
HETATM   18  O5  UNL     1      21.355  18.110  11.498  1.00  0.00    -0.280 OA
BRANCH  18  19
HETATM   19  P1  UNL     1      20.778  19.078  10.449  1.00  0.00     0.422 P 
HETATM   20  O6  UNL     1      20.123  20.155   9.571  1.00  0.00    -0.617 OA
HETATM   21  O7  UNL     1      19.366  19.033  11.357  1.00  0.00    -0.617 OA
HETATM   22  O8  UNL     1      21.978  20.123  10.856  1.00  0.00    -0.617 OA
ENDBRANCH  18  19
ENDBRANCH  17  18
ENDBRANCH  14  17
ENDBRANCH   1  14
TORSDOF 10
ENDMDL
