MODEL 5
REMARK VINA RESULT: -7.632896528      1.018      1.533
REMARK  10 active torsions:
REMARK  status: ('A' for Active; 'I' for Inactive)
REMARK    1  A    between atoms: N1_1  and  N2_4 
REMARK       I    between atoms: N2_4  and  C1_6 
REMARK    2  A    between atoms: C1_6  and  C2_8 
REMARK    3  A    between atoms: C2_8  and  O2_9 
REMARK    4  A    between atoms: C2_8  and  C3_11 
REMARK    5  A    between atoms: C3_11  and  O3_12 
REMARK    6  A    between atoms: C3_11  and  C4_14 
REMARK    7  A    between atoms: C4_14  and  O4_15 
REMARK    8  A    between atoms: C4_14  and  C5_17 
REMARK    9  A    between atoms: C5_17  and  O5_18 
REMARK   10  A    between atoms: O5_18  and  P1_19 
ROOT
HETATM    1  C3  UNL     1      20.245  15.881  10.477  1.00  0.00     0.187 C 
ENDROOT
BRANCH   1   2
HETATM    2  C2  UNL     1      19.869  14.499  10.022  1.00  0.00     0.242 C 
BRANCH   2   3
HETATM    3  C1  UNL     1      18.588  14.453   9.288  1.00  0.00     0.267 C 
HETATM    4  N2  UNL     1      17.350  14.621   9.974  1.00  0.00    -0.274 N 
ATOM      5  H2  UNL     1      17.329  14.774  10.982  1.00  0.00     0.189 HD
HETATM    6  O1  UNL     1      18.646  14.262   8.045  1.00  0.00    -0.269 OA
BRANCH   4   7
HETATM    7  N1  UNL     1      16.180  14.570   9.241  1.00  0.00    -0.343 N 
ATOM      8  H12 UNL     1      16.220  14.513   8.224  1.00  0.00     0.176 HD
ATOM      9  H11 UNL     1      15.291  14.592   9.743  1.00  0.00     0.176 HD
ENDBRANCH   4   7
ENDBRANCH   2   3
BRANCH   2  10
HETATM   10  O2  UNL     1      20.919  13.946   9.293  1.00  0.00    -0.383 OA
ATOM     11  H2  UNL     1      21.241  13.138   9.676  1.00  0.00     0.210 HD
ENDBRANCH   2  10
ENDBRANCH   1   2
BRANCH   1  12
HETATM   12  O3  UNL     1      19.368  16.860  10.039  1.00  0.00    -0.390 OA
ATOM     13  H3  UNL     1      19.056  17.425  10.737  1.00  0.00     0.210 HD
ENDBRANCH   1  12
BRANCH   1  14
HETATM   14  C4  UNL     1      21.640  16.167   9.961  1.00  0.00     0.174 C 
BRANCH  14  15
HETATM   15  O4  UNL     1      22.564  15.508  10.754  1.00  0.00    -0.391 OA
ATOM     16  H4  UNL     1      22.414  14.572  10.699  1.00  0.00     0.210 HD
ENDBRANCH  14  15
BRANCH  14  17
HETATM   17  C5  UNL     1      21.891  17.623   9.889  1.00  0.00     0.217 C 
BRANCH  17  18
HETATM   18  O5  UNL     1      21.605  18.114  11.185  1.00  0.00    -0.280 OA
BRANCH  18  19
HETATM   19  P1  UNL     1      21.020  19.531  11.334  1.00  0.00     0.422 P 
HETATM   20  O6  UNL     1      20.286  20.880  11.343  1.00  0.00    -0.617 OA
HETATM   21  O7  UNL     1      20.871  19.518   9.662  1.00  0.00    -0.617 OA
HETATM   22  O8  UNL     1      19.839  18.869  12.265  1.00  0.00    -0.617 OA
ENDBRANCH  18  19
ENDBRANCH  17  18
ENDBRANCH  14  17
ENDBRANCH   1  14
TORSDOF 10
ENDMDL
