MODEL 18
REMARK VINA RESULT: -6.758550119      3.653      5.579
REMARK  10 active torsions:
REMARK  status: ('A' for Active; 'I' for Inactive)
REMARK    1  A    between atoms: N1_1  and  N2_4 
REMARK       I    between atoms: N2_4  and  C1_6 
REMARK    2  A    between atoms: C1_6  and  C2_8 
REMARK    3  A    between atoms: C2_8  and  O2_9 
REMARK    4  A    between atoms: C2_8  and  C3_11 
REMARK    5  A    between atoms: C3_11  and  O3_12 
REMARK    6  A    between atoms: C3_11  and  C4_14 
REMARK    7  A    between atoms: C4_14  and  O4_15 
REMARK    8  A    between atoms: C4_14  and  C5_17 
REMARK    9  A    between atoms: C5_17  and  O5_18 
REMARK   10  A    between atoms: O5_18  and  P1_19 
ROOT
HETATM    1  C3  UNL     1      21.284  18.995  10.481  1.00  0.00     0.187 C 
ENDROOT
BRANCH   1   2
HETATM    2  C2  UNL     1      20.822  18.985  11.911  1.00  0.00     0.242 C 
BRANCH   2   3
HETATM    3  C1  UNL     1      19.935  20.117  12.248  1.00  0.00     0.267 C 
HETATM    4  N2  UNL     1      20.366  21.138  13.143  1.00  0.00    -0.274 N 
ATOM      5  H2  UNL     1      21.293  21.104  13.566  1.00  0.00     0.189 HD
HETATM    6  O1  UNL     1      18.796  20.131  11.710  1.00  0.00    -0.269 OA
BRANCH   4   7
HETATM    7  N1  UNL     1      19.498  22.176  13.424  1.00  0.00    -0.343 N 
ATOM      8  H12 UNL     1      19.470  22.576  14.362  1.00  0.00     0.176 HD
ATOM      9  H11 UNL     1      18.897  22.523  12.675  1.00  0.00     0.176 HD
ENDBRANCH   4   7
ENDBRANCH   2   3
BRANCH   2  10
HETATM   10  O2  UNL     1      20.248  17.752  12.208  1.00  0.00    -0.383 OA
ATOM     11  H2  UNL     1      20.417  17.101  11.537  1.00  0.00     0.210 HD
ENDBRANCH   2  10
ENDBRANCH   1   2
BRANCH   1  12
HETATM   12  O3  UNL     1      20.265  18.749   9.575  1.00  0.00    -0.390 OA
ATOM     13  H3  UNL     1      20.321  19.284   8.792  1.00  0.00     0.210 HD
ENDBRANCH   1  12
BRANCH   1  14
HETATM   14  C4  UNL     1      22.363  17.941  10.344  1.00  0.00     0.174 C 
BRANCH  14  15
HETATM   15  O4  UNL     1      23.579  18.560  10.111  1.00  0.00    -0.391 OA
ATOM     16  H4  UNL     1      23.661  18.750   9.183  1.00  0.00     0.210 HD
ENDBRANCH  14  15
BRANCH  14  17
HETATM   17  C5  UNL     1      22.015  16.960   9.292  1.00  0.00     0.217 C 
BRANCH  17  18
HETATM   18  O5  UNL     1      21.282  15.947   9.954  1.00  0.00    -0.280 OA
BRANCH  18  19
HETATM   19  P1  UNL     1      20.084  15.302   9.235  1.00  0.00     0.422 P 
HETATM   20  O6  UNL     1      18.883  14.519   8.683  1.00  0.00    -0.617 OA
HETATM   21  O7  UNL     1      20.818  13.831   9.582  1.00  0.00    -0.617 OA
HETATM   22  O8  UNL     1      19.118  16.017  10.354  1.00  0.00    -0.617 OA
ENDBRANCH  18  19
ENDBRANCH  17  18
ENDBRANCH  14  17
ENDBRANCH   1  14
TORSDOF 10
ENDMDL
