MODEL 1
REMARK VINA RESULT: -6.334104707      0.000      0.000
REMARK  7 active torsions:
REMARK  status: ('A' for Active; 'I' for Inactive)
REMARK    1  A    between atoms: C2_2  and  C3_3 
REMARK    2  A    between atoms: C3_3  and  C4_4 
REMARK    3  A    between atoms: C3_3  and  O1_6 
REMARK    4  A    between atoms: O1_6  and  C6_7 
REMARK    5  A    between atoms: C8_9  and  C9_10 
REMARK    6  A    between atoms: C11_14  and  N1_15 
REMARK    7  A    between atoms: C12_19  and  N2_20 
REMARK       I    between atoms: N2_20  and  C13_22 
ROOT
HETATM    1  C6  UNL     1      12.971   0.269  48.113  1.00  0.00     0.170 C 
HETATM    2  C7  UNL     1      14.360   0.258  47.597  1.00  0.00     0.021 C 
HETATM    3  C8  UNL     1      14.614  -0.619  46.661  1.00  0.00     0.019 C 
HETATM    4  C10 UNL     1      13.478  -1.483  46.255  1.00  0.00     0.080 C 
HETATM    5  C11 UNL     1      12.183  -0.748  46.036  1.00  0.00     0.213 C 
HETATM    6  C12 UNL     1      12.091   0.447  46.897  1.00  0.00     0.147 C 
ENDROOT
BRANCH   1   7
HETATM    7  O1  UNL     1      12.787   1.196  49.093  1.00  0.00    -0.375 OA
BRANCH   7   8
HETATM    8  C3  UNL     1      13.718   2.216  48.942  1.00  0.00     0.121 C 
BRANCH   8   9
HETATM    9  C2  UNL     1      13.032   3.548  48.645  1.00  0.00     0.027 C 
HETATM   10  C1  UNL     1      13.312   4.000  47.230  1.00  0.00     0.007 C 
ENDBRANCH   8   9
BRANCH   8  11
HETATM   11  C4  UNL     1      14.585   2.371  50.164  1.00  0.00     0.027 C 
HETATM   12  C5  UNL     1      15.805   3.211  49.857  1.00  0.00     0.007 C 
ENDBRANCH   8  11
ENDBRANCH   7   8
ENDBRANCH   1   7
BRANCH   6  13
HETATM   13  N2  UNL     1      10.787   0.918  47.196  1.00  0.00    -0.352 N 
HETATM   14  C13 UNL     1      10.136   1.914  46.426  1.00  0.00     0.214 C 
HETATM   15  C14 UNL     1       8.763   2.374  46.785  1.00  0.00     0.117 C 
HETATM   16  O4  UNL     1      10.779   2.366  45.449  1.00  0.00    -0.274 OA
ATOM     17  H2  UNL     1      10.298   0.523  47.999  1.00  0.00     0.163 HD
ENDBRANCH   6  13
BRANCH   3  18
HETATM   18  C9  UNL     1      15.928  -0.732  46.073  1.00  0.00     0.205 C 
HETATM   19  O2  UNL     1      16.782  -1.520  46.533  1.00  0.00    -0.644 OA
HETATM   20  O3  UNL     1      16.248   0.062  44.967  1.00  0.00    -0.644 OA
ENDBRANCH   3  18
BRANCH   5  21
HETATM   21  N1  UNL     1      12.173  -0.406  44.601  1.00  0.00    -0.073 N 
ATOM     22  H13 UNL     1      12.928   0.220  44.322  1.00  0.00     0.274 HD
ATOM     23  H12 UNL     1      12.430  -1.181  43.991  1.00  0.00     0.274 HD
ATOM     24  H11 UNL     1      11.241  -0.033  44.423  1.00  0.00     0.274 HD
ENDBRANCH   5  21
TORSDOF 7
ENDMDL
