MODEL 14
REMARK VINA RESULT: -5.596063410      1.893      4.461
REMARK  7 active torsions:
REMARK  status: ('A' for Active; 'I' for Inactive)
REMARK    1  A    between atoms: C2_2  and  C3_3 
REMARK    2  A    between atoms: C3_3  and  C4_4 
REMARK    3  A    between atoms: C3_3  and  O1_6 
REMARK    4  A    between atoms: O1_6  and  C6_7 
REMARK    5  A    between atoms: C8_9  and  C9_10 
REMARK    6  A    between atoms: C11_14  and  N1_15 
REMARK    7  A    between atoms: C12_19  and  N2_20 
REMARK       I    between atoms: N2_20  and  C13_22 
ROOT
HETATM    1  C6  UNL     1      12.628   0.692  46.795  1.00  0.00     0.170 C 
HETATM    2  C7  UNL     1      11.149   0.762  46.727  1.00  0.00     0.021 C 
HETATM    3  C8  UNL     1      10.587   0.056  45.780  1.00  0.00     0.019 C 
HETATM    4  C10 UNL     1      11.511  -0.707  44.904  1.00  0.00     0.080 C 
HETATM    5  C11 UNL     1      12.587  -1.460  45.639  1.00  0.00     0.213 C 
HETATM    6  C12 UNL     1      12.957  -0.779  46.895  1.00  0.00     0.147 C 
ENDROOT
BRANCH   1   7
HETATM    7  O1  UNL     1      13.140   1.463  47.794  1.00  0.00    -0.375 OA
BRANCH   7   8
HETATM    8  C3  UNL     1      13.972   2.431  47.247  1.00  0.00     0.121 C 
BRANCH   8   9
HETATM    9  C2  UNL     1      13.167   3.468  46.464  1.00  0.00     0.027 C 
HETATM   10  C1  UNL     1      12.874   4.683  47.314  1.00  0.00     0.007 C 
ENDBRANCH   8   9
BRANCH   8  11
HETATM   11  C4  UNL     1      14.785   3.135  48.301  1.00  0.00     0.027 C 
HETATM   12  C5  UNL     1      15.407   2.140  49.256  1.00  0.00     0.007 C 
ENDBRANCH   8  11
ENDBRANCH   7   8
ENDBRANCH   1   7
BRANCH   6  13
HETATM   13  N2  UNL     1      14.254  -1.044  47.405  1.00  0.00    -0.352 N 
HETATM   14  C13 UNL     1      15.429  -0.905  46.626  1.00  0.00     0.214 C 
HETATM   15  C14 UNL     1      16.769  -1.196  47.213  1.00  0.00     0.117 C 
HETATM   16  O4  UNL     1      15.265  -0.528  45.441  1.00  0.00    -0.274 OA
ATOM     17  H2  UNL     1      14.344  -1.348  48.375  1.00  0.00     0.163 HD
ENDBRANCH   6  13
BRANCH   3  18
HETATM   18  C9  UNL     1       9.154   0.037  45.607  1.00  0.00     0.205 C 
HETATM   19  O2  UNL     1       8.411  -0.592  46.391  1.00  0.00    -0.644 OA
HETATM   20  O3  UNL     1       8.591   0.739  44.536  1.00  0.00    -0.644 OA
ENDBRANCH   3  18
BRANCH   5  21
HETATM   21  N1  UNL     1      12.024  -2.803  45.876  1.00  0.00    -0.073 N 
ATOM     22  H13 UNL     1      11.233  -2.811  46.519  1.00  0.00     0.274 HD
ATOM     23  H12 UNL     1      11.527  -3.189  45.074  1.00  0.00     0.274 HD
ATOM     24  H11 UNL     1      12.812  -3.371  46.185  1.00  0.00     0.274 HD
ENDBRANCH   5  21
TORSDOF 7
ENDMDL
