MODEL 4
REMARK VINA RESULT: -5.860348974      2.001      4.599
REMARK  7 active torsions:
REMARK  status: ('A' for Active; 'I' for Inactive)
REMARK    1  A    between atoms: C2_2  and  C3_3 
REMARK    2  A    between atoms: C3_3  and  C4_4 
REMARK    3  A    between atoms: C3_3  and  O1_6 
REMARK    4  A    between atoms: O1_6  and  C6_7 
REMARK    5  A    between atoms: C8_9  and  C9_10 
REMARK    6  A    between atoms: C11_14  and  N1_15 
REMARK    7  A    between atoms: C12_19  and  N2_20 
REMARK       I    between atoms: N2_20  and  C13_22 
ROOT
HETATM    1  C6  UNL     1      13.716   0.805  47.603  1.00  0.00     0.170 C 
HETATM    2  C7  UNL     1      14.388   1.365  48.798  1.00  0.00     0.021 C 
HETATM    3  C8  UNL     1      14.690   2.636  48.740  1.00  0.00     0.019 C 
HETATM    4  C10 UNL     1      14.324   3.333  47.482  1.00  0.00     0.080 C 
HETATM    5  C11 UNL     1      12.934   3.036  46.987  1.00  0.00     0.213 C 
HETATM    6  C12 UNL     1      12.504   1.679  47.375  1.00  0.00     0.147 C 
ENDROOT
BRANCH   1   7
HETATM    7  O1  UNL     1      13.447  -0.524  47.732  1.00  0.00    -0.375 OA
BRANCH   7   8
HETATM    8  C3  UNL     1      14.142  -1.230  46.758  1.00  0.00     0.121 C 
BRANCH   8   9
HETATM    9  C2  UNL     1      15.251  -2.077  47.381  1.00  0.00     0.027 C 
HETATM   10  C1  UNL     1      16.615  -1.525  47.036  1.00  0.00     0.007 C 
ENDBRANCH   8   9
BRANCH   8  11
HETATM   11  C4  UNL     1      13.234  -2.123  45.955  1.00  0.00     0.027 C 
HETATM   12  C5  UNL     1      13.184  -1.682  44.509  1.00  0.00     0.007 C 
ENDBRANCH   8  11
ENDBRANCH   7   8
ENDBRANCH   1   7
BRANCH   6  13
HETATM   13  N2  UNL     1      11.502   1.074  46.575  1.00  0.00    -0.352 N 
HETATM   14  C13 UNL     1      10.121   1.148  46.886  1.00  0.00     0.214 C 
HETATM   15  C14 UNL     1       9.108   0.493  46.009  1.00  0.00     0.117 C 
HETATM   16  O4  UNL     1       9.822   1.786  47.924  1.00  0.00    -0.274 OA
ATOM     17  H2  UNL     1      11.788   0.565  45.738  1.00  0.00     0.163 HD
ENDBRANCH   6  13
BRANCH   3  18
HETATM   18  C9  UNL     1      15.346   3.304  49.839  1.00  0.00     0.205 C 
HETATM   19  O2  UNL     1      16.593   3.322  49.940  1.00  0.00    -0.644 OA
HETATM   20  O3  UNL     1      14.567   3.940  50.811  1.00  0.00    -0.644 OA
ENDBRANCH   3  18
BRANCH   5  21
HETATM   21  N1  UNL     1      12.081   4.084  47.579  1.00  0.00    -0.073 N 
ATOM     22  H13 UNL     1      11.125   4.085  47.226  1.00  0.00     0.274 HD
ATOM     23  H12 UNL     1      11.846   3.919  48.558  1.00  0.00     0.274 HD
ATOM     24  H11 UNL     1      12.582   4.958  47.417  1.00  0.00     0.274 HD
ENDBRANCH   5  21
TORSDOF 7
ENDMDL
