MODEL 18
REMARK VINA RESULT: -5.514963178      2.045      4.775
REMARK  7 active torsions:
REMARK  status: ('A' for Active; 'I' for Inactive)
REMARK    1  A    between atoms: C2_2  and  C3_3 
REMARK    2  A    between atoms: C3_3  and  C4_4 
REMARK    3  A    between atoms: C3_3  and  O1_6 
REMARK    4  A    between atoms: O1_6  and  C6_7 
REMARK    5  A    between atoms: C8_9  and  C9_10 
REMARK    6  A    between atoms: C11_14  and  N1_15 
REMARK    7  A    between atoms: C12_19  and  N2_20 
REMARK       I    between atoms: N2_20  and  C13_22 
ROOT
HETATM    1  C6  UNL     1      12.758   1.211  46.232  1.00  0.00     0.170 C 
HETATM    2  C7  UNL     1      11.362   1.240  46.728  1.00  0.00     0.021 C 
HETATM    3  C8  UNL     1      10.529   0.421  46.139  1.00  0.00     0.019 C 
HETATM    4  C10 UNL     1      11.099  -0.413  45.053  1.00  0.00     0.080 C 
HETATM    5  C11 UNL     1      12.418  -1.056  45.387  1.00  0.00     0.213 C 
HETATM    6  C12 UNL     1      13.192  -0.233  46.337  1.00  0.00     0.147 C 
ENDROOT
BRANCH   1   7
HETATM    7  O1  UNL     1      13.560   2.099  46.882  1.00  0.00    -0.375 OA
BRANCH   7   8
HETATM    8  C3  UNL     1      13.005   2.399  48.119  1.00  0.00     0.121 C 
BRANCH   8   9
HETATM    9  C2  UNL     1      13.765   1.703  49.247  1.00  0.00     0.027 C 
HETATM   10  C1  UNL     1      15.251   1.950  49.133  1.00  0.00     0.007 C 
ENDBRANCH   8   9
BRANCH   8  11
HETATM   11  C4  UNL     1      12.986   3.883  48.382  1.00  0.00     0.027 C 
HETATM   12  C5  UNL     1      12.772   4.655  47.099  1.00  0.00     0.007 C 
ENDBRANCH   8  11
ENDBRANCH   7   8
ENDBRANCH   1   7
BRANCH   6  13
HETATM   13  N2  UNL     1      14.599  -0.411  46.334  1.00  0.00    -0.352 N 
HETATM   14  C13 UNL     1      15.273  -1.213  47.288  1.00  0.00     0.214 C 
HETATM   15  C14 UNL     1      16.756  -1.366  47.240  1.00  0.00     0.117 C 
HETATM   16  O4  UNL     1      14.552  -1.771  48.150  1.00  0.00    -0.274 OA
ATOM     17  H2  UNL     1      15.149   0.060  45.615  1.00  0.00     0.163 HD
ENDBRANCH   6  13
BRANCH   3  18
HETATM   18  C9  UNL     1       9.141   0.352  46.530  1.00  0.00     0.205 C 
HETATM   19  O2  UNL     1       8.343  -0.426  45.963  1.00  0.00    -0.644 OA
HETATM   20  O3  UNL     1       8.685   1.176  47.564  1.00  0.00    -0.644 OA
ENDBRANCH   3  18
BRANCH   5  21
HETATM   21  N1  UNL     1      12.072  -2.377  45.946  1.00  0.00    -0.073 N 
ATOM     22  H13 UNL     1      11.295  -2.354  46.606  1.00  0.00     0.274 HD
ATOM     23  H12 UNL     1      11.636  -3.008  45.274  1.00  0.00     0.274 HD
ATOM     24  H11 UNL     1      12.940  -2.734  46.344  1.00  0.00     0.274 HD
ENDBRANCH   5  21
TORSDOF 7
ENDMDL
