MODEL 5
REMARK VINA RESULT: -5.829639259      1.986      4.313
REMARK  7 active torsions:
REMARK  status: ('A' for Active; 'I' for Inactive)
REMARK    1  A    between atoms: C2_2  and  C3_3 
REMARK    2  A    between atoms: C3_3  and  C4_4 
REMARK    3  A    between atoms: C3_3  and  O1_6 
REMARK    4  A    between atoms: O1_6  and  C6_7 
REMARK    5  A    between atoms: C8_9  and  C9_10 
REMARK    6  A    between atoms: C11_14  and  N1_15 
REMARK    7  A    between atoms: C12_19  and  N2_20 
REMARK       I    between atoms: N2_20  and  C13_22 
ROOT
HETATM    1  C6  UNL     1      13.882   0.535  47.826  1.00  0.00     0.170 C 
HETATM    2  C7  UNL     1      14.466   1.237  48.992  1.00  0.00     0.021 C 
HETATM    3  C8  UNL     1      14.844   2.472  48.785  1.00  0.00     0.019 C 
HETATM    4  C10 UNL     1      14.641   2.991  47.410  1.00  0.00     0.080 C 
HETATM    5  C11 UNL     1      13.292   2.682  46.820  1.00  0.00     0.213 C 
HETATM    6  C12 UNL     1      12.749   1.416  47.351  1.00  0.00     0.147 C 
ENDROOT
BRANCH   1   7
HETATM    7  O1  UNL     1      13.526  -0.747  48.114  1.00  0.00    -0.375 OA
BRANCH   7   8
HETATM    8  C3  UNL     1      14.332  -1.620  47.395  1.00  0.00     0.121 C 
BRANCH   8   9
HETATM    9  C2  UNL     1      13.500  -2.481  46.446  1.00  0.00     0.027 C 
HETATM   10  C1  UNL     1      13.609  -1.983  45.023  1.00  0.00     0.007 C 
ENDBRANCH   8   9
BRANCH   8  11
HETATM   11  C4  UNL     1      15.384  -0.890  46.601  1.00  0.00     0.027 C 
HETATM   12  C5  UNL     1      16.762  -1.435  46.899  1.00  0.00     0.007 C 
ENDBRANCH   8  11
ENDBRANCH   7   8
ENDBRANCH   1   7
BRANCH   6  13
HETATM   13  N2  UNL     1      11.797   0.743  46.545  1.00  0.00    -0.352 N 
HETATM   14  C13 UNL     1      10.400   0.937  46.683  1.00  0.00     0.214 C 
HETATM   15  C14 UNL     1       9.441   0.203  45.808  1.00  0.00     0.117 C 
HETATM   16  O4  UNL     1      10.039   1.750  47.568  1.00  0.00    -0.274 OA
ATOM     17  H2  UNL     1      12.132   0.091  45.836  1.00  0.00     0.163 HD
ENDBRANCH   6  13
BRANCH   3  18
HETATM   18  C9  UNL     1      15.428   3.266  49.840  1.00  0.00     0.205 C 
HETATM   19  O2  UNL     1      16.667   3.360  49.975  1.00  0.00    -0.644 OA
HETATM   20  O3  UNL     1      14.584   3.941  50.729  1.00  0.00    -0.644 OA
ENDBRANCH   3  18
BRANCH   5  21
HETATM   21  N1  UNL     1      12.447   3.841  47.165  1.00  0.00    -0.073 N 
ATOM     22  H13 UNL     1      11.555   3.589  47.590  1.00  0.00     0.274 HD
ATOM     23  H12 UNL     1      12.799   4.389  47.949  1.00  0.00     0.274 HD
ATOM     24  H11 UNL     1      12.356   4.371  46.299  1.00  0.00     0.274 HD
ENDBRANCH   5  21
TORSDOF 7
ENDMDL
