MODEL 2
REMARK VINA RESULT: -7.847615593      0.402      1.050
REMARK  5 active torsions:
REMARK  status: ('A' for Active; 'I' for Inactive)
REMARK    1  A    between atoms: N1_1  and  S1_4 
REMARK    2  A    between atoms: S1_4  and  C1_7 
REMARK    3  A    between atoms: C4_10  and  N2_11 
REMARK       I    between atoms: N2_11  and  C5_13 
REMARK    4  A    between atoms: C5_13  and  C6_15 
REMARK    5  A    between atoms: C9_18  and  N3_19 
ROOT
HETATM    1  N2  UNL     1      -3.502   7.609  14.535  1.00  0.00    -0.323 N 
ATOM      2  H2  UNL     1      -4.337   7.814  15.083  1.00  0.00     0.169 HD
HETATM    3  C5  UNL     1      -3.134   6.260  14.341  1.00  0.00     0.257 C 
HETATM    4  O3  UNL     1      -2.133   5.902  13.680  1.00  0.00    -0.267 OA
ENDROOT
BRANCH   1   5
HETATM    5  C4  UNL     1      -2.762   8.683  14.003  1.00  0.00     0.035 A 
HETATM    6  C3  UNL     1      -2.891   8.929  12.653  1.00  0.00     0.031 A 
HETATM    7  C2  UNL     1      -2.224   9.962  12.055  1.00  0.00     0.027 A 
HETATM    8  C1  UNL     1      -1.389  10.815  12.762  1.00  0.00     0.079 A 
HETATM    9  C13 UNL     1      -1.276  10.549  14.107  1.00  0.00     0.027 A 
HETATM   10  C12 UNL     1      -1.950   9.496  14.736  1.00  0.00     0.031 A 
BRANCH   8  11
HETATM   11  S1  UNL     1      -0.530  12.140  12.012  1.00  0.00     0.256 S 
HETATM   12  O1  UNL     1      -1.226  12.628  10.775  1.00  0.00    -0.201 OA
HETATM   13  O2  UNL     1       0.891  11.698  11.703  1.00  0.00    -0.201 OA
BRANCH  11  14
HETATM   14  N1  UNL     1      -0.381  13.410  13.192  1.00  0.00    -0.324 N 
ATOM     15  H12 UNL     1      -1.167  13.972  13.519  1.00  0.00     0.169 HD
ATOM     16  H11 UNL     1       0.585  13.511  13.506  1.00  0.00     0.169 HD
ENDBRANCH  11  14
ENDBRANCH   8  11
ENDBRANCH   1   5
BRANCH   3  17
HETATM   17  C6  UNL     1      -4.007   5.252  14.969  1.00  0.00     0.054 A 
HETATM   18  C7  UNL     1      -3.453   4.124  15.498  1.00  0.00     0.021 A 
HETATM   19  C8  UNL     1      -4.232   3.147  16.100  1.00  0.00     0.037 A 
HETATM   20  C9  UNL     1      -5.578   3.318  16.165  1.00  0.00     0.104 A 
HETATM   21  C10 UNL     1      -6.157   4.469  15.627  1.00  0.00     0.060 A 
HETATM   22  C11 UNL     1      -5.361   5.429  15.032  1.00  0.00     0.052 A 
HETATM   23 CL1  UNL     1      -6.154   6.846  14.379  1.00  0.00    -0.083 Cl
BRANCH  20  24
HETATM   24  N3  UNL     1      -6.387   2.322  16.780  1.00  0.00    -0.116 N 
HETATM   25  O4  UNL     1      -7.609   2.518  16.849  1.00  0.00    -0.532 OA
HETATM   26  O5  UNL     1      -5.789   1.183  17.273  1.00  0.00    -0.532 OA
ENDBRANCH  20  24
ENDBRANCH   3  17
TORSDOF 5
ENDMDL
