MODEL 3
REMARK VINA RESULT: -7.720468065      5.432      6.057
REMARK  5 active torsions:
REMARK  status: ('A' for Active; 'I' for Inactive)
REMARK    1  A    between atoms: N1_1  and  S1_4 
REMARK    2  A    between atoms: S1_4  and  C1_7 
REMARK    3  A    between atoms: C4_10  and  N2_11 
REMARK       I    between atoms: N2_11  and  C5_13 
REMARK    4  A    between atoms: C5_13  and  C6_15 
REMARK    5  A    between atoms: C9_18  and  N3_19 
ROOT
HETATM    1  N2  UNL     1      -5.182   6.594  10.315  1.00  0.00    -0.323 N 
ATOM      2  H2  UNL     1      -5.853   6.668  11.080  1.00  0.00     0.169 HD
HETATM    3  C5  UNL     1      -4.134   5.654  10.421  1.00  0.00     0.257 C 
HETATM    4  O3  UNL     1      -3.265   5.481   9.537  1.00  0.00    -0.267 OA
ENDROOT
BRANCH   1   5
HETATM    5  C4  UNL     1      -5.339   7.434   9.196  1.00  0.00     0.035 A 
HETATM    6  C3  UNL     1      -6.554   7.399   8.546  1.00  0.00     0.031 A 
HETATM    7  C2  UNL     1      -6.800   8.193   7.462  1.00  0.00     0.027 A 
HETATM    8  C1  UNL     1      -5.855   9.074   6.957  1.00  0.00     0.079 A 
HETATM    9  C13 UNL     1      -4.651   9.092   7.621  1.00  0.00     0.027 A 
HETATM   10  C12 UNL     1      -4.380   8.286   8.733  1.00  0.00     0.031 A 
BRANCH   8  11
HETATM   11  S1  UNL     1      -6.155  10.098   5.571  1.00  0.00     0.256 S 
HETATM   12  O1  UNL     1      -7.367   9.658   4.803  1.00  0.00    -0.201 OA
HETATM   13  O2  UNL     1      -4.920  10.108   4.685  1.00  0.00    -0.201 OA
BRANCH  11  14
HETATM   14  N1  UNL     1      -6.334  11.731   6.147  1.00  0.00    -0.324 N 
ATOM     15  H12 UNL     1      -7.031  12.012   6.836  1.00  0.00     0.169 HD
ATOM     16  H11 UNL     1      -5.655  12.353   5.707  1.00  0.00     0.169 HD
ENDBRANCH  11  14
ENDBRANCH   8  11
ENDBRANCH   1   5
BRANCH   3  17
HETATM   17  C6  UNL     1      -4.102   4.855  11.659  1.00  0.00     0.054 A 
HETATM   18  C7  UNL     1      -4.380   3.522  11.602  1.00  0.00     0.021 A 
HETATM   19  C8  UNL     1      -4.362   2.727  12.739  1.00  0.00     0.037 A 
HETATM   20  C9  UNL     1      -4.059   3.291  13.937  1.00  0.00     0.104 A 
HETATM   21  C10 UNL     1      -3.773   4.656  14.009  1.00  0.00     0.060 A 
HETATM   22  C11 UNL     1      -3.797   5.428  12.863  1.00  0.00     0.052 A 
HETATM   23 CL1  UNL     1      -3.427   7.131  13.026  1.00  0.00    -0.083 Cl
BRANCH  20  24
HETATM   24  N3  UNL     1      -4.038   2.486  15.111  1.00  0.00    -0.116 N 
HETATM   25  O4  UNL     1      -3.352   2.865  16.071  1.00  0.00    -0.532 OA
HETATM   26  O5  UNL     1      -4.775   1.323  15.139  1.00  0.00    -0.532 OA
ENDBRANCH  20  24
ENDBRANCH   3  17
TORSDOF 5
ENDMDL
