MODEL 1
REMARK VINA RESULT: -7.942130526      0.000      0.000
REMARK  5 active torsions:
REMARK  status: ('A' for Active; 'I' for Inactive)
REMARK    1  A    between atoms: N1_1  and  S1_4 
REMARK    2  A    between atoms: S1_4  and  C1_7 
REMARK    3  A    between atoms: C4_10  and  N2_11 
REMARK       I    between atoms: N2_11  and  C5_13 
REMARK    4  A    between atoms: C5_13  and  C6_15 
REMARK    5  A    between atoms: C9_18  and  N3_19 
ROOT
HETATM    1  N2  UNL     1      -3.533   7.734  14.592  1.00  0.00    -0.323 N 
ATOM      2  H2  UNL     1      -4.321   7.919  15.213  1.00  0.00     0.169 HD
HETATM    3  C5  UNL     1      -3.212   6.393  14.289  1.00  0.00     0.257 C 
HETATM    4  O3  UNL     1      -2.270   6.059  13.534  1.00  0.00    -0.267 OA
ENDROOT
BRANCH   1   5
HETATM    5  C4  UNL     1      -2.811   8.825  14.073  1.00  0.00     0.035 A 
HETATM    6  C3  UNL     1      -2.142   9.625  14.974  1.00  0.00     0.031 A 
HETATM    7  C2  UNL     1      -1.401  10.695  14.558  1.00  0.00     0.027 A 
HETATM    8  C1  UNL     1      -1.276  11.036  13.219  1.00  0.00     0.079 A 
HETATM    9  C13 UNL     1      -1.952  10.223  12.338  1.00  0.00     0.027 A 
HETATM   10  C12 UNL     1      -2.716   9.124  12.746  1.00  0.00     0.031 A 
BRANCH   8  11
HETATM   11  S1  UNL     1      -0.331  12.401  12.670  1.00  0.00     0.256 S 
HETATM   12  O1  UNL     1      -0.861  12.965  11.384  1.00  0.00    -0.201 OA
HETATM   13  O2  UNL     1       1.119  11.973  12.523  1.00  0.00    -0.201 OA
BRANCH  11  14
HETATM   14  N1  UNL     1      -0.344  13.597  13.934  1.00  0.00    -0.324 N 
ATOM     15  H12 UNL     1      -1.168  14.140  14.189  1.00  0.00     0.169 HD
ATOM     16  H11 UNL     1       0.573  13.676  14.376  1.00  0.00     0.169 HD
ENDBRANCH  11  14
ENDBRANCH   8  11
ENDBRANCH   1   5
BRANCH   3  17
HETATM   17  C6  UNL     1      -4.058   5.363  14.918  1.00  0.00     0.054 A 
HETATM   18  C7  UNL     1      -3.477   4.244  15.434  1.00  0.00     0.021 A 
HETATM   19  C8  UNL     1      -4.230   3.247  16.037  1.00  0.00     0.037 A 
HETATM   20  C9  UNL     1      -5.579   3.390  16.114  1.00  0.00     0.104 A 
HETATM   21  C10 UNL     1      -6.186   4.533  15.589  1.00  0.00     0.060 A 
HETATM   22  C11 UNL     1      -5.415   5.513  14.993  1.00  0.00     0.052 A 
HETATM   23 CL1  UNL     1      -6.243   6.918  14.356  1.00  0.00    -0.083 Cl
BRANCH  20  24
HETATM   24  N3  UNL     1      -6.363   2.374  16.729  1.00  0.00    -0.116 N 
HETATM   25  O4  UNL     1      -7.585   2.553  16.828  1.00  0.00    -0.532 OA
HETATM   26  O5  UNL     1      -5.740   1.235  17.190  1.00  0.00    -0.532 OA
ENDBRANCH  20  24
ENDBRANCH   3  17
TORSDOF 5
ENDMDL
