MODEL 1
REMARK VINA RESULT: -8.450639159      0.000      0.000
REMARK  5 active torsions:
REMARK  status: ('A' for Active; 'I' for Inactive)
REMARK    1  A    between atoms: N1_1  and  S1_4 
REMARK    2  A    between atoms: S1_4  and  C1_7 
REMARK    3  A    between atoms: C4_10  and  N2_11 
REMARK    4  A    between atoms: N2_11  and  S2_13 
REMARK    5  A    between atoms: S2_13  and  C5_16 
ROOT
HETATM    1  C1  UNL     1      -5.654   4.063  16.250  1.00  0.00     0.079 A 
HETATM    2  C2  UNL     1      -6.526   4.885  15.590  1.00  0.00     0.027 A 
HETATM    3  C3  UNL     1      -6.086   5.720  14.572  1.00  0.00     0.031 A 
HETATM    4  C4  UNL     1      -4.753   5.712  14.230  1.00  0.00     0.042 A 
HETATM    5  C11 UNL     1      -3.854   4.867  14.906  1.00  0.00     0.031 A 
HETATM    6  C12 UNL     1      -4.338   4.065  15.901  1.00  0.00     0.027 A 
ENDROOT
BRANCH   4   7
HETATM    7  N2  UNL     1      -4.269   6.517  13.188  1.00  0.00    -0.281 N 
ATOM      8  H2  UNL     1      -4.041   7.489  13.397  1.00  0.00     0.179 HD
BRANCH   7   9
HETATM    9  S2  UNL     1      -4.045   5.966  11.607  1.00  0.00     0.263 S 
HETATM   10  O3  UNL     1      -2.811   6.621  10.985  1.00  0.00    -0.200 OA
HETATM   11  O4  UNL     1      -5.235   6.318  10.716  1.00  0.00    -0.200 OA
BRANCH   9  12
HETATM   12  C5  UNL     1      -3.854   4.243  11.523  1.00  0.00     0.080 A 
HETATM   13  C6  UNL     1      -4.965   3.400  11.537  1.00  0.00     0.026 A 
HETATM   14  C7  UNL     1      -4.728   2.045  11.466  1.00  0.00     0.020 A 
HETATM   15  C8  UNL     1      -3.465   1.507  11.383  1.00  0.00     0.011 A 
HETATM   16 BR1  UNL     1      -3.140  -0.368  11.285  1.00  0.00    -0.051 Br
HETATM   17  C9  UNL     1      -2.395   2.369  11.372  1.00  0.00     0.020 A 
HETATM   18  C10 UNL     1      -2.562   3.741  11.441  1.00  0.00     0.026 A 
ENDBRANCH   9  12
ENDBRANCH   7   9
ENDBRANCH   4   7
BRANCH   1  19
HETATM   19  S1  UNL     1      -6.297   3.034  17.532  1.00  0.00     0.256 S 
HETATM   20  O1  UNL     1      -5.308   1.909  17.720  1.00  0.00    -0.201 OA
HETATM   21  O2  UNL     1      -7.616   2.522  17.090  1.00  0.00    -0.201 OA
BRANCH  19  22
HETATM   22  N1  UNL     1      -6.462   3.956  18.980  1.00  0.00    -0.324 N 
ATOM     23  H12 UNL     1      -5.876   3.823  19.805  1.00  0.00     0.169 HD
ATOM     24  H11 UNL     1      -7.215   4.638  18.893  1.00  0.00     0.169 HD
ENDBRANCH  19  22
ENDBRANCH   1  19
TORSDOF 5
ENDMDL
