MODEL 3
REMARK VINA RESULT: -8.395427081      0.194      1.057
REMARK  5 active torsions:
REMARK  status: ('A' for Active; 'I' for Inactive)
REMARK    1  A    between atoms: N1_1  and  S1_4 
REMARK    2  A    between atoms: S1_4  and  C1_7 
REMARK    3  A    between atoms: C4_10  and  N2_11 
REMARK    4  A    between atoms: N2_11  and  S2_13 
REMARK    5  A    between atoms: S2_13  and  C5_16 
ROOT
HETATM    1  C1  UNL     1      -5.716   4.033  16.255  1.00  0.00     0.079 A 
HETATM    2  C2  UNL     1      -4.371   4.013  16.001  1.00  0.00     0.027 A 
HETATM    3  C3  UNL     1      -3.830   4.762  14.966  1.00  0.00     0.031 A 
HETATM    4  C4  UNL     1      -4.667   5.532  14.190  1.00  0.00     0.042 A 
HETATM    5  C11 UNL     1      -6.049   5.555  14.448  1.00  0.00     0.031 A 
HETATM    6  C12 UNL     1      -6.531   4.799  15.479  1.00  0.00     0.027 A 
ENDROOT
BRANCH   4   7
HETATM    7  N2  UNL     1      -4.160   6.327  13.151  1.00  0.00    -0.281 N 
ATOM      8  H2  UNL     1      -3.922   7.297  13.359  1.00  0.00     0.179 HD
BRANCH   7   9
HETATM    9  S2  UNL     1      -3.924   5.766  11.575  1.00  0.00     0.263 S 
HETATM   10  O3  UNL     1      -2.686   6.417  10.958  1.00  0.00    -0.200 OA
HETATM   11  O4  UNL     1      -5.108   6.115  10.673  1.00  0.00    -0.200 OA
BRANCH   9  12
HETATM   12  C5  UNL     1      -3.736   4.043  11.501  1.00  0.00     0.080 A 
HETATM   13  C6  UNL     1      -4.843   3.198  11.581  1.00  0.00     0.026 A 
HETATM   14  C7  UNL     1      -4.607   1.843  11.515  1.00  0.00     0.020 A 
HETATM   15  C8  UNL     1      -3.348   1.306  11.375  1.00  0.00     0.011 A 
HETATM   16 BR1  UNL     1      -3.025  -0.570  11.284  1.00  0.00    -0.051 Br
HETATM   17  C9  UNL     1      -2.282   2.169  11.300  1.00  0.00     0.020 A 
HETATM   18  C10 UNL     1      -2.448   3.541  11.361  1.00  0.00     0.026 A 
ENDBRANCH   9  12
ENDBRANCH   7   9
ENDBRANCH   4   7
BRANCH   1  19
HETATM   19  S1  UNL     1      -6.320   3.050  17.591  1.00  0.00     0.256 S 
HETATM   20  O1  UNL     1      -5.303   1.958  17.817  1.00  0.00    -0.201 OA
HETATM   21  O2  UNL     1      -7.632   2.489  17.189  1.00  0.00    -0.201 OA
BRANCH  19  22
HETATM   22  N1  UNL     1      -6.489   4.033  18.997  1.00  0.00    -0.324 N 
ATOM     23  H12 UNL     1      -6.212   5.013  19.039  1.00  0.00     0.169 HD
ATOM     24  H11 UNL     1      -6.898   3.501  19.765  1.00  0.00     0.169 HD
ENDBRANCH  19  22
ENDBRANCH   1  19
TORSDOF 5
ENDMDL
