MODEL 2
REMARK VINA RESULT: -8.442974665      0.094      1.049
REMARK  5 active torsions:
REMARK  status: ('A' for Active; 'I' for Inactive)
REMARK    1  A    between atoms: N1_1  and  S1_4 
REMARK    2  A    between atoms: S1_4  and  C1_7 
REMARK    3  A    between atoms: C4_10  and  N2_11 
REMARK    4  A    between atoms: N2_11  and  S2_13 
REMARK    5  A    between atoms: S2_13  and  C5_16 
ROOT
HETATM    1  C1  UNL     1      -5.644   4.046  16.237  1.00  0.00     0.079 A 
HETATM    2  C2  UNL     1      -6.504   4.872  15.564  1.00  0.00     0.027 A 
HETATM    3  C3  UNL     1      -6.050   5.690  14.540  1.00  0.00     0.031 A 
HETATM    4  C4  UNL     1      -4.715   5.663  14.203  1.00  0.00     0.042 A 
HETATM    5  C11 UNL     1      -3.829   4.815  14.892  1.00  0.00     0.031 A 
HETATM    6  C12 UNL     1      -4.327   4.030  15.893  1.00  0.00     0.027 A 
ENDROOT
BRANCH   4   7
HETATM    7  N2  UNL     1      -4.218   6.452  13.156  1.00  0.00    -0.281 N 
ATOM      8  H2  UNL     1      -3.955   7.416  13.362  1.00  0.00     0.179 HD
BRANCH   7   9
HETATM    9  S2  UNL     1      -4.033   5.894  11.572  1.00  0.00     0.263 S 
HETATM   10  O3  UNL     1      -2.873   6.617  10.885  1.00  0.00    -0.200 OA
HETATM   11  O4  UNL     1      -5.283   6.160  10.734  1.00  0.00    -0.200 OA
BRANCH   9  12
HETATM   12  C5  UNL     1      -3.739   4.186  11.497  1.00  0.00     0.080 A 
HETATM   13  C6  UNL     1      -2.441   3.688  11.382  1.00  0.00     0.026 A 
HETATM   14  C7  UNL     1      -2.294   2.320  11.329  1.00  0.00     0.020 A 
HETATM   15  C8  UNL     1      -3.356   1.448  11.385  1.00  0.00     0.011 A 
HETATM   16 BR1  UNL     1      -3.149  -0.445  11.311  1.00  0.00    -0.051 Br
HETATM   17  C9  UNL     1      -4.619   1.975  11.498  1.00  0.00     0.020 A 
HETATM   18  C10 UNL     1      -4.839   3.340  11.556  1.00  0.00     0.026 A 
ENDBRANCH   9  12
ENDBRANCH   7   9
ENDBRANCH   4   7
BRANCH   1  19
HETATM   19  S1  UNL     1      -6.304   3.038  17.527  1.00  0.00     0.256 S 
HETATM   20  O1  UNL     1      -5.314   1.922  17.752  1.00  0.00    -0.201 OA
HETATM   21  O2  UNL     1      -7.614   2.512  17.072  1.00  0.00    -0.201 OA
BRANCH  19  22
HETATM   22  N1  UNL     1      -6.498   3.985  18.954  1.00  0.00    -0.324 N 
ATOM     23  H12 UNL     1      -6.678   3.589  19.876  1.00  0.00     0.169 HD
ATOM     24  H11 UNL     1      -6.408   4.979  18.745  1.00  0.00     0.169 HD
ENDBRANCH  19  22
ENDBRANCH   1  19
TORSDOF 5
ENDMDL
