MODEL 3
REMARK VINA RESULT: -7.176302225      4.068      7.595
REMARK  5 active torsions:
REMARK  status: ('A' for Active; 'I' for Inactive)
REMARK    1  A    between atoms: N1_1  and  S1_4 
REMARK    2  A    between atoms: S1_4  and  C1_7 
REMARK    3  A    between atoms: C4_10  and  C5_11 
REMARK    4  A    between atoms: C5_11  and  C6_12 
REMARK    5  A    between atoms: C9_15  and  N2_16 
ROOT
HETATM    1  C1  UNL     1      -5.699   4.313  15.839  1.00  0.00     0.079 A 
HETATM    2  C2  UNL     1      -6.574   5.361  15.666  1.00  0.00     0.026 A 
HETATM    3  C3  UNL     1      -6.265   6.356  14.742  1.00  0.00     0.009 A 
HETATM    4  C4  UNL     1      -5.108   6.331  13.990  1.00  0.00    -0.054 A 
HETATM    5  C12 UNL     1      -4.238   5.277  14.171  1.00  0.00     0.009 A 
HETATM    6  C13 UNL     1      -4.553   4.284  15.097  1.00  0.00     0.026 A 
ENDROOT
BRANCH   4   7
HETATM    7  C5  UNL     1      -4.866   7.422  13.042  1.00  0.00     0.077 C 
BRANCH   7   8
HETATM    8  C6  UNL     1      -3.721   8.275  13.400  1.00  0.00    -0.054 A 
HETATM    9  C7  UNL     1      -3.431   8.613  14.718  1.00  0.00     0.010 A 
HETATM   10  C8  UNL     1      -2.357   9.411  15.042  1.00  0.00     0.036 A 
HETATM   11  C9  UNL     1      -1.533   9.900  14.050  1.00  0.00     0.102 A 
HETATM   12  C10 UNL     1      -1.789   9.586  12.733  1.00  0.00     0.036 A 
HETATM   13  C11 UNL     1      -2.887   8.773  12.429  1.00  0.00     0.010 A 
BRANCH  11  14
HETATM   14  N2  UNL     1      -0.426  10.726  14.418  1.00  0.00    -0.116 N 
HETATM   15  O3  UNL     1      -0.397  11.404  15.438  1.00  0.00    -0.532 OA
HETATM   16  O4  UNL     1       0.660  10.756  13.577  1.00  0.00    -0.532 OA
ENDBRANCH  11  14
ENDBRANCH   7   8
ENDBRANCH   4   7
BRANCH   1  17
HETATM   17  S1  UNL     1      -6.062   3.049  16.992  1.00  0.00     0.256 S 
HETATM   18  O1  UNL     1      -4.864   2.144  17.070  1.00  0.00    -0.201 OA
HETATM   19  O2  UNL     1      -7.295   2.301  16.603  1.00  0.00    -0.201 OA
BRANCH  17  20
HETATM   20  N1  UNL     1      -6.369   3.762  18.544  1.00  0.00    -0.324 N 
ATOM     21  H12 UNL     1      -5.995   4.661  18.846  1.00  0.00     0.169 HD
ATOM     22  H11 UNL     1      -6.971   3.150  19.095  1.00  0.00     0.169 HD
ENDBRANCH  17  20
ENDBRANCH   1  17
TORSDOF 5
ENDMDL
