MODEL 2
REMARK VINA RESULT: -7.191255989      0.240      1.060
REMARK  5 active torsions:
REMARK  status: ('A' for Active; 'I' for Inactive)
REMARK    1  A    between atoms: N1_1  and  S1_4 
REMARK    2  A    between atoms: S1_4  and  C1_7 
REMARK    3  A    between atoms: C4_10  and  C5_11 
REMARK    4  A    between atoms: C5_11  and  C6_12 
REMARK    5  A    between atoms: C9_15  and  N2_16 
ROOT
HETATM    1  C1  UNL     1      -3.046   6.704  10.472  1.00  0.00     0.079 A 
HETATM    2  C2  UNL     1      -2.125   6.504  11.475  1.00  0.00     0.026 A 
HETATM    3  C3  UNL     1      -2.521   6.662  12.800  1.00  0.00     0.009 A 
HETATM    4  C4  UNL     1      -3.810   7.015  13.148  1.00  0.00    -0.054 A 
HETATM    5  C12 UNL     1      -4.724   7.214  12.136  1.00  0.00     0.009 A 
HETATM    6  C13 UNL     1      -4.321   7.053  10.811  1.00  0.00     0.026 A 
ENDROOT
BRANCH   4   7
HETATM    7  C5  UNL     1      -4.136   7.160  14.569  1.00  0.00     0.077 C 
BRANCH   7   8
HETATM    8  C6  UNL     1      -4.788   5.974  15.151  1.00  0.00    -0.054 A 
HETATM    9  C7  UNL     1      -6.149   5.939  15.432  1.00  0.00     0.010 A 
HETATM   10  C8  UNL     1      -6.749   4.826  15.976  1.00  0.00     0.036 A 
HETATM   11  C9  UNL     1      -5.998   3.704  16.258  1.00  0.00     0.102 A 
HETATM   12  C10 UNL     1      -4.647   3.701  15.992  1.00  0.00     0.036 A 
HETATM   13  C11 UNL     1      -4.061   4.845  15.439  1.00  0.00     0.010 A 
BRANCH  11  14
HETATM   14  N2  UNL     1      -6.650   2.562  16.822  1.00  0.00    -0.116 N 
HETATM   15  O3  UNL     1      -7.847   2.524  17.077  1.00  0.00    -0.532 OA
HETATM   16  O4  UNL     1      -5.884   1.454  17.091  1.00  0.00    -0.532 OA
ENDBRANCH  11  14
ENDBRANCH   7   8
ENDBRANCH   4   7
BRANCH   1  17
HETATM   17  S1  UNL     1      -2.576   6.511   8.799  1.00  0.00     0.256 S 
HETATM   18  O1  UNL     1      -3.832   6.401   7.980  1.00  0.00    -0.201 OA
HETATM   19  O2  UNL     1      -1.694   5.318   8.620  1.00  0.00    -0.201 OA
BRANCH  17  20
HETATM   20  N1  UNL     1      -1.662   7.898   8.297  1.00  0.00    -0.324 N 
ATOM     21  H12 UNL     1      -2.017   8.624   7.675  1.00  0.00     0.169 HD
ATOM     22  H11 UNL     1      -0.732   7.873   8.716  1.00  0.00     0.169 HD
ENDBRANCH  17  20
ENDBRANCH   1  17
TORSDOF 5
ENDMDL
