MODEL 1
REMARK VINA RESULT: -7.243706802      0.000      0.000
REMARK  5 active torsions:
REMARK  status: ('A' for Active; 'I' for Inactive)
REMARK    1  A    between atoms: N1_1  and  S1_4 
REMARK    2  A    between atoms: S1_4  and  C1_7 
REMARK    3  A    between atoms: C4_10  and  C5_11 
REMARK    4  A    between atoms: C5_11  and  C6_12 
REMARK    5  A    between atoms: C9_15  and  N2_16 
ROOT
HETATM    1  C1  UNL     1      -2.869   6.580  10.522  1.00  0.00     0.079 A 
HETATM    2  C2  UNL     1      -4.211   6.603  10.827  1.00  0.00     0.026 A 
HETATM    3  C3  UNL     1      -4.604   6.809  12.146  1.00  0.00     0.009 A 
HETATM    4  C4  UNL     1      -3.693   6.991  13.167  1.00  0.00    -0.054 A 
HETATM    5  C12 UNL     1      -2.351   6.966  12.852  1.00  0.00     0.009 A 
HETATM    6  C13 UNL     1      -1.965   6.759  11.528  1.00  0.00     0.026 A 
ENDROOT
BRANCH   4   7
HETATM    7  C5  UNL     1      -4.198   7.201  14.526  1.00  0.00     0.077 C 
BRANCH   7   8
HETATM    8  C6  UNL     1      -4.831   6.008  15.114  1.00  0.00    -0.054 A 
HETATM    9  C7  UNL     1      -6.185   5.965  15.428  1.00  0.00     0.010 A 
HETATM   10  C8  UNL     1      -6.766   4.845  15.977  1.00  0.00     0.036 A 
HETATM   11  C9  UNL     1      -6.005   3.723  16.230  1.00  0.00     0.102 A 
HETATM   12  C10 UNL     1      -4.661   3.728  15.932  1.00  0.00     0.036 A 
HETATM   13  C11 UNL     1      -4.092   4.879  15.374  1.00  0.00     0.010 A 
BRANCH  11  14
HETATM   14  N2  UNL     1      -6.638   2.574  16.800  1.00  0.00    -0.116 N 
HETATM   15  O3  UNL     1      -7.837   2.514  17.043  1.00  0.00    -0.532 OA
HETATM   16  O4  UNL     1      -5.851   1.485  17.089  1.00  0.00    -0.532 OA
ENDBRANCH  11  14
ENDBRANCH   7   8
ENDBRANCH   4   7
BRANCH   1  17
HETATM   17  S1  UNL     1      -2.348   6.324   8.873  1.00  0.00     0.256 S 
HETATM   18  O1  UNL     1      -3.577   6.260   8.009  1.00  0.00    -0.201 OA
HETATM   19  O2  UNL     1      -1.524   5.083   8.753  1.00  0.00    -0.201 OA
BRANCH  17  20
HETATM   20  N1  UNL     1      -1.344   7.650   8.377  1.00  0.00    -0.324 N 
ATOM     21  H12 UNL     1      -1.187   7.918   7.406  1.00  0.00     0.169 HD
ATOM     22  H11 UNL     1      -0.945   8.109   9.196  1.00  0.00     0.169 HD
ENDBRANCH  17  20
ENDBRANCH   1  17
TORSDOF 5
ENDMDL
