MODEL 6
REMARK VINA RESULT: -7.161124628      4.047      7.636
REMARK  5 active torsions:
REMARK  status: ('A' for Active; 'I' for Inactive)
REMARK    1  A    between atoms: N1_1  and  S1_4 
REMARK    2  A    between atoms: S1_4  and  C1_7 
REMARK    3  A    between atoms: C4_10  and  C5_11 
REMARK    4  A    between atoms: C5_11  and  C6_12 
REMARK    5  A    between atoms: C9_15  and  N2_16 
ROOT
HETATM    1  C1  UNL     1      -5.748   4.326  15.836  1.00  0.00     0.079 A 
HETATM    2  C2  UNL     1      -4.689   4.224  14.962  1.00  0.00     0.026 A 
HETATM    3  C3  UNL     1      -4.469   5.244  14.041  1.00  0.00     0.009 A 
HETATM    4  C4  UNL     1      -5.278   6.360  13.970  1.00  0.00    -0.054 A 
HETATM    5  C12 UNL     1      -6.336   6.453  14.848  1.00  0.00     0.009 A 
HETATM    6  C13 UNL     1      -6.551   5.428  15.768  1.00  0.00     0.026 A 
ENDROOT
BRANCH   4   7
HETATM    7  C5  UNL     1      -4.970   7.384  12.967  1.00  0.00     0.077 C 
BRANCH   7   8
HETATM    8  C6  UNL     1      -3.814   8.226  13.316  1.00  0.00    -0.054 A 
HETATM    9  C7  UNL     1      -3.428   8.449  14.633  1.00  0.00     0.010 A 
HETATM   10  C8  UNL     1      -2.345   9.238  14.948  1.00  0.00     0.036 A 
HETATM   11  C9  UNL     1      -1.607   9.832  13.946  1.00  0.00     0.102 A 
HETATM   12  C10 UNL     1      -1.958   9.634  12.629  1.00  0.00     0.036 A 
HETATM   13  C11 UNL     1      -3.064   8.828  12.334  1.00  0.00     0.010 A 
BRANCH  11  14
HETATM   14  N2  UNL     1      -0.487  10.646  14.304  1.00  0.00    -0.116 N 
HETATM   15  O3  UNL     1       0.511  10.769  13.604  1.00  0.00    -0.532 OA
HETATM   16  O4  UNL     1      -0.540  11.321  15.500  1.00  0.00    -0.532 OA
ENDBRANCH  11  14
ENDBRANCH   7   8
ENDBRANCH   4   7
BRANCH   1  17
HETATM   17  S1  UNL     1      -6.047   3.059  17.003  1.00  0.00     0.256 S 
HETATM   18  O1  UNL     1      -4.818   2.196  17.067  1.00  0.00    -0.201 OA
HETATM   19  O2  UNL     1      -7.261   2.266  16.642  1.00  0.00    -0.201 OA
BRANCH  17  20
HETATM   20  N1  UNL     1      -6.351   3.772  18.556  1.00  0.00    -0.324 N 
ATOM     21  H12 UNL     1      -5.957   4.660  18.866  1.00  0.00     0.169 HD
ATOM     22  H11 UNL     1      -6.976   3.175  19.097  1.00  0.00     0.169 HD
ENDBRANCH  17  20
ENDBRANCH   1  17
TORSDOF 5
ENDMDL
