MODEL 4
REMARK VINA RESULT: -7.172422257      0.736      1.428
REMARK  5 active torsions:
REMARK  status: ('A' for Active; 'I' for Inactive)
REMARK    1  A    between atoms: N1_1  and  S1_4 
REMARK    2  A    between atoms: S1_4  and  C1_7 
REMARK    3  A    between atoms: C4_10  and  C5_11 
REMARK    4  A    between atoms: C5_11  and  C6_12 
REMARK    5  A    between atoms: C9_15  and  N2_16 
ROOT
HETATM    1  C1  UNL     1      -2.309   6.190  10.537  1.00  0.00     0.079 A 
HETATM    2  C2  UNL     1      -3.665   6.001  10.674  1.00  0.00     0.026 A 
HETATM    3  C3  UNL     1      -4.280   6.343  11.874  1.00  0.00     0.009 A 
HETATM    4  C4  UNL     1      -3.578   6.868  12.940  1.00  0.00    -0.054 A 
HETATM    5  C12 UNL     1      -2.219   7.054  12.794  1.00  0.00     0.009 A 
HETATM    6  C13 UNL     1      -1.610   6.709  11.589  1.00  0.00     0.026 A 
ENDROOT
BRANCH   4   7
HETATM    7  C5  UNL     1      -4.309   7.198  14.166  1.00  0.00     0.077 C 
BRANCH   7   8
HETATM    8  C6  UNL     1      -4.782   6.019  14.910  1.00  0.00    -0.054 A 
HETATM    9  C7  UNL     1      -3.919   5.012  15.331  1.00  0.00     0.010 A 
HETATM   10  C8  UNL     1      -4.371   3.914  16.026  1.00  0.00     0.036 A 
HETATM   11  C9  UNL     1      -5.712   3.787  16.324  1.00  0.00     0.102 A 
HETATM   12  C10 UNL     1      -6.596   4.764  15.924  1.00  0.00     0.036 A 
HETATM   13  C11 UNL     1      -6.112   5.871  15.219  1.00  0.00     0.010 A 
BRANCH  11  14
HETATM   14  N2  UNL     1      -6.151   2.634  17.048  1.00  0.00    -0.116 N 
HETATM   15  O3  UNL     1      -5.489   2.093  17.925  1.00  0.00    -0.532 OA
HETATM   16  O4  UNL     1      -7.383   2.111  16.735  1.00  0.00    -0.532 OA
ENDBRANCH  11  14
ENDBRANCH   7   8
ENDBRANCH   4   7
BRANCH   1  17
HETATM   17  S1  UNL     1      -1.510   5.770   9.040  1.00  0.00     0.256 S 
HETATM   18  O1  UNL     1      -2.392   6.222   7.909  1.00  0.00    -0.201 OA
HETATM   19  O2  UNL     1      -1.231   4.304   8.970  1.00  0.00    -0.201 OA
BRANCH  17  20
HETATM   20  N1  UNL     1       0.021   6.583   8.959  1.00  0.00    -0.324 N 
ATOM     21  H12 UNL     1       0.476   6.863   8.091  1.00  0.00     0.169 HD
ATOM     22  H11 UNL     1       0.385   6.734   9.900  1.00  0.00     0.169 HD
ENDBRANCH  17  20
ENDBRANCH   1  17
TORSDOF 5
ENDMDL
