MODEL 7
REMARK VINA RESULT: -7.157363215      4.062      7.621
REMARK  5 active torsions:
REMARK  status: ('A' for Active; 'I' for Inactive)
REMARK    1  A    between atoms: N1_1  and  S1_4 
REMARK    2  A    between atoms: S1_4  and  C1_7 
REMARK    3  A    between atoms: C4_10  and  C5_11 
REMARK    4  A    between atoms: C5_11  and  C6_12 
REMARK    5  A    between atoms: C9_15  and  N2_16 
ROOT
HETATM    1  C1  UNL     1      -5.715   4.309  15.856  1.00  0.00     0.079 A 
HETATM    2  C2  UNL     1      -6.587   5.360  15.684  1.00  0.00     0.026 A 
HETATM    3  C3  UNL     1      -6.284   6.348  14.753  1.00  0.00     0.009 A 
HETATM    4  C4  UNL     1      -5.134   6.314  13.990  1.00  0.00    -0.054 A 
HETATM    5  C12 UNL     1      -4.266   5.258  14.169  1.00  0.00     0.009 A 
HETATM    6  C13 UNL     1      -4.576   4.272  15.103  1.00  0.00     0.026 A 
ENDROOT
BRANCH   4   7
HETATM    7  C5  UNL     1      -4.897   7.399  13.033  1.00  0.00     0.077 C 
BRANCH   7   8
HETATM    8  C6  UNL     1      -3.738   8.243  13.370  1.00  0.00    -0.054 A 
HETATM    9  C7  UNL     1      -2.873   8.738  12.400  1.00  0.00     0.010 A 
HETATM   10  C8  UNL     1      -1.793   9.526  12.726  1.00  0.00     0.036 A 
HETATM   11  C9  UNL     1      -1.543   9.847  14.044  1.00  0.00     0.102 A 
HETATM   12  C10 UNL     1      -2.378   9.376  15.032  1.00  0.00     0.036 A 
HETATM   13  C11 UNL     1      -3.470   8.576  14.676  1.00  0.00     0.010 A 
BRANCH  11  14
HETATM   14  N2  UNL     1      -0.413  10.668  14.351  1.00  0.00    -0.116 N 
HETATM   15  O3  UNL     1       0.580  10.747  13.638  1.00  0.00    -0.532 OA
HETATM   16  O4  UNL     1      -0.451  11.404  15.511  1.00  0.00    -0.532 OA
ENDBRANCH  11  14
ENDBRANCH   7   8
ENDBRANCH   4   7
BRANCH   1  17
HETATM   17  S1  UNL     1      -6.071   3.053  17.019  1.00  0.00     0.256 S 
HETATM   18  O1  UNL     1      -4.866   2.160  17.112  1.00  0.00    -0.201 OA
HETATM   19  O2  UNL     1      -7.296   2.290  16.631  1.00  0.00    -0.201 OA
BRANCH  17  20
HETATM   20  N1  UNL     1      -6.394   3.778  18.562  1.00  0.00    -0.324 N 
ATOM     21  H12 UNL     1      -6.700   3.260  19.386  1.00  0.00     0.169 HD
ATOM     22  H11 UNL     1      -6.230   4.783  18.516  1.00  0.00     0.169 HD
ENDBRANCH  17  20
ENDBRANCH   1  17
TORSDOF 5
ENDMDL
