MODEL 4
REMARK VINA RESULT: -7.278204430      2.753      3.961
REMARK  6 active torsions:
REMARK  status: ('A' for Active; 'I' for Inactive)
REMARK    1  A    between atoms: N1_2  and  C2_3 
REMARK    2  A    between atoms: N1_2  and  C10_20 
REMARK    3  A    between atoms: C2_3  and  C3_4 
REMARK       I    between atoms: C3_4  and  N2_6 
REMARK    4  A    between atoms: N2_6  and  C4_8 
REMARK    5  A    between atoms: C7_11  and  S1_12 
REMARK    6  A    between atoms: S1_12  and  N3_13 
ROOT
HETATM    1  C3  UNL     1      -4.205   7.640  12.417  1.00  0.00     0.239 C 
HETATM    2  O1  UNL     1      -4.671   6.714  11.722  1.00  0.00    -0.271 OA
HETATM    3  N2  UNL     1      -4.128   7.508  13.816  1.00  0.00    -0.326 N 
ATOM      4  H2  UNL     1      -3.727   8.282  14.346  1.00  0.00     0.169 HD
ENDROOT
BRANCH   3   5
HETATM    5  C4  UNL     1      -4.573   6.371  14.536  1.00  0.00     0.034 A 
HETATM    6  C5  UNL     1      -3.687   5.360  14.843  1.00  0.00     0.031 A 
HETATM    7  C6  UNL     1      -4.052   4.237  15.565  1.00  0.00     0.027 A 
HETATM    8  C7  UNL     1      -5.377   4.124  16.004  1.00  0.00     0.079 A 
HETATM    9  C8  UNL     1      -6.250   5.129  15.699  1.00  0.00     0.027 A 
HETATM   10  C9  UNL     1      -5.857   6.238  14.976  1.00  0.00     0.031 A 
BRANCH   8  11
HETATM   11  S1  UNL     1      -5.911   2.713  16.908  1.00  0.00     0.256 S 
HETATM   12  O2  UNL     1      -5.437   1.487  16.168  1.00  0.00    -0.201 OA
HETATM   13  O3  UNL     1      -5.369   2.691  18.294  1.00  0.00    -0.201 OA
BRANCH  11  14
HETATM   14  N3  UNL     1      -7.642   2.689  16.983  1.00  0.00    -0.324 N 
ATOM     15  H32 UNL     1      -8.252   2.608  16.170  1.00  0.00     0.169 HD
ATOM     16  H31 UNL     1      -7.944   2.768  17.954  1.00  0.00     0.169 HD
ENDBRANCH  11  14
ENDBRANCH   8  11
ENDBRANCH   3   5
BRANCH   1  17
HETATM   17  C2  UNL     1      -3.741   8.876  11.761  1.00  0.00     0.225 C 
BRANCH  17  18
HETATM   18  N1  UNL     1      -2.327   9.119  12.029  1.00  0.00    -0.376 N 
HETATM   19  C1  UNL     1      -1.385   8.329  11.294  1.00  0.00     0.150 C 
BRANCH  18  20
HETATM   20  C10 UNL     1      -1.893  10.107  12.944  1.00  0.00     0.030 A 
HETATM   21  C11 UNL     1      -1.536   9.891  14.255  1.00  0.00     0.029 A 
HETATM   22  C12 UNL     1      -1.136  10.901  15.101  1.00  0.00     0.002 A 
HETATM   23  C13 UNL     1      -1.074  12.197  14.660  1.00  0.00     0.000 A 
HETATM   24  C14 UNL     1      -1.422  12.465  13.354  1.00  0.00     0.002 A 
HETATM   25  C15 UNL     1      -1.816  11.443  12.534  1.00  0.00     0.029 A 
ENDBRANCH  18  20
ENDBRANCH  17  18
ENDBRANCH   1  17
TORSDOF 6
ENDMDL
