MODEL 5
REMARK VINA RESULT: -7.275927931      2.769      3.996
REMARK  6 active torsions:
REMARK  status: ('A' for Active; 'I' for Inactive)
REMARK    1  A    between atoms: N1_2  and  C2_3 
REMARK    2  A    between atoms: N1_2  and  C10_20 
REMARK    3  A    between atoms: C2_3  and  C3_4 
REMARK       I    between atoms: C3_4  and  N2_6 
REMARK    4  A    between atoms: N2_6  and  C4_8 
REMARK    5  A    between atoms: C7_11  and  S1_12 
REMARK    6  A    between atoms: S1_12  and  N3_13 
ROOT
HETATM    1  C3  UNL     1      -4.208   7.646  12.456  1.00  0.00     0.239 C 
HETATM    2  O1  UNL     1      -4.712   6.725  11.781  1.00  0.00    -0.271 OA
HETATM    3  N2  UNL     1      -4.067   7.509  13.849  1.00  0.00    -0.326 N 
ATOM      4  H2  UNL     1      -3.636   8.278  14.363  1.00  0.00     0.169 HD
ENDROOT
BRANCH   3   5
HETATM    5  C4  UNL     1      -4.484   6.371  14.587  1.00  0.00     0.034 A 
HETATM    6  C5  UNL     1      -5.794   6.262  15.002  1.00  0.00     0.031 A 
HETATM    7  C6  UNL     1      -6.270   5.167  15.701  1.00  0.00     0.027 A 
HETATM    8  C7  UNL     1      -5.383   4.125  15.999  1.00  0.00     0.079 A 
HETATM    9  C8  UNL     1      -4.086   4.238  15.584  1.00  0.00     0.027 A 
HETATM   10  C9  UNL     1      -3.640   5.344  14.887  1.00  0.00     0.031 A 
BRANCH   8  11
HETATM   11  S1  UNL     1      -5.917   2.715  16.903  1.00  0.00     0.256 S 
HETATM   12  O2  UNL     1      -5.437   1.489  16.167  1.00  0.00    -0.201 OA
HETATM   13  O3  UNL     1      -5.383   2.696  18.292  1.00  0.00    -0.201 OA
BRANCH  11  14
HETATM   14  N3  UNL     1      -7.649   2.687  16.970  1.00  0.00    -0.324 N 
ATOM     15  H32 UNL     1      -8.231   3.506  17.140  1.00  0.00     0.169 HD
ATOM     16  H31 UNL     1      -7.983   1.736  16.814  1.00  0.00     0.169 HD
ENDBRANCH  11  14
ENDBRANCH   8  11
ENDBRANCH   3   5
BRANCH   1  17
HETATM   17  C2  UNL     1      -3.767   8.881  11.784  1.00  0.00     0.225 C 
BRANCH  17  18
HETATM   18  N1  UNL     1      -2.358   9.155  12.050  1.00  0.00    -0.376 N 
HETATM   19  C1  UNL     1      -1.402   8.308  11.404  1.00  0.00     0.150 C 
BRANCH  18  20
HETATM   20  C10 UNL     1      -1.944  10.226  12.878  1.00  0.00     0.030 A 
HETATM   21  C11 UNL     1      -1.820  11.541  12.494  1.00  0.00     0.029 A 
HETATM   22  C12 UNL     1      -1.395  12.535  13.346  1.00  0.00     0.002 A 
HETATM   23  C13 UNL     1      -1.073  12.249  14.647  1.00  0.00     0.000 A 
HETATM   24  C14 UNL     1      -1.181  10.945  15.080  1.00  0.00     0.002 A 
HETATM   25  C15 UNL     1      -1.605   9.975  14.212  1.00  0.00     0.029 A 
ENDBRANCH  18  20
ENDBRANCH  17  18
ENDBRANCH   1  17
TORSDOF 6
ENDMDL
