MODEL 3
REMARK VINA RESULT: -7.291433461      2.758      3.893
REMARK  6 active torsions:
REMARK  status: ('A' for Active; 'I' for Inactive)
REMARK    1  A    between atoms: N1_2  and  C2_3 
REMARK    2  A    between atoms: N1_2  and  C10_20 
REMARK    3  A    between atoms: C2_3  and  C3_4 
REMARK       I    between atoms: C3_4  and  N2_6 
REMARK    4  A    between atoms: N2_6  and  C4_8 
REMARK    5  A    between atoms: C7_11  and  S1_12 
REMARK    6  A    between atoms: S1_12  and  N3_13 
ROOT
HETATM    1  C3  UNL     1      -4.262   7.565  12.500  1.00  0.00     0.239 C 
HETATM    2  O1  UNL     1      -4.759   6.646  11.818  1.00  0.00    -0.271 OA
HETATM    3  N2  UNL     1      -4.148   7.430  13.896  1.00  0.00    -0.326 N 
ATOM      4  H2  UNL     1      -3.721   8.198  14.416  1.00  0.00     0.169 HD
ENDROOT
BRANCH   3   5
HETATM    5  C4  UNL     1      -4.587   6.298  14.628  1.00  0.00     0.034 A 
HETATM    6  C5  UNL     1      -3.700   5.287  14.931  1.00  0.00     0.031 A 
HETATM    7  C6  UNL     1      -4.060   4.169  15.664  1.00  0.00     0.027 A 
HETATM    8  C7  UNL     1      -5.381   4.061  16.117  1.00  0.00     0.079 A 
HETATM    9  C8  UNL     1      -6.255   5.066  15.815  1.00  0.00     0.027 A 
HETATM   10  C9  UNL     1      -5.867   6.171  15.081  1.00  0.00     0.031 A 
BRANCH   8  11
HETATM   11  S1  UNL     1      -5.908   2.657  17.035  1.00  0.00     0.256 S 
HETATM   12  O2  UNL     1      -5.331   1.432  16.371  1.00  0.00    -0.201 OA
HETATM   13  O3  UNL     1      -5.460   2.706  18.453  1.00  0.00    -0.201 OA
BRANCH  11  14
HETATM   14  N3  UNL     1      -7.638   2.553  16.998  1.00  0.00    -0.324 N 
ATOM     15  H32 UNL     1      -8.182   2.315  16.169  1.00  0.00     0.169 HD
ATOM     16  H31 UNL     1      -8.014   2.762  17.922  1.00  0.00     0.169 HD
ENDBRANCH  11  14
ENDBRANCH   8  11
ENDBRANCH   3   5
BRANCH   1  17
HETATM   17  C2  UNL     1      -3.799   8.795  11.833  1.00  0.00     0.225 C 
BRANCH  17  18
HETATM   18  N1  UNL     1      -2.388   9.048  12.106  1.00  0.00    -0.376 N 
HETATM   19  C1  UNL     1      -1.440   8.194  11.454  1.00  0.00     0.150 C 
BRANCH  18  20
HETATM   20  C10 UNL     1      -1.962  10.104  12.947  1.00  0.00     0.030 A 
HETATM   21  C11 UNL     1      -1.844  11.425  12.584  1.00  0.00     0.029 A 
HETATM   22  C12 UNL     1      -1.407  12.405  13.448  1.00  0.00     0.002 A 
HETATM   23  C13 UNL     1      -1.067  12.096  14.739  1.00  0.00     0.000 A 
HETATM   24  C14 UNL     1      -1.169  10.785  15.150  1.00  0.00     0.002 A 
HETATM   25  C15 UNL     1      -1.605   9.830  14.272  1.00  0.00     0.029 A 
ENDBRANCH  18  20
ENDBRANCH  17  18
ENDBRANCH   1  17
TORSDOF 6
ENDMDL
