MODEL 7
REMARK VINA RESULT: -7.216249947      1.099      1.584
REMARK  6 active torsions:
REMARK  status: ('A' for Active; 'I' for Inactive)
REMARK    1  A    between atoms: N1_2  and  C2_3 
REMARK    2  A    between atoms: N1_2  and  C10_20 
REMARK    3  A    between atoms: C2_3  and  C3_4 
REMARK       I    between atoms: C3_4  and  N2_6 
REMARK    4  A    between atoms: N2_6  and  C4_8 
REMARK    5  A    between atoms: C7_11  and  S1_12 
REMARK    6  A    between atoms: S1_12  and  N3_13 
ROOT
HETATM    1  C3  UNL     1      -4.109   6.975  12.011  1.00  0.00     0.239 C 
HETATM    2  O1  UNL     1      -4.562   5.932  11.497  1.00  0.00    -0.271 OA
HETATM    3  N2  UNL     1      -4.094   7.128  13.409  1.00  0.00    -0.326 N 
ATOM      4  H2  UNL     1      -3.701   7.989  13.790  1.00  0.00     0.169 HD
ENDROOT
BRANCH   3   5
HETATM    5  C4  UNL     1      -4.590   6.164  14.324  1.00  0.00     0.034 A 
HETATM    6  C5  UNL     1      -3.763   5.160  14.782  1.00  0.00     0.031 A 
HETATM    7  C6  UNL     1      -4.178   4.206  15.694  1.00  0.00     0.027 A 
HETATM    8  C7  UNL     1      -5.493   4.262  16.172  1.00  0.00     0.079 A 
HETATM    9  C8  UNL     1      -6.307   5.260  15.716  1.00  0.00     0.027 A 
HETATM   10  C9  UNL     1      -5.865   6.199  14.805  1.00  0.00     0.031 A 
BRANCH   8  11
HETATM   11  S1  UNL     1      -6.090   3.068  17.316  1.00  0.00     0.256 S 
HETATM   12  O2  UNL     1      -7.444   2.608  16.835  1.00  0.00    -0.201 OA
HETATM   13  O3  UNL     1      -5.184   1.893  17.432  1.00  0.00    -0.201 OA
BRANCH  11  14
HETATM   14  N3  UNL     1      -6.267   3.794  18.879  1.00  0.00    -0.324 N 
ATOM     15  H32 UNL     1      -5.799   4.651  19.172  1.00  0.00     0.169 HD
ATOM     16  H31 UNL     1      -6.903   3.235  19.447  1.00  0.00     0.169 HD
ENDBRANCH  11  14
ENDBRANCH   8  11
ENDBRANCH   3   5
BRANCH   1  17
HETATM   17  C2  UNL     1      -3.594   8.048  11.141  1.00  0.00     0.225 C 
BRANCH  17  18
HETATM   18  N1  UNL     1      -4.243   8.028   9.834  1.00  0.00    -0.376 N 
HETATM   19  C1  UNL     1      -3.545   7.360   8.777  1.00  0.00     0.150 C 
BRANCH  18  20
HETATM   20  C10 UNL     1      -5.515   8.609   9.616  1.00  0.00     0.030 A 
HETATM   21  C11 UNL     1      -6.268   9.275  10.554  1.00  0.00     0.029 A 
HETATM   22  C12 UNL     1      -7.509   9.806  10.282  1.00  0.00     0.002 A 
HETATM   23  C13 UNL     1      -8.059   9.691   9.033  1.00  0.00     0.000 A 
HETATM   24  C14 UNL     1      -7.342   9.032   8.057  1.00  0.00     0.002 A 
HETATM   25  C15 UNL     1      -6.110   8.514   8.353  1.00  0.00     0.029 A 
ENDBRANCH  18  20
ENDBRANCH  17  18
ENDBRANCH   1  17
TORSDOF 6
ENDMDL
