MODEL 6
REMARK VINA RESULT: -7.236789252      2.777      4.083
REMARK  6 active torsions:
REMARK  status: ('A' for Active; 'I' for Inactive)
REMARK    1  A    between atoms: N1_2  and  C2_3 
REMARK    2  A    between atoms: N1_2  and  C10_20 
REMARK    3  A    between atoms: C2_3  and  C3_4 
REMARK       I    between atoms: C3_4  and  N2_6 
REMARK    4  A    between atoms: N2_6  and  C4_8 
REMARK    5  A    between atoms: C7_11  and  S1_12 
REMARK    6  A    between atoms: S1_12  and  N3_13 
ROOT
HETATM    1  C3  UNL     1      -4.170   7.575  12.528  1.00  0.00     0.239 C 
HETATM    2  O1  UNL     1      -4.681   6.667  11.841  1.00  0.00    -0.271 OA
HETATM    3  N2  UNL     1      -4.026   7.416  13.918  1.00  0.00    -0.326 N 
ATOM      4  H2  UNL     1      -3.589   8.175  14.442  1.00  0.00     0.169 HD
ENDROOT
BRANCH   3   5
HETATM    5  C4  UNL     1      -4.450   6.271  14.640  1.00  0.00     0.034 A 
HETATM    6  C5  UNL     1      -5.757   6.170  15.066  1.00  0.00     0.031 A 
HETATM    7  C6  UNL     1      -6.238   5.068  15.751  1.00  0.00     0.027 A 
HETATM    8  C7  UNL     1      -5.360   4.011  16.022  1.00  0.00     0.079 A 
HETATM    9  C8  UNL     1      -4.067   4.116  15.596  1.00  0.00     0.027 A 
HETATM   10  C9  UNL     1      -3.615   5.229  14.914  1.00  0.00     0.031 A 
BRANCH   8  11
HETATM   11  S1  UNL     1      -5.902   2.592  16.907  1.00  0.00     0.256 S 
HETATM   12  O2  UNL     1      -5.438   1.373  16.149  1.00  0.00    -0.201 OA
HETATM   13  O3  UNL     1      -5.360   2.546  18.292  1.00  0.00    -0.201 OA
BRANCH  11  14
HETATM   14  N3  UNL     1      -7.633   2.578  16.984  1.00  0.00    -0.324 N 
ATOM     15  H32 UNL     1      -8.183   3.100  17.666  1.00  0.00     0.169 HD
ATOM     16  H31 UNL     1      -8.005   1.974  16.251  1.00  0.00     0.169 HD
ENDBRANCH  11  14
ENDBRANCH   8  11
ENDBRANCH   3   5
BRANCH   1  17
HETATM   17  C2  UNL     1      -3.721   8.817  11.872  1.00  0.00     0.225 C 
BRANCH  17  18
HETATM   18  N1  UNL     1      -2.306   9.067  12.122  1.00  0.00    -0.376 N 
HETATM   19  C1  UNL     1      -1.369   8.267  11.393  1.00  0.00     0.150 C 
BRANCH  18  20
HETATM   20  C10 UNL     1      -1.867  10.074  13.016  1.00  0.00     0.030 A 
HETATM   21  C11 UNL     1      -1.468   9.877  14.318  1.00  0.00     0.029 A 
HETATM   22  C12 UNL     1      -1.065  10.903  15.142  1.00  0.00     0.002 A 
HETATM   23  C13 UNL     1      -1.042  12.196  14.688  1.00  0.00     0.000 A 
HETATM   24  C14 UNL     1      -1.432  12.444  13.390  1.00  0.00     0.002 A 
HETATM   25  C15 UNL     1      -1.829  11.406  12.591  1.00  0.00     0.029 A 
ENDBRANCH  18  20
ENDBRANCH  17  18
ENDBRANCH   1  17
TORSDOF 6
ENDMDL
