MODEL 8
REMARK VINA RESULT: -7.183228291      1.077      1.500
REMARK  6 active torsions:
REMARK  status: ('A' for Active; 'I' for Inactive)
REMARK    1  A    between atoms: N1_2  and  C2_3 
REMARK    2  A    between atoms: N1_2  and  C10_20 
REMARK    3  A    between atoms: C2_3  and  C3_4 
REMARK       I    between atoms: C3_4  and  N2_6 
REMARK    4  A    between atoms: N2_6  and  C4_8 
REMARK    5  A    between atoms: C7_11  and  S1_12 
REMARK    6  A    between atoms: S1_12  and  N3_13 
ROOT
HETATM    1  C3  UNL     1      -4.041   6.929  12.064  1.00  0.00     0.239 C 
HETATM    2  O1  UNL     1      -4.434   5.856  11.564  1.00  0.00    -0.271 OA
HETATM    3  N2  UNL     1      -4.053   7.107  13.460  1.00  0.00    -0.326 N 
ATOM      4  H2  UNL     1      -3.708   7.994  13.830  1.00  0.00     0.169 HD
ENDROOT
BRANCH   3   5
HETATM    5  C4  UNL     1      -4.512   6.136  14.386  1.00  0.00     0.034 A 
HETATM    6  C5  UNL     1      -5.826   6.148  14.802  1.00  0.00     0.031 A 
HETATM    7  C6  UNL     1      -6.342   5.213  15.682  1.00  0.00     0.027 A 
HETATM    8  C7  UNL     1      -5.493   4.212  16.170  1.00  0.00     0.079 A 
HETATM    9  C8  UNL     1      -4.192   4.204  15.753  1.00  0.00     0.027 A 
HETATM   10  C9  UNL     1      -3.705   5.151  14.873  1.00  0.00     0.031 A 
BRANCH   8  11
HETATM   11  S1  UNL     1      -6.079   3.006  17.308  1.00  0.00     0.256 S 
HETATM   12  O2  UNL     1      -7.460   2.591  16.865  1.00  0.00    -0.201 OA
HETATM   13  O3  UNL     1      -5.200   1.807  17.366  1.00  0.00    -0.201 OA
BRANCH  11  14
HETATM   14  N3  UNL     1      -6.183   3.701  18.892  1.00  0.00    -0.324 N 
ATOM     15  H32 UNL     1      -6.508   4.648  19.085  1.00  0.00     0.169 HD
ATOM     16  H31 UNL     1      -5.874   3.021  19.586  1.00  0.00     0.169 HD
ENDBRANCH  11  14
ENDBRANCH   8  11
ENDBRANCH   3   5
BRANCH   1  17
HETATM   17  C2  UNL     1      -3.569   8.011  11.182  1.00  0.00     0.225 C 
BRANCH  17  18
HETATM   18  N1  UNL     1      -4.207   7.944   9.871  1.00  0.00    -0.376 N 
HETATM   19  C1  UNL     1      -3.505   7.232   8.846  1.00  0.00     0.150 C 
BRANCH  18  20
HETATM   20  C10 UNL     1      -5.475   8.522   9.621  1.00  0.00     0.030 A 
HETATM   21  C11 UNL     1      -6.127   8.539   8.411  1.00  0.00     0.029 A 
HETATM   22  C12 UNL     1      -7.356   9.133   8.229  1.00  0.00     0.002 A 
HETATM   23  C13 UNL     1      -7.997   9.745   9.274  1.00  0.00     0.000 A 
HETATM   24  C14 UNL     1      -7.383   9.754  10.508  1.00  0.00     0.002 A 
HETATM   25  C15 UNL     1      -6.162   9.156  10.662  1.00  0.00     0.029 A 
ENDBRANCH  18  20
ENDBRANCH  17  18
ENDBRANCH   1  17
TORSDOF 6
ENDMDL
