MODEL 10
REMARK VINA RESULT: -7.001871092      2.021      2.631
REMARK  6 active torsions:
REMARK  status: ('A' for Active; 'I' for Inactive)
REMARK    1  A    between atoms: N1_2  and  C2_3 
REMARK    2  A    between atoms: N1_2  and  C10_20 
REMARK    3  A    between atoms: C2_3  and  C3_4 
REMARK       I    between atoms: C3_4  and  N2_6 
REMARK    4  A    between atoms: N2_6  and  C4_8 
REMARK    5  A    between atoms: C7_11  and  S1_12 
REMARK    6  A    between atoms: S1_12  and  N3_13 
ROOT
HETATM    1  C3  UNL     1      -4.985   8.300  11.440  1.00  0.00     0.239 C 
HETATM    2  O1  UNL     1      -6.142   8.135  11.877  1.00  0.00    -0.271 OA
HETATM    3  N2  UNL     1      -3.958   7.405  11.796  1.00  0.00    -0.326 N 
ATOM      4  H2  UNL     1      -3.030   7.565  11.404  1.00  0.00     0.169 HD
ENDROOT
BRANCH   3   5
HETATM    5  C4  UNL     1      -4.130   6.295  12.662  1.00  0.00     0.034 A 
HETATM    6  C5  UNL     1      -4.214   5.021  12.142  1.00  0.00     0.031 A 
HETATM    7  C6  UNL     1      -4.355   3.896  12.935  1.00  0.00     0.027 A 
HETATM    8  C7  UNL     1      -4.416   4.058  14.324  1.00  0.00     0.079 A 
HETATM    9  C8  UNL     1      -4.331   5.323  14.835  1.00  0.00     0.027 A 
HETATM   10  C9  UNL     1      -4.190   6.428  14.017  1.00  0.00     0.031 A 
BRANCH   8  11
HETATM   11  S1  UNL     1      -4.616   2.672  15.388  1.00  0.00     0.256 S 
HETATM   12  O2  UNL     1      -4.725   1.442  14.522  1.00  0.00    -0.201 OA
HETATM   13  O3  UNL     1      -3.476   2.512  16.330  1.00  0.00    -0.201 OA
BRANCH  11  14
HETATM   14  N3  UNL     1      -6.077   2.845  16.303  1.00  0.00    -0.324 N 
ATOM     15  H32 UNL     1      -6.831   3.490  16.067  1.00  0.00     0.169 HD
ATOM     16  H31 UNL     1      -6.060   2.210  17.100  1.00  0.00     0.169 HD
ENDBRANCH  11  14
ENDBRANCH   8  11
ENDBRANCH   3   5
BRANCH   1  17
HETATM   17  C2  UNL     1      -4.699   9.441  10.552  1.00  0.00     0.225 C 
BRANCH  17  18
HETATM   18  N1  UNL     1      -5.199   9.200   9.202  1.00  0.00    -0.376 N 
HETATM   19  C1  UNL     1      -4.400   8.364   8.357  1.00  0.00     0.150 C 
BRANCH  18  20
HETATM   20  C10 UNL     1      -6.429   9.734   8.749  1.00  0.00     0.030 A 
HETATM   21  C11 UNL     1      -7.612   9.042   8.627  1.00  0.00     0.029 A 
HETATM   22  C12 UNL     1      -8.774   9.616   8.164  1.00  0.00     0.002 A 
HETATM   23  C13 UNL     1      -8.802  10.936   7.798  1.00  0.00     0.000 A 
HETATM   24  C14 UNL     1      -7.642  11.673   7.902  1.00  0.00     0.002 A 
HETATM   25  C15 UNL     1      -6.500  11.077   8.366  1.00  0.00     0.029 A 
ENDBRANCH  18  20
ENDBRANCH  17  18
ENDBRANCH   1  17
TORSDOF 6
ENDMDL
