MODEL 2
REMARK VINA RESULT: -7.378130229      1.244      1.244
REMARK  6 active torsions:
REMARK  status: ('A' for Active; 'I' for Inactive)
REMARK    1  A    between atoms: C2_7  and  S1_8 
REMARK    2  A    between atoms: S1_8  and  C3_9 
REMARK    3  A    between atoms: C3_9  and  C4_10 
REMARK       I    between atoms: C4_10  and  N4_12 
REMARK    4  A    between atoms: N4_12  and  C5_14 
REMARK    5  A    between atoms: C8_17  and  S2_18 
REMARK    6  A    between atoms: S2_18  and  N5_19 
ROOT
HETATM    1  C4  UNL     1      -4.261   7.711  12.669  1.00  0.00     0.231 C 
HETATM    2  O1  UNL     1      -4.933   6.975  11.923  1.00  0.00    -0.272 OA
HETATM    3  N4  UNL     1      -4.102   7.439  14.044  1.00  0.00    -0.327 N 
ATOM      4  H4  UNL     1      -3.532   8.094  14.579  1.00  0.00     0.169 HD
ENDROOT
BRANCH   3   5
HETATM    5  C5  UNL     1      -4.653   6.350  14.751  1.00  0.00     0.034 A 
HETATM    6  C6  UNL     1      -3.796   5.292  15.106  1.00  0.00     0.031 A 
HETATM    7  C7  UNL     1      -4.245   4.211  15.794  1.00  0.00     0.027 A 
HETATM    8  C8  UNL     1      -5.568   4.141  16.156  1.00  0.00     0.079 A 
HETATM    9  C9  UNL     1      -6.443   5.143  15.836  1.00  0.00     0.027 A 
HETATM   10  C10 UNL     1      -5.961   6.253  15.123  1.00  0.00     0.031 A 
BRANCH   8  11
HETATM   11  S2  UNL     1      -6.113   2.739  17.040  1.00  0.00     0.256 S 
HETATM   12  O2  UNL     1      -5.559   1.505  16.387  1.00  0.00    -0.201 OA
HETATM   13  O3  UNL     1      -5.683   2.827  18.471  1.00  0.00    -0.201 OA
BRANCH  11  14
HETATM   14  N5  UNL     1      -7.851   2.681  17.033  1.00  0.00    -0.324 N 
ATOM     15  H52 UNL     1      -8.430   2.862  16.212  1.00  0.00     0.169 HD
ATOM     16  H51 UNL     1      -8.191   2.441  17.963  1.00  0.00     0.169 HD
ENDBRANCH  11  14
ENDBRANCH   8  11
ENDBRANCH   3   5
BRANCH   1  17
HETATM   17  C3  UNL     1      -3.634   8.902  12.012  1.00  0.00     0.184 C 
BRANCH  17  18
HETATM   18  S1  UNL     1      -1.817   8.739  12.037  1.00  0.00    -0.094 SA
BRANCH  18  19
HETATM   19  C2  UNL     1      -1.453   6.994  11.801  1.00  0.00     0.130 A 
HETATM   20  N3  UNL     1      -0.921   6.108  12.637  1.00  0.00    -0.286 N 
HETATM   21  N2  UNL     1      -0.751   4.916  12.259  1.00  0.00    -0.281 N 
ATOM     22  H3  UNL     1      -0.653   6.389  13.580  1.00  0.00     0.188 HD
HETATM   23  C1  UNL     1      -1.099   4.550  11.032  1.00  0.00     0.175 A 
ATOM     24  H2  UNL     1      -0.345   4.233  12.898  1.00  0.00     0.188 HD
HETATM   25  N1  UNL     1      -1.010   3.278  10.373  1.00  0.00    -0.073 NA
HETATM   26  S3  UNL     1      -1.703   6.022  10.412  1.00  0.00    -0.030 SA
ENDBRANCH  18  19
ENDBRANCH  17  18
ENDBRANCH   1  17
TORSDOF 6
ENDMDL
