MODEL 1
REMARK VINA RESULT: -7.401619017      0.000      0.000
REMARK  6 active torsions:
REMARK  status: ('A' for Active; 'I' for Inactive)
REMARK    1  A    between atoms: C2_7  and  S1_8 
REMARK    2  A    between atoms: S1_8  and  C3_9 
REMARK    3  A    between atoms: C3_9  and  C4_10 
REMARK       I    between atoms: C4_10  and  N4_12 
REMARK    4  A    between atoms: N4_12  and  C5_14 
REMARK    5  A    between atoms: C8_17  and  S2_18 
REMARK    6  A    between atoms: S2_18  and  N5_19 
ROOT
HETATM    1  C4  UNL     1      -3.571   8.024  13.549  1.00  0.00     0.231 C 
HETATM    2  O1  UNL     1      -3.221   8.359  14.696  1.00  0.00    -0.272 OA
HETATM    3  N4  UNL     1      -4.402   6.909  13.315  1.00  0.00    -0.327 N 
ATOM      4  H4  UNL     1      -4.641   6.710  12.344  1.00  0.00     0.169 HD
ENDROOT
BRANCH   3   5
HETATM    5  C5  UNL     1      -4.935   6.042  14.293  1.00  0.00     0.034 A 
HETATM    6  C6  UNL     1      -4.159   4.938  14.690  1.00  0.00     0.031 A 
HETATM    7  C7  UNL     1      -4.596   4.061  15.631  1.00  0.00     0.027 A 
HETATM    8  C8  UNL     1      -5.825   4.250  16.213  1.00  0.00     0.079 A 
HETATM    9  C9  UNL     1      -6.619   5.308  15.863  1.00  0.00     0.027 A 
HETATM   10  C10 UNL     1      -6.151   6.205  14.888  1.00  0.00     0.031 A 
BRANCH   8  11
HETATM   11  S2  UNL     1      -6.357   3.106  17.418  1.00  0.00     0.256 S 
HETATM   12  O2  UNL     1      -7.693   2.555  17.010  1.00  0.00    -0.201 OA
HETATM   13  O3  UNL     1      -5.349   2.010  17.574  1.00  0.00    -0.201 OA
BRANCH  11  14
HETATM   14  N5  UNL     1      -6.491   3.899  18.960  1.00  0.00    -0.324 N 
ATOM     15  H52 UNL     1      -5.892   3.704  19.762  1.00  0.00     0.169 HD
ATOM     16  H51 UNL     1      -7.252   4.576  18.933  1.00  0.00     0.169 HD
ENDBRANCH  11  14
ENDBRANCH   8  11
ENDBRANCH   3   5
BRANCH   1  17
HETATM   17  C3  UNL     1      -3.052   8.882  12.436  1.00  0.00     0.184 C 
BRANCH  17  18
HETATM   18  S1  UNL     1      -1.282   8.537  12.161  1.00  0.00    -0.094 SA
BRANCH  18  19
HETATM   19  C2  UNL     1      -1.140   6.766  11.882  1.00  0.00     0.130 A 
HETATM   20  N3  UNL     1      -0.723   5.800  12.696  1.00  0.00    -0.286 N 
HETATM   21  N2  UNL     1      -0.704   4.605  12.289  1.00  0.00    -0.281 N 
ATOM     22  H3  UNL     1      -0.419   6.023  13.643  1.00  0.00     0.188 HD
HETATM   23  C1  UNL     1      -1.097   4.315  11.056  1.00  0.00     0.175 A 
ATOM     24  H2  UNL     1      -0.386   3.862  12.911  1.00  0.00     0.188 HD
HETATM   25  N1  UNL     1      -1.169   3.058  10.367  1.00  0.00    -0.073 NA
HETATM   26  S3  UNL     1      -1.513   5.866  10.473  1.00  0.00    -0.030 SA
ENDBRANCH  18  19
ENDBRANCH  17  18
ENDBRANCH   1  17
TORSDOF 6
ENDMDL
