MODEL 3
REMARK VINA RESULT: -7.314919568      0.427      1.121
REMARK  6 active torsions:
REMARK  status: ('A' for Active; 'I' for Inactive)
REMARK    1  A    between atoms: C2_7  and  S1_8 
REMARK    2  A    between atoms: S1_8  and  C3_9 
REMARK    3  A    between atoms: C3_9  and  C4_10 
REMARK       I    between atoms: C4_10  and  N4_12 
REMARK    4  A    between atoms: N4_12  and  C5_14 
REMARK    5  A    between atoms: C8_17  and  S2_18 
REMARK    6  A    between atoms: S2_18  and  N5_19 
ROOT
HETATM    1  C4  UNL     1      -3.726   8.039  13.331  1.00  0.00     0.231 C 
HETATM    2  O1  UNL     1      -3.140   8.280  14.403  1.00  0.00    -0.272 OA
HETATM    3  N4  UNL     1      -4.611   6.950  13.188  1.00  0.00    -0.327 N 
ATOM      4  H4  UNL     1      -5.049   6.830  12.276  1.00  0.00     0.169 HD
ENDROOT
BRANCH   3   5
HETATM    5  C5  UNL     1      -4.949   6.010  14.185  1.00  0.00     0.034 A 
HETATM    6  C6  UNL     1      -6.150   6.204  14.894  1.00  0.00     0.031 A 
HETATM    7  C7  UNL     1      -6.552   5.341  15.863  1.00  0.00     0.027 A 
HETATM    8  C8  UNL     1      -5.773   4.251  16.165  1.00  0.00     0.079 A 
HETATM    9  C9  UNL     1      -4.596   4.017  15.505  1.00  0.00     0.027 A 
HETATM   10  C10 UNL     1      -4.196   4.920  14.506  1.00  0.00     0.031 A 
BRANCH   8  11
HETATM   11  S2  UNL     1      -6.317   3.162  17.414  1.00  0.00     0.256 S 
HETATM   12  O2  UNL     1      -7.659   2.608  17.027  1.00  0.00    -0.201 OA
HETATM   13  O3  UNL     1      -5.321   2.063  17.616  1.00  0.00    -0.201 OA
BRANCH  11  14
HETATM   14  N5  UNL     1      -6.446   4.018  18.922  1.00  0.00    -0.324 N 
ATOM     15  H52 UNL     1      -6.349   5.029  19.021  1.00  0.00     0.169 HD
ATOM     16  H51 UNL     1      -6.629   3.358  19.677  1.00  0.00     0.169 HD
ENDBRANCH  11  14
ENDBRANCH   8  11
ENDBRANCH   3   5
BRANCH   1  17
HETATM   17  C3  UNL     1      -3.431   8.981  12.205  1.00  0.00     0.184 C 
BRANCH  17  18
HETATM   18  S1  UNL     1      -1.788   8.611  11.501  1.00  0.00    -0.094 SA
BRANCH  18  19
HETATM   19  C2  UNL     1      -1.537   6.839  11.684  1.00  0.00     0.130 A 
HETATM   20  N3  UNL     1      -0.821   6.162  12.577  1.00  0.00    -0.286 N 
HETATM   21  N2  UNL     1      -0.784   4.902  12.521  1.00  0.00    -0.281 N 
ATOM     22  H3  UNL     1      -0.305   6.658  13.303  1.00  0.00     0.188 HD
HETATM   23  C1  UNL     1      -1.454   4.256  11.576  1.00  0.00     0.175 A 
ATOM     24  H2  UNL     1      -0.236   4.379  13.204  1.00  0.00     0.188 HD
HETATM   25  N1  UNL     1      -1.571   2.852  11.303  1.00  0.00    -0.073 NA
HETATM   26  S3  UNL     1      -2.171   5.560  10.736  1.00  0.00    -0.030 SA
ENDBRANCH  18  19
ENDBRANCH  17  18
ENDBRANCH   1  17
TORSDOF 6
ENDMDL
