MODEL 3
REMARK VINA RESULT: -8.333328310      5.687      7.272
REMARK  6 active torsions:
REMARK  status: ('A' for Active; 'I' for Inactive)
REMARK    1  A    between atoms: N1_1  and  S1_4 
REMARK    2  A    between atoms: S1_4  and  C1_7 
REMARK    3  A    between atoms: C4_10  and  C5_11 
REMARK    4  A    between atoms: C5_11  and  C6_12 
REMARK    5  A    between atoms: C6_12  and  N2_13 
REMARK       I    between atoms: N2_13  and  C7_15 
REMARK       I    between atoms: C7_15  and  N3_17 
REMARK    6  A    between atoms: N3_17  and  C8_19 
ROOT
HETATM    1  C6  UNL     1      -5.415   7.871  13.034  1.00  0.00     0.129 C 
ENDROOT
BRANCH   1   2
HETATM    2  C5  UNL     1      -4.198   7.234  13.626  1.00  0.00     0.058 C 
BRANCH   2   3
HETATM    3  C4  UNL     1      -4.669   6.183  14.563  1.00  0.00    -0.057 A 
HETATM    4  C3  UNL     1      -5.997   6.188  14.926  1.00  0.00     0.009 A 
HETATM    5  C2  UNL     1      -6.446   5.213  15.800  1.00  0.00     0.026 A 
HETATM    6  C1  UNL     1      -5.607   4.258  16.301  1.00  0.00     0.079 A 
HETATM    7  C15 UNL     1      -4.284   4.271  15.925  1.00  0.00     0.026 A 
HETATM    8  C14 UNL     1      -3.794   5.240  15.046  1.00  0.00     0.009 A 
BRANCH   6   9
HETATM    9  S1  UNL     1      -6.233   3.050  17.401  1.00  0.00     0.256 S 
HETATM   10  O1  UNL     1      -5.333   1.852  17.474  1.00  0.00    -0.201 OA
HETATM   11  O2  UNL     1      -7.588   2.586  16.982  1.00  0.00    -0.201 OA
BRANCH   9  12
HETATM   12  N1  UNL     1      -6.352   3.728  18.975  1.00  0.00    -0.324 N 
ATOM     13  H12 UNL     1      -7.203   3.760  19.537  1.00  0.00     0.169 HD
ATOM     14  H11 UNL     1      -5.433   4.084  19.239  1.00  0.00     0.169 HD
ENDBRANCH   9  12
ENDBRANCH   6   9
ENDBRANCH   2   3
ENDBRANCH   1   2
BRANCH   1  15
HETATM   15  N2  UNL     1      -5.270   8.311  11.672  1.00  0.00    -0.343 N 
HETATM   16  C7  UNL     1      -6.380   8.928  11.017  1.00  0.00     0.320 C 
HETATM   17  O3  UNL     1      -7.424   9.049  11.664  1.00  0.00    -0.247 OA
HETATM   18  N3  UNL     1      -6.304   9.386   9.683  1.00  0.00    -0.309 N 
ATOM     19  H3  UNL     1      -5.412   9.256   9.204  1.00  0.00     0.170 HD
ATOM     20  H2  UNL     1      -4.386   8.185  11.180  1.00  0.00     0.164 HD
BRANCH  18  21
HETATM   21  C8  UNL     1      -7.331  10.004   8.947  1.00  0.00     0.036 A 
HETATM   22  C9  UNL     1      -7.217  11.345   8.649  1.00  0.00     0.031 A 
HETATM   23  C10 UNL     1      -8.166  12.045   7.934  1.00  0.00     0.026 A 
HETATM   24  C11 UNL     1      -9.277  11.403   7.491  1.00  0.00     0.034 A 
HETATM   25 CL1  UNL     1     -10.480  12.312   6.578  1.00  0.00    -0.084 Cl
HETATM   26  C12 UNL     1      -9.429  10.069   7.766  1.00  0.00     0.026 A 
HETATM   27  C13 UNL     1      -8.453   9.369   8.495  1.00  0.00     0.031 A 
ENDBRANCH  18  21
ENDBRANCH   1  15
TORSDOF 6
ENDMDL
