MODEL 5
REMARK VINA RESULT: -8.022490074      5.806      8.392
REMARK  6 active torsions:
REMARK  status: ('A' for Active; 'I' for Inactive)
REMARK    1  A    between atoms: N1_1  and  S1_4 
REMARK    2  A    between atoms: S1_4  and  C1_7 
REMARK    3  A    between atoms: C4_10  and  C5_11 
REMARK    4  A    between atoms: C5_11  and  C6_12 
REMARK    5  A    between atoms: C6_12  and  N2_13 
REMARK       I    between atoms: N2_13  and  C7_15 
REMARK       I    between atoms: C7_15  and  N3_17 
REMARK    6  A    between atoms: N3_17  and  C8_19 
ROOT
HETATM    1  C6  UNL     1      -2.598   7.864  14.238  1.00  0.00     0.129 C 
ENDROOT
BRANCH   1   2
HETATM    2  C5  UNL     1      -4.075   7.807  14.011  1.00  0.00     0.058 C 
BRANCH   2   3
HETATM    3  C4  UNL     1      -4.577   6.598  14.711  1.00  0.00    -0.057 A 
HETATM    4  C3  UNL     1      -3.674   5.603  15.011  1.00  0.00     0.009 A 
HETATM    5  C2  UNL     1      -4.132   4.471  15.663  1.00  0.00     0.026 A 
HETATM    6  C1  UNL     1      -5.446   4.326  16.010  1.00  0.00     0.079 A 
HETATM    7  C15 UNL     1      -6.331   5.332  15.701  1.00  0.00     0.026 A 
HETATM    8  C14 UNL     1      -5.906   6.489  15.042  1.00  0.00     0.009 A 
BRANCH   6   9
HETATM    9  S1  UNL     1      -5.965   2.872  16.834  1.00  0.00     0.256 S 
HETATM   10  O1  UNL     1      -5.483   2.844  18.255  1.00  0.00    -0.201 OA
HETATM   11  O2  UNL     1      -5.454   1.649  16.149  1.00  0.00    -0.201 OA
BRANCH   9  12
HETATM   12  N1  UNL     1      -7.681   2.814  16.849  1.00  0.00    -0.324 N 
ATOM     13  H12 UNL     1      -8.238   1.969  16.975  1.00  0.00     0.169 HD
ATOM     14  H11 UNL     1      -8.033   3.761  16.711  1.00  0.00     0.169 HD
ENDBRANCH   9  12
ENDBRANCH   6   9
ENDBRANCH   2   3
ENDBRANCH   1   2
BRANCH   1  15
HETATM   15  N2  UNL     1      -1.920   8.942  13.568  1.00  0.00    -0.343 N 
HETATM   16  C7  UNL     1      -1.539  10.098  14.317  1.00  0.00     0.320 C 
HETATM   17  O3  UNL     1      -1.820  10.113  15.519  1.00  0.00    -0.247 OA
HETATM   18  N3  UNL     1      -0.868  11.190  13.722  1.00  0.00    -0.309 N 
ATOM     19  H3  UNL     1      -0.665  11.114  12.725  1.00  0.00     0.170 HD
ATOM     20  H2  UNL     1      -1.713   8.882  12.572  1.00  0.00     0.164 HD
BRANCH  18  21
HETATM   21  C8  UNL     1      -0.451  12.370  14.363  1.00  0.00     0.036 A 
HETATM   22  C9  UNL     1       0.591  12.301  15.263  1.00  0.00     0.031 A 
HETATM   23  C10 UNL     1       1.077  13.397  15.945  1.00  0.00     0.026 A 
HETATM   24  C11 UNL     1       0.517  14.615  15.736  1.00  0.00     0.034 A 
HETATM   25 CL1  UNL     1       1.149  16.007  16.615  1.00  0.00    -0.084 Cl
HETATM   26  C12 UNL     1      -0.521  14.728  14.848  1.00  0.00     0.026 A 
HETATM   27  C13 UNL     1      -1.005  13.602  14.161  1.00  0.00     0.031 A 
ENDBRANCH  18  21
ENDBRANCH   1  15
TORSDOF 6
ENDMDL
