MODEL 15
REMARK VINA RESULT: -7.591364124      5.413      7.939
REMARK  6 active torsions:
REMARK  status: ('A' for Active; 'I' for Inactive)
REMARK    1  A    between atoms: N1_1  and  S1_4 
REMARK    2  A    between atoms: S1_4  and  C1_7 
REMARK    3  A    between atoms: C4_10  and  C5_11 
REMARK    4  A    between atoms: C5_11  and  C6_12 
REMARK    5  A    between atoms: C6_12  and  N2_13 
REMARK       I    between atoms: N2_13  and  C7_15 
REMARK       I    between atoms: C7_15  and  N3_17 
REMARK    6  A    between atoms: N3_17  and  C8_19 
ROOT
HETATM    1  C6  UNL     1      -3.151   7.405  13.493  1.00  0.00     0.129 C 
ENDROOT
BRANCH   1   2
HETATM    2  C5  UNL     1      -4.593   7.105  13.232  1.00  0.00     0.058 C 
BRANCH   2   3
HETATM    3  C4  UNL     1      -5.030   6.134  14.267  1.00  0.00    -0.057 A 
HETATM    4  C3  UNL     1      -4.225   5.046  14.514  1.00  0.00     0.009 A 
HETATM    5  C2  UNL     1      -4.624   4.135  15.477  1.00  0.00     0.026 A 
HETATM    6  C1  UNL     1      -5.786   4.294  16.177  1.00  0.00     0.079 A 
HETATM    7  C15 UNL     1      -6.576   5.389  15.914  1.00  0.00     0.026 A 
HETATM    8  C14 UNL     1      -6.207   6.330  14.949  1.00  0.00     0.009 A 
BRANCH   6   9
HETATM    9  S1  UNL     1      -6.237   3.109  17.383  1.00  0.00     0.256 S 
HETATM   10  O1  UNL     1      -5.218   2.011  17.483  1.00  0.00    -0.201 OA
HETATM   11  O2  UNL     1      -7.556   2.488  17.065  1.00  0.00    -0.201 OA
BRANCH   9  12
HETATM   12  N1  UNL     1      -6.350   3.877  18.915  1.00  0.00    -0.324 N 
ATOM     13  H12 UNL     1      -5.802   3.628  19.738  1.00  0.00     0.169 HD
ATOM     14  H11 UNL     1      -7.052   4.614  18.850  1.00  0.00     0.169 HD
ENDBRANCH   9  12
ENDBRANCH   6   9
ENDBRANCH   2   3
ENDBRANCH   1   2
BRANCH   1  15
HETATM   15  N2  UNL     1      -2.909   8.435  14.467  1.00  0.00    -0.343 N 
HETATM   16  C7  UNL     1      -2.139   9.580  14.094  1.00  0.00     0.320 C 
HETATM   17  O3  UNL     1      -1.712   9.624  12.938  1.00  0.00    -0.247 OA
HETATM   18  N3  UNL     1      -1.868  10.629  15.001  1.00  0.00    -0.309 N 
ATOM     19  H3  UNL     1      -2.251  10.531  15.942  1.00  0.00     0.170 HD
ATOM     20  H2  UNL     1      -3.282   8.350  15.412  1.00  0.00     0.164 HD
BRANCH  18  21
HETATM   21  C8  UNL     1      -1.125  11.794  14.739  1.00  0.00     0.036 A 
HETATM   22  C9  UNL     1      -1.723  12.815  14.033  1.00  0.00     0.031 A 
HETATM   23  C10 UNL     1      -1.084  13.998  13.723  1.00  0.00     0.026 A 
HETATM   24  C11 UNL     1       0.198  14.188  14.124  1.00  0.00     0.034 A 
HETATM   25 CL1  UNL     1       1.001  15.705  13.721  1.00  0.00    -0.084 Cl
HETATM   26  C12 UNL     1       0.830  13.197  14.830  1.00  0.00     0.026 A 
HETATM   27  C13 UNL     1       0.166  11.998  15.138  1.00  0.00     0.031 A 
ENDBRANCH  18  21
ENDBRANCH   1  15
TORSDOF 6
ENDMDL
