MODEL 1
REMARK VINA RESULT: -8.608329177      0.000      0.000
REMARK  6 active torsions:
REMARK  status: ('A' for Active; 'I' for Inactive)
REMARK    1  A    between atoms: N1_1  and  S1_4 
REMARK    2  A    between atoms: S1_4  and  C1_7 
REMARK    3  A    between atoms: C4_10  and  C5_11 
REMARK    4  A    between atoms: C5_11  and  C6_12 
REMARK    5  A    between atoms: C6_12  and  N2_13 
REMARK       I    between atoms: N2_13  and  C7_15 
REMARK       I    between atoms: C7_15  and  N3_17 
REMARK    6  A    between atoms: N3_17  and  C8_19 
ROOT
HETATM    1  C6  UNL     1      -3.253   7.331  12.735  1.00  0.00     0.129 C 
ENDROOT
BRANCH   1   2
HETATM    2  C5  UNL     1      -4.012   7.819  13.928  1.00  0.00     0.058 C 
BRANCH   2   3
HETATM    3  C4  UNL     1      -4.536   6.621  14.631  1.00  0.00    -0.057 A 
HETATM    4  C3  UNL     1      -3.629   5.761  15.208  1.00  0.00     0.009 A 
HETATM    5  C2  UNL     1      -4.107   4.641  15.865  1.00  0.00     0.026 A 
HETATM    6  C1  UNL     1      -5.445   4.377  15.951  1.00  0.00     0.079 A 
HETATM    7  C15 UNL     1      -6.334   5.249  15.368  1.00  0.00     0.026 A 
HETATM    8  C14 UNL     1      -5.889   6.390  14.695  1.00  0.00     0.009 A 
BRANCH   6   9
HETATM    9  S1  UNL     1      -5.989   2.945  16.797  1.00  0.00     0.256 S 
HETATM   10  O1  UNL     1      -5.508   2.928  18.218  1.00  0.00    -0.201 OA
HETATM   11  O2  UNL     1      -5.501   1.703  16.129  1.00  0.00    -0.201 OA
BRANCH   9  12
HETATM   12  N1  UNL     1      -7.707   2.917  16.812  1.00  0.00    -0.324 N 
ATOM     13  H12 UNL     1      -8.278   2.135  17.133  1.00  0.00     0.169 HD
ATOM     14  H11 UNL     1      -8.043   3.808  16.448  1.00  0.00     0.169 HD
ENDBRANCH   9  12
ENDBRANCH   6   9
ENDBRANCH   2   3
ENDBRANCH   1   2
BRANCH   1  15
HETATM   15  N2  UNL     1      -3.926   6.329  11.953  1.00  0.00    -0.343 N 
HETATM   16  C7  UNL     1      -3.454   4.980  11.993  1.00  0.00     0.320 C 
HETATM   17  O3  UNL     1      -2.476   4.743  12.706  1.00  0.00    -0.247 OA
HETATM   18  N3  UNL     1      -4.072   3.948  11.252  1.00  0.00    -0.309 N 
ATOM     19  H3  UNL     1      -4.877   4.211  10.683  1.00  0.00     0.170 HD
ATOM     20  H2  UNL     1      -4.730   6.577  11.377  1.00  0.00     0.164 HD
BRANCH  18  21
HETATM   21  C8  UNL     1      -3.690   2.594  11.219  1.00  0.00     0.036 A 
HETATM   22  C9  UNL     1      -4.549   1.653  11.745  1.00  0.00     0.031 A 
HETATM   23  C10 UNL     1      -4.272   0.302  11.762  1.00  0.00     0.026 A 
HETATM   24  C11 UNL     1      -3.101  -0.147  11.241  1.00  0.00     0.034 A 
HETATM   25 CL1  UNL     1      -2.762  -1.877  11.271  1.00  0.00    -0.084 Cl
HETATM   26  C12 UNL     1      -2.220   0.757  10.708  1.00  0.00     0.026 A 
HETATM   27  C13 UNL     1      -2.516   2.130  10.697  1.00  0.00     0.031 A 
ENDBRANCH  18  21
ENDBRANCH   1  15
TORSDOF 6
ENDMDL
