MODEL 2
REMARK VINA RESULT: -8.390491496      5.679      7.127
REMARK  6 active torsions:
REMARK  status: ('A' for Active; 'I' for Inactive)
REMARK    1  A    between atoms: N1_1  and  S1_4 
REMARK    2  A    between atoms: S1_4  and  C1_7 
REMARK    3  A    between atoms: C4_10  and  C5_11 
REMARK    4  A    between atoms: C5_11  and  C6_12 
REMARK    5  A    between atoms: C6_12  and  N2_13 
REMARK       I    between atoms: N2_13  and  C7_15 
REMARK       I    between atoms: C7_15  and  N3_17 
REMARK    6  A    between atoms: N3_17  and  C8_19 
ROOT
HETATM    1  C6  UNL     1      -5.399   7.918  12.989  1.00  0.00     0.129 C 
ENDROOT
BRANCH   1   2
HETATM    2  C5  UNL     1      -4.225   7.174  13.540  1.00  0.00     0.058 C 
BRANCH   2   3
HETATM    3  C4  UNL     1      -4.755   6.173  14.500  1.00  0.00    -0.057 A 
HETATM    4  C3  UNL     1      -3.888   5.219  14.983  1.00  0.00     0.009 A 
HETATM    5  C2  UNL     1      -4.373   4.280  15.878  1.00  0.00     0.026 A 
HETATM    6  C1  UNL     1      -5.677   4.284  16.285  1.00  0.00     0.079 A 
HETATM    7  C15 UNL     1      -6.526   5.246  15.789  1.00  0.00     0.026 A 
HETATM    8  C14 UNL     1      -6.073   6.210  14.884  1.00  0.00     0.009 A 
BRANCH   6   9
HETATM    9  S1  UNL     1      -6.231   3.072  17.419  1.00  0.00     0.256 S 
HETATM   10  O1  UNL     1      -5.282   1.912  17.491  1.00  0.00    -0.201 OA
HETATM   11  O2  UNL     1      -7.575   2.548  17.038  1.00  0.00    -0.201 OA
BRANCH   9  12
HETATM   12  N1  UNL     1      -6.342   3.772  18.983  1.00  0.00    -0.324 N 
ATOM     13  H12 UNL     1      -7.065   4.425  19.284  1.00  0.00     0.169 HD
ATOM     14  H11 UNL     1      -5.566   3.421  19.545  1.00  0.00     0.169 HD
ENDBRANCH   9  12
ENDBRANCH   6   9
ENDBRANCH   2   3
ENDBRANCH   1   2
BRANCH   1  15
HETATM   15  N2  UNL     1      -5.287   8.295  11.605  1.00  0.00    -0.343 N 
HETATM   16  C7  UNL     1      -6.382   8.959  10.972  1.00  0.00     0.320 C 
HETATM   17  O3  UNL     1      -7.386   9.174  11.656  1.00  0.00    -0.247 OA
HETATM   18  N3  UNL     1      -6.336   9.359   9.618  1.00  0.00    -0.309 N 
ATOM     19  H3  UNL     1      -5.476   9.151   9.108  1.00  0.00     0.170 HD
ATOM     20  H2  UNL     1      -4.436   8.091  11.082  1.00  0.00     0.164 HD
BRANCH  18  21
HETATM   21  C8  UNL     1      -7.352  10.015   8.900  1.00  0.00     0.036 A 
HETATM   22  C9  UNL     1      -8.466   9.295   8.523  1.00  0.00     0.031 A 
HETATM   23  C10 UNL     1      -9.518   9.841   7.818  1.00  0.00     0.026 A 
HETATM   24  C11 UNL     1      -9.476  11.151   7.466  1.00  0.00     0.034 A 
HETATM   25 CL1  UNL     1     -10.829  11.835   6.564  1.00  0.00    -0.084 Cl
HETATM   26  C12 UNL     1      -8.387  11.903   7.821  1.00  0.00     0.026 A 
HETATM   27  C13 UNL     1      -7.323  11.332   8.540  1.00  0.00     0.031 A 
ENDBRANCH  18  21
ENDBRANCH   1  15
TORSDOF 6
ENDMDL
