MODEL 16
REMARK VINA RESULT: -7.584379359      5.085      7.413
REMARK  6 active torsions:
REMARK  status: ('A' for Active; 'I' for Inactive)
REMARK    1  A    between atoms: N1_1  and  S1_4 
REMARK    2  A    between atoms: S1_4  and  C1_7 
REMARK    3  A    between atoms: C4_10  and  C5_11 
REMARK    4  A    between atoms: C5_11  and  C6_12 
REMARK    5  A    between atoms: C6_12  and  N2_13 
REMARK       I    between atoms: N2_13  and  C7_15 
REMARK       I    between atoms: C7_15  and  N3_17 
REMARK    6  A    between atoms: N3_17  and  C8_19 
ROOT
HETATM    1  C6  UNL     1      -3.393   7.408  12.813  1.00  0.00     0.129 C 
ENDROOT
BRANCH   1   2
HETATM    2  C5  UNL     1      -4.743   7.689  13.392  1.00  0.00     0.058 C 
BRANCH   2   3
HETATM    3  C4  UNL     1      -5.071   6.560  14.300  1.00  0.00    -0.057 A 
HETATM    4  C3  UNL     1      -4.097   5.617  14.536  1.00  0.00     0.009 A 
HETATM    5  C2  UNL     1      -4.393   4.561  15.381  1.00  0.00     0.026 A 
HETATM    6  C1  UNL     1      -5.618   4.440  15.976  1.00  0.00     0.079 A 
HETATM    7  C15 UNL     1      -6.576   5.395  15.726  1.00  0.00     0.026 A 
HETATM    8  C14 UNL     1      -6.314   6.475  14.878  1.00  0.00     0.009 A 
BRANCH   6   9
HETATM    9  S1  UNL     1      -5.932   3.084  17.035  1.00  0.00     0.256 S 
HETATM   10  O1  UNL     1      -4.760   2.149  17.095  1.00  0.00    -0.201 OA
HETATM   11  O2  UNL     1      -7.121   2.306  16.580  1.00  0.00    -0.201 OA
BRANCH   9  12
HETATM   12  N1  UNL     1      -6.235   3.665  18.623  1.00  0.00    -0.324 N 
ATOM     13  H12 UNL     1      -5.651   3.479  19.437  1.00  0.00     0.169 HD
ATOM     14  H11 UNL     1      -7.091   4.220  18.600  1.00  0.00     0.169 HD
ENDBRANCH   9  12
ENDBRANCH   6   9
ENDBRANCH   2   3
ENDBRANCH   1   2
BRANCH   1  15
HETATM   15  N2  UNL     1      -2.654   8.570  12.397  1.00  0.00    -0.343 N 
HETATM   16  C7  UNL     1      -1.738   9.178  13.310  1.00  0.00     0.320 C 
HETATM   17  O3  UNL     1      -1.629   8.667  14.428  1.00  0.00    -0.247 OA
HETATM   18  N3  UNL     1      -0.979  10.318  12.964  1.00  0.00    -0.309 N 
ATOM     19  H3  UNL     1      -1.116  10.691  12.024  1.00  0.00     0.170 HD
ATOM     20  H2  UNL     1      -2.782   8.956  11.462  1.00  0.00     0.164 HD
BRANCH  18  21
HETATM   21  C8  UNL     1      -0.055  10.992  13.782  1.00  0.00     0.036 A 
HETATM   22  C9  UNL     1       1.287  10.900  13.479  1.00  0.00     0.031 A 
HETATM   23  C10 UNL     1       2.274  11.521  14.215  1.00  0.00     0.026 A 
HETATM   24  C11 UNL     1       1.932  12.265  15.297  1.00  0.00     0.034 A 
HETATM   25 CL1  UNL     1       3.205  13.052  16.227  1.00  0.00    -0.084 Cl
HETATM   26  C12 UNL     1       0.608  12.383  15.633  1.00  0.00     0.026 A 
HETATM   27  C13 UNL     1      -0.386  11.744  14.873  1.00  0.00     0.031 A 
ENDBRANCH  18  21
ENDBRANCH   1  15
TORSDOF 6
ENDMDL
