MODEL 6
REMARK VINA RESULT: -7.896132699      5.861      8.434
REMARK  6 active torsions:
REMARK  status: ('A' for Active; 'I' for Inactive)
REMARK    1  A    between atoms: N1_1  and  S1_4 
REMARK    2  A    between atoms: S1_4  and  C1_7 
REMARK    3  A    between atoms: C4_10  and  C5_11 
REMARK    4  A    between atoms: C5_11  and  C6_12 
REMARK    5  A    between atoms: C6_12  and  N2_13 
REMARK       I    between atoms: N2_13  and  C7_15 
REMARK       I    between atoms: C7_15  and  N3_17 
REMARK    6  A    between atoms: N3_17  and  C8_19 
ROOT
HETATM    1  C6  UNL     1      -2.893   8.035  14.160  1.00  0.00     0.129 C 
ENDROOT
BRANCH   1   2
HETATM    2  C5  UNL     1      -4.287   7.711  13.727  1.00  0.00     0.058 C 
BRANCH   2   3
HETATM    3  C4  UNL     1      -4.749   6.571  14.558  1.00  0.00    -0.057 A 
HETATM    4  C3  UNL     1      -3.831   5.601  14.891  1.00  0.00     0.009 A 
HETATM    5  C2  UNL     1      -4.252   4.533  15.666  1.00  0.00     0.026 A 
HETATM    6  C1  UNL     1      -5.543   4.427  16.101  1.00  0.00     0.079 A 
HETATM    7  C15 UNL     1      -6.443   5.408  15.756  1.00  0.00     0.026 A 
HETATM    8  C14 UNL     1      -6.056   6.501  14.975  1.00  0.00     0.009 A 
BRANCH   6   9
HETATM    9  S1  UNL     1      -6.014   3.055  17.078  1.00  0.00     0.256 S 
HETATM   10  O1  UNL     1      -4.916   2.036  17.162  1.00  0.00    -0.201 OA
HETATM   11  O2  UNL     1      -7.225   2.384  16.522  1.00  0.00    -0.201 OA
BRANCH   9  12
HETATM   12  N1  UNL     1      -6.370   3.592  18.670  1.00  0.00    -0.324 N 
ATOM     13  H12 UNL     1      -5.677   3.867  19.365  1.00  0.00     0.169 HD
ATOM     14  H11 UNL     1      -7.383   3.585  18.789  1.00  0.00     0.169 HD
ENDBRANCH   9  12
ENDBRANCH   6   9
ENDBRANCH   2   3
ENDBRANCH   1   2
BRANCH   1  15
HETATM   15  N2  UNL     1      -2.288   9.151  13.484  1.00  0.00    -0.343 N 
HETATM   16  C7  UNL     1      -1.739  10.220  14.256  1.00  0.00     0.320 C 
HETATM   17  O3  UNL     1      -1.817  10.130  15.484  1.00  0.00    -0.247 OA
HETATM   18  N3  UNL     1      -1.128  11.343  13.655  1.00  0.00    -0.309 N 
ATOM     19  H3  UNL     1      -1.095  11.356  12.635  1.00  0.00     0.170 HD
ATOM     20  H2  UNL     1      -2.251   9.179  12.465  1.00  0.00     0.164 HD
BRANCH  18  21
HETATM   21  C8  UNL     1      -0.559  12.445  14.318  1.00  0.00     0.036 A 
HETATM   22  C9  UNL     1      -1.135  13.686  14.152  1.00  0.00     0.031 A 
HETATM   23  C10 UNL     1      -0.656  14.830  14.757  1.00  0.00     0.026 A 
HETATM   24  C11 UNL     1       0.436  14.755  15.559  1.00  0.00     0.034 A 
HETATM   25 CL1  UNL     1       1.036  16.226  16.324  1.00  0.00    -0.084 Cl
HETATM   26  C12 UNL     1       1.039  13.539  15.751  1.00  0.00     0.026 A 
HETATM   27  C13 UNL     1       0.540  12.382  15.129  1.00  0.00     0.031 A 
ENDBRANCH  18  21
ENDBRANCH   1  15
TORSDOF 6
ENDMDL
