MODEL 5
REMARK VINA RESULT: -5.960457971      1.317      1.915
REMARK  2 active torsions:
REMARK  status: ('A' for Active; 'I' for Inactive)
REMARK    1  A    between atoms: N1_1  and  S1_4 
REMARK    2  A    between atoms: S1_4  and  C1_7 
ROOT
HETATM    1  C1  UNL     1      -5.419   4.357  16.031  1.00  0.00     0.079 A 
HETATM    2  C2  UNL     1      -4.213   4.774  15.507  1.00  0.00     0.025 A 
HETATM    3  C3  UNL     1      -4.028   6.058  15.029  1.00  0.00     0.002 A 
HETATM    4  C4  UNL     1      -5.053   6.982  15.057  1.00  0.00     0.000 A 
HETATM    5  C5  UNL     1      -6.260   6.565  15.580  1.00  0.00     0.002 A 
HETATM    6  C6  UNL     1      -6.454   5.276  16.064  1.00  0.00     0.025 A 
ENDROOT
BRANCH   1   7
HETATM    7  S1  UNL     1      -5.604   2.717  16.626  1.00  0.00     0.256 S 
HETATM    8  O1  UNL     1      -5.257   2.691  18.088  1.00  0.00    -0.201 OA
HETATM    9  O2  UNL     1      -7.006   2.224  16.401  1.00  0.00    -0.201 OA
BRANCH   7  10
HETATM   10  N1  UNL     1      -4.529   1.638  15.811  1.00  0.00    -0.324 N 
ATOM     11  H12 UNL     1      -3.833   1.047  16.263  1.00  0.00     0.169 HD
ATOM     12  H11 UNL     1      -4.721   1.705  14.811  1.00  0.00     0.169 HD
ENDBRANCH   7  10
ENDBRANCH   1   7
TORSDOF 2
ENDMDL
