MODEL 2
REMARK VINA RESULT: -6.039410155      0.271      1.490
REMARK  2 active torsions:
REMARK  status: ('A' for Active; 'I' for Inactive)
REMARK    1  A    between atoms: N1_1  and  S1_4 
REMARK    2  A    between atoms: S1_4  and  C1_7 
ROOT
HETATM    1  C1  UNL     1      -5.237   4.284  15.561  1.00  0.00     0.079 A 
HETATM    2  C2  UNL     1      -4.545   5.223  14.825  1.00  0.00     0.025 A 
HETATM    3  C3  UNL     1      -4.936   6.549  14.779  1.00  0.00     0.002 A 
HETATM    4  C4  UNL     1      -6.044   6.988  15.473  1.00  0.00     0.000 A 
HETATM    5  C5  UNL     1      -6.737   6.049  16.210  1.00  0.00     0.002 A 
HETATM    6  C6  UNL     1      -6.351   4.714  16.262  1.00  0.00     0.025 A 
ENDROOT
BRANCH   1   7
HETATM    7  S1  UNL     1      -4.701   2.614  15.589  1.00  0.00     0.256 S 
HETATM    8  O1  UNL     1      -3.416   2.531  16.363  1.00  0.00    -0.201 OA
HETATM    9  O2  UNL     1      -5.751   1.728  16.200  1.00  0.00    -0.201 OA
BRANCH   7  10
HETATM   10  N1  UNL     1      -4.390   2.037  13.991  1.00  0.00    -0.324 N 
ATOM     11  H12 UNL     1      -4.005   1.122  13.759  1.00  0.00     0.169 HD
ATOM     12  H11 UNL     1      -4.659   2.773  13.338  1.00  0.00     0.169 HD
ENDBRANCH   7  10
ENDBRANCH   1   7
TORSDOF 2
ENDMDL
