MODEL 4
REMARK VINA RESULT: -6.022840982      1.840      2.387
REMARK  2 active torsions:
REMARK  status: ('A' for Active; 'I' for Inactive)
REMARK    1  A    between atoms: N1_1  and  S1_4 
REMARK    2  A    between atoms: S1_4  and  C1_7 
ROOT
HETATM    1  C1  UNL     1      -5.466   4.397  16.092  1.00  0.00     0.079 A 
HETATM    2  C2  UNL     1      -4.173   4.609  15.660  1.00  0.00     0.025 A 
HETATM    3  C3  UNL     1      -3.782   5.804  15.085  1.00  0.00     0.002 A 
HETATM    4  C4  UNL     1      -4.677   6.840  14.917  1.00  0.00     0.000 A 
HETATM    5  C5  UNL     1      -5.971   6.628  15.348  1.00  0.00     0.002 A 
HETATM    6  C6  UNL     1      -6.373   5.431  15.929  1.00  0.00     0.025 A 
ENDROOT
BRANCH   1   7
HETATM    7  S1  UNL     1      -5.915   2.864  16.818  1.00  0.00     0.256 S 
HETATM    8  O1  UNL     1      -5.400   1.750  15.952  1.00  0.00    -0.201 OA
HETATM    9  O2  UNL     1      -5.366   2.755  18.213  1.00  0.00    -0.201 OA
BRANCH   7  10
HETATM   10  N1  UNL     1      -7.632   2.705  16.914  1.00  0.00    -0.324 N 
ATOM     11  H12 UNL     1      -8.172   1.917  16.557  1.00  0.00     0.169 HD
ATOM     12  H11 UNL     1      -7.995   3.534  17.386  1.00  0.00     0.169 HD
ENDBRANCH   7  10
ENDBRANCH   1   7
TORSDOF 2
ENDMDL
