MODEL 1
REMARK VINA RESULT: -6.060745422      0.000      0.000
REMARK  2 active torsions:
REMARK  status: ('A' for Active; 'I' for Inactive)
REMARK    1  A    between atoms: N1_1  and  S1_4 
REMARK    2  A    between atoms: S1_4  and  C1_7 
ROOT
HETATM    1  C1  UNL     1      -5.324   4.214  15.520  1.00  0.00     0.079 A 
HETATM    2  C2  UNL     1      -6.257   4.648  16.439  1.00  0.00     0.025 A 
HETATM    3  C3  UNL     1      -6.758   5.936  16.419  1.00  0.00     0.002 A 
HETATM    4  C4  UNL     1      -6.341   6.848  15.471  1.00  0.00     0.000 A 
HETATM    5  C5  UNL     1      -5.407   6.414  14.551  1.00  0.00     0.002 A 
HETATM    6  C6  UNL     1      -4.898   5.120  14.564  1.00  0.00     0.025 A 
ENDROOT
BRANCH   1   7
HETATM    7  S1  UNL     1      -4.718   2.569  15.586  1.00  0.00     0.256 S 
HETATM    8  O1  UNL     1      -3.438   2.556  16.373  1.00  0.00    -0.201 OA
HETATM    9  O2  UNL     1      -5.735   1.651  16.204  1.00  0.00    -0.201 OA
BRANCH   7  10
HETATM   10  N1  UNL     1      -4.366   1.976  14.002  1.00  0.00    -0.324 N 
ATOM     11  H12 UNL     1      -3.528   2.193  13.464  1.00  0.00     0.169 HD
ATOM     12  H11 UNL     1      -5.142   1.379  13.715  1.00  0.00     0.169 HD
ENDBRANCH   7  10
ENDBRANCH   1   7
TORSDOF 2
ENDMDL
