MODEL 3
REMARK VINA RESULT: -6.034052953      1.846      2.111
REMARK  2 active torsions:
REMARK  status: ('A' for Active; 'I' for Inactive)
REMARK    1  A    between atoms: N1_1  and  S1_4 
REMARK    2  A    between atoms: S1_4  and  C1_7 
ROOT
HETATM    1  C1  UNL     1      -5.424   4.398  16.095  1.00  0.00     0.079 A 
HETATM    2  C2  UNL     1      -6.334   5.424  15.948  1.00  0.00     0.025 A 
HETATM    3  C3  UNL     1      -5.984   6.634  15.377  1.00  0.00     0.002 A 
HETATM    4  C4  UNL     1      -4.700   6.865  14.928  1.00  0.00     0.000 A 
HETATM    5  C5  UNL     1      -3.789   5.838  15.076  1.00  0.00     0.002 A 
HETATM    6  C6  UNL     1      -4.132   4.618  15.649  1.00  0.00     0.025 A 
ENDROOT
BRANCH   1   7
HETATM    7  S1  UNL     1      -5.915   2.880  16.825  1.00  0.00     0.256 S 
HETATM    8  O1  UNL     1      -5.413   1.749  15.974  1.00  0.00    -0.201 OA
HETATM    9  O2  UNL     1      -5.387   2.769  18.228  1.00  0.00    -0.201 OA
BRANCH   7  10
HETATM   10  N1  UNL     1      -7.636   2.758  16.899  1.00  0.00    -0.324 N 
ATOM     11  H12 UNL     1      -8.180   1.932  16.652  1.00  0.00     0.169 HD
ATOM     12  H11 UNL     1      -7.997   3.653  17.231  1.00  0.00     0.169 HD
ENDBRANCH   7  10
ENDBRANCH   1   7
TORSDOF 2
ENDMDL
