MODEL 3
REMARK VINA RESULT: -10.260309419      2.390      5.582
REMARK  6 active torsions:
REMARK  status: ('A' for Active; 'I' for Inactive)
REMARK    1  A    between atoms: N1_2  and  C15_26 
REMARK    2  A    between atoms: C2_3  and  O1_4 
REMARK    3  A    between atoms: C2_3  and  C3_6 
REMARK    4  A    between atoms: C6_9  and  C7_10 
REMARK       I    between atoms: C7_10  and  N2_12 
REMARK    5  A    between atoms: C14_23  and  O3_24 
REMARK    6  A    between atoms: C18_29  and  N5_30 
ROOT
HETATM    1  C3  UNL     1       2.537  31.795  25.384  1.00  0.00     0.049 A 
HETATM    2  C4  UNL     1       3.361  32.827  25.730  1.00  0.00     0.035 A 
HETATM    3  C5  UNL     1       4.726  32.777  25.416  1.00  0.00     0.027 A 
HETATM    4  C6  UNL     1       5.748  33.707  25.657  1.00  0.00     0.128 A 
HETATM    5  N3  UNL     1       6.838  33.141  25.138  1.00  0.00    -0.294 N 
ATOM      6  H3  UNL     1       7.768  33.559  25.148  1.00  0.00     0.187 HD
HETATM    7  N4  UNL     1       6.546  31.943  24.602  1.00  0.00    -0.299 N 
ATOM      8  H4  UNL     1       7.216  31.324  24.147  1.00  0.00     0.187 HD
HETATM    9  C12 UNL     1       5.248  31.689  24.756  1.00  0.00     0.063 A 
HETATM   10  C13 UNL     1       4.405  30.649  24.410  1.00  0.00     0.069 A 
HETATM   11  C14 UNL     1       3.079  30.682  24.707  1.00  0.00     0.082 A 
ENDROOT
BRANCH   1  12
HETATM   12  C2  UNL     1       1.116  31.835  25.642  1.00  0.00     0.155 C 
HETATM   13  N1  UNL     1       0.157  32.529  24.963  1.00  0.00    -0.332 N 
HETATM   14  C1  UNL     1      -1.284  32.254  25.299  1.00  0.00     0.158 C 
BRANCH  13  15
HETATM   15  C15 UNL     1       0.314  33.504  23.946  1.00  0.00     0.036 A 
HETATM   16  C16 UNL     1       0.102  33.270  22.603  1.00  0.00     0.032 A 
HETATM   17  C17 UNL     1       0.228  34.268  21.652  1.00  0.00     0.031 A 
HETATM   18  C18 UNL     1       0.575  35.563  21.991  1.00  0.00     0.030 A 
HETATM   19  C23 UNL     1       0.788  35.804  23.335  1.00  0.00     0.031 A 
HETATM   20  C24 UNL     1       0.665  34.818  24.288  1.00  0.00     0.032 A 
BRANCH  18  21
HETATM   21  N5  UNL     1       0.712  36.623  21.049  1.00  0.00    -0.377 N 
HETATM   22  C19 UNL     1       0.095  37.911  21.155  1.00  0.00     0.149 C 
HETATM   23  C20 UNL     1       1.185  38.953  20.888  1.00  0.00     0.187 C 
HETATM   24  O4  UNL     1       1.689  38.808  19.627  1.00  0.00    -0.388 OA
HETATM   25  C21 UNL     1       1.401  37.626  18.990  1.00  0.00     0.187 C 
HETATM   26  C22 UNL     1       1.548  36.406  19.860  1.00  0.00     0.149 C 
ENDBRANCH  18  21
ENDBRANCH  13  15
BRANCH  12  27
HETATM   27  O1  UNL     1       0.673  31.124  26.651  1.00  0.00    -0.345 OA
ATOM     28  H1  UNL     1       0.149  31.606  27.280  1.00  0.00     0.219 HD
ENDBRANCH  12  27
ENDBRANCH   1  12
BRANCH  11  29
HETATM   29  O3  UNL     1       2.200  29.648  24.371  1.00  0.00    -0.360 OA
ATOM     30  H3  UNL     1       2.502  29.012  23.734  1.00  0.00     0.217 HD
ENDBRANCH  11  29
BRANCH   4  31
HETATM   31  C7  UNL     1       5.587  35.013  26.282  1.00  0.00     0.272 C 
HETATM   32  O2  UNL     1       5.923  35.121  27.521  1.00  0.00    -0.266 OA
HETATM   33  N2  UNL     1       5.086  36.151  25.609  1.00  0.00    -0.347 N 
HETATM   34  C8  UNL     1       4.993  37.443  26.320  1.00  0.00     0.126 C 
HETATM   35  C11 UNL     1       4.582  36.310  24.296  1.00  0.00     0.126 C 
HETATM   36  C9  UNL     1       4.607  38.452  25.299  1.00  0.00     0.021 C 
HETATM   37  C10 UNL     1       3.893  37.680  24.248  1.00  0.00     0.021 C 
ENDBRANCH   4  31
TORSDOF 6
ENDMDL
