MODEL 4
REMARK VINA RESULT: -10.021050833      2.011      6.666
REMARK  6 active torsions:
REMARK  status: ('A' for Active; 'I' for Inactive)
REMARK    1  A    between atoms: N1_2  and  C15_26 
REMARK    2  A    between atoms: C2_3  and  O1_4 
REMARK    3  A    between atoms: C2_3  and  C3_6 
REMARK    4  A    between atoms: C6_9  and  C7_10 
REMARK       I    between atoms: C7_10  and  N2_12 
REMARK    5  A    between atoms: C14_23  and  O3_24 
REMARK    6  A    between atoms: C18_29  and  N5_30 
ROOT
HETATM    1  C3  UNL     1       0.028  33.860  23.844  1.00  0.00     0.049 A 
HETATM    2  C4  UNL     1       0.890  34.876  24.145  1.00  0.00     0.035 A 
HETATM    3  C5  UNL     1       1.187  35.857  23.189  1.00  0.00     0.027 A 
HETATM    4  C6  UNL     1       2.021  36.981  23.271  1.00  0.00     0.128 A 
HETATM    5  N3  UNL     1       1.917  37.556  22.072  1.00  0.00    -0.294 N 
ATOM      6  H3  UNL     1       2.406  38.407  21.794  1.00  0.00     0.187 HD
HETATM    7  N4  UNL     1       1.082  36.863  21.280  1.00  0.00    -0.299 N 
ATOM      8  H4  UNL     1       0.845  37.109  20.319  1.00  0.00     0.187 HD
HETATM    9  C12 UNL     1       0.613  35.806  21.940  1.00  0.00     0.063 A 
HETATM   10  C13 UNL     1      -0.259  34.775  21.645  1.00  0.00     0.069 A 
HETATM   11  C14 UNL     1      -0.558  33.816  22.561  1.00  0.00     0.082 A 
ENDROOT
BRANCH   1  12
HETATM   12  C2  UNL     1      -0.344  32.862  24.820  1.00  0.00     0.155 C 
HETATM   13  N1  UNL     1       0.455  31.927  25.413  1.00  0.00    -0.332 N 
HETATM   14  C1  UNL     1      -0.122  31.125  26.548  1.00  0.00     0.158 C 
BRANCH  13  15
HETATM   15  C15 UNL     1       1.798  31.585  25.117  1.00  0.00     0.036 A 
HETATM   16  C16 UNL     1       2.894  32.336  25.491  1.00  0.00     0.032 A 
HETATM   17  C17 UNL     1       4.190  31.936  25.213  1.00  0.00     0.031 A 
HETATM   18  C18 UNL     1       4.466  30.759  24.544  1.00  0.00     0.030 A 
HETATM   19  C23 UNL     1       3.372  30.002  24.167  1.00  0.00     0.031 A 
HETATM   20  C24 UNL     1       2.081  30.390  24.439  1.00  0.00     0.032 A 
BRANCH  18  21
HETATM   21  N5  UNL     1       5.782  30.305  24.240  1.00  0.00    -0.377 N 
HETATM   22  C19 UNL     1       6.103  29.219  23.363  1.00  0.00     0.149 C 
HETATM   23  C20 UNL     1       7.200  29.715  22.418  1.00  0.00     0.187 C 
HETATM   24  O4  UNL     1       8.319  30.060  23.121  1.00  0.00    -0.388 OA
HETATM   25  C21 UNL     1       8.160  30.220  24.476  1.00  0.00     0.187 C 
HETATM   26  C22 UNL     1       6.925  30.987  24.864  1.00  0.00     0.149 C 
ENDBRANCH  18  21
ENDBRANCH  13  15
BRANCH  12  27
HETATM   27  O1  UNL     1      -1.600  32.833  25.194  1.00  0.00    -0.345 OA
ATOM     28  H1  UNL     1      -2.216  32.600  24.509  1.00  0.00     0.219 HD
ENDBRANCH  12  27
ENDBRANCH   1  12
BRANCH  11  29
HETATM   29  O3  UNL     1      -1.434  32.760  22.296  1.00  0.00    -0.360 OA
ATOM     30  H3  UNL     1      -1.104  32.044  21.766  1.00  0.00     0.217 HD
ENDBRANCH  11  29
BRANCH   4  31
HETATM   31  C7  UNL     1       2.762  37.413  24.448  1.00  0.00     0.272 C 
HETATM   32  O2  UNL     1       2.352  38.479  25.046  1.00  0.00    -0.266 OA
HETATM   33  N2  UNL     1       3.891  36.734  24.962  1.00  0.00    -0.347 N 
HETATM   34  C8  UNL     1       4.553  37.232  26.184  1.00  0.00     0.126 C 
HETATM   35  C11 UNL     1       4.594  35.604  24.484  1.00  0.00     0.126 C 
HETATM   36  C9  UNL     1       5.571  36.212  26.550  1.00  0.00     0.021 C 
HETATM   37  C10 UNL     1       5.908  35.533  25.272  1.00  0.00     0.021 C 
ENDBRANCH   4  31
TORSDOF 6
ENDMDL
