MODEL 1
REMARK VINA RESULT: -10.619988862      0.000      0.000
REMARK  6 active torsions:
REMARK  status: ('A' for Active; 'I' for Inactive)
REMARK    1  A    between atoms: N1_2  and  C15_26 
REMARK    2  A    between atoms: C2_3  and  O1_4 
REMARK    3  A    between atoms: C2_3  and  C3_6 
REMARK    4  A    between atoms: C6_9  and  C7_10 
REMARK       I    between atoms: C7_10  and  N2_12 
REMARK    5  A    between atoms: C14_23  and  O3_24 
REMARK    6  A    between atoms: C18_29  and  N5_30 
ROOT
HETATM    1  C3  UNL     1      -0.021  33.232  23.287  1.00  0.00     0.049 A 
HETATM    2  C4  UNL     1       1.158  32.888  23.885  1.00  0.00     0.035 A 
HETATM    3  C5  UNL     1       1.156  32.150  25.077  1.00  0.00     0.027 A 
HETATM    4  C6  UNL     1       2.225  31.681  25.855  1.00  0.00     0.128 A 
HETATM    5  N3  UNL     1       1.639  31.039  26.866  1.00  0.00    -0.294 N 
ATOM      6  H3  UNL     1       2.139  30.576  27.624  1.00  0.00     0.187 HD
HETATM    7  N4  UNL     1       0.300  31.087  26.751  1.00  0.00    -0.299 N 
ATOM      8  H4  UNL     1      -0.360  30.667  27.404  1.00  0.00     0.187 HD
HETATM    9  C12 UNL     1      -0.031  31.766  25.655  1.00  0.00     0.063 A 
HETATM   10  C13 UNL     1      -1.219  32.118  25.042  1.00  0.00     0.069 A 
HETATM   11  C14 UNL     1      -1.235  32.833  23.886  1.00  0.00     0.082 A 
ENDROOT
BRANCH   1  12
HETATM   12  C2  UNL     1      -0.059  33.944  22.031  1.00  0.00     0.155 C 
HETATM   13  N1  UNL     1       0.539  35.131  21.719  1.00  0.00    -0.332 N 
HETATM   14  C1  UNL     1       0.517  35.575  20.281  1.00  0.00     0.158 C 
BRANCH  13  15
HETATM   15  C15 UNL     1       1.208  36.044  22.572  1.00  0.00     0.036 A 
HETATM   16  C16 UNL     1       0.588  36.791  23.552  1.00  0.00     0.032 A 
HETATM   17  C17 UNL     1       1.293  37.641  24.387  1.00  0.00     0.031 A 
HETATM   18  C18 UNL     1       2.664  37.791  24.290  1.00  0.00     0.030 A 
HETATM   19  C23 UNL     1       3.291  37.046  23.310  1.00  0.00     0.031 A 
HETATM   20  C24 UNL     1       2.598  36.199  22.475  1.00  0.00     0.032 A 
BRANCH  18  21
HETATM   21  N5  UNL     1       3.432  38.649  25.130  1.00  0.00    -0.377 N 
HETATM   22  C19 UNL     1       3.062  39.067  26.449  1.00  0.00     0.149 C 
HETATM   23  C20 UNL     1       4.282  38.850  27.347  1.00  0.00     0.187 C 
HETATM   24  O4  UNL     1       5.333  39.611  26.922  1.00  0.00    -0.388 OA
HETATM   25  C21 UNL     1       5.231  40.134  25.656  1.00  0.00     0.187 C 
HETATM   26  C22 UNL     1       4.715  39.163  24.629  1.00  0.00     0.149 C 
ENDBRANCH  18  21
ENDBRANCH  13  15
BRANCH  12  27
HETATM   27  O1  UNL     1      -0.750  33.402  21.058  1.00  0.00    -0.345 OA
ATOM     28  H1  UNL     1      -0.442  32.548  20.777  1.00  0.00     0.219 HD
ENDBRANCH  12  27
ENDBRANCH   1  12
BRANCH  11  29
HETATM   29  O3  UNL     1      -2.418  33.206  23.241  1.00  0.00    -0.360 OA
ATOM     30  H3  UNL     1      -3.131  32.578  23.244  1.00  0.00     0.217 HD
ENDBRANCH  11  29
BRANCH   4  31
HETATM   31  C7  UNL     1       3.640  31.833  25.545  1.00  0.00     0.272 C 
HETATM   32  O2  UNL     1       4.210  32.931  25.907  1.00  0.00    -0.266 OA
HETATM   33  N2  UNL     1       4.410  30.854  24.877  1.00  0.00    -0.347 N 
HETATM   34  C8  UNL     1       5.850  31.086  24.641  1.00  0.00     0.126 C 
HETATM   35  C11 UNL     1       4.046  29.609  24.312  1.00  0.00     0.126 C 
HETATM   36  C9  UNL     1       6.391  29.816  24.091  1.00  0.00     0.021 C 
HETATM   37  C10 UNL     1       5.228  29.150  23.449  1.00  0.00     0.021 C 
ENDBRANCH   4  31
TORSDOF 6
ENDMDL
