MODEL 5
REMARK VINA RESULT: -9.945556337      0.968      1.382
REMARK  6 active torsions:
REMARK  status: ('A' for Active; 'I' for Inactive)
REMARK    1  A    between atoms: N1_2  and  C15_26 
REMARK    2  A    between atoms: C2_3  and  O1_4 
REMARK    3  A    between atoms: C2_3  and  C3_6 
REMARK    4  A    between atoms: C6_9  and  C7_10 
REMARK       I    between atoms: C7_10  and  N2_12 
REMARK    5  A    between atoms: C14_23  and  O3_24 
REMARK    6  A    between atoms: C18_29  and  N5_30 
ROOT
HETATM    1  C3  UNL     1      -0.036  33.101  23.402  1.00  0.00     0.049 A 
HETATM    2  C4  UNL     1       1.114  32.446  23.739  1.00  0.00     0.035 A 
HETATM    3  C5  UNL     1       1.183  31.708  24.928  1.00  0.00     0.027 A 
HETATM    4  C6  UNL     1       2.236  30.956  25.470  1.00  0.00     0.128 A 
HETATM    5  N3  UNL     1       1.742  30.468  26.608  1.00  0.00    -0.294 N 
ATOM      6  H3  UNL     1       2.258  29.872  27.255  1.00  0.00     0.187 HD
HETATM    7  N4  UNL     1       0.471  30.868  26.787  1.00  0.00    -0.299 N 
ATOM      8  H4  UNL     1      -0.116  30.621  27.584  1.00  0.00     0.187 HD
HETATM    9  C12 UNL     1       0.095  31.635  25.766  1.00  0.00     0.063 A 
HETATM   10  C13 UNL     1      -1.065  32.301  25.415  1.00  0.00     0.069 A 
HETATM   11  C14 UNL     1      -1.148  33.022  24.266  1.00  0.00     0.082 A 
ENDROOT
BRANCH   1  12
HETATM   12  C2  UNL     1      -0.163  33.827  22.159  1.00  0.00     0.155 C 
HETATM   13  N1  UNL     1       0.400  35.025  21.824  1.00  0.00    -0.332 N 
HETATM   14  C1  UNL     1       0.280  35.484  20.396  1.00  0.00     0.158 C 
BRANCH  13  15
HETATM   15  C15 UNL     1       1.112  35.937  22.643  1.00  0.00     0.036 A 
HETATM   16  C16 UNL     1       0.540  36.690  23.648  1.00  0.00     0.032 A 
HETATM   17  C17 UNL     1       1.288  37.538  24.448  1.00  0.00     0.031 A 
HETATM   18  C18 UNL     1       2.654  37.680  24.289  1.00  0.00     0.030 A 
HETATM   19  C23 UNL     1       3.232  36.927  23.284  1.00  0.00     0.031 A 
HETATM   20  C24 UNL     1       2.497  36.082  22.484  1.00  0.00     0.032 A 
BRANCH  18  21
HETATM   21  N5  UNL     1       3.464  38.535  25.091  1.00  0.00    -0.377 N 
HETATM   22  C19 UNL     1       3.092  39.075  26.364  1.00  0.00     0.149 C 
HETATM   23  C20 UNL     1       4.266  38.831  27.316  1.00  0.00     0.187 C 
HETATM   24  O4  UNL     1       5.385  39.477  26.872  1.00  0.00    -0.388 OA
HETATM   25  C21 UNL     1       5.359  39.913  25.570  1.00  0.00     0.187 C 
HETATM   26  C22 UNL     1       4.796  38.912  24.597  1.00  0.00     0.149 C 
ENDBRANCH  18  21
ENDBRANCH  13  15
BRANCH  12  27
HETATM   27  O1  UNL     1      -0.909  33.287  21.227  1.00  0.00    -0.345 OA
ATOM     28  H1  UNL     1      -0.630  32.425  20.941  1.00  0.00     0.219 HD
ENDBRANCH  12  27
ENDBRANCH   1  12
BRANCH  11  29
HETATM   29  O3  UNL     1      -2.305  33.707  23.882  1.00  0.00    -0.360 OA
ATOM     30  H3  UNL     1      -2.385  34.612  24.157  1.00  0.00     0.217 HD
ENDBRANCH  11  29
BRANCH   4  31
HETATM   31  C7  UNL     1       3.538  30.739  24.853  1.00  0.00     0.272 C 
HETATM   32  O2  UNL     1       3.702  29.646  24.189  1.00  0.00    -0.266 OA
HETATM   33  N2  UNL     1       4.615  31.650  24.945  1.00  0.00    -0.347 N 
HETATM   34  C8  UNL     1       5.887  31.356  24.253  1.00  0.00     0.126 C 
HETATM   35  C11 UNL     1       4.746  32.869  25.651  1.00  0.00     0.126 C 
HETATM   36  C9  UNL     1       6.729  32.571  24.397  1.00  0.00     0.021 C 
HETATM   37  C10 UNL     1       6.235  33.235  25.632  1.00  0.00     0.021 C 
ENDBRANCH   4  31
TORSDOF 6
ENDMDL
