MODEL 2
REMARK VINA RESULT: -10.284451248      1.850      6.714
REMARK  6 active torsions:
REMARK  status: ('A' for Active; 'I' for Inactive)
REMARK    1  A    between atoms: N1_2  and  C15_26 
REMARK    2  A    between atoms: C2_3  and  O1_4 
REMARK    3  A    between atoms: C2_3  and  C3_6 
REMARK    4  A    between atoms: C6_9  and  C7_10 
REMARK       I    between atoms: C7_10  and  N2_12 
REMARK    5  A    between atoms: C14_23  and  O3_24 
REMARK    6  A    between atoms: C18_29  and  N5_30 
ROOT
HETATM    1  C3  UNL     1       0.002  34.300  23.415  1.00  0.00     0.049 A 
HETATM    2  C4  UNL     1       0.720  35.359  23.893  1.00  0.00     0.035 A 
HETATM    3  C5  UNL     1       1.260  36.303  23.010  1.00  0.00     0.027 A 
HETATM    4  C6  UNL     1       2.012  37.460  23.266  1.00  0.00     0.128 A 
HETATM    5  N3  UNL     1       2.248  37.972  22.058  1.00  0.00    -0.294 N 
ATOM      6  H3  UNL     1       2.779  38.826  21.886  1.00  0.00     0.187 HD
HETATM    7  N4  UNL     1       1.693  37.212  21.098  1.00  0.00    -0.299 N 
ATOM      8  H4  UNL     1       1.739  37.403  20.098  1.00  0.00     0.187 HD
HETATM    9  C12 UNL     1       1.074  36.172  21.654  1.00  0.00     0.063 A 
HETATM   10  C13 UNL     1       0.346  35.097  21.178  1.00  0.00     0.069 A 
HETATM   11  C14 UNL     1      -0.185  34.173  22.022  1.00  0.00     0.082 A 
ENDROOT
BRANCH   1  12
HETATM   12  C2  UNL     1      -0.616  33.336  24.296  1.00  0.00     0.155 C 
HETATM   13  N1  UNL     1      -0.018  32.318  24.981  1.00  0.00    -0.332 N 
HETATM   14  C1  UNL     1      -0.842  31.569  25.993  1.00  0.00     0.158 C 
BRANCH  13  15
HETATM   15  C15 UNL     1       1.314  31.841  24.886  1.00  0.00     0.036 A 
HETATM   16  C16 UNL     1       1.657  30.567  24.483  1.00  0.00     0.032 A 
HETATM   17  C17 UNL     1       2.976  30.161  24.368  1.00  0.00     0.031 A 
HETATM   18  C18 UNL     1       4.030  31.009  24.650  1.00  0.00     0.030 A 
HETATM   19  C23 UNL     1       3.693  32.287  25.055  1.00  0.00     0.031 A 
HETATM   20  C24 UNL     1       2.385  32.699  25.172  1.00  0.00     0.032 A 
BRANCH  18  21
HETATM   21  N5  UNL     1       5.402  30.638  24.542  1.00  0.00    -0.377 N 
HETATM   22  C19 UNL     1       5.883  29.361  24.106  1.00  0.00     0.149 C 
HETATM   23  C20 UNL     1       6.969  29.625  23.060  1.00  0.00     0.187 C 
HETATM   24  O4  UNL     1       8.006  30.323  23.611  1.00  0.00    -0.388 OA
HETATM   25  C21 UNL     1       7.760  30.924  24.821  1.00  0.00     0.187 C 
HETATM   26  C22 UNL     1       6.430  31.625  24.900  1.00  0.00     0.149 C 
ENDBRANCH  18  21
ENDBRANCH  13  15
BRANCH  12  27
HETATM   27  O1  UNL     1      -1.911  33.434  24.472  1.00  0.00    -0.345 OA
ATOM     28  H1  UNL     1      -2.376  33.885  23.777  1.00  0.00     0.219 HD
ENDBRANCH  12  27
ENDBRANCH   1  12
BRANCH  11  29
HETATM   29  O3  UNL     1      -0.925  33.074  21.575  1.00  0.00    -0.360 OA
ATOM     30  H3  UNL     1      -0.724  32.739  20.709  1.00  0.00     0.217 HD
ENDBRANCH  11  29
BRANCH   4  31
HETATM   31  C7  UNL     1       2.370  37.974  24.581  1.00  0.00     0.272 C 
HETATM   32  O2  UNL     1       1.803  39.067  24.962  1.00  0.00    -0.266 OA
HETATM   33  N2  UNL     1       3.294  37.346  25.447  1.00  0.00    -0.347 N 
HETATM   34  C8  UNL     1       3.565  37.927  26.778  1.00  0.00     0.126 C 
HETATM   35  C11 UNL     1       4.105  36.201  25.270  1.00  0.00     0.126 C 
HETATM   36  C9  UNL     1       4.426  36.948  27.491  1.00  0.00     0.021 C 
HETATM   37  C10 UNL     1       5.126  36.199  26.415  1.00  0.00     0.021 C 
ENDBRANCH   4  31
TORSDOF 6
ENDMDL
