MODEL 14
REMARK VINA RESULT: -5.937024830      1.827      4.714
REMARK  7 active torsions:
REMARK  status: ('A' for Active; 'I' for Inactive)
REMARK    1  A    between atoms: C2_2  and  C3_3 
REMARK    2  A    between atoms: C3_3  and  C4_4 
REMARK    3  A    between atoms: C3_3  and  O1_6 
REMARK    4  A    between atoms: O1_6  and  C6_7 
REMARK    5  A    between atoms: C8_9  and  C9_10 
REMARK    6  A    between atoms: C11_14  and  N1_15 
REMARK    7  A    between atoms: C12_19  and  N2_20 
REMARK       I    between atoms: N2_20  and  C13_22 
ROOT
HETATM    1  C6  UNL     1     -29.811 -54.431  19.662  1.00  0.00     0.170 C 
HETATM    2  C7  UNL     1     -29.814 -55.535  20.651  1.00  0.00     0.021 C 
HETATM    3  C8  UNL     1     -30.607 -55.379  21.679  1.00  0.00     0.019 C 
HETATM    4  C10 UNL     1     -31.384 -54.116  21.713  1.00  0.00     0.080 C 
HETATM    5  C11 UNL     1     -32.036 -53.750  20.407  1.00  0.00     0.213 C 
HETATM    6  C12 UNL     1     -31.256 -54.250  19.258  1.00  0.00     0.147 C 
ENDROOT
BRANCH   1   7
HETATM    7  O1  UNL     1     -28.952 -54.658  18.630  1.00  0.00    -0.375 OA
BRANCH   7   8
HETATM    8  C3  UNL     1     -27.757 -53.992  18.872  1.00  0.00     0.121 C 
BRANCH   8   9
HETATM    9  C2  UNL     1     -27.021 -53.694  17.567  1.00  0.00     0.027 C 
HETATM   10  C1  UNL     1     -27.959 -53.773  16.384  1.00  0.00     0.007 C 
ENDBRANCH   8   9
BRANCH   8  11
HETATM   11  C4  UNL     1     -27.974 -52.703  19.620  1.00  0.00     0.027 C 
HETATM   12  C5  UNL     1     -26.851 -52.454  20.602  1.00  0.00     0.007 C 
ENDBRANCH   8  11
ENDBRANCH   7   8
ENDBRANCH   1   7
BRANCH   6  13
HETATM   13  N2  UNL     1     -31.426 -53.568  18.027  1.00  0.00    -0.352 N 
HETATM   14  C13 UNL     1     -31.313 -52.160  17.906  1.00  0.00     0.214 C 
HETATM   15  C14 UNL     1     -31.503 -51.493  16.586  1.00  0.00     0.117 C 
HETATM   16  O4  UNL     1     -31.049 -51.535  18.961  1.00  0.00    -0.274 OA
ATOM     17  H2  UNL     1     -31.640 -54.114  17.192  1.00  0.00     0.163 HD
ENDBRANCH   6  13
BRANCH   3  18
HETATM   18  C9  UNL     1     -30.702 -56.382  22.713  1.00  0.00     0.205 C 
HETATM   19  O2  UNL     1     -30.795 -56.068  23.920  1.00  0.00    -0.644 OA
HETATM   20  O3  UNL     1     -30.687 -57.733  22.352  1.00  0.00    -0.644 OA
ENDBRANCH   3  18
BRANCH   5  21
HETATM   21  N1  UNL     1     -33.384 -54.346  20.469  1.00  0.00    -0.073 N 
ATOM     22  H13 UNL     1     -33.854 -54.399  19.566  1.00  0.00     0.274 HD
ATOM     23  H12 UNL     1     -33.384 -55.347  20.660  1.00  0.00     0.274 HD
ATOM     24  H11 UNL     1     -33.887 -53.794  21.163  1.00  0.00     0.274 HD
ENDBRANCH   5  21
TORSDOF 7
ENDMDL
