MODEL 4
REMARK VINA RESULT: -6.107874875      2.970      5.386
REMARK  7 active torsions:
REMARK  status: ('A' for Active; 'I' for Inactive)
REMARK    1  A    between atoms: C2_2  and  C3_3 
REMARK    2  A    between atoms: C3_3  and  C4_4 
REMARK    3  A    between atoms: C3_3  and  O1_6 
REMARK    4  A    between atoms: O1_6  and  C6_7 
REMARK    5  A    between atoms: C8_9  and  C9_10 
REMARK    6  A    between atoms: C11_14  and  N1_15 
REMARK    7  A    between atoms: C12_19  and  N2_20 
REMARK       I    between atoms: N2_20  and  C13_22 
ROOT
HETATM    1  C6  UNL     1     -27.729 -54.593  17.042  1.00  0.00     0.170 C 
HETATM    2  C7  UNL     1     -27.027 -55.548  17.930  1.00  0.00     0.021 C 
HETATM    3  C8  UNL     1     -26.375 -55.022  18.934  1.00  0.00     0.019 C 
HETATM    4  C10 UNL     1     -26.425 -53.542  19.035  1.00  0.00     0.080 C 
HETATM    5  C11 UNL     1     -27.796 -52.951  18.849  1.00  0.00     0.213 C 
HETATM    6  C12 UNL     1     -28.623 -53.781  17.951  1.00  0.00     0.147 C 
ENDROOT
BRANCH   1   7
HETATM    7  O1  UNL     1     -28.372 -55.214  16.014  1.00  0.00    -0.375 OA
BRANCH   7   8
HETATM    8  C3  UNL     1     -27.666 -55.002  14.836  1.00  0.00     0.121 C 
BRANCH   8   9
HETATM    9  C2  UNL     1     -26.522 -54.013  15.052  1.00  0.00     0.027 C 
HETATM   10  C1  UNL     1     -25.399 -54.259  14.071  1.00  0.00     0.007 C 
ENDBRANCH   8   9
BRANCH   8  11
HETATM   11  C4  UNL     1     -27.107 -56.285  14.278  1.00  0.00     0.027 C 
HETATM   12  C5  UNL     1     -27.713 -57.485  14.972  1.00  0.00     0.007 C 
ENDBRANCH   8  11
ENDBRANCH   7   8
ENDBRANCH   1   7
BRANCH   6  13
HETATM   13  N2  UNL     1     -29.685 -53.127  17.277  1.00  0.00    -0.352 N 
HETATM   14  C13 UNL     1     -31.003 -53.071  17.794  1.00  0.00     0.214 C 
HETATM   15  C14 UNL     1     -32.085 -52.369  17.044  1.00  0.00     0.117 C 
HETATM   16  O4  UNL     1     -31.189 -53.637  18.898  1.00  0.00    -0.274 OA
ATOM     17  H2  UNL     1     -29.492 -52.678  16.382  1.00  0.00     0.163 HD
ENDBRANCH   6  13
BRANCH   3  18
HETATM   18  C9  UNL     1     -25.649 -55.843  19.873  1.00  0.00     0.205 C 
HETATM   19  O2  UNL     1     -25.781 -55.694  21.108  1.00  0.00    -0.644 OA
HETATM   20  O3  UNL     1     -24.780 -56.826  19.386  1.00  0.00    -0.644 OA
ENDBRANCH   3  18
BRANCH   5  21
HETATM   21  N1  UNL     1     -28.365 -52.862  20.208  1.00  0.00    -0.073 N 
ATOM     22  H13 UNL     1     -27.663 -52.834  20.947  1.00  0.00     0.274 HD
ATOM     23  H12 UNL     1     -28.792 -51.960  20.418  1.00  0.00     0.274 HD
ATOM     24  H11 UNL     1     -29.008 -53.650  20.280  1.00  0.00     0.274 HD
ENDBRANCH   5  21
TORSDOF 7
ENDMDL
