MODEL 1
REMARK VINA RESULT: -6.485358060      0.000      0.000
REMARK  7 active torsions:
REMARK  status: ('A' for Active; 'I' for Inactive)
REMARK    1  A    between atoms: C2_2  and  C3_3 
REMARK    2  A    between atoms: C3_3  and  C4_4 
REMARK    3  A    between atoms: C3_3  and  O1_6 
REMARK    4  A    between atoms: O1_6  and  C6_7 
REMARK    5  A    between atoms: C8_9  and  C9_10 
REMARK    6  A    between atoms: C11_14  and  N1_15 
REMARK    7  A    between atoms: C12_19  and  N2_20 
REMARK       I    between atoms: N2_20  and  C13_22 
ROOT
HETATM    1  C6  UNL     1     -29.862 -54.804  19.437  1.00  0.00     0.170 C 
HETATM    2  C7  UNL     1     -29.569 -53.383  19.133  1.00  0.00     0.021 C 
HETATM    3  C8  UNL     1     -30.563 -52.549  19.295  1.00  0.00     0.019 C 
HETATM    4  C10 UNL     1     -31.843 -53.145  19.751  1.00  0.00     0.080 C 
HETATM    5  C11 UNL     1     -31.706 -54.122  20.886  1.00  0.00     0.213 C 
HETATM    6  C12 UNL     1     -30.401 -54.811  20.848  1.00  0.00     0.147 C 
ENDROOT
BRANCH   1   7
HETATM    7  O1  UNL     1     -28.785 -55.612  19.231  1.00  0.00    -0.375 OA
BRANCH   7   8
HETATM    8  C3  UNL     1     -27.674 -54.832  18.936  1.00  0.00     0.121 C 
BRANCH   8   9
HETATM    9  C2  UNL     1     -26.592 -54.991  20.003  1.00  0.00     0.027 C 
HETATM   10  C1  UNL     1     -26.006 -53.652  20.386  1.00  0.00     0.007 C 
ENDBRANCH   8   9
BRANCH   8  11
HETATM   11  C4  UNL     1     -27.091 -55.172  17.590  1.00  0.00     0.027 C 
HETATM   12  C5  UNL     1     -27.014 -53.944  16.709  1.00  0.00     0.007 C 
ENDBRANCH   8  11
ENDBRANCH   7   8
ENDBRANCH   1   7
BRANCH   6  13
HETATM   13  N2  UNL     1     -30.330 -56.077  21.484  1.00  0.00    -0.352 N 
HETATM   14  C13 UNL     1     -29.394 -56.371  22.507  1.00  0.00     0.214 C 
HETATM   15  C14 UNL     1     -29.362 -57.720  23.142  1.00  0.00     0.117 C 
HETATM   16  O4  UNL     1     -28.617 -55.440  22.830  1.00  0.00    -0.274 OA
ATOM     17  H2  UNL     1     -30.981 -56.806  21.192  1.00  0.00     0.163 HD
ENDBRANCH   6  13
BRANCH   3  18
HETATM   18  C9  UNL     1     -30.409 -51.137  19.033  1.00  0.00     0.205 C 
HETATM   19  O2  UNL     1     -31.220 -50.515  18.314  1.00  0.00    -0.644 OA
HETATM   20  O3  UNL     1     -29.326 -50.457  19.599  1.00  0.00    -0.644 OA
ENDBRANCH   3  18
BRANCH   5  21
HETATM   21  N1  UNL     1     -31.877 -53.317  22.111  1.00  0.00    -0.073 N 
ATOM     22  H13 UNL     1     -30.999 -53.058  22.560  1.00  0.00     0.274 HD
ATOM     23  H12 UNL     1     -32.205 -52.367  21.936  1.00  0.00     0.274 HD
ATOM     24  H11 UNL     1     -32.499 -53.865  22.705  1.00  0.00     0.274 HD
ENDBRANCH   5  21
TORSDOF 7
ENDMDL
