MODEL 2
REMARK VINA RESULT: -6.179336648      1.457      1.752
REMARK  7 active torsions:
REMARK  status: ('A' for Active; 'I' for Inactive)
REMARK    1  A    between atoms: C2_2  and  C3_3 
REMARK    2  A    between atoms: C3_3  and  C4_4 
REMARK    3  A    between atoms: C3_3  and  O1_6 
REMARK    4  A    between atoms: O1_6  and  C6_7 
REMARK    5  A    between atoms: C8_9  and  C9_10 
REMARK    6  A    between atoms: C11_14  and  N1_15 
REMARK    7  A    between atoms: C12_19  and  N2_20 
REMARK       I    between atoms: N2_20  and  C13_22 
ROOT
HETATM    1  C6  UNL     1     -28.953 -54.123  19.892  1.00  0.00     0.170 C 
HETATM    2  C7  UNL     1     -29.150 -52.663  19.738  1.00  0.00     0.021 C 
HETATM    3  C8  UNL     1     -30.214 -52.298  19.071  1.00  0.00     0.019 C 
HETATM    4  C10 UNL     1     -31.067 -53.399  18.557  1.00  0.00     0.080 C 
HETATM    5  C11 UNL     1     -31.345 -54.490  19.556  1.00  0.00     0.213 C 
HETATM    6  C12 UNL     1     -30.231 -54.639  20.513  1.00  0.00     0.147 C 
ENDROOT
BRANCH   1   7
HETATM    7  O1  UNL     1     -27.819 -54.426  20.584  1.00  0.00    -0.375 OA
BRANCH   7   8
HETATM    8  C3  UNL     1     -26.727 -54.354  19.728  1.00  0.00     0.121 C 
BRANCH   8   9
HETATM    9  C2  UNL     1     -25.574 -53.586  20.373  1.00  0.00     0.027 C 
HETATM   10  C1  UNL     1     -26.087 -52.435  21.207  1.00  0.00     0.007 C 
ENDBRANCH   8   9
BRANCH   8  11
HETATM   11  C4  UNL     1     -26.241 -55.720  19.321  1.00  0.00     0.027 C 
HETATM   12  C5  UNL     1     -26.246 -56.668  20.500  1.00  0.00     0.007 C 
ENDBRANCH   8  11
ENDBRANCH   7   8
ENDBRANCH   1   7
BRANCH   6  13
HETATM   13  N2  UNL     1     -30.096 -55.903  21.141  1.00  0.00    -0.352 N 
HETATM   14  C13 UNL     1     -30.717 -56.218  22.375  1.00  0.00     0.214 C 
HETATM   15  C14 UNL     1     -30.541 -57.564  22.992  1.00  0.00     0.117 C 
HETATM   16  O4  UNL     1     -31.406 -55.308  22.895  1.00  0.00    -0.274 OA
ATOM     17  H2  UNL     1     -29.527 -56.616  20.684  1.00  0.00     0.163 HD
ENDBRANCH   6  13
BRANCH   3  18
HETATM   18  C9  UNL     1     -30.521 -50.905  18.850  1.00  0.00     0.205 C 
HETATM   19  O2  UNL     1     -31.420 -50.553  18.055  1.00  0.00    -0.644 OA
HETATM   20  O3  UNL     1     -29.794 -49.932  19.542  1.00  0.00    -0.644 OA
ENDBRANCH   3  18
BRANCH   5  21
HETATM   21  N1  UNL     1     -32.602 -54.095  20.218  1.00  0.00    -0.073 N 
ATOM     22  H13 UNL     1     -32.799 -53.095  20.167  1.00  0.00     0.274 HD
ATOM     23  H12 UNL     1     -33.441 -54.405  19.729  1.00  0.00     0.274 HD
ATOM     24  H11 UNL     1     -32.525 -54.450  21.171  1.00  0.00     0.274 HD
ENDBRANCH   5  21
TORSDOF 7
ENDMDL
