MODEL 4
REMARK VINA RESULT: -6.082259282      2.048      4.581
REMARK  7 active torsions:
REMARK  status: ('A' for Active; 'I' for Inactive)
REMARK    1  A    between atoms: C2_2  and  C3_3 
REMARK    2  A    between atoms: C3_3  and  C4_4 
REMARK    3  A    between atoms: C3_3  and  O1_6 
REMARK    4  A    between atoms: O1_6  and  C6_7 
REMARK    5  A    between atoms: C8_9  and  C9_10 
REMARK    6  A    between atoms: C11_14  and  N1_15 
REMARK    7  A    between atoms: C12_19  and  N2_20 
REMARK       I    between atoms: N2_20  and  C13_22 
ROOT
HETATM    1  C6  UNL     1     -29.021 -53.806  19.605  1.00  0.00     0.170 C 
HETATM    2  C7  UNL     1     -28.487 -54.094  18.253  1.00  0.00     0.021 C 
HETATM    3  C8  UNL     1     -27.264 -53.693  18.024  1.00  0.00     0.019 C 
HETATM    4  C10 UNL     1     -26.588 -52.999  19.148  1.00  0.00     0.080 C 
HETATM    5  C11 UNL     1     -26.745 -53.676  20.483  1.00  0.00     0.213 C 
HETATM    6  C12 UNL     1     -28.024 -54.408  20.568  1.00  0.00     0.147 C 
ENDROOT
BRANCH   1   7
HETATM    7  O1  UNL     1     -30.302 -54.240  19.762  1.00  0.00    -0.375 OA
BRANCH   7   8
HETATM    8  C3  UNL     1     -31.172 -53.166  19.618  1.00  0.00     0.121 C 
BRANCH   8   9
HETATM    9  C2  UNL     1     -31.838 -53.180  18.243  1.00  0.00     0.027 C 
HETATM   10  C1  UNL     1     -31.476 -51.944  17.452  1.00  0.00     0.007 C 
ENDBRANCH   8   9
BRANCH   8  11
HETATM   11  C4  UNL     1     -32.239 -53.161  20.681  1.00  0.00     0.027 C 
HETATM   12  C5  UNL     1     -33.592 -53.486  20.089  1.00  0.00     0.007 C 
ENDBRANCH   8  11
ENDBRANCH   7   8
ENDBRANCH   1   7
BRANCH   6  13
HETATM   13  N2  UNL     1     -28.544 -54.633  21.867  1.00  0.00    -0.352 N 
HETATM   14  C13 UNL     1     -28.269 -55.807  22.612  1.00  0.00     0.214 C 
HETATM   15  C14 UNL     1     -28.843 -55.993  23.976  1.00  0.00     0.117 C 
HETATM   16  O4  UNL     1     -27.527 -56.653  22.057  1.00  0.00    -0.274 OA
ATOM     17  H2  UNL     1     -29.143 -53.920  22.283  1.00  0.00     0.163 HD
ENDBRANCH   6  13
BRANCH   3  18
HETATM   18  C9  UNL     1     -26.627 -53.913  16.747  1.00  0.00     0.205 C 
HETATM   19  O2  UNL     1     -26.442 -52.975  15.941  1.00  0.00    -0.644 OA
HETATM   20  O3  UNL     1     -26.212 -55.205  16.410  1.00  0.00    -0.644 OA
ENDBRANCH   3  18
BRANCH   5  21
HETATM   21  N1  UNL     1     -25.579 -54.572  20.600  1.00  0.00    -0.073 N 
ATOM     22  H13 UNL     1     -24.813 -54.336  19.970  1.00  0.00     0.274 HD
ATOM     23  H12 UNL     1     -25.056 -54.458  21.468  1.00  0.00     0.274 HD
ATOM     24  H11 UNL     1     -25.950 -55.512  20.463  1.00  0.00     0.274 HD
ENDBRANCH   5  21
TORSDOF 7
ENDMDL
