MODEL 1
REMARK VINA RESULT: -6.593242540      0.000      0.000
REMARK  7 active torsions:
REMARK  status: ('A' for Active; 'I' for Inactive)
REMARK    1  A    between atoms: C2_2  and  C3_3 
REMARK    2  A    between atoms: C3_3  and  C4_4 
REMARK    3  A    between atoms: C3_3  and  O1_6 
REMARK    4  A    between atoms: O1_6  and  C6_7 
REMARK    5  A    between atoms: C8_9  and  C9_10 
REMARK    6  A    between atoms: C11_14  and  N1_15 
REMARK    7  A    between atoms: C12_19  and  N2_20 
REMARK       I    between atoms: N2_20  and  C13_22 
ROOT
HETATM    1  C6  UNL     1     -29.622 -54.562  19.385  1.00  0.00     0.170 C 
HETATM    2  C7  UNL     1     -29.548 -53.165  18.901  1.00  0.00     0.021 C 
HETATM    3  C8  UNL     1     -30.584 -52.412  19.166  1.00  0.00     0.019 C 
HETATM    4  C10 UNL     1     -31.689 -53.069  19.907  1.00  0.00     0.080 C 
HETATM    5  C11 UNL     1     -31.246 -53.895  21.084  1.00  0.00     0.213 C 
HETATM    6  C12 UNL     1     -29.900 -54.460  20.867  1.00  0.00     0.147 C 
ENDROOT
BRANCH   1   7
HETATM    7  O1  UNL     1     -28.515 -55.286  19.059  1.00  0.00    -0.375 OA
BRANCH   7   8
HETATM    8  C3  UNL     1     -27.507 -54.424  18.648  1.00  0.00     0.121 C 
BRANCH   8   9
HETATM    9  C2  UNL     1     -26.327 -54.456  19.618  1.00  0.00     0.027 C 
HETATM   10  C1  UNL     1     -26.009 -53.071  20.134  1.00  0.00     0.007 C 
ENDBRANCH   8   9
BRANCH   8  11
HETATM   11  C4  UNL     1     -27.014 -54.754  17.264  1.00  0.00     0.027 C 
HETATM   12  C5  UNL     1     -26.695 -53.495  16.489  1.00  0.00     0.007 C 
ENDBRANCH   8  11
ENDBRANCH   7   8
ENDBRANCH   1   7
BRANCH   6  13
HETATM   13  N2  UNL     1     -29.577 -55.634  21.595  1.00  0.00    -0.352 N 
HETATM   14  C13 UNL     1     -28.554 -55.674  22.574  1.00  0.00     0.214 C 
HETATM   15  C14 UNL     1     -28.255 -56.936  23.311  1.00  0.00     0.117 C 
HETATM   16  O4  UNL     1     -27.936 -54.600  22.772  1.00  0.00    -0.274 OA
ATOM     17  H2  UNL     1     -30.104 -56.486  21.404  1.00  0.00     0.163 HD
ENDBRANCH   6  13
BRANCH   3  18
HETATM   18  C9  UNL     1     -30.636 -51.031  18.749  1.00  0.00     0.205 C 
HETATM   19  O2  UNL     1     -31.421 -50.650  17.853  1.00  0.00    -0.644 OA
HETATM   20  O3  UNL     1     -29.788 -50.104  19.363  1.00  0.00    -0.644 OA
ENDBRANCH   3  18
BRANCH   5  21
HETATM   21  N1  UNL     1     -31.287 -52.976  22.238  1.00  0.00    -0.073 N 
ATOM     22  H13 UNL     1     -30.410 -52.925  22.756  1.00  0.00     0.274 HD
ATOM     23  H12 UNL     1     -31.327 -51.991  21.978  1.00  0.00     0.274 HD
ATOM     24  H11 UNL     1     -32.079 -53.288  22.798  1.00  0.00     0.274 HD
ENDBRANCH   5  21
TORSDOF 7
ENDMDL
