MODEL 6
REMARK VINA RESULT: -6.021358967      1.400      2.078
REMARK  7 active torsions:
REMARK  status: ('A' for Active; 'I' for Inactive)
REMARK    1  A    between atoms: C2_2  and  C3_3 
REMARK    2  A    between atoms: C3_3  and  C4_4 
REMARK    3  A    between atoms: C3_3  and  O1_6 
REMARK    4  A    between atoms: O1_6  and  C6_7 
REMARK    5  A    between atoms: C8_9  and  C9_10 
REMARK    6  A    between atoms: C11_14  and  N1_15 
REMARK    7  A    between atoms: C12_19  and  N2_20 
REMARK       I    between atoms: N2_20  and  C13_22 
ROOT
HETATM    1  C6  UNL     1     -28.521 -53.773  20.250  1.00  0.00     0.170 C 
HETATM    2  C7  UNL     1     -28.703 -52.309  20.108  1.00  0.00     0.021 C 
HETATM    3  C8  UNL     1     -29.775 -51.928  19.463  1.00  0.00     0.019 C 
HETATM    4  C10 UNL     1     -30.650 -53.014  18.959  1.00  0.00     0.080 C 
HETATM    5  C11 UNL     1     -30.922 -54.108  19.957  1.00  0.00     0.213 C 
HETATM    6  C12 UNL     1     -29.793 -54.276  20.892  1.00  0.00     0.147 C 
ENDROOT
BRANCH   1   7
HETATM    7  O1  UNL     1     -27.378 -54.093  20.919  1.00  0.00    -0.375 OA
BRANCH   7   8
HETATM    8  C3  UNL     1     -26.415 -54.511  20.009  1.00  0.00     0.121 C 
BRANCH   8   9
HETATM    9  C2  UNL     1     -27.037 -54.795  18.643  1.00  0.00     0.027 C 
HETATM   10  C1  UNL     1     -26.475 -53.872  17.587  1.00  0.00     0.007 C 
ENDBRANCH   8   9
BRANCH   8  11
HETATM   11  C4  UNL     1     -25.316 -53.493  19.846  1.00  0.00     0.027 C 
HETATM   12  C5  UNL     1     -25.086 -52.736  21.135  1.00  0.00     0.007 C 
ENDBRANCH   8  11
ENDBRANCH   7   8
ENDBRANCH   1   7
BRANCH   6  13
HETATM   13  N2  UNL     1     -29.661 -55.545  21.510  1.00  0.00    -0.352 N 
HETATM   14  C13 UNL     1     -30.280 -55.866  22.744  1.00  0.00     0.214 C 
HETATM   15  C14 UNL     1     -30.108 -57.218  23.351  1.00  0.00     0.117 C 
HETATM   16  O4  UNL     1     -30.963 -54.956  23.273  1.00  0.00    -0.274 OA
ATOM     17  H2  UNL     1     -29.098 -56.258  21.046  1.00  0.00     0.163 HD
ENDBRANCH   6  13
BRANCH   3  18
HETATM   18  C9  UNL     1     -30.068 -50.529  19.256  1.00  0.00     0.205 C 
HETATM   19  O2  UNL     1     -30.977 -50.162  18.479  1.00  0.00    -0.644 OA
HETATM   20  O3  UNL     1     -29.317 -49.569  19.940  1.00  0.00    -0.644 OA
ENDBRANCH   3  18
BRANCH   5  21
HETATM   21  N1  UNL     1     -32.163 -53.701  20.645  1.00  0.00    -0.073 N 
ATOM     22  H13 UNL     1     -33.009 -53.866  20.101  1.00  0.00     0.274 HD
ATOM     23  H12 UNL     1     -32.411 -54.298  21.433  1.00  0.00     0.274 HD
ATOM     24  H11 UNL     1     -32.019 -52.724  20.897  1.00  0.00     0.274 HD
ENDBRANCH   5  21
TORSDOF 7
ENDMDL
