MODEL 20
REMARK VINA RESULT: -5.735853909      1.794      4.372
REMARK  7 active torsions:
REMARK  status: ('A' for Active; 'I' for Inactive)
REMARK    1  A    between atoms: C2_2  and  C3_3 
REMARK    2  A    between atoms: C3_3  and  C4_4 
REMARK    3  A    between atoms: C3_3  and  O1_6 
REMARK    4  A    between atoms: O1_6  and  C6_7 
REMARK    5  A    between atoms: C8_9  and  C9_10 
REMARK    6  A    between atoms: C11_14  and  N1_15 
REMARK    7  A    between atoms: C12_19  and  N2_20 
REMARK       I    between atoms: N2_20  and  C13_22 
ROOT
HETATM    1  C6  UNL     1     -29.279 -54.222  20.093  1.00  0.00     0.170 C 
HETATM    2  C7  UNL     1     -29.307 -55.325  21.082  1.00  0.00     0.021 C 
HETATM    3  C8  UNL     1     -30.095 -55.149  22.111  1.00  0.00     0.019 C 
HETATM    4  C10 UNL     1     -30.842 -53.867  22.144  1.00  0.00     0.080 C 
HETATM    5  C11 UNL     1     -31.486 -53.487  20.839  1.00  0.00     0.213 C 
HETATM    6  C12 UNL     1     -30.719 -54.006  19.689  1.00  0.00     0.147 C 
ENDROOT
BRANCH   1   7
HETATM    7  O1  UNL     1     -28.426 -54.471  19.060  1.00  0.00    -0.375 OA
BRANCH   7   8
HETATM    8  C3  UNL     1     -27.320 -53.637  19.167  1.00  0.00     0.121 C 
BRANCH   8   9
HETATM    9  C2  UNL     1     -26.211 -54.297  19.983  1.00  0.00     0.027 C 
HETATM   10  C1  UNL     1     -25.301 -53.261  20.601  1.00  0.00     0.007 C 
ENDBRANCH   8   9
BRANCH   8  11
HETATM   11  C4  UNL     1     -26.774 -53.253  17.816  1.00  0.00     0.027 C 
HETATM   12  C5  UNL     1     -27.717 -53.678  16.712  1.00  0.00     0.007 C 
ENDBRANCH   8  11
ENDBRANCH   7   8
ENDBRANCH   1   7
BRANCH   6  13
HETATM   13  N2  UNL     1     -30.874 -53.321  18.458  1.00  0.00    -0.352 N 
HETATM   14  C13 UNL     1     -30.648 -51.929  18.319  1.00  0.00     0.214 C 
HETATM   15  C14 UNL     1     -30.826 -51.258  16.999  1.00  0.00     0.117 C 
HETATM   16  O4  UNL     1     -30.296 -51.320  19.358  1.00  0.00    -0.274 OA
ATOM     17  H2  UNL     1     -31.161 -53.854  17.636  1.00  0.00     0.163 HD
ENDBRANCH   6  13
BRANCH   3  18
HETATM   18  C9  UNL     1     -30.214 -56.148  23.146  1.00  0.00     0.205 C 
HETATM   19  O2  UNL     1     -30.417 -57.351  22.871  1.00  0.00    -0.644 OA
HETATM   20  O3  UNL     1     -30.099 -55.757  24.484  1.00  0.00    -0.644 OA
ENDBRANCH   3  18
BRANCH   5  21
HETATM   21  N1  UNL     1     -32.848 -54.050  20.902  1.00  0.00    -0.073 N 
ATOM     22  H13 UNL     1     -32.924 -54.990  20.514  1.00  0.00     0.274 HD
ATOM     23  H12 UNL     1     -33.152 -54.288  21.846  1.00  0.00     0.274 HD
ATOM     24  H11 UNL     1     -33.442 -53.363  20.439  1.00  0.00     0.274 HD
ENDBRANCH   5  21
TORSDOF 7
ENDMDL
