MODEL 20
REMARK VINA RESULT: -5.663321149      1.769      4.383
REMARK  7 active torsions:
REMARK  status: ('A' for Active; 'I' for Inactive)
REMARK    1  A    between atoms: C2_2  and  C3_3 
REMARK    2  A    between atoms: C3_3  and  C4_4 
REMARK    3  A    between atoms: C3_3  and  O1_6 
REMARK    4  A    between atoms: O1_6  and  C6_7 
REMARK    5  A    between atoms: C8_9  and  C9_10 
REMARK    6  A    between atoms: C11_14  and  N1_15 
REMARK    7  A    between atoms: C12_19  and  N2_20 
REMARK       I    between atoms: N2_20  and  C13_22 
ROOT
HETATM    1  C6  UNL     1      44.230  -0.562  21.427  1.00  0.00     0.170 C 
HETATM    2  C7  UNL     1      44.358  -0.609  19.952  1.00  0.00     0.021 C 
HETATM    3  C8  UNL     1      43.408  -0.015  19.277  1.00  0.00     0.019 C 
HETATM    4  C10 UNL     1      42.334   0.614  20.086  1.00  0.00     0.080 C 
HETATM    5  C11 UNL     1      42.827   1.430  21.250  1.00  0.00     0.213 C 
HETATM    6  C12 UNL     1      44.103   0.903  21.774  1.00  0.00     0.147 C 
ENDROOT
BRANCH   1   7
HETATM    7  O1  UNL     1      45.246  -1.214  22.058  1.00  0.00    -0.375 OA
BRANCH   7   8
HETATM    8  C3  UNL     1      44.768  -2.404  22.591  1.00  0.00     0.121 C 
BRANCH   8   9
HETATM    9  C2  UNL     1      45.450  -3.608  21.944  1.00  0.00     0.027 C 
HETATM   10  C1  UNL     1      44.449  -4.699  21.636  1.00  0.00     0.007 C 
ENDBRANCH   8   9
BRANCH   8  11
HETATM   11  C4  UNL     1      44.964  -2.471  24.083  1.00  0.00     0.027 C 
HETATM   12  C5  UNL     1      46.233  -1.757  24.493  1.00  0.00     0.007 C 
ENDBRANCH   8  11
ENDBRANCH   7   8
ENDBRANCH   1   7
BRANCH   6  13
HETATM   13  N2  UNL     1      44.409   1.202  23.126  1.00  0.00    -0.352 N 
HETATM   14  C13 UNL     1      43.508   0.951  24.191  1.00  0.00     0.214 C 
HETATM   15  C14 UNL     1      43.881   1.285  25.596  1.00  0.00     0.117 C 
HETATM   16  O4  UNL     1      42.406   0.441  23.874  1.00  0.00    -0.274 OA
ATOM     17  H2  UNL     1      45.316   1.615  23.340  1.00  0.00     0.163 HD
ENDBRANCH   6  13
BRANCH   3  18
HETATM   18  C9  UNL     1      43.415   0.012  17.834  1.00  0.00     0.205 C 
HETATM   19  O2  UNL     1      42.498  -0.516  17.168  1.00  0.00    -0.644 OA
HETATM   20  O3  UNL     1      44.473   0.642  17.172  1.00  0.00    -0.644 OA
ENDBRANCH   3  18
BRANCH   5  21
HETATM   21  N1  UNL     1      42.962   2.803  20.728  1.00  0.00    -0.073 N 
ATOM     22  H13 UNL     1      42.367   2.999  19.924  1.00  0.00     0.274 HD
ATOM     23  H12 UNL     1      42.570   3.517  21.342  1.00  0.00     0.274 HD
ATOM     24  H11 UNL     1      43.958   2.921  20.543  1.00  0.00     0.274 HD
ENDBRANCH   5  21
TORSDOF 7
ENDMDL
