MODEL 2
REMARK VINA RESULT: -6.503218140      0.969      1.256
REMARK  7 active torsions:
REMARK  status: ('A' for Active; 'I' for Inactive)
REMARK    1  A    between atoms: C2_2  and  C3_3 
REMARK    2  A    between atoms: C3_3  and  C4_4 
REMARK    3  A    between atoms: C3_3  and  O1_6 
REMARK    4  A    between atoms: O1_6  and  C6_7 
REMARK    5  A    between atoms: C8_9  and  C9_10 
REMARK    6  A    between atoms: C11_14  and  N1_15 
REMARK    7  A    between atoms: C12_19  and  N2_20 
REMARK       I    between atoms: N2_20  and  C13_22 
ROOT
HETATM    1  C6  UNL     1      45.076  -0.180  22.248  1.00  0.00     0.170 C 
HETATM    2  C7  UNL     1      44.207  -0.142  23.447  1.00  0.00     0.021 C 
HETATM    3  C8  UNL     1      43.273   0.773  23.446  1.00  0.00     0.019 C 
HETATM    4  C10 UNL     1      43.222   1.647  22.248  1.00  0.00     0.080 C 
HETATM    5  C11 UNL     1      43.330   0.916  20.937  1.00  0.00     0.213 C 
HETATM    6  C12 UNL     1      44.136  -0.313  21.072  1.00  0.00     0.147 C 
ENDROOT
BRANCH   1   7
HETATM    7  O1  UNL     1      46.032  -1.147  22.328  1.00  0.00    -0.375 OA
BRANCH   7   8
HETATM    8  C3  UNL     1      45.778  -1.954  23.430  1.00  0.00     0.121 C 
BRANCH   8   9
HETATM    9  C2  UNL     1      45.374  -3.363  22.998  1.00  0.00     0.027 C 
HETATM   10  C1  UNL     1      46.036  -3.742  21.694  1.00  0.00     0.007 C 
ENDBRANCH   8   9
BRANCH   8  11
HETATM   11  C4  UNL     1      46.969  -2.044  24.347  1.00  0.00     0.027 C 
HETATM   12  C5  UNL     1      46.694  -2.984  25.500  1.00  0.00     0.007 C 
ENDBRANCH   8  11
ENDBRANCH   7   8
ENDBRANCH   1   7
BRANCH   6  13
HETATM   13  N2  UNL     1      44.755  -0.802  19.894  1.00  0.00    -0.352 N 
HETATM   14  C13 UNL     1      44.153  -1.775  19.057  1.00  0.00     0.214 C 
HETATM   15  C14 UNL     1      44.848  -2.255  17.828  1.00  0.00     0.117 C 
HETATM   16  O4  UNL     1      43.024  -2.190  19.415  1.00  0.00    -0.274 OA
ATOM     17  H2  UNL     1      45.672  -0.438  19.638  1.00  0.00     0.163 HD
ENDBRANCH   6  13
BRANCH   3  18
HETATM   18  C9  UNL     1      42.359   0.915  24.554  1.00  0.00     0.205 C 
HETATM   19  O2  UNL     1      42.489   1.832  25.394  1.00  0.00    -0.644 OA
HETATM   20  O3  UNL     1      41.307   0.002  24.689  1.00  0.00    -0.644 OA
ENDBRANCH   3  18
BRANCH   5  21
HETATM   21  N1  UNL     1      41.938   0.631  20.540  1.00  0.00    -0.073 N 
ATOM     22  H13 UNL     1      41.711  -0.363  20.516  1.00  0.00     0.274 HD
ATOM     23  H12 UNL     1      41.247   0.893  21.242  1.00  0.00     0.274 HD
ATOM     24  H11 UNL     1      41.815   1.103  19.644  1.00  0.00     0.274 HD
ENDBRANCH   5  21
TORSDOF 7
ENDMDL
