MODEL 8
REMARK VINA RESULT: -6.163655553      1.007      1.808
REMARK  7 active torsions:
REMARK  status: ('A' for Active; 'I' for Inactive)
REMARK    1  A    between atoms: C2_2  and  C3_3 
REMARK    2  A    between atoms: C3_3  and  C4_4 
REMARK    3  A    between atoms: C3_3  and  O1_6 
REMARK    4  A    between atoms: O1_6  and  C6_7 
REMARK    5  A    between atoms: C8_9  and  C9_10 
REMARK    6  A    between atoms: C11_14  and  N1_15 
REMARK    7  A    between atoms: C12_19  and  N2_20 
REMARK       I    between atoms: N2_20  and  C13_22 
ROOT
HETATM    1  C6  UNL     1      44.572  -0.602  21.800  1.00  0.00     0.170 C 
HETATM    2  C7  UNL     1      43.657  -0.788  22.950  1.00  0.00     0.021 C 
HETATM    3  C8  UNL     1      42.872   0.221  23.225  1.00  0.00     0.019 C 
HETATM    4  C10 UNL     1      43.016   1.411  22.351  1.00  0.00     0.080 C 
HETATM    5  C11 UNL     1      43.080   1.100  20.880  1.00  0.00     0.213 C 
HETATM    6  C12 UNL     1      43.684  -0.224  20.636  1.00  0.00     0.147 C 
ENDROOT
BRANCH   1   7
HETATM    7  O1  UNL     1      45.366  -1.687  21.584  1.00  0.00    -0.375 OA
BRANCH   7   8
HETATM    8  C3  UNL     1      46.597  -1.483  22.195  1.00  0.00     0.121 C 
BRANCH   8   9
HETATM    9  C2  UNL     1      46.879  -2.564  23.237  1.00  0.00     0.027 C 
HETATM   10  C1  UNL     1      46.746  -2.015  24.639  1.00  0.00     0.007 C 
ENDBRANCH   8   9
BRANCH   8  11
HETATM   11  C4  UNL     1      47.724  -1.459  21.195  1.00  0.00     0.027 C 
HETATM   12  C5  UNL     1      47.401  -2.324  19.997  1.00  0.00     0.007 C 
ENDBRANCH   8  11
ENDBRANCH   7   8
ENDBRANCH   1   7
BRANCH   6  13
HETATM   13  N2  UNL     1      44.283  -0.428  19.367  1.00  0.00    -0.352 N 
HETATM   14  C13 UNL     1      43.831  -1.413  18.454  1.00  0.00     0.214 C 
HETATM   15  C14 UNL     1      44.498  -1.585  17.131  1.00  0.00     0.117 C 
HETATM   16  O4  UNL     1      42.857  -2.109  18.829  1.00  0.00    -0.274 OA
ATOM     17  H2  UNL     1      45.073   0.160  19.100  1.00  0.00     0.163 HD
ENDBRANCH   6  13
BRANCH   3  18
HETATM   18  C9  UNL     1      41.934   0.166  24.320  1.00  0.00     0.205 C 
HETATM   19  O2  UNL     1      41.811   1.118  25.122  1.00  0.00    -0.644 OA
HETATM   20  O3  UNL     1      41.149  -0.980  24.485  1.00  0.00    -0.644 OA
ENDBRANCH   3  18
BRANCH   5  21
HETATM   21  N1  UNL     1      41.684   1.173  20.409  1.00  0.00    -0.073 N 
ATOM     22  H13 UNL     1      41.077   0.455  20.805  1.00  0.00     0.274 HD
ATOM     23  H12 UNL     1      41.168   1.975  20.770  1.00  0.00     0.274 HD
ATOM     24  H11 UNL     1      41.744   1.146  19.392  1.00  0.00     0.274 HD
ENDBRANCH   5  21
TORSDOF 7
ENDMDL
