MODEL 19
REMARK VINA RESULT: -5.699440822      1.900      4.785
REMARK  7 active torsions:
REMARK  status: ('A' for Active; 'I' for Inactive)
REMARK    1  A    between atoms: C2_2  and  C3_3 
REMARK    2  A    between atoms: C3_3  and  C4_4 
REMARK    3  A    between atoms: C3_3  and  O1_6 
REMARK    4  A    between atoms: O1_6  and  C6_7 
REMARK    5  A    between atoms: C8_9  and  C9_10 
REMARK    6  A    between atoms: C11_14  and  N1_15 
REMARK    7  A    between atoms: C12_19  and  N2_20 
REMARK       I    between atoms: N2_20  and  C13_22 
ROOT
HETATM    1  C6  UNL     1      43.407  -1.080  21.487  1.00  0.00     0.170 C 
HETATM    2  C7  UNL     1      44.136  -1.051  20.198  1.00  0.00     0.021 C 
HETATM    3  C8  UNL     1      43.670  -0.228  19.296  1.00  0.00     0.019 C 
HETATM    4  C10 UNL     1      42.471   0.554  19.688  1.00  0.00     0.080 C 
HETATM    5  C11 UNL     1      42.550   1.168  21.060  1.00  0.00     0.213 C 
HETATM    6  C12 UNL     1      43.381   0.353  21.967  1.00  0.00     0.147 C 
ENDROOT
BRANCH   1   7
HETATM    7  O1  UNL     1      43.941  -1.969  22.369  1.00  0.00    -0.375 OA
BRANCH   7   8
HETATM    8  C3  UNL     1      45.268  -2.209  22.032  1.00  0.00     0.121 C 
BRANCH   8   9
HETATM    9  C2  UNL     1      46.216  -1.505  23.001  1.00  0.00     0.027 C 
HETATM   10  C1  UNL     1      45.867  -1.829  24.435  1.00  0.00     0.007 C 
ENDBRANCH   8   9
BRANCH   8  11
HETATM   11  C4  UNL     1      45.586  -3.681  22.015  1.00  0.00     0.027 C 
HETATM   12  C5  UNL     1      44.342  -4.499  21.749  1.00  0.00     0.007 C 
ENDBRANCH   8  11
ENDBRANCH   7   8
ENDBRANCH   1   7
BRANCH   6  13
HETATM   13  N2  UNL     1      43.130   0.489  23.356  1.00  0.00    -0.352 N 
HETATM   14  C13 UNL     1      43.920   1.306  24.203  1.00  0.00     0.214 C 
HETATM   15  C14 UNL     1      43.612   1.413  25.658  1.00  0.00     0.117 C 
HETATM   16  O4  UNL     1      44.870   1.915  23.654  1.00  0.00    -0.274 OA
ATOM     17  H2  UNL     1      42.347  -0.023  23.763  1.00  0.00     0.163 HD
ENDBRANCH   6  13
BRANCH   3  18
HETATM   18  C9  UNL     1      44.291  -0.105  17.998  1.00  0.00     0.205 C 
HETATM   19  O2  UNL     1      43.929   0.772  17.183  1.00  0.00    -0.644 OA
HETATM   20  O3  UNL     1      45.317  -0.989  17.650  1.00  0.00    -0.644 OA
ENDBRANCH   3  18
BRANCH   5  21
HETATM   21  N1  UNL     1      43.111   2.516  20.847  1.00  0.00    -0.073 N 
ATOM     22  H13 UNL     1      42.521   3.122  20.277  1.00  0.00     0.274 HD
ATOM     23  H12 UNL     1      43.108   3.100  21.682  1.00  0.00     0.274 HD
ATOM     24  H11 UNL     1      44.039   2.359  20.456  1.00  0.00     0.274 HD
ENDBRANCH   5  21
TORSDOF 7
ENDMDL
