MODEL 6
REMARK VINA RESULT: -6.206399322      2.465      4.603
REMARK  7 active torsions:
REMARK  status: ('A' for Active; 'I' for Inactive)
REMARK    1  A    between atoms: C2_2  and  C3_3 
REMARK    2  A    between atoms: C3_3  and  C4_4 
REMARK    3  A    between atoms: C3_3  and  O1_6 
REMARK    4  A    between atoms: O1_6  and  C6_7 
REMARK    5  A    between atoms: C8_9  and  C9_10 
REMARK    6  A    between atoms: C11_14  and  N1_15 
REMARK    7  A    between atoms: C12_19  and  N2_20 
REMARK       I    between atoms: N2_20  and  C13_22 
ROOT
HETATM    1  C6  UNL     1      44.274  -1.232  23.177  1.00  0.00     0.170 C 
HETATM    2  C7  UNL     1      45.454  -1.186  24.071  1.00  0.00     0.021 C 
HETATM    3  C8  UNL     1      45.911  -2.343  24.474  1.00  0.00     0.019 C 
HETATM    4  C10 UNL     1      45.177  -3.536  23.986  1.00  0.00     0.080 C 
HETATM    5  C11 UNL     1      44.854  -3.511  22.516  1.00  0.00     0.213 C 
HETATM    6  C12 UNL     1      44.673  -2.130  22.029  1.00  0.00     0.147 C 
ENDROOT
BRANCH   1   7
HETATM    7  O1  UNL     1      43.848   0.009  22.811  1.00  0.00    -0.375 OA
BRANCH   7   8
HETATM    8  C3  UNL     1      42.686   0.319  23.507  1.00  0.00     0.121 C 
BRANCH   8   9
HETATM    9  C2  UNL     1      41.980  -0.947  23.991  1.00  0.00     0.027 C 
HETATM   10  C1  UNL     1      40.713  -0.609  24.742  1.00  0.00     0.007 C 
ENDBRANCH   8   9
BRANCH   8  11
HETATM   11  C4  UNL     1      42.960   1.211  24.689  1.00  0.00     0.027 C 
HETATM   12  C5  UNL     1      43.968   2.282  24.335  1.00  0.00     0.007 C 
ENDBRANCH   8  11
ENDBRANCH   7   8
ENDBRANCH   1   7
BRANCH   6  13
HETATM   13  N2  UNL     1      43.878  -1.964  20.866  1.00  0.00    -0.352 N 
HETATM   14  C13 UNL     1      44.426  -1.928  19.560  1.00  0.00     0.214 C 
HETATM   15  C14 UNL     1      43.544  -1.751  18.370  1.00  0.00     0.117 C 
HETATM   16  O4  UNL     1      45.672  -2.054  19.479  1.00  0.00    -0.274 OA
ATOM     17  H2  UNL     1      42.869  -1.866  20.975  1.00  0.00     0.163 HD
ENDBRANCH   6  13
BRANCH   3  18
HETATM   18  C9  UNL     1      47.057  -2.435  25.347  1.00  0.00     0.205 C 
HETATM   19  O2  UNL     1      47.065  -3.205  26.333  1.00  0.00    -0.644 OA
HETATM   20  O3  UNL     1      48.178  -1.642  25.082  1.00  0.00    -0.644 OA
ENDBRANCH   3  18
BRANCH   5  21
HETATM   21  N1  UNL     1      45.989  -4.191  21.862  1.00  0.00    -0.073 N 
ATOM     22  H13 UNL     1      46.727  -3.558  21.554  1.00  0.00     0.274 HD
ATOM     23  H12 UNL     1      46.564  -4.740  22.500  1.00  0.00     0.274 HD
ATOM     24  H11 UNL     1      45.573  -4.737  21.107  1.00  0.00     0.274 HD
ENDBRANCH   5  21
TORSDOF 7
ENDMDL
