MODEL 1
REMARK VINA RESULT: -6.549772720      0.000      0.000
REMARK  7 active torsions:
REMARK  status: ('A' for Active; 'I' for Inactive)
REMARK    1  A    between atoms: C2_2  and  C3_3 
REMARK    2  A    between atoms: C3_3  and  C4_4 
REMARK    3  A    between atoms: C3_3  and  O1_6 
REMARK    4  A    between atoms: O1_6  and  C6_7 
REMARK    5  A    between atoms: C8_9  and  C9_10 
REMARK    6  A    between atoms: C11_14  and  N1_15 
REMARK    7  A    between atoms: C12_19  and  N2_20 
REMARK       I    between atoms: N2_20  and  C13_22 
ROOT
HETATM    1  C6  UNL     1      45.081   0.044  21.946  1.00  0.00     0.170 C 
HETATM    2  C7  UNL     1      44.293  -0.020  23.199  1.00  0.00     0.021 C 
HETATM    3  C8  UNL     1      43.329   0.857  23.312  1.00  0.00     0.019 C 
HETATM    4  C10 UNL     1      43.168   1.795  22.174  1.00  0.00     0.080 C 
HETATM    5  C11 UNL     1      43.214   1.144  20.818  1.00  0.00     0.213 C 
HETATM    6  C12 UNL     1      44.070  -0.059  20.828  1.00  0.00     0.147 C 
ENDROOT
BRANCH   1   7
HETATM    7  O1  UNL     1      46.074  -0.888  21.907  1.00  0.00    -0.375 OA
BRANCH   7   8
HETATM    8  C3  UNL     1      45.724  -1.965  22.713  1.00  0.00     0.121 C 
BRANCH   8   9
HETATM    9  C2  UNL     1      45.476  -3.219  21.876  1.00  0.00     0.027 C 
HETATM   10  C1  UNL     1      44.063  -3.723  22.058  1.00  0.00     0.007 C 
ENDBRANCH   8   9
BRANCH   8  11
HETATM   11  C4  UNL     1      46.782  -2.263  23.743  1.00  0.00     0.027 C 
HETATM   12  C5  UNL     1      46.155  -2.659  25.061  1.00  0.00     0.007 C 
ENDBRANCH   8  11
ENDBRANCH   7   8
ENDBRANCH   1   7
BRANCH   6  13
HETATM   13  N2  UNL     1      44.625  -0.456  19.586  1.00  0.00    -0.352 N 
HETATM   14  C13 UNL     1      44.054  -1.471  18.778  1.00  0.00     0.214 C 
HETATM   15  C14 UNL     1      44.680  -1.850  17.478  1.00  0.00     0.117 C 
HETATM   16  O4  UNL     1      43.013  -2.012  19.224  1.00  0.00    -0.274 OA
ATOM     17  H2  UNL     1      45.472   0.009  19.259  1.00  0.00     0.163 HD
ENDBRANCH   6  13
BRANCH   3  18
HETATM   18  C9  UNL     1      42.487   0.900  24.484  1.00  0.00     0.205 C 
HETATM   19  O2  UNL     1      42.656   1.759  25.377  1.00  0.00    -0.644 OA
HETATM   20  O3  UNL     1      41.462  -0.042  24.619  1.00  0.00    -0.644 OA
ENDBRANCH   3  18
BRANCH   5  21
HETATM   21  N1  UNL     1      41.809   0.828  20.495  1.00  0.00    -0.073 N 
ATOM     22  H13 UNL     1      41.132   1.325  21.072  1.00  0.00     0.274 HD
ATOM     23  H12 UNL     1      41.498   1.203  19.599  1.00  0.00     0.274 HD
ATOM     24  H11 UNL     1      41.742  -0.187  20.563  1.00  0.00     0.274 HD
ENDBRANCH   5  21
TORSDOF 7
ENDMDL
