MODEL 5
REMARK VINA RESULT: -6.041667766      1.198      1.785
REMARK  7 active torsions:
REMARK  status: ('A' for Active; 'I' for Inactive)
REMARK    1  A    between atoms: C2_2  and  C3_3 
REMARK    2  A    between atoms: C3_3  and  C4_4 
REMARK    3  A    between atoms: C3_3  and  O1_6 
REMARK    4  A    between atoms: O1_6  and  C6_7 
REMARK    5  A    between atoms: C8_9  and  C9_10 
REMARK    6  A    between atoms: C11_14  and  N1_15 
REMARK    7  A    between atoms: C12_19  and  N2_20 
REMARK       I    between atoms: N2_20  and  C13_22 
ROOT
HETATM    1  C6  UNL     1      44.544  -0.447  21.628  1.00  0.00     0.170 C 
HETATM    2  C7  UNL     1      43.664  -0.731  22.786  1.00  0.00     0.021 C 
HETATM    3  C8  UNL     1      42.868   0.241  23.149  1.00  0.00     0.019 C 
HETATM    4  C10 UNL     1      42.966   1.492  22.356  1.00  0.00     0.080 C 
HETATM    5  C11 UNL     1      42.997   1.283  20.866  1.00  0.00     0.213 C 
HETATM    6  C12 UNL     1      43.619  -0.009  20.517  1.00  0.00     0.147 C 
ENDROOT
BRANCH   1   7
HETATM    7  O1  UNL     1      45.352  -1.499  21.318  1.00  0.00    -0.375 OA
BRANCH   7   8
HETATM    8  C3  UNL     1      46.490  -1.454  22.114  1.00  0.00     0.121 C 
BRANCH   8   9
HETATM    9  C2  UNL     1      46.598  -2.700  22.990  1.00  0.00     0.027 C 
HETATM   10  C1  UNL     1      46.395  -2.358  24.448  1.00  0.00     0.007 C 
ENDBRANCH   8   9
BRANCH   8  11
HETATM   11  C4  UNL     1      47.745  -1.320  21.291  1.00  0.00     0.027 C 
HETATM   12  C5  UNL     1      47.540  -1.877  19.900  1.00  0.00     0.007 C 
ENDBRANCH   8  11
ENDBRANCH   7   8
ENDBRANCH   1   7
BRANCH   6  13
HETATM   13  N2  UNL     1      44.186  -0.114  19.221  1.00  0.00    -0.352 N 
HETATM   14  C13 UNL     1      43.876  -1.170  18.330  1.00  0.00     0.214 C 
HETATM   15  C14 UNL     1      44.503  -1.232  16.978  1.00  0.00     0.117 C 
HETATM   16  O4  UNL     1      43.059  -2.025  18.748  1.00  0.00    -0.274 OA
ATOM     17  H2  UNL     1      44.846   0.603  18.919  1.00  0.00     0.163 HD
ENDBRANCH   6  13
BRANCH   3  18
HETATM   18  C9  UNL     1      41.961   0.093  24.262  1.00  0.00     0.205 C 
HETATM   19  O2  UNL     1      41.773   1.021  25.079  1.00  0.00    -0.644 OA
HETATM   20  O3  UNL     1      41.281  -1.118  24.427  1.00  0.00    -0.644 OA
ENDBRANCH   3  18
BRANCH   5  21
HETATM   21  N1  UNL     1      41.587   1.360  20.437  1.00  0.00    -0.073 N 
ATOM     22  H13 UNL     1      41.465   1.387  19.425  1.00  0.00     0.274 HD
ATOM     23  H12 UNL     1      41.061   0.501  20.596  1.00  0.00     0.274 HD
ATOM     24  H11 UNL     1      41.206   2.172  20.921  1.00  0.00     0.274 HD
ENDBRANCH   5  21
TORSDOF 7
ENDMDL
