MODEL 15
REMARK VINA RESULT: -5.570021427      2.023      4.620
REMARK  7 active torsions:
REMARK  status: ('A' for Active; 'I' for Inactive)
REMARK    1  A    between atoms: C2_2  and  C3_3 
REMARK    2  A    between atoms: C3_3  and  C4_4 
REMARK    3  A    between atoms: C3_3  and  O1_6 
REMARK    4  A    between atoms: O1_6  and  C6_7 
REMARK    5  A    between atoms: C8_9  and  C9_10 
REMARK    6  A    between atoms: C11_14  and  N1_15 
REMARK    7  A    between atoms: C12_19  and  N2_20 
REMARK       I    between atoms: N2_20  and  C13_22 
ROOT
HETATM    1  C6  UNL     1      44.372  -1.191  21.212  1.00  0.00     0.170 C 
HETATM    2  C7  UNL     1      45.048  -1.013  19.906  1.00  0.00     0.021 C 
HETATM    3  C8  UNL     1      44.343  -0.426  18.974  1.00  0.00     0.019 C 
HETATM    4  C10 UNL     1      42.964  -0.030  19.355  1.00  0.00     0.080 C 
HETATM    5  C11 UNL     1      42.860   0.655  20.691  1.00  0.00     0.213 C 
HETATM    6  C12 UNL     1      43.910   0.189  21.618  1.00  0.00     0.147 C 
ENDROOT
BRANCH   1   7
HETATM    7  O1  UNL     1      45.163  -1.821  22.125  1.00  0.00    -0.375 OA
BRANCH   7   8
HETATM    8  C3  UNL     1      44.456  -2.872  22.697  1.00  0.00     0.121 C 
BRANCH   8   9
HETATM    9  C2  UNL     1      44.412  -4.078  21.761  1.00  0.00     0.027 C 
HETATM   10  C1  UNL     1      45.805  -4.499  21.352  1.00  0.00     0.007 C 
ENDBRANCH   8   9
BRANCH   8  11
HETATM   11  C4  UNL     1      45.047  -3.294  24.017  1.00  0.00     0.027 C 
HETATM   12  C5  UNL     1      45.942  -2.212  24.578  1.00  0.00     0.007 C 
ENDBRANCH   8  11
ENDBRANCH   7   8
ENDBRANCH   1   7
BRANCH   6  13
HETATM   13  N2  UNL     1      43.640   0.320  23.004  1.00  0.00    -0.352 N 
HETATM   14  C13 UNL     1      44.359   1.204  23.846  1.00  0.00     0.214 C 
HETATM   15  C14 UNL     1      44.034   1.303  25.298  1.00  0.00     0.117 C 
HETATM   16  O4  UNL     1      45.262   1.879  23.296  1.00  0.00    -0.274 OA
ATOM     17  H2  UNL     1      42.896  -0.247  23.412  1.00  0.00     0.163 HD
ENDBRANCH   6  13
BRANCH   3  18
HETATM   18  C9  UNL     1      44.885  -0.192  17.656  1.00  0.00     0.205 C 
HETATM   19  O2  UNL     1      44.382   0.654  16.885  1.00  0.00    -0.644 OA
HETATM   20  O3  UNL     1      45.997  -0.931  17.239  1.00  0.00    -0.644 OA
ENDBRANCH   3  18
BRANCH   5  21
HETATM   21  N1  UNL     1      42.976   2.096  20.394  1.00  0.00    -0.073 N 
ATOM     22  H13 UNL     1      43.387   2.641  21.151  1.00  0.00     0.274 HD
ATOM     23  H12 UNL     1      43.682   2.317  19.693  1.00  0.00     0.274 HD
ATOM     24  H11 UNL     1      42.034   2.391  20.139  1.00  0.00     0.274 HD
ENDBRANCH   5  21
TORSDOF 7
ENDMDL
