MODEL 4
REMARK VINA RESULT: -6.065533708      1.974      4.572
REMARK  7 active torsions:
REMARK  status: ('A' for Active; 'I' for Inactive)
REMARK    1  A    between atoms: C2_2  and  C3_3 
REMARK    2  A    between atoms: C3_3  and  C4_4 
REMARK    3  A    between atoms: C3_3  and  O1_6 
REMARK    4  A    between atoms: O1_6  and  C6_7 
REMARK    5  A    between atoms: C8_9  and  C9_10 
REMARK    6  A    between atoms: C11_14  and  N1_15 
REMARK    7  A    between atoms: C12_19  and  N2_20 
REMARK       I    between atoms: N2_20  and  C13_22 
ROOT
HETATM    1  C6  UNL     1      44.252  -0.595  22.088  1.00  0.00     0.170 C 
HETATM    2  C7  UNL     1      45.394  -0.948  22.964  1.00  0.00     0.021 C 
HETATM    3  C8  UNL     1      45.388  -2.163  23.447  1.00  0.00     0.019 C 
HETATM    4  C10 UNL     1      44.235  -3.012  23.057  1.00  0.00     0.080 C 
HETATM    5  C11 UNL     1      43.891  -2.960  21.594  1.00  0.00     0.213 C 
HETATM    6  C12 UNL     1      44.233  -1.650  21.006  1.00  0.00     0.147 C 
ENDROOT
BRANCH   1   7
HETATM    7  O1  UNL     1      44.319   0.687  21.635  1.00  0.00    -0.375 OA
BRANCH   7   8
HETATM    8  C3  UNL     1      43.501   1.494  22.416  1.00  0.00     0.121 C 
BRANCH   8   9
HETATM    9  C2  UNL     1      44.322   2.303  23.418  1.00  0.00     0.027 C 
HETATM   10  C1  UNL     1      43.938   1.959  24.839  1.00  0.00     0.007 C 
ENDBRANCH   8   9
BRANCH   8  11
HETATM   11  C4  UNL     1      42.678   2.437  21.578  1.00  0.00     0.027 C 
HETATM   12  C5  UNL     1      43.241   3.840  21.636  1.00  0.00     0.007 C 
ENDBRANCH   8  11
ENDBRANCH   7   8
ENDBRANCH   1   7
BRANCH   6  13
HETATM   13  N2  UNL     1      43.519  -1.267  19.843  1.00  0.00    -0.352 N 
HETATM   14  C13 UNL     1      43.976  -1.552  18.532  1.00  0.00     0.214 C 
HETATM   15  C14 UNL     1      43.185  -1.126  17.342  1.00  0.00     0.117 C 
HETATM   16  O4  UNL     1      45.064  -2.171  18.448  1.00  0.00    -0.274 OA
ATOM     17  H2  UNL     1      42.638  -0.765  19.955  1.00  0.00     0.163 HD
ENDBRANCH   6  13
BRANCH   3  18
HETATM   18  C9  UNL     1      46.444  -2.631  24.313  1.00  0.00     0.205 C 
HETATM   19  O2  UNL     1      46.196  -3.133  25.432  1.00  0.00    -0.644 OA
HETATM   20  O3  UNL     1      47.772  -2.518  23.888  1.00  0.00    -0.644 OA
ENDBRANCH   3  18
BRANCH   5  21
HETATM   21  N1  UNL     1      44.653  -4.065  20.980  1.00  0.00    -0.073 N 
ATOM     22  H13 UNL     1      45.594  -4.176  21.357  1.00  0.00     0.274 HD
ATOM     23  H12 UNL     1      44.314  -4.991  21.235  1.00  0.00     0.274 HD
ATOM     24  H11 UNL     1      44.631  -3.879  19.978  1.00  0.00     0.274 HD
ENDBRANCH   5  21
TORSDOF 7
ENDMDL
