MODEL 2
REMARK VINA RESULT: -6.785029671      1.059      1.479
REMARK  6 active torsions:
REMARK  status: ('A' for Active; 'I' for Inactive)
REMARK    1  A    between atoms: C4_6  and  N2_7 
REMARK    2  A    between atoms: N3_10  and  C5_11 
REMARK    3  A    between atoms: C5_11  and  C6_12 
REMARK    4  A    between atoms: C6_12  and  O3_13 
REMARK    5  A    between atoms: O3_13  and  S1_14 
REMARK    6  A    between atoms: S1_14  and  N4_15 
ROOT
HETATM    1  C1  UNL     1      -6.354   4.867  13.754  1.00  0.00     0.089 C 
HETATM    2  C2  UNL     1      -6.115   3.746  14.663  1.00  0.00     0.081 A 
HETATM    3  N1  UNL     1      -6.746   3.495  15.836  1.00  0.00    -0.352 N 
ATOM      4  H1  UNL     1      -7.484   4.063  16.249  1.00  0.00     0.166 HD
HETATM    5  C3  UNL     1      -6.240   2.384  16.355  1.00  0.00     0.144 A 
HETATM    6  C4  UNL     1      -5.265   1.918  15.496  1.00  0.00     0.193 A 
HETATM    7  N3  UNL     1      -5.205   2.774  14.457  1.00  0.00    -0.315 N 
ENDROOT
BRANCH   7   8
HETATM    8  C5  UNL     1      -4.319   2.663  13.333  1.00  0.00     0.160 C 
BRANCH   8   9
HETATM    9  C6  UNL     1      -4.899   1.854  12.196  1.00  0.00     0.212 C 
BRANCH   9  10
HETATM   10  O3  UNL     1      -4.486   0.523  12.412  1.00  0.00    -0.258 OA
BRANCH  10  11
HETATM   11  S1  UNL     1      -3.405   0.152  11.182  1.00  0.00     0.355 S 
HETATM   12  O4  UNL     1      -4.089   0.472   9.881  1.00  0.00    -0.176 OA
HETATM   13  O5  UNL     1      -3.128  -1.344  11.189  1.00  0.00    -0.176 OA
BRANCH  11  14
HETATM   14  N4  UNL     1      -1.915   1.005  11.354  1.00  0.00    -0.306 N 
ATOM     15  H42 UNL     1      -1.568   1.349  12.250  1.00  0.00     0.171 HD
ATOM     16  H41 UNL     1      -1.435   1.117  10.461  1.00  0.00     0.171 HD
ENDBRANCH  11  14
ENDBRANCH  10  11
ENDBRANCH   9  10
ENDBRANCH   8   9
ENDBRANCH   7   8
BRANCH   6  17
HETATM   17  N2  UNL     1      -4.494   0.744  15.706  1.00  0.00    -0.096 N 
HETATM   18  O1  UNL     1      -4.875  -0.410  15.484  1.00  0.00    -0.530 OA
HETATM   19  O2  UNL     1      -3.218   0.872  16.197  1.00  0.00    -0.530 OA
ENDBRANCH   6  17
TORSDOF 6
ENDMDL
