MODEL 3
REMARK VINA RESULT: -6.741432381      0.987      1.249
REMARK  6 active torsions:
REMARK  status: ('A' for Active; 'I' for Inactive)
REMARK    1  A    between atoms: C4_6  and  N2_7 
REMARK    2  A    between atoms: N3_10  and  C5_11 
REMARK    3  A    between atoms: C5_11  and  C6_12 
REMARK    4  A    between atoms: C6_12  and  O3_13 
REMARK    5  A    between atoms: O3_13  and  S1_14 
REMARK    6  A    between atoms: S1_14  and  N4_15 
ROOT
HETATM    1  C1  UNL     1      -5.776   5.387  14.180  1.00  0.00     0.089 C 
HETATM    2  C2  UNL     1      -5.744   4.064  14.804  1.00  0.00     0.081 A 
HETATM    3  N1  UNL     1      -6.676   3.525  15.626  1.00  0.00    -0.352 N 
ATOM      4  H1  UNL     1      -7.541   3.976  15.926  1.00  0.00     0.166 HD
HETATM    5  C3  UNL     1      -6.275   2.310  15.976  1.00  0.00     0.144 A 
HETATM    6  C4  UNL     1      -5.061   2.070  15.365  1.00  0.00     0.193 A 
HETATM    7  N3  UNL     1      -4.752   3.167  14.645  1.00  0.00    -0.315 N 
ENDROOT
BRANCH   7   8
HETATM    8  C5  UNL     1      -3.567   3.340  13.853  1.00  0.00     0.160 C 
BRANCH   8   9
HETATM    9  C6  UNL     1      -3.712   2.818  12.444  1.00  0.00     0.212 C 
BRANCH   9  10
HETATM   10  O3  UNL     1      -3.028   1.585  12.410  1.00  0.00    -0.258 OA
BRANCH  10  11
HETATM   11  S1  UNL     1      -3.936   0.561  11.437  1.00  0.00     0.355 S 
HETATM   12  O4  UNL     1      -3.288   0.553  10.079  1.00  0.00    -0.176 OA
HETATM   13  O5  UNL     1      -5.333   1.137  11.265  1.00  0.00    -0.176 OA
BRANCH  11  14
HETATM   14  N4  UNL     1      -4.055  -1.025  12.105  1.00  0.00    -0.306 N 
ATOM     15  H42 UNL     1      -4.340  -1.206  13.067  1.00  0.00     0.171 HD
ATOM     16  H41 UNL     1      -3.809  -1.745  11.425  1.00  0.00     0.171 HD
ENDBRANCH  11  14
ENDBRANCH  10  11
ENDBRANCH   9  10
ENDBRANCH   8   9
ENDBRANCH   7   8
BRANCH   6  17
HETATM   17  N2  UNL     1      -4.311   0.872  15.495  1.00  0.00    -0.096 N 
HETATM   18  O1  UNL     1      -3.257   0.753  16.130  1.00  0.00    -0.530 OA
HETATM   19  O2  UNL     1      -4.771  -0.265  14.877  1.00  0.00    -0.530 OA
ENDBRANCH   6  17
TORSDOF 6
ENDMDL
