MODEL 1
REMARK VINA RESULT: -6.835340873      0.000      0.000
REMARK  6 active torsions:
REMARK  status: ('A' for Active; 'I' for Inactive)
REMARK    1  A    between atoms: C4_6  and  N2_7 
REMARK    2  A    between atoms: N3_10  and  C5_11 
REMARK    3  A    between atoms: C5_11  and  C6_12 
REMARK    4  A    between atoms: C6_12  and  O3_13 
REMARK    5  A    between atoms: O3_13  and  S1_14 
REMARK    6  A    between atoms: S1_14  and  N4_15 
ROOT
HETATM    1  C1  UNL     1      -6.212   5.091  14.087  1.00  0.00     0.089 C 
HETATM    2  C2  UNL     1      -6.028   3.858  14.853  1.00  0.00     0.081 A 
HETATM    3  N1  UNL     1      -6.803   3.404  15.868  1.00  0.00    -0.352 N 
ATOM      4  H1  UNL     1      -7.632   3.867  16.240  1.00  0.00     0.166 HD
HETATM    5  C3  UNL     1      -6.301   2.252  16.296  1.00  0.00     0.144 A 
HETATM    6  C4  UNL     1      -5.182   1.968  15.538  1.00  0.00     0.193 A 
HETATM    7  N3  UNL     1      -5.033   2.973  14.653  1.00  0.00    -0.315 N 
ENDROOT
BRANCH   7   8
HETATM    8  C5  UNL     1      -3.989   3.075  13.673  1.00  0.00     0.160 C 
BRANCH   8   9
HETATM    9  C6  UNL     1      -4.241   2.233  12.445  1.00  0.00     0.212 C 
BRANCH   9  10
HETATM   10  O3  UNL     1      -3.237   1.243  12.436  1.00  0.00    -0.258 OA
BRANCH  10  11
HETATM   11  S1  UNL     1      -3.584   0.222  11.149  1.00  0.00     0.355 S 
HETATM   12  O4  UNL     1      -3.584  -1.183  11.686  1.00  0.00    -0.176 OA
HETATM   13  O5  UNL     1      -2.466   0.310  10.120  1.00  0.00    -0.176 OA
BRANCH  11  14
HETATM   14  N4  UNL     1      -5.082   0.624  10.392  1.00  0.00    -0.306 N 
ATOM     15  H42 UNL     1      -5.727   1.320  10.767  1.00  0.00     0.171 HD
ATOM     16  H41 UNL     1      -5.234   0.087   9.539  1.00  0.00     0.171 HD
ENDBRANCH  11  14
ENDBRANCH  10  11
ENDBRANCH   9  10
ENDBRANCH   8   9
ENDBRANCH   7   8
BRANCH   6  17
HETATM   17  N2  UNL     1      -4.370   0.814  15.695  1.00  0.00    -0.096 N 
HETATM   18  O1  UNL     1      -3.248   0.795  16.213  1.00  0.00    -0.530 OA
HETATM   19  O2  UNL     1      -4.843  -0.393  15.243  1.00  0.00    -0.530 OA
ENDBRANCH   6  17
TORSDOF 6
ENDMDL
