MODEL 2
REMARK VINA RESULT: -5.957137751      1.355      1.646
REMARK  6 active torsions:
REMARK  status: ('A' for Active; 'I' for Inactive)
REMARK    1  A    between atoms: C2_2  and  C3_3 
REMARK    2  A    between atoms: C3_3  and  O1_4 
REMARK    3  A    between atoms: O1_4  and  C4_5 
REMARK    4  A    between atoms: C6_7  and  C7_8 
REMARK    5  A    between atoms: C8_11  and  O4_12 
REMARK    6  A    between atoms: C10_16  and  N1_17 
ROOT
HETATM    1  C4  UNL     1      91.530  94.506 -45.316  1.00  0.00     0.098 A 
HETATM    2  C5  UNL     1      91.047  95.722 -45.775  1.00  0.00     0.060 A 
HETATM    3  C6  UNL     1      90.808  96.782 -44.928  1.00  0.00     0.077 A 
HETATM    4  C8  UNL     1      91.067  96.601 -43.588  1.00  0.00     0.101 A 
HETATM    5  C9  UNL     1      91.552  95.381 -43.117  1.00  0.00     0.070 A 
HETATM    6  I1  UNL     1      91.951  95.085 -41.071  1.00  0.00    -0.039 I 
HETATM    7  C10 UNL     1      91.787  94.325 -43.979  1.00  0.00     0.091 A 
ENDROOT
BRANCH   7   8
HETATM    8  N1  UNL     1      92.278  93.066 -43.555  1.00  0.00    -0.329 N 
HETATM    9  C11 UNL     1      91.608  91.978 -43.135  1.00  0.00     0.097 A 
HETATM   10  C12 UNL     1      92.485  90.962 -42.814  1.00  0.00     0.019 A 
HETATM   11  C13 UNL     1      93.759  91.444 -43.047  1.00  0.00     0.019 A 
HETATM   12  C14 UNL     1      93.580  92.735 -43.498  1.00  0.00     0.097 A 
ENDBRANCH   7   8
BRANCH   1  13
HETATM   13  O1  UNL     1      91.771  93.437 -46.160  1.00  0.00    -0.349 OA
BRANCH  13  14
HETATM   14  C3  UNL     1      90.647  92.777 -46.715  1.00  0.00     0.175 C 
BRANCH  14  15
HETATM   15  C2  UNL     1      90.862  91.280 -46.773  1.00  0.00     0.022 C 
HETATM   16  C1  UNL     1      92.262  90.927 -47.199  1.00  0.00     0.007 C 
ENDBRANCH  14  15
ENDBRANCH  13  14
ENDBRANCH   1  13
BRANCH   4  17
HETATM   17  O4  UNL     1      90.841  97.639 -42.706  1.00  0.00    -0.358 OA
ATOM     18  H4  UNL     1      90.027  97.668 -42.219  1.00  0.00     0.217 HD
ENDBRANCH   4  17
BRANCH   3  19
HETATM   19  C7  UNL     1      90.296  98.058 -45.453  1.00  0.00     0.212 C 
HETATM   20  O2  UNL     1      89.220  98.554 -45.041  1.00  0.00    -0.644 OA
HETATM   21  O3  UNL     1      91.001  98.748 -46.424  1.00  0.00    -0.644 OA
ENDBRANCH   3  19
TORSDOF 6
ENDMDL
