MODEL 8
REMARK VINA RESULT: -4.946715659      3.911      6.538
REMARK  6 active torsions:
REMARK  status: ('A' for Active; 'I' for Inactive)
REMARK    1  A    between atoms: C2_2  and  C3_3 
REMARK    2  A    between atoms: C3_3  and  O1_4 
REMARK    3  A    between atoms: O1_4  and  C4_5 
REMARK    4  A    between atoms: C6_7  and  C7_8 
REMARK    5  A    between atoms: C8_11  and  O4_12 
REMARK    6  A    between atoms: C10_16  and  N1_17 
ROOT
HETATM    1  C4  UNL     1      91.099  96.549 -44.873  1.00  0.00     0.098 A 
HETATM    2  C5  UNL     1      91.323  95.474 -44.026  1.00  0.00     0.060 A 
HETATM    3  C6  UNL     1      91.591  95.642 -42.685  1.00  0.00     0.077 A 
HETATM    4  C8  UNL     1      91.633  96.929 -42.198  1.00  0.00     0.101 A 
HETATM    5  C9  UNL     1      91.410  98.016 -43.043  1.00  0.00     0.070 A 
HETATM    6  I1  UNL     1      91.470  99.991 -42.315  1.00  0.00    -0.039 I 
HETATM    7  C10 UNL     1      91.141  97.832 -44.387  1.00  0.00     0.091 A 
ENDROOT
BRANCH   7   8
HETATM    8  N1  UNL     1      90.908  98.899 -45.289  1.00  0.00    -0.329 N 
HETATM    9  C11 UNL     1      91.780  99.603 -46.032  1.00  0.00     0.097 A 
HETATM   10  C12 UNL     1      91.120 100.562 -46.775  1.00  0.00     0.019 A 
HETATM   11  C13 UNL     1      89.776 100.444 -46.477  1.00  0.00     0.019 A 
HETATM   12  C14 UNL     1      89.697  99.415 -45.564  1.00  0.00     0.097 A 
ENDBRANCH   7   8
BRANCH   1  13
HETATM   13  O1  UNL     1      90.830  96.388 -46.220  1.00  0.00    -0.349 OA
BRANCH  13  14
HETATM   14  C3  UNL     1      89.658  95.675 -46.571  1.00  0.00     0.175 C 
BRANCH  14  15
HETATM   15  C2  UNL     1      88.872  96.402 -47.642  1.00  0.00     0.022 C 
HETATM   16  C1  UNL     1      88.379  95.467 -48.713  1.00  0.00     0.007 C 
ENDBRANCH  14  15
ENDBRANCH  13  14
ENDBRANCH   1  13
BRANCH   4  17
HETATM   17  O4  UNL     1      91.898  97.140 -40.859  1.00  0.00    -0.358 OA
ATOM     18  H4  UNL     1      92.546  97.788 -40.609  1.00  0.00     0.217 HD
ENDBRANCH   4  17
BRANCH   3  19
HETATM   19  C7  UNL     1      91.823  94.476 -41.817  1.00  0.00     0.212 C 
HETATM   20  O2  UNL     1      91.194  94.322 -40.742  1.00  0.00    -0.644 OA
HETATM   21  O3  UNL     1      92.749  93.513 -42.173  1.00  0.00    -0.644 OA
ENDBRANCH   3  19
TORSDOF 6
ENDMDL
