MODEL 4
REMARK VINA RESULT: -5.222602726      2.286      4.990
REMARK  6 active torsions:
REMARK  status: ('A' for Active; 'I' for Inactive)
REMARK    1  A    between atoms: C2_2  and  C3_3 
REMARK    2  A    between atoms: C3_3  and  O1_4 
REMARK    3  A    between atoms: O1_4  and  C4_5 
REMARK    4  A    between atoms: C6_7  and  C7_8 
REMARK    5  A    between atoms: C8_11  and  O4_12 
REMARK    6  A    between atoms: C10_16  and  N1_17 
ROOT
HETATM    1  C4  UNL     1      91.949  93.113 -44.718  1.00  0.00     0.098 A 
HETATM    2  C5  UNL     1      92.518  92.029 -44.068  1.00  0.00     0.060 A 
HETATM    3  C6  UNL     1      92.888  92.081 -42.741  1.00  0.00     0.077 A 
HETATM    4  C8  UNL     1      92.673  93.261 -42.065  1.00  0.00     0.101 A 
HETATM    5  C9  UNL     1      92.101  94.358 -42.711  1.00  0.00     0.070 A 
HETATM    6  I1  UNL     1      91.767  96.169 -41.692  1.00  0.00    -0.039 I 
HETATM    7  C10 UNL     1      91.736  94.290 -44.043  1.00  0.00     0.091 A 
ENDROOT
BRANCH   7   8
HETATM    8  N1  UNL     1      91.153  95.371 -44.747  1.00  0.00    -0.329 N 
HETATM    9  C11 UNL     1      89.880  95.555 -45.141  1.00  0.00     0.097 A 
HETATM   10  C12 UNL     1      89.746  96.757 -45.806  1.00  0.00     0.019 A 
HETATM   11  C13 UNL     1      90.996  97.346 -45.823  1.00  0.00     0.019 A 
HETATM   12  C14 UNL     1      91.823  96.460 -45.164  1.00  0.00     0.097 A 
ENDBRANCH   7   8
BRANCH   1  13
HETATM   13  O1  UNL     1      91.577  93.068 -46.049  1.00  0.00    -0.349 OA
BRANCH  13  14
HETATM   14  C3  UNL     1      90.856  91.930 -46.488  1.00  0.00     0.175 C 
BRANCH  14  15
HETATM   15  C2  UNL     1      91.454  91.356 -47.754  1.00  0.00     0.022 C 
HETATM   16  C1  UNL     1      92.732  90.609 -47.487  1.00  0.00     0.007 C 
ENDBRANCH  14  15
ENDBRANCH  13  14
ENDBRANCH   1  13
BRANCH   4  17
HETATM   17  O4  UNL     1      93.028  93.355 -40.733  1.00  0.00    -0.358 OA
ATOM     18  H4  UNL     1      92.490  93.866 -40.141  1.00  0.00     0.217 HD
ENDBRANCH   4  17
BRANCH   3  19
HETATM   19  C7  UNL     1      93.488  90.910 -42.085  1.00  0.00     0.212 C 
HETATM   20  O2  UNL     1      92.838  89.852 -41.905  1.00  0.00    -0.644 OA
HETATM   21  O3  UNL     1      94.800  90.950 -41.648  1.00  0.00    -0.644 OA
ENDBRANCH   3  19
TORSDOF 6
ENDMDL
