MODEL 5
REMARK VINA RESULT: -5.199292927      2.569      5.845
REMARK  6 active torsions:
REMARK  status: ('A' for Active; 'I' for Inactive)
REMARK    1  A    between atoms: C2_2  and  C3_3 
REMARK    2  A    between atoms: C3_3  and  O1_4 
REMARK    3  A    between atoms: O1_4  and  C4_5 
REMARK    4  A    between atoms: C6_7  and  C7_8 
REMARK    5  A    between atoms: C8_11  and  O4_12 
REMARK    6  A    between atoms: C10_16  and  N1_17 
ROOT
HETATM    1  C4  UNL     1      91.002  95.681 -45.371  1.00  0.00     0.098 A 
HETATM    2  C5  UNL     1      91.217  94.348 -45.685  1.00  0.00     0.060 A 
HETATM    3  C6  UNL     1      91.627  93.431 -44.742  1.00  0.00     0.077 A 
HETATM    4  C8  UNL     1      91.822  93.881 -43.455  1.00  0.00     0.101 A 
HETATM    5  C9  UNL     1      91.609  95.221 -43.131  1.00  0.00     0.070 A 
HETATM    6  I1  UNL     1      91.904  95.927 -41.170  1.00  0.00    -0.039 I 
HETATM    7  C10 UNL     1      91.197  96.130 -44.089  1.00  0.00     0.091 A 
ENDROOT
BRANCH   7   8
HETATM    8  N1  UNL     1      90.966  97.500 -43.814  1.00  0.00    -0.329 N 
HETATM    9  C11 UNL     1      89.862  98.109 -43.346  1.00  0.00     0.097 A 
HETATM   10  C12 UNL     1      90.072  99.469 -43.228  1.00  0.00     0.019 A 
HETATM   11  C13 UNL     1      91.367  99.711 -43.642  1.00  0.00     0.019 A 
HETATM   12  C14 UNL     1      91.873  98.477 -43.991  1.00  0.00     0.097 A 
ENDBRANCH   7   8
BRANCH   1  13
HETATM   13  O1  UNL     1      90.590  96.608 -46.313  1.00  0.00    -0.349 OA
BRANCH  13  14
HETATM   14  C3  UNL     1      89.294  96.449 -46.862  1.00  0.00     0.175 C 
BRANCH  14  15
HETATM   15  C2  UNL     1      88.484  97.721 -46.732  1.00  0.00     0.022 C 
HETATM   16  C1  UNL     1      89.323  98.950 -46.952  1.00  0.00     0.007 C 
ENDBRANCH  14  15
ENDBRANCH  13  14
ENDBRANCH   1  13
BRANCH   4  17
HETATM   17  O4  UNL     1      92.234  92.993 -42.480  1.00  0.00    -0.358 OA
ATOM     18  H4  UNL     1      92.135  92.060 -42.627  1.00  0.00     0.217 HD
ENDBRANCH   4  17
BRANCH   3  19
HETATM   19  C7  UNL     1      91.845  92.023 -45.112  1.00  0.00     0.212 C 
HETATM   20  O2  UNL     1      92.842  91.382 -44.701  1.00  0.00    -0.644 OA
HETATM   21  O3  UNL     1      90.942  91.369 -45.931  1.00  0.00    -0.644 OA
ENDBRANCH   3  19
TORSDOF 6
ENDMDL
