MODEL 1
REMARK VINA RESULT: -6.191460826      0.000      0.000
REMARK  6 active torsions:
REMARK  status: ('A' for Active; 'I' for Inactive)
REMARK    1  A    between atoms: C2_2  and  C3_3 
REMARK    2  A    between atoms: C3_3  and  O1_4 
REMARK    3  A    between atoms: O1_4  and  C4_5 
REMARK    4  A    between atoms: C6_7  and  C7_8 
REMARK    5  A    between atoms: C8_11  and  O4_12 
REMARK    6  A    between atoms: C10_16  and  N1_17 
ROOT
HETATM    1  C4  UNL     1      91.729  92.814 -45.190  1.00  0.00     0.098 A 
HETATM    2  C5  UNL     1      91.127  93.806 -45.950  1.00  0.00     0.060 A 
HETATM    3  C6  UNL     1      90.841  95.051 -45.435  1.00  0.00     0.077 A 
HETATM    4  C8  UNL     1      91.175  95.291 -44.120  1.00  0.00     0.101 A 
HETATM    5  C9  UNL     1      91.780  94.300 -43.348  1.00  0.00     0.070 A 
HETATM    6  I1  UNL     1      92.296  94.649 -41.337  1.00  0.00    -0.039 I 
HETATM    7  C10 UNL     1      92.061  93.054 -43.879  1.00  0.00     0.091 A 
ENDROOT
BRANCH   7   8
HETATM    8  N1  UNL     1      92.673  92.012 -43.141  1.00  0.00    -0.329 N 
HETATM    9  C11 UNL     1      92.121  90.938 -42.548  1.00  0.00     0.097 A 
HETATM   10  C12 UNL     1      93.090  90.173 -41.931  1.00  0.00     0.019 A 
HETATM   11  C13 UNL     1      94.299  90.803 -42.153  1.00  0.00     0.019 A 
HETATM   12  C14 UNL     1      93.993  91.923 -42.897  1.00  0.00     0.097 A 
ENDBRANCH   7   8
BRANCH   1  13
HETATM   13  O1  UNL     1      92.018  91.562 -45.700  1.00  0.00    -0.349 OA
BRANCH  13  14
HETATM   14  C3  UNL     1      91.017  90.924 -46.473  1.00  0.00     0.175 C 
BRANCH  14  15
HETATM   15  C2  UNL     1      91.579  90.404 -47.778  1.00  0.00     0.022 C 
HETATM   16  C1  UNL     1      93.059  90.146 -47.693  1.00  0.00     0.007 C 
ENDBRANCH  14  15
ENDBRANCH  13  14
ENDBRANCH   1  13
BRANCH   4  17
HETATM   17  O4  UNL     1      90.905  96.527 -43.566  1.00  0.00    -0.358 OA
ATOM     18  H4  UNL     1      90.078  96.668 -43.120  1.00  0.00     0.217 HD
ENDBRANCH   4  17
BRANCH   3  19
HETATM   19  C7  UNL     1      90.202  96.079 -46.272  1.00  0.00     0.212 C 
HETATM   20  O2  UNL     1      89.251  95.801 -47.043  1.00  0.00    -0.644 OA
HETATM   21  O3  UNL     1      90.640  97.390 -46.226  1.00  0.00    -0.644 OA
ENDBRANCH   3  19
TORSDOF 6
ENDMDL
