MODEL 3
REMARK VINA RESULT: -5.370136754      2.174      4.837
REMARK  7 active torsions:
REMARK  status: ('A' for Active; 'I' for Inactive)
REMARK    1  A    between atoms: C2_2  and  C3_3 
REMARK    2  A    between atoms: C3_3  and  C4_4 
REMARK    3  A    between atoms: C4_4  and  O1_5 
REMARK    4  A    between atoms: O1_5  and  C5_6 
REMARK    5  A    between atoms: C7_8  and  C8_9 
REMARK    6  A    between atoms: C9_12  and  O4_13 
REMARK    7  A    between atoms: C11_17  and  N1_18 
ROOT
HETATM    1  C5  UNL     1      91.682  92.660 -44.605  1.00  0.00     0.098 A 
HETATM    2  C6  UNL     1      92.236  91.610 -43.922  1.00  0.00     0.060 A 
HETATM    3  C7  UNL     1      92.578  91.727 -42.577  1.00  0.00     0.077 A 
HETATM    4  C9  UNL     1      92.356  92.908 -41.932  1.00  0.00     0.101 A 
HETATM    5  C10 UNL     1      91.785  93.983 -42.645  1.00  0.00     0.070 A 
HETATM    6  I1  UNL     1      91.466  95.774 -41.610  1.00  0.00    -0.039 I 
HETATM    7  C11 UNL     1      91.446  93.885 -43.963  1.00  0.00     0.091 A 
ENDROOT
BRANCH   1   8
HETATM    8  O1  UNL     1      91.330  92.606 -45.918  1.00  0.00    -0.349 OA
BRANCH   8   9
HETATM    9  C4  UNL     1      91.404  91.607 -46.855  1.00  0.00     0.175 C 
BRANCH   9  10
HETATM   10  C3  UNL     1      90.190  90.727 -47.010  1.00  0.00     0.026 C 
BRANCH  10  11
HETATM   11  C2  UNL     1      89.632  91.000 -48.392  1.00  0.00    -0.002 C 
HETATM   12  C1  UNL     1      88.955  92.336 -48.476  1.00  0.00     0.005 C 
ENDBRANCH  10  11
ENDBRANCH   9  10
ENDBRANCH   8   9
ENDBRANCH   1   8
BRANCH   7  13
HETATM   13  N1  UNL     1      90.869  94.960 -44.696  1.00  0.00    -0.329 N 
HETATM   14  C12 UNL     1      91.497  96.105 -45.066  1.00  0.00     0.097 A 
HETATM   15  C13 UNL     1      90.642  96.928 -45.763  1.00  0.00     0.019 A 
HETATM   16  C14 UNL     1      89.450  96.249 -45.814  1.00  0.00     0.019 A 
HETATM   17  C15 UNL     1      89.609  95.054 -45.159  1.00  0.00     0.097 A 
ENDBRANCH   7  13
BRANCH   3  18
HETATM   18  C8  UNL     1      93.166  90.589 -41.879  1.00  0.00     0.212 C 
HETATM   19  O2  UNL     1      94.317  90.555 -41.392  1.00  0.00    -0.644 OA
HETATM   20  O3  UNL     1      92.358  89.444 -41.754  1.00  0.00    -0.644 OA
ENDBRANCH   3  18
BRANCH   4  21
HETATM   21  O4  UNL     1      92.656  93.123 -40.617  1.00  0.00    -0.358 OA
ATOM     22  H4  UNL     1      92.005  93.314 -39.951  1.00  0.00     0.217 HD
ENDBRANCH   4  21
TORSDOF 7
ENDMDL
