MODEL 5
REMARK VINA RESULT: -5.265466777      2.338      4.793
REMARK  7 active torsions:
REMARK  status: ('A' for Active; 'I' for Inactive)
REMARK    1  A    between atoms: C2_2  and  C3_3 
REMARK    2  A    between atoms: C3_3  and  C4_4 
REMARK    3  A    between atoms: C4_4  and  O1_5 
REMARK    4  A    between atoms: O1_5  and  C5_6 
REMARK    5  A    between atoms: C7_8  and  C8_9 
REMARK    6  A    between atoms: C9_12  and  O4_13 
REMARK    7  A    between atoms: C11_17  and  N1_18 
ROOT
HETATM    1  C5  UNL     1      91.350  92.956 -45.231  1.00  0.00     0.098 A 
HETATM    2  C6  UNL     1      91.274  94.148 -44.561  1.00  0.00     0.060 A 
HETATM    3  C7  UNL     1      90.477  95.188 -45.033  1.00  0.00     0.077 A 
HETATM    4  C9  UNL     1      89.762  95.014 -46.181  1.00  0.00     0.101 A 
HETATM    5  C10 UNL     1      89.848  93.782 -46.863  1.00  0.00     0.070 A 
HETATM    6  I1  UNL     1      88.732  93.566 -48.621  1.00  0.00    -0.039 I 
HETATM    7  C11 UNL     1      90.625  92.754 -46.415  1.00  0.00     0.091 A 
ENDROOT
BRANCH   1   8
HETATM    8  O1  UNL     1      92.112  91.906 -44.820  1.00  0.00    -0.349 OA
BRANCH   8   9
HETATM    9  C4  UNL     1      92.411  91.411 -43.578  1.00  0.00     0.175 C 
BRANCH   9  10
HETATM   10  C3  UNL     1      93.790  91.700 -43.043  1.00  0.00     0.026 C 
BRANCH  10  11
HETATM   11  C2  UNL     1      93.632  91.963 -41.559  1.00  0.00    -0.002 C 
HETATM   12  C1  UNL     1      92.930  93.260 -41.285  1.00  0.00     0.005 C 
ENDBRANCH  10  11
ENDBRANCH   9  10
ENDBRANCH   8   9
ENDBRANCH   1   8
BRANCH   7  13
HETATM   13  N1  UNL     1      90.722  91.505 -47.091  1.00  0.00    -0.329 N 
HETATM   14  C12 UNL     1      91.708  91.133 -47.946  1.00  0.00     0.097 A 
HETATM   15  C13 UNL     1      91.489  89.860 -48.420  1.00  0.00     0.019 A 
HETATM   16  C14 UNL     1      90.323  89.450 -47.824  1.00  0.00     0.019 A 
HETATM   17  C15 UNL     1      89.872  90.465 -47.020  1.00  0.00     0.097 A 
ENDBRANCH   7  13
BRANCH   3  18
HETATM   18  C8  UNL     1      90.418  96.445 -44.294  1.00  0.00     0.212 C 
HETATM   19  O2  UNL     1      89.953  97.521 -44.733  1.00  0.00    -0.644 OA
HETATM   20  O3  UNL     1      90.929  96.428 -42.984  1.00  0.00    -0.644 OA
ENDBRANCH   3  18
BRANCH   4  21
HETATM   21  O4  UNL     1      88.953  95.971 -46.724  1.00  0.00    -0.358 OA
ATOM     22  H4  UNL     1      88.279  95.789 -47.369  1.00  0.00     0.217 HD
ENDBRANCH   4  21
TORSDOF 7
ENDMDL
