MODEL 2
REMARK VINA RESULT: -6.004428298      1.425      1.786
REMARK  7 active torsions:
REMARK  status: ('A' for Active; 'I' for Inactive)
REMARK    1  A    between atoms: C2_2  and  C3_3 
REMARK    2  A    between atoms: C3_3  and  C4_4 
REMARK    3  A    between atoms: C4_4  and  O1_5 
REMARK    4  A    between atoms: O1_5  and  C5_6 
REMARK    5  A    between atoms: C7_8  and  C8_9 
REMARK    6  A    between atoms: C9_12  and  O4_13 
REMARK    7  A    between atoms: C11_17  and  N1_18 
ROOT
HETATM    1  C5  UNL     1      91.034  94.320 -45.239  1.00  0.00     0.098 A 
HETATM    2  C6  UNL     1      90.538  95.508 -45.707  1.00  0.00     0.060 A 
HETATM    3  C7  UNL     1      90.374  96.602 -44.861  1.00  0.00     0.077 A 
HETATM    4  C9  UNL     1      90.712  96.484 -43.545  1.00  0.00     0.101 A 
HETATM    5  C10 UNL     1      91.220  95.256 -43.073  1.00  0.00     0.070 A 
HETATM    6  I1  UNL     1      91.722  95.128 -41.045  1.00  0.00    -0.039 I 
HETATM    7  C11 UNL     1      91.387  94.175 -43.889  1.00  0.00     0.091 A 
ENDROOT
BRANCH   1   8
HETATM    8  O1  UNL     1      91.215  93.218 -46.017  1.00  0.00    -0.349 OA
BRANCH   8   9
HETATM    9  C4  UNL     1      90.335  92.375 -46.645  1.00  0.00     0.175 C 
BRANCH   9  10
HETATM   10  C3  UNL     1      90.591  90.897 -46.507  1.00  0.00     0.026 C 
BRANCH  10  11
HETATM   11  C2  UNL     1      91.737  90.568 -47.443  1.00  0.00    -0.002 C 
HETATM   12  C1  UNL     1      91.297  89.722 -48.602  1.00  0.00     0.005 C 
ENDBRANCH  10  11
ENDBRANCH   9  10
ENDBRANCH   8   9
ENDBRANCH   1   8
BRANCH   7  13
HETATM   13  N1  UNL     1      91.899  92.929 -43.429  1.00  0.00    -0.329 N 
HETATM   14  C12 UNL     1      93.205  92.562 -43.402  1.00  0.00     0.097 A 
HETATM   15  C13 UNL     1      93.344  91.289 -42.898  1.00  0.00     0.019 A 
HETATM   16  C14 UNL     1      92.068  90.875 -42.608  1.00  0.00     0.019 A 
HETATM   17  C15 UNL     1      91.204  91.887 -42.939  1.00  0.00     0.097 A 
ENDBRANCH   7  13
BRANCH   3  18
HETATM   18  C8  UNL     1      89.844  97.854 -45.392  1.00  0.00     0.212 C 
HETATM   19  O2  UNL     1      90.349  98.513 -46.328  1.00  0.00    -0.644 OA
HETATM   20  O3  UNL     1      88.672  98.344 -44.791  1.00  0.00    -0.644 OA
ENDBRANCH   3  18
BRANCH   4  21
HETATM   21  O4  UNL     1      90.588  97.497 -42.636  1.00  0.00    -0.358 OA
ATOM     22  H4  UNL     1      90.959  98.363 -42.756  1.00  0.00     0.217 HD
ENDBRANCH   4  21
TORSDOF 7
ENDMDL
