MODEL 1
REMARK VINA RESULT: -6.234018504      0.000      0.000
REMARK  7 active torsions:
REMARK  status: ('A' for Active; 'I' for Inactive)
REMARK    1  A    between atoms: C2_2  and  C3_3 
REMARK    2  A    between atoms: C3_3  and  C4_4 
REMARK    3  A    between atoms: C4_4  and  O1_5 
REMARK    4  A    between atoms: O1_5  and  C5_6 
REMARK    5  A    between atoms: C7_8  and  C8_9 
REMARK    6  A    between atoms: C9_12  and  O4_13 
REMARK    7  A    between atoms: C11_17  and  N1_18 
ROOT
HETATM    1  C5  UNL     1      91.487  92.725 -45.129  1.00  0.00     0.098 A 
HETATM    2  C6  UNL     1      90.878  93.714 -45.855  1.00  0.00     0.060 A 
HETATM    3  C7  UNL     1      90.571  94.944 -45.279  1.00  0.00     0.077 A 
HETATM    4  C9  UNL     1      90.884  95.165 -43.970  1.00  0.00     0.101 A 
HETATM    5  C10 UNL     1      91.511  94.140 -43.232  1.00  0.00     0.070 A 
HETATM    6  I1  UNL     1      91.969  94.529 -41.227  1.00  0.00    -0.039 I 
HETATM    7  C11 UNL     1      91.817  92.929 -43.781  1.00  0.00     0.091 A 
ENDROOT
BRANCH   1   8
HETATM    8  O1  UNL     1      91.809  91.504 -45.637  1.00  0.00    -0.349 OA
BRANCH   8   9
HETATM    9  C4  UNL     1      91.558  90.911 -46.847  1.00  0.00     0.175 C 
BRANCH   9  10
HETATM   10  C3  UNL     1      90.145  90.455 -47.103  1.00  0.00     0.026 C 
BRANCH  10  11
HETATM   11  C2  UNL     1      89.797  90.897 -48.510  1.00  0.00    -0.002 C 
HETATM   12  C1  UNL     1      88.926  92.119 -48.521  1.00  0.00     0.005 C 
ENDBRANCH  10  11
ENDBRANCH   9  10
ENDBRANCH   8   9
ENDBRANCH   1   8
BRANCH   7  13
HETATM   13  N1  UNL     1      92.450  91.884 -43.049  1.00  0.00    -0.329 N 
HETATM   14  C12 UNL     1      93.781  91.769 -42.807  1.00  0.00     0.097 A 
HETATM   15  C13 UNL     1      94.047  90.638 -42.070  1.00  0.00     0.019 A 
HETATM   16  C14 UNL     1      92.825  90.049 -41.861  1.00  0.00     0.019 A 
HETATM   17  C15 UNL     1      91.867  90.822 -42.465  1.00  0.00     0.097 A 
ENDBRANCH   7  13
BRANCH   3  18
HETATM   18  C8  UNL     1      89.923  95.976 -46.081  1.00  0.00     0.212 C 
HETATM   19  O2  UNL     1      90.214  97.192 -46.067  1.00  0.00    -0.644 OA
HETATM   20  O3  UNL     1      88.889  95.551 -46.934  1.00  0.00    -0.644 OA
ENDBRANCH   3  18
BRANCH   4  21
HETATM   21  O4  UNL     1      90.625  96.335 -43.315  1.00  0.00    -0.358 OA
ATOM     22  H4  UNL     1      91.301  96.926 -43.004  1.00  0.00     0.217 HD
ENDBRANCH   4  21
TORSDOF 7
ENDMDL
