MODEL 4
REMARK VINA RESULT: -5.348780274      2.777      5.815
REMARK  7 active torsions:
REMARK  status: ('A' for Active; 'I' for Inactive)
REMARK    1  A    between atoms: C2_2  and  C3_3 
REMARK    2  A    between atoms: C3_3  and  C4_4 
REMARK    3  A    between atoms: C4_4  and  O1_5 
REMARK    4  A    between atoms: O1_5  and  C5_6 
REMARK    5  A    between atoms: C7_8  and  C8_9 
REMARK    6  A    between atoms: C9_12  and  O4_13 
REMARK    7  A    between atoms: C11_17  and  N1_18 
ROOT
HETATM    1  C5  UNL     1      90.523  95.777 -45.232  1.00  0.00     0.098 A 
HETATM    2  C6  UNL     1      90.644  94.476 -45.641  1.00  0.00     0.060 A 
HETATM    3  C7  UNL     1      91.052  93.480 -44.757  1.00  0.00     0.077 A 
HETATM    4  C9  UNL     1      91.335  93.809 -43.464  1.00  0.00     0.101 A 
HETATM    5  C10 UNL     1      91.207  95.153 -43.054  1.00  0.00     0.070 A 
HETATM    6  I1  UNL     1      91.654  95.606 -41.060  1.00  0.00    -0.039 I 
HETATM    7  C11 UNL     1      90.809  96.140 -43.907  1.00  0.00     0.091 A 
ENDROOT
BRANCH   1   8
HETATM    8  O1  UNL     1      90.131  96.792 -46.050  1.00  0.00    -0.349 OA
BRANCH   8   9
HETATM    9  C4  UNL     1      88.920  97.119 -46.603  1.00  0.00     0.175 C 
BRANCH   9  10
HETATM   10  C3  UNL     1      87.692  96.554 -45.937  1.00  0.00     0.026 C 
BRANCH  10  11
HETATM   11  C2  UNL     1      86.873  97.739 -45.465  1.00  0.00    -0.002 C 
HETATM   12  C1  UNL     1      85.887  97.358 -44.399  1.00  0.00     0.005 C 
ENDBRANCH  10  11
ENDBRANCH   9  10
ENDBRANCH   8   9
ENDBRANCH   1   8
BRANCH   7  13
HETATM   13  N1  UNL     1      90.675  97.500 -43.509  1.00  0.00    -0.329 N 
HETATM   14  C12 UNL     1      89.564  98.074 -42.982  1.00  0.00     0.097 A 
HETATM   15  C13 UNL     1      89.782  99.405 -42.713  1.00  0.00     0.019 A 
HETATM   16  C14 UNL     1      91.079  99.642 -43.094  1.00  0.00     0.019 A 
HETATM   17  C15 UNL     1      91.604  98.471 -43.577  1.00  0.00     0.097 A 
ENDBRANCH   7  13
BRANCH   3  18
HETATM   18  C8  UNL     1      91.170  92.103 -45.225  1.00  0.00     0.212 C 
HETATM   19  O2  UNL     1      90.392  91.542 -46.027  1.00  0.00    -0.644 OA
HETATM   20  O3  UNL     1      92.253  91.360 -44.721  1.00  0.00    -0.644 OA
ENDBRANCH   3  18
BRANCH   4  21
HETATM   21  O4  UNL     1      91.742  92.907 -42.522  1.00  0.00    -0.358 OA
ATOM     22  H4  UNL     1      91.147  92.435 -41.952  1.00  0.00     0.217 HD
ENDBRANCH   4  21
TORSDOF 7
ENDMDL
