MODEL 1
REMARK VINA RESULT: -5.926215921      0.000      0.000
REMARK  6 active torsions:
REMARK  status: ('A' for Active; 'I' for Inactive)
REMARK    1  A    between atoms: C2_2  and  C3_3 
REMARK    2  A    between atoms: C3_3  and  S1_4 
REMARK    3  A    between atoms: S1_4  and  C4_5 
REMARK    4  A    between atoms: C6_7  and  C7_8 
REMARK    5  A    between atoms: C8_11  and  O3_12 
REMARK    6  A    between atoms: C10_16  and  N1_17 
ROOT
HETATM    1  C4  UNL     1      91.427  93.416 -45.130  1.00  0.00     0.030 A 
HETATM    2  C5  UNL     1      90.816  94.439 -45.866  1.00  0.00     0.042 A 
HETATM    3  C6  UNL     1      90.604  95.677 -45.293  1.00  0.00     0.076 A 
HETATM    4  C8  UNL     1      91.013  95.868 -43.979  1.00  0.00     0.101 A 
HETATM    5  C9  UNL     1      91.620  94.849 -43.251  1.00  0.00     0.069 A 
HETATM    6  I1  UNL     1      92.236  95.164 -41.253  1.00  0.00    -0.039 I 
HETATM    7  C10 UNL     1      91.830  93.611 -43.832  1.00  0.00     0.074 A 
ENDROOT
BRANCH   7   8
HETATM    8  N1  UNL     1      92.442  92.525 -43.152  1.00  0.00    -0.330 N 
HETATM    9  C11 UNL     1      91.828  91.474 -42.538  1.00  0.00     0.097 A 
HETATM   10  C12 UNL     1      92.795  90.649 -42.003  1.00  0.00     0.019 A 
HETATM   11  C13 UNL     1      93.995  91.216 -42.302  1.00  0.00     0.019 A 
HETATM   12  C14 UNL     1      93.768  92.374 -43.011  1.00  0.00     0.097 A 
ENDBRANCH   7   8
BRANCH   1  13
HETATM   13  S1  UNL     1      91.700  91.818 -45.870  1.00  0.00    -0.128 SA
BRANCH  13  14
HETATM   14  C3  UNL     1      91.505  91.986 -47.671  1.00  0.00     0.079 C 
BRANCH  14  15
HETATM   15  C2  UNL     1      90.119  91.524 -48.099  1.00  0.00     0.006 C 
HETATM   16  C1  UNL     1      89.397  92.643 -48.816  1.00  0.00     0.006 C 
ENDBRANCH  14  15
ENDBRANCH  13  14
ENDBRANCH   1  13
BRANCH   4  17
HETATM   17  O3  UNL     1      90.797  97.098 -43.428  1.00  0.00    -0.358 OA
ATOM     18  H3  UNL     1      89.964  97.242 -42.993  1.00  0.00     0.217 HD
ENDBRANCH   4  17
BRANCH   3  19
HETATM   19  C7  UNL     1      89.967  96.737 -46.063  1.00  0.00     0.212 C 
HETATM   20  O1  UNL     1      88.875  96.505 -46.655  1.00  0.00    -0.644 OA
HETATM   21  O2  UNL     1      90.547  97.977 -46.143  1.00  0.00    -0.644 OA
ENDBRANCH   3  19
TORSDOF 6
ENDMDL
