MODEL 4
REMARK VINA RESULT: -5.026170822      2.766      4.952
REMARK  6 active torsions:
REMARK  status: ('A' for Active; 'I' for Inactive)
REMARK    1  A    between atoms: C2_2  and  C3_3 
REMARK    2  A    between atoms: C3_3  and  S1_4 
REMARK    3  A    between atoms: S1_4  and  C4_5 
REMARK    4  A    between atoms: C6_7  and  C7_8 
REMARK    5  A    between atoms: C8_11  and  O3_12 
REMARK    6  A    between atoms: C10_16  and  N1_17 
ROOT
HETATM    1  C4  UNL     1      91.643  91.990 -44.416  1.00  0.00     0.030 A 
HETATM    2  C5  UNL     1      91.436  91.291 -45.611  1.00  0.00     0.042 A 
HETATM    3  C6  UNL     1      90.939  91.942 -46.721  1.00  0.00     0.076 A 
HETATM    4  C8  UNL     1      90.655  93.298 -46.613  1.00  0.00     0.101 A 
HETATM    5  C9  UNL     1      90.863  93.990 -45.423  1.00  0.00     0.069 A 
HETATM    6  I1  UNL     1      90.425  96.053 -45.280  1.00  0.00    -0.039 I 
HETATM    7  C10 UNL     1      91.362  93.330 -44.313  1.00  0.00     0.074 A 
ENDROOT
BRANCH   7   8
HETATM    8  N1  UNL     1      91.598  93.969 -43.067  1.00  0.00    -0.330 N 
HETATM    9  C11 UNL     1      92.652  94.762 -42.724  1.00  0.00     0.097 A 
HETATM   10  C12 UNL     1      92.488  95.174 -41.419  1.00  0.00     0.019 A 
HETATM   11  C13 UNL     1      91.325  94.620 -40.982  1.00  0.00     0.019 A 
HETATM   12  C14 UNL     1      90.782  93.877 -42.006  1.00  0.00     0.097 A 
ENDBRANCH   7   8
BRANCH   1  13
HETATM   13  S1  UNL     1      92.284  91.148 -42.982  1.00  0.00    -0.128 SA
BRANCH  13  14
HETATM   14  C3  UNL     1      94.090  91.374 -42.953  1.00  0.00     0.079 C 
BRANCH  14  15
HETATM   15  C2  UNL     1      94.626  91.170 -41.543  1.00  0.00     0.006 C 
HETATM   16  C1  UNL     1      94.818  92.508 -40.863  1.00  0.00     0.006 C 
ENDBRANCH  14  15
ENDBRANCH  13  14
ENDBRANCH   1  13
BRANCH   4  17
HETATM   17  O3  UNL     1      90.165  93.927 -47.720  1.00  0.00    -0.358 OA
ATOM     18  H3  UNL     1      90.671  94.650 -48.071  1.00  0.00     0.217 HD
ENDBRANCH   4  17
BRANCH   3  19
HETATM   19  C7  UNL     1      90.725  91.209 -47.962  1.00  0.00     0.212 C 
HETATM   20  O1  UNL     1      89.582  91.223 -48.503  1.00  0.00    -0.644 OA
HETATM   21  O2  UNL     1      91.753  90.511 -48.539  1.00  0.00    -0.644 OA
ENDBRANCH   3  19
TORSDOF 6
ENDMDL
