MODEL 5
REMARK VINA RESULT: -4.803570497      4.138      6.548
REMARK  6 active torsions:
REMARK  status: ('A' for Active; 'I' for Inactive)
REMARK    1  A    between atoms: C2_2  and  C3_3 
REMARK    2  A    between atoms: C3_3  and  S1_4 
REMARK    3  A    between atoms: S1_4  and  C4_5 
REMARK    4  A    between atoms: C6_7  and  C7_8 
REMARK    5  A    between atoms: C8_11  and  O3_12 
REMARK    6  A    between atoms: C10_16  and  N1_17 
ROOT
HETATM    1  C4  UNL     1      90.828  97.618 -43.988  1.00  0.00     0.030 A 
HETATM    2  C5  UNL     1      91.113  96.479 -43.226  1.00  0.00     0.042 A 
HETATM    3  C6  UNL     1      91.654  96.603 -41.963  1.00  0.00     0.076 A 
HETATM    4  C8  UNL     1      91.903  97.883 -41.481  1.00  0.00     0.101 A 
HETATM    5  C9  UNL     1      91.618  99.014 -42.241  1.00  0.00     0.069 A 
HETATM    6  I1  UNL     1      92.003 100.951 -41.487  1.00  0.00    -0.039 I 
HETATM    7  C10 UNL     1      91.075  98.881 -43.506  1.00  0.00     0.074 A 
ENDROOT
BRANCH   7   8
HETATM    8  N1  UNL     1      90.759  99.987 -44.339  1.00  0.00    -0.330 N 
HETATM    9  C11 UNL     1      89.582 100.672 -44.404  1.00  0.00     0.097 A 
HETATM   10  C12 UNL     1      89.705 101.671 -45.346  1.00  0.00     0.019 A 
HETATM   11  C13 UNL     1      90.966 101.580 -45.845  1.00  0.00     0.019 A 
HETATM   12  C14 UNL     1      91.611 100.537 -45.218  1.00  0.00     0.097 A 
ENDBRANCH   7   8
BRANCH   1  13
HETATM   13  S1  UNL     1      90.129  97.457 -45.619  1.00  0.00    -0.128 SA
BRANCH  13  14
HETATM   14  C3  UNL     1      89.945  95.684 -45.984  1.00  0.00     0.079 C 
BRANCH  14  15
HETATM   15  C2  UNL     1      91.305  94.998 -45.971  1.00  0.00     0.006 C 
HETATM   16  C1  UNL     1      91.138  93.519 -45.697  1.00  0.00     0.006 C 
ENDBRANCH  14  15
ENDBRANCH  13  14
ENDBRANCH   1  13
BRANCH   4  17
HETATM   17  O3  UNL     1      92.438  97.989 -40.230  1.00  0.00    -0.358 OA
ATOM     18  H3  UNL     1      92.544  98.863 -39.873  1.00  0.00     0.217 HD
ENDBRANCH   4  17
BRANCH   3  19
HETATM   19  C7  UNL     1      91.950  95.414 -41.175  1.00  0.00     0.212 C 
HETATM   20  O1  UNL     1      93.154  95.089 -40.968  1.00  0.00    -0.644 OA
HETATM   21  O2  UNL     1      90.931  94.655 -40.661  1.00  0.00    -0.644 OA
ENDBRANCH   3  19
TORSDOF 6
ENDMDL
