MODEL 3
REMARK VINA RESULT: -5.288461950      3.024      5.083
REMARK  6 active torsions:
REMARK  status: ('A' for Active; 'I' for Inactive)
REMARK    1  A    between atoms: C2_2  and  C3_3 
REMARK    2  A    between atoms: C3_3  and  S1_4 
REMARK    3  A    between atoms: S1_4  and  C4_5 
REMARK    4  A    between atoms: C6_7  and  C7_8 
REMARK    5  A    between atoms: C8_11  and  O3_12 
REMARK    6  A    between atoms: C10_16  and  N1_17 
ROOT
HETATM    1  C4  UNL     1      91.680  93.286 -44.639  1.00  0.00     0.030 A 
HETATM    2  C5  UNL     1      92.193  92.145 -44.011  1.00  0.00     0.042 A 
HETATM    3  C6  UNL     1      92.586  92.195 -42.689  1.00  0.00     0.076 A 
HETATM    4  C8  UNL     1      92.456  93.402 -42.013  1.00  0.00     0.101 A 
HETATM    5  C9  UNL     1      91.945  94.535 -42.641  1.00  0.00     0.069 A 
HETATM    6  I1  UNL     1      91.755  96.361 -41.593  1.00  0.00    -0.039 I 
HETATM    7  C10 UNL     1      91.553  94.477 -43.967  1.00  0.00     0.074 A 
ENDROOT
BRANCH   7   8
HETATM    8  N1  UNL     1      91.024  95.590 -44.673  1.00  0.00    -0.330 N 
HETATM    9  C11 UNL     1      89.714  95.873 -44.921  1.00  0.00     0.097 A 
HETATM   10  C12 UNL     1      89.646  97.048 -45.639  1.00  0.00     0.019 A 
HETATM   11  C13 UNL     1      90.927  97.467 -45.819  1.00  0.00     0.019 A 
HETATM   12  C14 UNL     1      91.773  96.561 -45.219  1.00  0.00     0.097 A 
ENDBRANCH   7   8
BRANCH   1  13
HETATM   13  S1  UNL     1      91.173  93.221 -46.347  1.00  0.00    -0.128 SA
BRANCH  13  14
HETATM   14  C3  UNL     1      90.825  91.485 -46.768  1.00  0.00     0.079 C 
BRANCH  14  15
HETATM   15  C2  UNL     1      91.958  90.907 -47.605  1.00  0.00     0.006 C 
HETATM   16  C1  UNL     1      91.409  90.324 -48.889  1.00  0.00     0.006 C 
ENDBRANCH  14  15
ENDBRANCH  13  14
ENDBRANCH   1  13
BRANCH   4  17
HETATM   17  O3  UNL     1      92.848  93.435 -40.707  1.00  0.00    -0.358 OA
ATOM     18  H3  UNL     1      92.995  94.288 -40.316  1.00  0.00     0.217 HD
ENDBRANCH   4  17
BRANCH   3  19
HETATM   19  C7  UNL     1      93.120  91.005 -42.041  1.00  0.00     0.212 C 
HETATM   20  O1  UNL     1      94.331  90.983 -41.682  1.00  0.00    -0.644 OA
HETATM   21  O2  UNL     1      92.314  89.917 -41.821  1.00  0.00    -0.644 OA
ENDBRANCH   3  19
TORSDOF 6
ENDMDL
