MODEL 3
REMARK VINA RESULT: -6.397994936      8.106     11.118
REMARK  10 active torsions:
REMARK  status: ('A' for Active; 'I' for Inactive)
REMARK    1  A    between atoms: O1_2  and  C2_3 
REMARK    2  A    between atoms: C2_3  and  C3_4 
REMARK    3  A    between atoms: C2_3  and  C5_8 
REMARK    4  A    between atoms: C3_4  and  C4_5 
REMARK    5  A    between atoms: C5_8  and  C7_10 
REMARK    6  A    between atoms: C7_10  and  C8_12 
REMARK    7  A    between atoms: C8_12  and  C10_14 
REMARK    8  A    between atoms: C11_15  and  C13_17 
REMARK    9  A    between atoms: C15_21  and  O7_22 
REMARK   10  A    between atoms: C16_24  and  O8_25 
ROOT
HETATM    1  C13 UNL     1     -58.392   0.006  -4.867  1.00  0.00     0.164 C 
HETATM    2  O5  UNL     1     -59.202   0.747  -5.729  1.00  0.00    -0.309 OA
HETATM    3  C14 UNL     1     -58.955   1.394  -6.890  1.00  0.00     0.291 C 
HETATM    4  O6  UNL     1     -59.247   0.993  -8.066  1.00  0.00    -0.262 OA
HETATM    5  C15 UNL     1     -58.273   2.717  -6.844  1.00  0.00     0.249 C 
HETATM    6  C16 UNL     1     -58.906   3.615  -5.794  1.00  0.00     0.179 C 
HETATM    7  C17 UNL     1     -58.145   4.875  -5.590  1.00  0.00     0.004 C 
HETATM    8  C18 UNL     1     -57.759   5.339  -4.408  1.00  0.00    -0.024 C 
HETATM    9  C19 UNL     1     -58.024   4.680  -3.115  1.00  0.00     0.004 C 
HETATM   10  C20 UNL     1     -57.755   5.604  -1.941  1.00  0.00     0.014 C 
HETATM   11  C21 UNL     1     -57.296   3.392  -2.911  1.00  0.00     0.008 C 
HETATM   12  C22 UNL     1     -58.170   2.340  -2.229  1.00  0.00     0.001 C 
HETATM   13  C23 UNL     1     -57.706   0.969  -2.659  1.00  0.00     0.007 C 
HETATM   14  C24 UNL     1     -58.789   0.201  -3.406  1.00  0.00     0.015 C 
HETATM   15  C25 UNL     1     -59.139  -1.078  -2.705  1.00  0.00     0.013 C 
ENDROOT
BRANCH   1  16
HETATM   16  C11 UNL     1     -58.652  -1.440  -5.229  1.00  0.00    -0.057 C 
HETATM   17  C10 UNL     1     -57.672  -2.330  -5.247  1.00  0.00    -0.010 C 
HETATM   18  C12 UNL     1     -60.014  -1.929  -5.571  1.00  0.00     0.046 C 
BRANCH  17  19
HETATM   19  C8  UNL     1     -57.905  -3.783  -5.597  1.00  0.00     0.074 C 
HETATM   20  C9  UNL     1     -57.064  -4.215  -6.743  1.00  0.00     0.022 C 
BRANCH  19  21
HETATM   21  C7  UNL     1     -57.748  -4.616  -4.353  1.00  0.00     0.140 C 
HETATM   22  O4  UNL     1     -57.108  -5.678  -4.463  1.00  0.00    -0.297 OA
BRANCH  21  23
HETATM   23  C5  UNL     1     -58.272  -4.298  -3.039  1.00  0.00     0.081 C 
HETATM   24  C6  UNL     1     -57.351  -4.370  -1.874  1.00  0.00     0.020 C 
BRANCH  23  25
HETATM   25  C2  UNL     1     -59.474  -5.170  -2.711  1.00  0.00     0.141 C 
BRANCH  25  26
HETATM   26  O1  UNL     1     -60.396  -5.272  -3.729  1.00  0.00    -0.389 OA
HETATM   27  C1  UNL     1     -60.646  -6.582  -4.112  1.00  0.00     0.202 C 
ENDBRANCH  25  26
BRANCH  25  28
HETATM   28  C3  UNL     1     -60.217  -4.501  -1.526  1.00  0.00     0.145 C 
BRANCH  28  29
HETATM   29  C4  UNL     1     -60.882  -5.541  -0.719  1.00  0.00     0.175 C 
HETATM   30  O2  UNL     1     -60.169  -6.532  -0.366  1.00  0.00    -0.648 OA
HETATM   31  O3  UNL     1     -62.205  -5.496  -0.337  1.00  0.00    -0.648 OA
ENDBRANCH  28  29
ENDBRANCH  25  28
ENDBRANCH  23  25
ENDBRANCH  21  23
ENDBRANCH  19  21
ENDBRANCH  17  19
ENDBRANCH   1  16
BRANCH   5  32
HETATM   32  O7  UNL     1     -56.921   2.583  -6.544  1.00  0.00    -0.383 OA
ATOM     33  H7  UNL     1     -56.381   2.680  -7.320  1.00  0.00     0.210 HD
ENDBRANCH   5  32
BRANCH   6  34
HETATM   34  O8  UNL     1     -60.202   3.906  -6.287  1.00  0.00    -0.389 OA
ATOM     35  H8  UNL     1     -60.774   3.848  -5.530  1.00  0.00     0.210 HD
ENDBRANCH   6  34
TORSDOF 10
ENDMDL
