MODEL 2
REMARK VINA RESULT: -6.574799626      1.447      2.250
REMARK  10 active torsions:
REMARK  status: ('A' for Active; 'I' for Inactive)
REMARK    1  A    between atoms: O1_2  and  C2_3 
REMARK    2  A    between atoms: C2_3  and  C3_4 
REMARK    3  A    between atoms: C2_3  and  C5_8 
REMARK    4  A    between atoms: C3_4  and  C4_5 
REMARK    5  A    between atoms: C5_8  and  C7_10 
REMARK    6  A    between atoms: C7_10  and  C8_12 
REMARK    7  A    between atoms: C8_12  and  C10_14 
REMARK    8  A    between atoms: C11_15  and  C13_17 
REMARK    9  A    between atoms: C15_21  and  O7_22 
REMARK   10  A    between atoms: C16_24  and  O8_25 
ROOT
HETATM    1  C13 UNL     1     -54.395   8.124  -2.202  1.00  0.00     0.164 C 
HETATM    2  O5  UNL     1     -54.793   9.232  -2.950  1.00  0.00    -0.309 OA
HETATM    3  C14 UNL     1     -54.715   9.526  -4.267  1.00  0.00     0.291 C 
HETATM    4  O6  UNL     1     -55.662   9.470  -5.121  1.00  0.00    -0.262 OA
HETATM    5  C15 UNL     1     -53.407   9.967  -4.828  1.00  0.00     0.249 C 
HETATM    6  C16 UNL     1     -52.774  11.032  -3.950  1.00  0.00     0.179 C 
HETATM    7  C17 UNL     1     -51.390  11.370  -4.374  1.00  0.00     0.004 C 
HETATM    8  C18 UNL     1     -50.341  11.404  -3.563  1.00  0.00    -0.024 C 
HETATM    9  C19 UNL     1     -50.382  11.113  -2.117  1.00  0.00     0.004 C 
HETATM   10  C20 UNL     1     -49.111  11.552  -1.414  1.00  0.00     0.014 C 
HETATM   11  C21 UNL     1     -50.672   9.688  -1.776  1.00  0.00     0.008 C 
HETATM   12  C22 UNL     1     -51.613   9.564  -0.578  1.00  0.00     0.001 C 
HETATM   13  C23 UNL     1     -52.394   8.278  -0.704  1.00  0.00     0.007 C 
HETATM   14  C24 UNL     1     -53.893   8.523  -0.816  1.00  0.00     0.015 C 
HETATM   15  C25 UNL     1     -54.642   7.866   0.304  1.00  0.00     0.013 C 
ENDROOT
BRANCH   1  16
HETATM   16  C11 UNL     1     -55.651   7.300  -2.020  1.00  0.00    -0.057 C 
HETATM   17  C10 UNL     1     -55.629   5.980  -2.123  1.00  0.00    -0.010 C 
HETATM   18  C12 UNL     1     -56.963   7.930  -1.709  1.00  0.00     0.046 C 
BRANCH  17  19
HETATM   19  C8  UNL     1     -56.867   5.133  -1.938  1.00  0.00     0.074 C 
HETATM   20  C9  UNL     1     -57.309   4.515  -3.215  1.00  0.00     0.022 C 
BRANCH  19  21
HETATM   21  C7  UNL     1     -56.628   4.156  -0.817  1.00  0.00     0.140 C 
HETATM   22  O4  UNL     1     -55.675   3.367  -0.951  1.00  0.00    -0.297 OA
BRANCH  21  23
HETATM   23  C5  UNL     1     -57.404   4.048   0.402  1.00  0.00     0.081 C 
HETATM   24  C6  UNL     1     -58.838   3.667   0.297  1.00  0.00     0.020 C 
BRANCH  23  25
HETATM   25  C2  UNL     1     -57.345   5.343   1.197  1.00  0.00     0.141 C 
BRANCH  25  26
HETATM   26  O1  UNL     1     -57.136   5.171   2.548  1.00  0.00    -0.389 OA
HETATM   27  C1  UNL     1     -55.872   5.565   2.961  1.00  0.00     0.202 C 
ENDBRANCH  25  26
BRANCH  25  28
HETATM   28  C3  UNL     1     -58.729   6.029   1.062  1.00  0.00     0.145 C 
BRANCH  28  29
HETATM   29  C4  UNL     1     -58.747   7.254   1.882  1.00  0.00     0.175 C 
HETATM   30  O2  UNL     1     -59.615   7.309   2.808  1.00  0.00    -0.648 OA
HETATM   31  O3  UNL     1     -57.891   8.319   1.700  1.00  0.00    -0.648 OA
ENDBRANCH  28  29
ENDBRANCH  25  28
ENDBRANCH  23  25
ENDBRANCH  21  23
ENDBRANCH  19  21
ENDBRANCH  17  19
ENDBRANCH   1  16
BRANCH   5  32
HETATM   32  O7  UNL     1     -52.515   8.904  -4.935  1.00  0.00    -0.383 OA
ATOM     33  H7  UNL     1     -51.936   9.011  -5.681  1.00  0.00     0.210 HD
ENDBRANCH   5  32
BRANCH   6  34
HETATM   34  O8  UNL     1     -53.612  12.167  -4.081  1.00  0.00    -0.389 OA
ATOM     35  H8  UNL     1     -53.177  12.726  -4.714  1.00  0.00     0.210 HD
ENDBRANCH   6  34
TORSDOF 10
ENDMDL
