MODEL 1
REMARK VINA RESULT: -6.678610107      0.000      0.000
REMARK  10 active torsions:
REMARK  status: ('A' for Active; 'I' for Inactive)
REMARK    1  A    between atoms: O1_2  and  C2_3 
REMARK    2  A    between atoms: C2_3  and  C3_4 
REMARK    3  A    between atoms: C2_3  and  C5_8 
REMARK    4  A    between atoms: C3_4  and  C4_5 
REMARK    5  A    between atoms: C5_8  and  C7_10 
REMARK    6  A    between atoms: C7_10  and  C8_12 
REMARK    7  A    between atoms: C8_12  and  C10_14 
REMARK    8  A    between atoms: C11_15  and  C13_17 
REMARK    9  A    between atoms: C15_21  and  O7_22 
REMARK   10  A    between atoms: C16_24  and  O8_25 
ROOT
HETATM    1  C13 UNL     1     -54.653   8.619  -1.801  1.00  0.00     0.164 C 
HETATM    2  O5  UNL     1     -54.930   9.453  -2.885  1.00  0.00    -0.309 OA
HETATM    3  C14 UNL     1     -54.775   9.305  -4.220  1.00  0.00     0.291 C 
HETATM    4  O6  UNL     1     -55.688   9.040  -5.071  1.00  0.00    -0.262 OA
HETATM    5  C15 UNL     1     -53.415   9.460  -4.807  1.00  0.00     0.249 C 
HETATM    6  C16 UNL     1     -52.733  10.707  -4.271  1.00  0.00     0.179 C 
HETATM    7  C17 UNL     1     -51.311  10.803  -4.691  1.00  0.00     0.004 C 
HETATM    8  C18 UNL     1     -50.295  11.027  -3.867  1.00  0.00    -0.024 C 
HETATM    9  C19 UNL     1     -50.418  11.217  -2.408  1.00  0.00     0.004 C 
HETATM   10  C20 UNL     1     -49.145  11.776  -1.800  1.00  0.00     0.014 C 
HETATM   11  C21 UNL     1     -50.836   9.998  -1.655  1.00  0.00     0.008 C 
HETATM   12  C22 UNL     1     -51.831  10.323  -0.541  1.00  0.00     0.001 C 
HETATM   13  C23 UNL     1     -52.708   9.117  -0.304  1.00  0.00     0.007 C 
HETATM   14  C24 UNL     1     -54.176   9.408  -0.583  1.00  0.00     0.015 C 
HETATM   15  C25 UNL     1     -55.021   9.193   0.637  1.00  0.00     0.013 C 
ENDROOT
BRANCH   1  16
HETATM   16  C11 UNL     1     -55.978   7.979  -1.449  1.00  0.00    -0.057 C 
HETATM   17  C10 UNL     1     -56.051   6.709  -1.079  1.00  0.00    -0.010 C 
HETATM   18  C12 UNL     1     -57.254   8.743  -1.494  1.00  0.00     0.046 C 
BRANCH  17  19
HETATM   19  C8  UNL     1     -57.360   6.047  -0.714  1.00  0.00     0.074 C 
HETATM   20  C9  UNL     1     -57.917   5.266  -1.848  1.00  0.00     0.022 C 
BRANCH  19  21
HETATM   21  C7  UNL     1     -57.173   5.263   0.558  1.00  0.00     0.140 C 
HETATM   22  O4  UNL     1     -56.739   4.103   0.446  1.00  0.00    -0.297 OA
BRANCH  21  23
HETATM   23  C5  UNL     1     -57.452   5.734   1.901  1.00  0.00     0.081 C 
HETATM   24  C6  UNL     1     -57.774   7.173   2.093  1.00  0.00     0.020 C 
BRANCH  23  25
HETATM   25  C2  UNL     1     -56.301   5.407   2.839  1.00  0.00     0.141 C 
BRANCH  25  26
HETATM   26  O1  UNL     1     -56.687   5.096   4.124  1.00  0.00    -0.389 OA
HETATM   27  C1  UNL     1     -56.156   3.898   4.580  1.00  0.00     0.202 C 
ENDBRANCH  25  26
BRANCH  25  28
HETATM   28  C3  UNL     1     -55.424   6.680   2.951  1.00  0.00     0.145 C 
BRANCH  28  29
HETATM   29  C4  UNL     1     -54.013   6.321   2.718  1.00  0.00     0.175 C 
HETATM   30  O2  UNL     1     -53.652   6.176   1.508  1.00  0.00    -0.648 OA
HETATM   31  O3  UNL     1     -53.085   6.137   3.721  1.00  0.00    -0.648 OA
ENDBRANCH  28  29
ENDBRANCH  25  28
ENDBRANCH  23  25
ENDBRANCH  21  23
ENDBRANCH  19  21
ENDBRANCH  17  19
ENDBRANCH   1  16
BRANCH   5  32
HETATM   32  O7  UNL     1     -52.607   8.364  -4.515  1.00  0.00    -0.383 OA
ATOM     33  H7  UNL     1     -52.711   7.674  -5.161  1.00  0.00     0.210 HD
ENDBRANCH   5  32
BRANCH   6  34
HETATM   34  O8  UNL     1     -53.471  11.792  -4.807  1.00  0.00    -0.389 OA
ATOM     35  H8  UNL     1     -53.030  12.573  -4.492  1.00  0.00     0.210 HD
ENDBRANCH   6  34
TORSDOF 10
ENDMDL
