MODEL 3
REMARK VINA RESULT: -10.996652342      0.943      1.018
REMARK  3 active torsions:
REMARK  status: ('A' for Active; 'I' for Inactive)
REMARK    1  A    between atoms: S1_2  and  N1_5 
REMARK    2  A    between atoms: N1_5  and  C2_7 
REMARK    3  A    between atoms: C7_12  and  C8_13 
ROOT
HETATM    1  C8  UNL     1      21.095 -21.062 -23.166  1.00  0.00     0.004 A 
HETATM    2  C9  UNL     1      20.354 -20.020 -23.690  1.00  0.00     0.014 A 
HETATM    3  C10 UNL     1      20.223 -19.862 -25.060  1.00  0.00     0.002 A 
HETATM    4  C11 UNL     1      20.851 -20.774 -25.878  1.00  0.00     0.014 A 
HETATM    5  C12 UNL     1      21.589 -21.814 -25.349  1.00  0.00     0.004 A 
HETATM    6  C13 UNL     1      21.721 -21.972 -23.990  1.00  0.00     0.055 A 
HETATM    7  N2  UNL     1      22.481 -23.037 -23.704  1.00  0.00    -0.354 N 
ATOM      8  H2  UNL     1      22.722 -23.357 -22.765  1.00  0.00     0.166 HD
HETATM    9  C14 UNL     1      22.880 -23.623 -24.860  1.00  0.00     0.043 A 
HETATM   10  C15 UNL     1      23.658 -24.719 -25.169  1.00  0.00     0.030 A 
HETATM   11  C16 UNL     1      23.875 -25.046 -26.490  1.00  0.00     0.002 A 
HETATM   12  C17 UNL     1      23.322 -24.289 -27.519  1.00  0.00     0.001 A 
HETATM   13  C18 UNL     1      22.549 -23.200 -27.204  1.00  0.00     0.014 A 
HETATM   14  C19 UNL     1      22.331 -22.870 -25.885  1.00  0.00     0.003 A 
ENDROOT
BRANCH   1  15
HETATM   15  C7  UNL     1      21.148 -21.188 -21.720  1.00  0.00     0.004 A 
HETATM   16  C2  UNL     1      21.778 -20.256 -20.942  1.00  0.00     0.053 A 
HETATM   17  C3  UNL     1      21.743 -20.384 -19.544  1.00  0.00     0.031 A 
HETATM   18  C4  UNL     1      21.087 -21.433 -18.946  1.00  0.00     0.002 A 
HETATM   19  C5  UNL     1      20.457 -22.367 -19.746  1.00  0.00     0.001 A 
HETATM   20  C6  UNL     1      20.482 -22.254 -21.122  1.00  0.00     0.014 A 
BRANCH  16  21
HETATM   21  N1  UNL     1      22.514 -19.199 -21.550  1.00  0.00    -0.284 N 
ATOM     22  H1  UNL     1      22.308 -18.961 -22.520  1.00  0.00     0.178 HD
BRANCH  21  23
HETATM   23  S1  UNL     1      23.739 -18.301 -20.725  1.00  0.00     0.227 S 
HETATM   24  C1  UNL     1      24.435 -17.052 -21.816  1.00  0.00     0.186 C 
HETATM   25  O1  UNL     1      24.819 -19.162 -20.154  1.00  0.00    -0.206 OA
HETATM   26  O2  UNL     1      23.062 -17.514 -19.609  1.00  0.00    -0.206 OA
ENDBRANCH  21  23
ENDBRANCH  16  21
ENDBRANCH   1  15
TORSDOF 3
ENDMDL
