MODEL 8
REMARK VINA RESULT: -8.008492682      2.926      6.179
REMARK  3 active torsions:
REMARK  status: ('A' for Active; 'I' for Inactive)
REMARK    1  A    between atoms: S1_2  and  N1_5 
REMARK    2  A    between atoms: N1_5  and  C2_7 
REMARK    3  A    between atoms: C7_12  and  C8_13 
ROOT
HETATM    1  C8  UNL     1      22.138 -19.234 -23.196  1.00  0.00     0.004 A 
HETATM    2  C9  UNL     1      23.265 -18.443 -23.077  1.00  0.00     0.014 A 
HETATM    3  C10 UNL     1      23.957 -18.370 -21.880  1.00  0.00     0.002 A 
HETATM    4  C11 UNL     1      23.488 -19.110 -20.817  1.00  0.00     0.014 A 
HETATM    5  C12 UNL     1      22.363 -19.900 -20.941  1.00  0.00     0.004 A 
HETATM    6  C13 UNL     1      21.674 -19.973 -22.129  1.00  0.00     0.055 A 
HETATM    7  N2  UNL     1      20.618 -20.789 -22.019  1.00  0.00    -0.354 N 
ATOM      8  H2  UNL     1      19.956 -21.003 -22.766  1.00  0.00     0.166 HD
HETATM    9  C14 UNL     1      20.568 -21.286 -20.758  1.00  0.00     0.043 A 
HETATM   10  C15 UNL     1      19.721 -22.147 -20.092  1.00  0.00     0.030 A 
HETATM   11  C16 UNL     1      19.962 -22.448 -18.770  1.00  0.00     0.002 A 
HETATM   12  C17 UNL     1      21.048 -21.899 -18.093  1.00  0.00     0.001 A 
HETATM   13  C18 UNL     1      21.886 -21.043 -18.762  1.00  0.00     0.014 A 
HETATM   14  C19 UNL     1      21.647 -20.739 -20.084  1.00  0.00     0.003 A 
ENDROOT
BRANCH   1  15
HETATM   15  C7  UNL     1      21.493 -19.295 -24.495  1.00  0.00     0.004 A 
HETATM   16  C2  UNL     1      21.606 -20.395 -25.301  1.00  0.00     0.053 A 
HETATM   17  C3  UNL     1      20.908 -20.436 -26.518  1.00  0.00     0.031 A 
HETATM   18  C4  UNL     1      20.115 -19.386 -26.914  1.00  0.00     0.002 A 
HETATM   19  C5  UNL     1      20.013 -18.281 -26.091  1.00  0.00     0.001 A 
HETATM   20  C6  UNL     1      20.693 -18.227 -24.890  1.00  0.00     0.014 A 
BRANCH  16  21
HETATM   21  N1  UNL     1      22.473 -21.463 -24.932  1.00  0.00    -0.284 N 
ATOM     22  H1  UNL     1      23.023 -21.367 -24.079  1.00  0.00     0.178 HD
BRANCH  21  23
HETATM   23  S1  UNL     1      22.637 -22.913 -25.858  1.00  0.00     0.227 S 
HETATM   24  C1  UNL     1      23.135 -24.277 -24.797  1.00  0.00     0.186 C 
HETATM   25  O1  UNL     1      23.578 -22.773 -27.011  1.00  0.00    -0.206 OA
HETATM   26  O2  UNL     1      21.252 -23.296 -26.366  1.00  0.00    -0.206 OA
ENDBRANCH  21  23
ENDBRANCH  16  21
ENDBRANCH   1  15
TORSDOF 3
ENDMDL
