MODEL 5
REMARK VINA RESULT: -9.934282211      2.590      5.878
REMARK  3 active torsions:
REMARK  status: ('A' for Active; 'I' for Inactive)
REMARK    1  A    between atoms: S1_2  and  N1_5 
REMARK    2  A    between atoms: N1_5  and  C2_7 
REMARK    3  A    between atoms: C7_12  and  C8_13 
ROOT
HETATM    1  C8  UNL     1      21.598 -21.947 -22.935  1.00  0.00     0.004 A 
HETATM    2  C9  UNL     1      20.665 -22.600 -22.152  1.00  0.00     0.014 A 
HETATM    3  C10 UNL     1      20.277 -22.078 -20.929  1.00  0.00     0.002 A 
HETATM    4  C11 UNL     1      20.846 -20.893 -20.522  1.00  0.00     0.014 A 
HETATM    5  C12 UNL     1      21.777 -20.244 -21.309  1.00  0.00     0.004 A 
HETATM    6  C13 UNL     1      22.165 -20.760 -22.523  1.00  0.00     0.055 A 
HETATM    7  N2  UNL     1      23.076 -19.973 -23.108  1.00  0.00    -0.354 N 
ATOM      8  H2  UNL     1      23.513 -20.147 -24.013  1.00  0.00     0.166 HD
HETATM    9  C14 UNL     1      23.326 -18.908 -22.306  1.00  0.00     0.043 A 
HETATM   10  C15 UNL     1      24.154 -17.808 -22.391  1.00  0.00     0.030 A 
HETATM   11  C16 UNL     1      24.167 -16.890 -21.365  1.00  0.00     0.002 A 
HETATM   12  C17 UNL     1      23.360 -17.052 -20.242  1.00  0.00     0.001 A 
HETATM   13  C18 UNL     1      22.540 -18.149 -20.164  1.00  0.00     0.014 A 
HETATM   14  C19 UNL     1      22.524 -19.070 -21.188  1.00  0.00     0.003 A 
ENDROOT
BRANCH   1  15
HETATM   15  C7  UNL     1      21.920 -22.532 -24.225  1.00  0.00     0.004 A 
HETATM   16  C2  UNL     1      21.338 -22.084 -25.380  1.00  0.00     0.053 A 
HETATM   17  C3  UNL     1      21.732 -22.633 -26.610  1.00  0.00     0.031 A 
HETATM   18  C4  UNL     1      22.692 -23.615 -26.672  1.00  0.00     0.002 A 
HETATM   19  C5  UNL     1      23.268 -24.057 -25.497  1.00  0.00     0.001 A 
HETATM   20  C6  UNL     1      22.892 -23.526 -24.279  1.00  0.00     0.014 A 
BRANCH  16  21
HETATM   21  N1  UNL     1      20.298 -21.113 -25.324  1.00  0.00    -0.284 N 
ATOM     22  H1  UNL     1      19.352 -21.427 -25.111  1.00  0.00     0.178 HD
BRANCH  21  23
HETATM   23  S1  UNL     1      20.562 -19.427 -25.600  1.00  0.00     0.227 S 
HETATM   24  C1  UNL     1      19.916 -18.463 -24.226  1.00  0.00     0.186 C 
HETATM   25  O1  UNL     1      19.992 -18.944 -26.895  1.00  0.00    -0.206 OA
HETATM   26  O2  UNL     1      22.067 -19.184 -25.576  1.00  0.00    -0.206 OA
ENDBRANCH  21  23
ENDBRANCH  16  21
ENDBRANCH   1  15
TORSDOF 3
ENDMDL
