MODEL 2
REMARK VINA RESULT: -11.993747820      1.151      1.253
REMARK  3 active torsions:
REMARK  status: ('A' for Active; 'I' for Inactive)
REMARK    1  A    between atoms: S1_2  and  N1_5 
REMARK    2  A    between atoms: N1_5  and  C2_7 
REMARK    3  A    between atoms: C7_12  and  C8_13 
ROOT
HETATM    1  C8  UNL     1      20.914 -20.826 -22.825  1.00  0.00     0.004 A 
HETATM    2  C9  UNL     1      20.276 -19.655 -23.189  1.00  0.00     0.014 A 
HETATM    3  C10 UNL     1      20.208 -19.268 -24.517  1.00  0.00     0.002 A 
HETATM    4  C11 UNL     1      20.791 -20.086 -25.458  1.00  0.00     0.014 A 
HETATM    5  C12 UNL     1      21.426 -21.255 -25.089  1.00  0.00     0.004 A 
HETATM    6  C13 UNL     1      21.496 -21.641 -23.772  1.00  0.00     0.055 A 
HETATM    7  N2  UNL     1      22.159 -22.797 -23.647  1.00  0.00    -0.354 N 
ATOM      8  H2  UNL     1      22.340 -23.283 -22.768  1.00  0.00     0.166 HD
HETATM    9  C14 UNL     1      22.552 -23.220 -24.874  1.00  0.00     0.043 A 
HETATM   10  C15 UNL     1      23.253 -24.313 -25.340  1.00  0.00     0.030 A 
HETATM   11  C16 UNL     1      23.491 -24.440 -26.691  1.00  0.00     0.002 A 
HETATM   12  C17 UNL     1      23.037 -23.484 -27.595  1.00  0.00     0.001 A 
HETATM   13  C18 UNL     1      22.341 -22.399 -27.124  1.00  0.00     0.014 A 
HETATM   14  C19 UNL     1      22.102 -22.269 -25.774  1.00  0.00     0.003 A 
ENDROOT
BRANCH   1  15
HETATM   15  C7  UNL     1      20.904 -21.187 -21.419  1.00  0.00     0.004 A 
HETATM   16  C2  UNL     1      21.865 -20.735 -20.556  1.00  0.00     0.053 A 
HETATM   17  C3  UNL     1      21.775 -21.054 -19.192  1.00  0.00     0.031 A 
HETATM   18  C4  UNL     1      20.737 -21.816 -18.710  1.00  0.00     0.002 A 
HETATM   19  C5  UNL     1      19.776 -22.267 -19.595  1.00  0.00     0.001 A 
HETATM   20  C6  UNL     1      19.850 -21.960 -20.939  1.00  0.00     0.014 A 
BRANCH  16  21
HETATM   21  N1  UNL     1      22.978 -19.998 -21.051  1.00  0.00    -0.284 N 
ATOM     22  H1  UNL     1      23.760 -20.514 -21.453  1.00  0.00     0.178 HD
BRANCH  21  23
HETATM   23  S1  UNL     1      23.067 -18.272 -21.006  1.00  0.00     0.227 S 
HETATM   24  C1  UNL     1      24.564 -17.749 -20.159  1.00  0.00     0.186 C 
HETATM   25  O1  UNL     1      21.864 -17.636 -20.389  1.00  0.00    -0.206 OA
HETATM   26  O2  UNL     1      23.234 -17.781 -22.438  1.00  0.00    -0.206 OA
ENDBRANCH  21  23
ENDBRANCH  16  21
ENDBRANCH   1  15
TORSDOF 3
ENDMDL
