MODEL 1
REMARK VINA RESULT: -12.597029451      0.000      0.000
REMARK  3 active torsions:
REMARK  status: ('A' for Active; 'I' for Inactive)
REMARK    1  A    between atoms: S1_2  and  N1_5 
REMARK    2  A    between atoms: N1_5  and  C2_7 
REMARK    3  A    between atoms: C7_12  and  C8_13 
ROOT
HETATM    1  C8  UNL     1      20.968 -20.462 -22.693  1.00  0.00     0.004 A 
HETATM    2  C9  UNL     1      20.221 -19.357 -23.056  1.00  0.00     0.014 A 
HETATM    3  C10 UNL     1      19.958 -19.087 -24.389  1.00  0.00     0.002 A 
HETATM    4  C11 UNL     1      20.461 -19.950 -25.335  1.00  0.00     0.014 A 
HETATM    5  C12 UNL     1      21.206 -21.053 -24.967  1.00  0.00     0.004 A 
HETATM    6  C13 UNL     1      21.469 -21.324 -23.645  1.00  0.00     0.055 A 
HETATM    7  N2  UNL     1      22.209 -22.433 -23.523  1.00  0.00    -0.354 N 
ATOM      8  H2  UNL     1      22.531 -22.835 -22.642  1.00  0.00     0.166 HD
HETATM    9  C14 UNL     1      22.464 -22.937 -24.756  1.00  0.00     0.043 A 
HETATM   10  C15 UNL     1      23.161 -24.030 -25.228  1.00  0.00     0.030 A 
HETATM   11  C16 UNL     1      23.228 -24.257 -26.584  1.00  0.00     0.002 A 
HETATM   12  C17 UNL     1      22.605 -23.403 -27.490  1.00  0.00     0.001 A 
HETATM   13  C18 UNL     1      21.914 -22.317 -27.013  1.00  0.00     0.014 A 
HETATM   14  C19 UNL     1      21.845 -22.087 -25.657  1.00  0.00     0.003 A 
ENDROOT
BRANCH   1  15
HETATM   15  C7  UNL     1      21.163 -20.706 -21.275  1.00  0.00     0.004 A 
HETATM   16  C2  UNL     1      21.713 -19.759 -20.455  1.00  0.00     0.053 A 
HETATM   17  C3  UNL     1      21.817 -20.013 -19.078  1.00  0.00     0.031 A 
HETATM   18  C4  UNL     1      21.377 -21.200 -18.543  1.00  0.00     0.002 A 
HETATM   19  C5  UNL     1      20.826 -22.146 -19.385  1.00  0.00     0.001 A 
HETATM   20  C6  UNL     1      20.716 -21.910 -20.741  1.00  0.00     0.014 A 
BRANCH  16  21
HETATM   21  N1  UNL     1      22.230 -18.552 -21.005  1.00  0.00    -0.284 N 
ATOM     22  H1  UNL     1      21.614 -17.740 -21.057  1.00  0.00     0.178 HD
BRANCH  21  23
HETATM   23  S1  UNL     1      23.849 -18.394 -21.590  1.00  0.00     0.227 S 
HETATM   24  C1  UNL     1      23.854 -18.278 -23.384  1.00  0.00     0.186 C 
HETATM   25  O1  UNL     1      24.751 -19.494 -21.131  1.00  0.00    -0.206 OA
HETATM   26  O2  UNL     1      24.386 -17.052 -21.108  1.00  0.00    -0.206 OA
ENDBRANCH  21  23
ENDBRANCH  16  21
ENDBRANCH   1  15
TORSDOF 3
ENDMDL
