MODEL 7
REMARK VINA RESULT: -8.147013876      2.595      6.037
REMARK  3 active torsions:
REMARK  status: ('A' for Active; 'I' for Inactive)
REMARK    1  A    between atoms: S1_2  and  N1_5 
REMARK    2  A    between atoms: N1_5  and  C2_7 
REMARK    3  A    between atoms: C7_12  and  C8_13 
ROOT
HETATM    1  C8  UNL     1      22.072 -19.114 -23.130  1.00  0.00     0.004 A 
HETATM    2  C9  UNL     1      23.187 -18.308 -23.000  1.00  0.00     0.014 A 
HETATM    3  C10 UNL     1      23.887 -18.253 -21.807  1.00  0.00     0.002 A 
HETATM    4  C11 UNL     1      23.438 -19.024 -20.759  1.00  0.00     0.014 A 
HETATM    5  C12 UNL     1      22.324 -19.828 -20.893  1.00  0.00     0.004 A 
HETATM    6  C13 UNL     1      21.627 -19.885 -22.076  1.00  0.00     0.055 A 
HETATM    7  N2  UNL     1      20.585 -20.719 -21.978  1.00  0.00    -0.354 N 
ATOM      8  H2  UNL     1      19.921 -20.926 -22.724  1.00  0.00     0.166 HD
HETATM    9  C14 UNL     1      20.552 -21.246 -20.729  1.00  0.00     0.043 A 
HETATM   10  C15 UNL     1      19.723 -22.135 -20.076  1.00  0.00     0.030 A 
HETATM   11  C16 UNL     1      19.979 -22.462 -18.763  1.00  0.00     0.002 A 
HETATM   12  C17 UNL     1      21.061 -21.911 -18.081  1.00  0.00     0.001 A 
HETATM   13  C18 UNL     1      21.881 -21.028 -18.737  1.00  0.00     0.014 A 
HETATM   14  C19 UNL     1      21.628 -20.697 -20.049  1.00  0.00     0.003 A 
ENDROOT
BRANCH   1  15
HETATM   15  C7  UNL     1      21.418 -19.155 -24.425  1.00  0.00     0.004 A 
HETATM   16  C2  UNL     1      21.654 -20.168 -25.315  1.00  0.00     0.053 A 
HETATM   17  C3  UNL     1      20.946 -20.202 -26.527  1.00  0.00     0.031 A 
HETATM   18  C4  UNL     1      20.022 -19.232 -26.835  1.00  0.00     0.002 A 
HETATM   19  C5  UNL     1      19.798 -18.215 -25.927  1.00  0.00     0.001 A 
HETATM   20  C6  UNL     1      20.485 -18.169 -24.730  1.00  0.00     0.014 A 
BRANCH  16  21
HETATM   21  N1  UNL     1      22.653 -21.144 -25.037  1.00  0.00    -0.284 N 
ATOM     22  H1  UNL     1      23.618 -20.832 -24.930  1.00  0.00     0.178 HD
BRANCH  21  23
HETATM   23  S1  UNL     1      22.309 -22.830 -24.869  1.00  0.00     0.227 S 
HETATM   24  C1  UNL     1      21.846 -23.531 -26.459  1.00  0.00     0.186 C 
HETATM   25  O1  UNL     1      21.263 -23.119 -23.841  1.00  0.00    -0.206 OA
HETATM   26  O2  UNL     1      23.609 -23.531 -24.494  1.00  0.00    -0.206 OA
ENDBRANCH  21  23
ENDBRANCH  16  21
ENDBRANCH   1  15
TORSDOF 3
ENDMDL
