MODEL 1
REMARK VINA RESULT: -7.651613250      0.000      0.000
REMARK  2 active torsions:
REMARK  status: ('A' for Active; 'I' for Inactive)
REMARK    1  A    between atoms: C2_5  and  C3_6 
REMARK    2  A    between atoms: C5_10  and  C6_11 
ROOT
HETATM    1  C1  UNL     1      15.240  71.378  23.141  1.00  0.00     0.171 C 
HETATM    2  N1  UNL     1      15.701  70.043  23.430  1.00  0.00    -0.325 N 
HETATM    3  N2  UNL     1      16.531  69.700  24.488  1.00  0.00    -0.300 N 
ATOM      4  H2  UNL     1      17.038  70.375  25.059  1.00  0.00     0.186 HD
HETATM    5  C2  UNL     1      16.582  68.432  24.657  1.00  0.00     0.111 C 
HETATM    6  C4  UNL     1      15.733  67.725  23.667  1.00  0.00     0.111 C 
HETATM    7  C5  UNL     1      16.476  66.742  22.829  1.00  0.00     0.298 C 
HETATM    8  N3  UNL     1      16.391  67.233  21.444  1.00  0.00    -0.058 N 
ATOM      9  H31 UNL     1      15.579  66.919  20.914  1.00  0.00     0.278 HD
ATOM     10  H32 UNL     1      17.074  66.842  20.796  1.00  0.00     0.278 HD
HETATM   11  C7  UNL     1      16.480  68.659  21.660  1.00  0.00     0.261 C 
HETATM   12  C8  UNL     1      15.401  68.857  22.710  1.00  0.00     0.140 C 
ENDROOT
BRANCH   5  13
HETATM   13  C3  UNL     1      17.370  67.779  25.689  1.00  0.00     0.224 C 
HETATM   14  O1  UNL     1      17.745  68.383  26.725  1.00  0.00    -0.643 OA
HETATM   15  O2  UNL     1      17.741  66.452  25.568  1.00  0.00    -0.643 OA
ENDBRANCH   5  13
BRANCH   7  16
HETATM   16  C6  UNL     1      15.868  65.388  22.821  1.00  0.00     0.205 C 
HETATM   17  O3  UNL     1      14.735  65.188  23.352  1.00  0.00    -0.646 OA
HETATM   18  O4  UNL     1      16.476  64.279  22.249  1.00  0.00    -0.646 OA
ENDBRANCH   7  16
TORSDOF 2
ENDMDL
