MODEL 4
REMARK VINA RESULT: -7.344744439      2.803      4.578
REMARK  2 active torsions:
REMARK  status: ('A' for Active; 'I' for Inactive)
REMARK    1  A    between atoms: C2_5  and  C3_6 
REMARK    2  A    between atoms: C5_10  and  C6_11 
ROOT
HETATM    1  C1  UNL     1      16.358  66.323  26.944  1.00  0.00     0.171 C 
HETATM    2  N1  UNL     1      16.361  67.135  25.751  1.00  0.00    -0.325 N 
HETATM    3  N2  UNL     1      16.844  66.730  24.515  1.00  0.00    -0.300 N 
ATOM      4  H2  UNL     1      17.402  65.889  24.366  1.00  0.00     0.186 HD
HETATM    5  C2  UNL     1      16.504  67.541  23.585  1.00  0.00     0.111 C 
HETATM    6  C4  UNL     1      15.696  68.662  24.123  1.00  0.00     0.111 C 
HETATM    7  C5  UNL     1      16.278  70.008  23.855  1.00  0.00     0.298 C 
HETATM    8  N3  UNL     1      16.601  70.587  25.170  1.00  0.00    -0.058 N 
ATOM      9  H31 UNL     1      15.849  71.112  25.615  1.00  0.00     0.278 HD
ATOM     10  H32 UNL     1      17.257  71.367  25.157  1.00  0.00     0.278 HD
HETATM   11  C7  UNL     1      17.044  69.409  25.880  1.00  0.00     0.261 C 
HETATM   12  C8  UNL     1      15.884  68.465  25.618  1.00  0.00     0.140 C 
ENDROOT
BRANCH   5  13
HETATM   13  C3  UNL     1      16.865  67.375  22.188  1.00  0.00     0.224 C 
HETATM   14  O1  UNL     1      16.144  67.810  21.255  1.00  0.00    -0.643 OA
HETATM   15  O2  UNL     1      18.032  66.725  21.827  1.00  0.00    -0.643 OA
ENDBRANCH   5  13
BRANCH   7  16
HETATM   16  C6  UNL     1      15.328  70.951  23.215  1.00  0.00     0.205 C 
HETATM   17  O3  UNL     1      14.902  71.964  23.846  1.00  0.00    -0.646 OA
HETATM   18  O4  UNL     1      14.852  70.797  21.920  1.00  0.00    -0.646 OA
ENDBRANCH   7  16
TORSDOF 2
ENDMDL
