MODEL 5
REMARK VINA RESULT: -7.250661956      2.634      4.687
REMARK  2 active torsions:
REMARK  status: ('A' for Active; 'I' for Inactive)
REMARK    1  A    between atoms: C2_5  and  C3_6 
REMARK    2  A    between atoms: C5_10  and  C6_11 
ROOT
HETATM    1  C1  UNL     1      13.200  65.318  24.396  1.00  0.00     0.171 C 
HETATM    2  N1  UNL     1      14.230  66.317  24.247  1.00  0.00    -0.325 N 
HETATM    3  N2  UNL     1      15.232  66.289  23.287  1.00  0.00    -0.300 N 
ATOM      4  H2  UNL     1      15.446  65.478  22.707  1.00  0.00     0.186 HD
HETATM    5  C2  UNL     1      15.854  67.405  23.219  1.00  0.00     0.111 C 
HETATM    6  C4  UNL     1      15.306  68.383  24.191  1.00  0.00     0.111 C 
HETATM    7  C5  UNL     1      16.315  68.902  25.158  1.00  0.00     0.298 C 
HETATM    8  N3  UNL     1      15.878  68.454  26.490  1.00  0.00    -0.058 N 
ATOM      9  H31 UNL     1      15.238  69.080  26.977  1.00  0.00     0.278 HD
ATOM     10  H32 UNL     1      16.593  68.477  27.218  1.00  0.00     0.278 HD
HETATM   11  C7  UNL     1      15.351  67.146  26.174  1.00  0.00     0.261 C 
HETATM   12  C8  UNL     1      14.411  67.487  25.030  1.00  0.00     0.140 C 
ENDROOT
BRANCH   5  13
HETATM   13  C3  UNL     1      16.952  67.672  22.305  1.00  0.00     0.224 C 
HETATM   14  O1  UNL     1      17.038  68.746  21.659  1.00  0.00    -0.643 OA
HETATM   15  O2  UNL     1      17.957  66.741  22.110  1.00  0.00    -0.643 OA
ENDBRANCH   5  13
BRANCH   7  16
HETATM   16  C6  UNL     1      16.369  70.384  25.222  1.00  0.00     0.205 C 
HETATM   17  O3  UNL     1      16.042  71.084  24.217  1.00  0.00    -0.646 OA
HETATM   18  O4  UNL     1      16.770  71.088  26.349  1.00  0.00    -0.646 OA
ENDBRANCH   7  16
TORSDOF 2
ENDMDL
