MODEL 9
REMARK VINA RESULT: -7.131081689      2.630      4.028
REMARK  2 active torsions:
REMARK  status: ('A' for Active; 'I' for Inactive)
REMARK    1  A    between atoms: C2_5  and  C3_6 
REMARK    2  A    between atoms: C5_10  and  C6_11 
ROOT
HETATM    1  C1  UNL     1      17.014  66.493  20.096  1.00  0.00     0.171 C 
HETATM    2  N1  UNL     1      16.616  67.258  21.252  1.00  0.00    -0.325 N 
HETATM    3  N2  UNL     1      16.518  68.642  21.294  1.00  0.00    -0.300 N 
ATOM      4  H2  UNL     1      16.883  69.264  20.573  1.00  0.00     0.186 HD
HETATM    5  C2  UNL     1      15.912  69.041  22.349  1.00  0.00     0.111 C 
HETATM    6  C4  UNL     1      15.504  67.895  23.197  1.00  0.00     0.111 C 
HETATM    7  C5  UNL     1      16.058  67.941  24.581  1.00  0.00     0.298 C 
HETATM    8  N3  UNL     1      16.938  66.769  24.712  1.00  0.00    -0.058 N 
ATOM      9  H31 UNL     1      16.485  65.912  25.030  1.00  0.00     0.278 HD
ATOM     10  H32 UNL     1      17.606  66.805  25.481  1.00  0.00     0.278 HD
HETATM   11  C7  UNL     1      17.512  66.715  23.387  1.00  0.00     0.261 C 
HETATM   12  C8  UNL     1      16.258  66.757  22.531  1.00  0.00     0.140 C 
ENDROOT
BRANCH   5  13
HETATM   13  C3  UNL     1      15.662  70.437  22.665  1.00  0.00     0.224 C 
HETATM   14  O1  UNL     1      14.738  70.792  23.439  1.00  0.00    -0.643 OA
HETATM   15  O2  UNL     1      16.442  71.441  22.119  1.00  0.00    -0.643 OA
ENDBRANCH   5  13
BRANCH   7  16
HETATM   16  C6  UNL     1      15.027  67.801  25.639  1.00  0.00     0.205 C 
HETATM   17  O3  UNL     1      15.359  67.503  26.826  1.00  0.00    -0.646 OA
HETATM   18  O4  UNL     1      13.669  67.979  25.415  1.00  0.00    -0.646 OA
ENDBRANCH   7  16
TORSDOF 2
ENDMDL
