MODEL 1
REMARK VINA RESULT: -8.120167954      0.000      0.000
REMARK  7 active torsions:
REMARK  status: ('A' for Active; 'I' for Inactive)
REMARK    1  A    between atoms: C2_2  and  N1_3 
REMARK    2  A    between atoms: C7_12  and  C8_13 
REMARK    3  A    between atoms: C8_13  and  O3_14 
REMARK    4  A    between atoms: C8_13  and  N3_16 
REMARK    5  A    between atoms: N3_16  and  C10_18 
REMARK    6  A    between atoms: C10_18  and  C11_19 
REMARK    7  A    between atoms: N5_23  and  C13_24 
ROOT
HETATM    1  C8  UNL     1       7.214  -9.994   5.141  1.00  0.00     0.148 C 
ENDROOT
BRANCH   1   2
HETATM    2  C7  UNL     1       8.229 -10.321   6.114  1.00  0.00     0.017 A 
HETATM    3  C6  UNL     1       9.029 -11.428   6.123  1.00  0.00     0.047 A 
HETATM    4  C5  UNL     1       9.960 -11.665   7.125  1.00  0.00     0.063 A 
HETATM    5  N2  UNL     1      10.693 -12.802   7.028  1.00  0.00    -0.317 N 
HETATM    6  C22 UNL     1      10.137 -10.794   8.178  1.00  0.00     0.064 A 
HETATM    7  C4  UNL     1      11.593 -13.041   7.995  1.00  0.00     0.314 A 
ATOM      8  H2  UNL     1      10.566 -13.450   6.250  1.00  0.00     0.169 HD
HETATM    9  C3  UNL     1      11.779 -12.181   9.049  1.00  0.00     0.316 A 
HETATM   10  O2  UNL     1      12.284 -14.084   7.931  1.00  0.00    -0.262 OA
HETATM   11  N1  UNL     1      11.030 -11.042   9.127  1.00  0.00    -0.308 N 
HETATM   12  O1  UNL     1      12.630 -12.409   9.961  1.00  0.00    -0.262 OA
HETATM   13  C21 UNL     1       9.331  -9.680   8.167  1.00  0.00     0.033 A 
HETATM   14  C20 UNL     1       8.412  -9.427   7.198  1.00  0.00     0.018 A 
BRANCH  11  15
HETATM   15  C2  UNL     1      11.212 -10.125  10.229  1.00  0.00     0.128 C 
HETATM   16  C1  UNL     1      10.370 -10.492  11.432  1.00  0.00     0.027 C 
ENDBRANCH  11  15
ENDBRANCH   1   2
BRANCH   1  17
HETATM   17  O3  UNL     1       6.565  -8.884   5.373  1.00  0.00    -0.346 OA
ATOM     18  H3  UNL     1       5.623  -8.977   5.444  1.00  0.00     0.219 HD
ENDBRANCH   1  17
BRANCH   1  19
HETATM   19  N3  UNL     1       6.823 -10.669   4.006  1.00  0.00    -0.361 N 
HETATM   20  C9  UNL     1       5.513 -11.435   4.085  1.00  0.00     0.152 C 
BRANCH  19  21
HETATM   21  C10 UNL     1       7.491 -10.780   2.760  1.00  0.00     0.166 C 
BRANCH  21  22
HETATM   22  C11 UNL     1       7.664 -12.227   2.414  1.00  0.00    -0.006 A 
HETATM   23  C12 UNL     1       6.925 -12.987   1.541  1.00  0.00     0.117 A 
HETATM   24  N4  UNL     1       7.446 -14.237   1.556  1.00  0.00    -0.305 N 
HETATM   25  N5  UNL     1       8.471 -14.319   2.383  1.00  0.00    -0.268 N 
ATOM     26  H4  UNL     1       7.092 -15.015   0.999  1.00  0.00     0.186 HD
HETATM   27  C19 UNL     1       8.619 -13.076   2.925  1.00  0.00     0.127 A 
BRANCH  25  28
HETATM   28  C13 UNL     1       9.271 -15.459   2.671  1.00  0.00     0.055 A 
HETATM   29  C14 UNL     1      10.025 -15.567   3.819  1.00  0.00     0.031 A 
HETATM   30  C15 UNL     1      10.796 -16.701   4.067  1.00  0.00     0.002 A 
HETATM   31  C16 UNL     1      10.808 -17.739   3.148  1.00  0.00     0.000 A 
HETATM   32  C17 UNL     1      10.059 -17.640   1.999  1.00  0.00     0.002 A 
HETATM   33  C18 UNL     1       9.297 -16.501   1.771  1.00  0.00     0.031 A 
ENDBRANCH  25  28
ENDBRANCH  21  22
ENDBRANCH  19  21
ENDBRANCH   1  19
TORSDOF 7
ENDMDL
