MODEL 4
REMARK VINA RESULT: -7.806004807      0.936      2.213
REMARK  7 active torsions:
REMARK  status: ('A' for Active; 'I' for Inactive)
REMARK    1  A    between atoms: C2_2  and  N1_3 
REMARK    2  A    between atoms: C7_12  and  C8_13 
REMARK    3  A    between atoms: C8_13  and  O3_14 
REMARK    4  A    between atoms: C8_13  and  N3_16 
REMARK    5  A    between atoms: N3_16  and  C10_18 
REMARK    6  A    between atoms: C10_18  and  C11_19 
REMARK    7  A    between atoms: N5_23  and  C13_24 
ROOT
HETATM    1  C8  UNL     1       7.267 -10.004   5.134  1.00  0.00     0.148 C 
ENDROOT
BRANCH   1   2
HETATM    2  C7  UNL     1       8.213 -10.488   6.111  1.00  0.00     0.017 A 
HETATM    3  C6  UNL     1       8.861  -9.751   7.061  1.00  0.00     0.047 A 
HETATM    4  C5  UNL     1       9.778 -10.310   7.939  1.00  0.00     0.063 A 
HETATM    5  N2  UNL     1      10.362  -9.475   8.835  1.00  0.00    -0.317 N 
HETATM    6  C22 UNL     1      10.093 -11.652   7.910  1.00  0.00     0.064 A 
HETATM    7  C4  UNL     1      11.253 -10.008   9.686  1.00  0.00     0.314 A 
ATOM      8  H2  UNL     1      10.132  -8.482   8.861  1.00  0.00     0.169 HD
HETATM    9  C3  UNL     1      11.576 -11.343   9.667  1.00  0.00     0.316 A 
HETATM   10  O2  UNL     1      11.808  -9.260  10.524  1.00  0.00    -0.262 OA
HETATM   11  N1  UNL     1      10.976 -12.165   8.757  1.00  0.00    -0.308 N 
HETATM   12  O1  UNL     1      12.418 -11.843  10.472  1.00  0.00    -0.262 OA
HETATM   13  C21 UNL     1       9.440 -12.393   6.954  1.00  0.00     0.033 A 
HETATM   14  C20 UNL     1       8.539 -11.866   6.082  1.00  0.00     0.018 A 
BRANCH  11  15
HETATM   15  C2  UNL     1      11.303 -13.572   8.722  1.00  0.00     0.128 C 
HETATM   16  C1  UNL     1      12.722 -13.825   8.261  1.00  0.00     0.027 C 
ENDBRANCH  11  15
ENDBRANCH   1   2
BRANCH   1  17
HETATM   17  O3  UNL     1       6.787  -8.814   5.374  1.00  0.00    -0.346 OA
ATOM     18  H3  UNL     1       7.426  -8.173   5.660  1.00  0.00     0.219 HD
ENDBRANCH   1  17
BRANCH   1  19
HETATM   19  N3  UNL     1       6.793 -10.602   3.987  1.00  0.00    -0.361 N 
HETATM   20  C9  UNL     1       5.422 -11.251   4.074  1.00  0.00     0.152 C 
BRANCH  19  21
HETATM   21  C10 UNL     1       7.420 -10.727   2.722  1.00  0.00     0.166 C 
BRANCH  21  22
HETATM   22  C11 UNL     1       7.557 -12.178   2.375  1.00  0.00    -0.006 A 
HETATM   23  C12 UNL     1       6.763 -12.934   1.547  1.00  0.00     0.117 A 
HETATM   24  N4  UNL     1       7.269 -14.190   1.540  1.00  0.00    -0.305 N 
HETATM   25  N5  UNL     1       8.335 -14.281   2.313  1.00  0.00    -0.268 N 
ATOM     26  H4  UNL     1       6.876 -14.966   1.007  1.00  0.00     0.186 HD
HETATM   27  C19 UNL     1       8.527 -13.037   2.839  1.00  0.00     0.127 A 
BRANCH  25  28
HETATM   28  C13 UNL     1       9.135 -15.429   2.563  1.00  0.00     0.055 A 
HETATM   29  C14 UNL     1       9.163 -16.515   1.714  1.00  0.00     0.031 A 
HETATM   30  C15 UNL     1       9.961 -17.623   1.992  1.00  0.00     0.002 A 
HETATM   31  C16 UNL     1      10.740 -17.639   3.139  1.00  0.00     0.000 A 
HETATM   32  C17 UNL     1      10.717 -16.561   3.993  1.00  0.00     0.002 A 
HETATM   33  C18 UNL     1       9.915 -15.466   3.697  1.00  0.00     0.031 A 
ENDBRANCH  25  28
ENDBRANCH  21  22
ENDBRANCH  19  21
ENDBRANCH   1  19
TORSDOF 7
ENDMDL
