MODEL 2
REMARK VINA RESULT: -8.079825087      3.358      7.931
REMARK  7 active torsions:
REMARK  status: ('A' for Active; 'I' for Inactive)
REMARK    1  A    between atoms: C2_2  and  N1_3 
REMARK    2  A    between atoms: C7_12  and  C8_13 
REMARK    3  A    between atoms: C8_13  and  O3_14 
REMARK    4  A    between atoms: C8_13  and  N3_16 
REMARK    5  A    between atoms: N3_16  and  C10_18 
REMARK    6  A    between atoms: C10_18  and  C11_19 
REMARK    7  A    between atoms: N5_23  and  C13_24 
ROOT
HETATM    1  C8  UNL     1      10.620 -10.587   7.959  1.00  0.00     0.148 C 
ENDROOT
BRANCH   1   2
HETATM    2  C7  UNL     1       9.888 -10.948   6.768  1.00  0.00     0.017 A 
HETATM    3  C6  UNL     1      10.234 -11.898   5.849  1.00  0.00     0.047 A 
HETATM    4  C5  UNL     1       9.472 -12.150   4.717  1.00  0.00     0.063 A 
HETATM    5  N2  UNL     1       9.920 -13.115   3.875  1.00  0.00    -0.317 N 
HETATM    6  C22 UNL     1       8.312 -11.456   4.448  1.00  0.00     0.064 A 
HETATM    7  C4  UNL     1       9.191 -13.362   2.775  1.00  0.00     0.314 A 
ATOM      8  H2  UNL     1      10.778 -13.631   4.070  1.00  0.00     0.169 HD
HETATM    9  C3  UNL     1       8.034 -12.678   2.495  1.00  0.00     0.316 A 
HETATM   10  O2  UNL     1       9.582 -14.247   1.979  1.00  0.00    -0.262 OA
HETATM   11  N1  UNL     1       7.601 -11.711   3.357  1.00  0.00    -0.308 N 
HETATM   12  O1  UNL     1       7.348 -12.913   1.456  1.00  0.00    -0.262 OA
HETATM   13  C21 UNL     1       7.965 -10.501   5.373  1.00  0.00     0.033 A 
HETATM   14  C20 UNL     1       8.696 -10.236   6.489  1.00  0.00     0.018 A 
BRANCH  11  15
HETATM   15  C2  UNL     1       6.386 -10.981   3.080  1.00  0.00     0.128 C 
HETATM   16  C1  UNL     1       5.215 -11.471   3.904  1.00  0.00     0.027 C 
ENDBRANCH  11  15
ENDBRANCH   1   2
BRANCH   1  17
HETATM   17  O3  UNL     1      11.502  -9.638   7.798  1.00  0.00    -0.346 OA
ATOM     18  H3  UNL     1      11.163  -8.756   7.887  1.00  0.00     0.219 HD
ENDBRANCH   1  17
BRANCH   1  19
HETATM   19  N3  UNL     1      10.532 -11.088   9.239  1.00  0.00    -0.361 N 
HETATM   20  C9  UNL     1      10.384 -10.073  10.359  1.00  0.00     0.152 C 
BRANCH  19  21
HETATM   21  C10 UNL     1      10.587 -12.436   9.675  1.00  0.00     0.166 C 
BRANCH  21  22
HETATM   22  C11 UNL     1      11.989 -12.947   9.536  1.00  0.00    -0.006 A 
HETATM   23  C12 UNL     1      12.511 -13.743   8.546  1.00  0.00     0.117 A 
HETATM   24  N4  UNL     1      13.817 -13.949   8.841  1.00  0.00    -0.305 N 
HETATM   25  N5  UNL     1      14.158 -13.333   9.958  1.00  0.00    -0.268 N 
ATOM     26  H4  UNL     1      14.454 -14.507   8.274  1.00  0.00     0.186 HD
HETATM   27  C19 UNL     1      13.031 -12.705  10.402  1.00  0.00     0.127 A 
BRANCH  25  28
HETATM   28  C13 UNL     1      15.431 -13.316  10.590  1.00  0.00     0.055 A 
HETATM   29  C14 UNL     1      16.317 -14.368  10.505  1.00  0.00     0.031 A 
HETATM   30  C15 UNL     1      17.558 -14.314  11.137  1.00  0.00     0.002 A 
HETATM   31  C16 UNL     1      17.911 -13.188  11.863  1.00  0.00     0.000 A 
HETATM   32  C17 UNL     1      17.034 -12.133  11.954  1.00  0.00     0.002 A 
HETATM   33  C18 UNL     1      15.802 -12.207  11.316  1.00  0.00     0.031 A 
ENDBRANCH  25  28
ENDBRANCH  21  22
ENDBRANCH  19  21
ENDBRANCH   1  19
TORSDOF 7
ENDMDL
