MODEL 4
REMARK VINA RESULT: -6.471438049      5.027      7.281
REMARK  6 active torsions:
REMARK  status: ('A' for Active; 'I' for Inactive)
REMARK    1  A    between atoms: O1_1  and  C1_3 
REMARK    2  A    between atoms: C1_3  and  C2_4 
REMARK    3  A    between atoms: C3_6  and  O3_7 
REMARK    4  A    between atoms: C4_9  and  O4_10 
REMARK    5  A    between atoms: C5_12  and  O5_13 
REMARK    6  A    between atoms: C6_15  and  O6_16 
ROOT
HETATM    1  C2  UNL     1      58.624 -29.333  -3.678  1.00  0.00     0.179 C 
HETATM    2  O2  UNL     1      58.096 -29.153  -2.471  1.00  0.00    -0.349 OA
HETATM    3  C3  UNL     1      57.422 -28.067  -2.120  1.00  0.00     0.288 C 
HETATM    4  C4  UNL     1      57.074 -27.074  -3.172  1.00  0.00     0.204 C 
HETATM    5  C5  UNL     1      56.827 -27.884  -4.453  1.00  0.00     0.183 C 
HETATM    6  C6  UNL     1      58.220 -28.421  -4.781  1.00  0.00     0.180 C 
ENDROOT
BRANCH   1   7
HETATM    7  C1  UNL     1      60.156 -29.307  -3.556  1.00  0.00     0.198 C 
BRANCH   7   8
HETATM    8  O1  UNL     1      60.752 -28.900  -4.737  1.00  0.00    -0.398 OA
ATOM      9  H1  UNL     1      61.023 -29.642  -5.263  1.00  0.00     0.209 HD
ENDBRANCH   7   8
ENDBRANCH   1   7
BRANCH   6  10
HETATM   10  O6  UNL     1      58.179 -29.017  -6.026  1.00  0.00    -0.390 OA
ATOM     11  H6  UNL     1      58.994 -28.969  -6.511  1.00  0.00     0.210 HD
ENDBRANCH   6  10
BRANCH   3  12
HETATM   12  O3  UNL     1      56.210 -28.456  -1.501  1.00  0.00    -0.369 OA
ATOM     13  H3  UNL     1      55.485 -28.036  -1.949  1.00  0.00     0.212 HD
ENDBRANCH   3  12
BRANCH   5  14
HETATM   14  O5  UNL     1      56.297 -27.125  -5.456  1.00  0.00    -0.390 OA
ATOM     15  H5  UNL     1      55.745 -27.631  -6.041  1.00  0.00     0.210 HD
ENDBRANCH   5  14
BRANCH   4  16
HETATM   16  O4  UNL     1      56.007 -26.274  -2.857  1.00  0.00    -0.388 OA
ATOM     17  H4  UNL     1      56.218 -25.560  -2.265  1.00  0.00     0.210 HD
ENDBRANCH   4  16
TORSDOF 6
ENDMDL
