MODEL 1
REMARK VINA RESULT: -6.792235082      0.000      0.000
REMARK  6 active torsions:
REMARK  status: ('A' for Active; 'I' for Inactive)
REMARK    1  A    between atoms: O1_1  and  C1_3 
REMARK    2  A    between atoms: C1_3  and  C2_4 
REMARK    3  A    between atoms: C3_6  and  O3_7 
REMARK    4  A    between atoms: C4_9  and  O4_10 
REMARK    5  A    between atoms: C5_12  and  O5_13 
REMARK    6  A    between atoms: C6_15  and  O6_16 
ROOT
HETATM    1  C2  UNL     1      56.542 -30.290   1.041  1.00  0.00     0.179 C 
HETATM    2  O2  UNL     1      56.838 -31.325   0.262  1.00  0.00    -0.349 OA
HETATM    3  C3  UNL     1      57.703 -32.272   0.596  1.00  0.00     0.288 C 
HETATM    4  C4  UNL     1      58.240 -32.287   1.984  1.00  0.00     0.204 C 
HETATM    5  C5  UNL     1      57.103 -31.781   2.883  1.00  0.00     0.183 C 
HETATM    6  C6  UNL     1      56.974 -30.316   2.464  1.00  0.00     0.180 C 
ENDROOT
BRANCH   1   7
HETATM    7  C1  UNL     1      57.085 -29.008   0.387  1.00  0.00     0.198 C 
BRANCH   7   8
HETATM    8  O1  UNL     1      56.348 -28.659  -0.731  1.00  0.00    -0.398 OA
ATOM      9  H1  UNL     1      55.928 -27.815  -0.621  1.00  0.00     0.209 HD
ENDBRANCH   7   8
ENDBRANCH   1   7
BRANCH   6  10
HETATM   10  O6  UNL     1      56.107 -29.685   3.334  1.00  0.00    -0.390 OA
ATOM     11  H6  UNL     1      56.286 -28.762   3.465  1.00  0.00     0.210 HD
ENDBRANCH   6  10
BRANCH   3  12
HETATM   12  O3  UNL     1      57.115 -33.538   0.367  1.00  0.00    -0.369 OA
ATOM     13  H3  UNL     1      56.714 -33.844   1.172  1.00  0.00     0.212 HD
ENDBRANCH   3  12
BRANCH   5  14
HETATM   14  O5  UNL     1      57.379 -31.934   4.211  1.00  0.00    -0.390 OA
ATOM     15  H5  UNL     1      57.677 -32.812   4.421  1.00  0.00     0.210 HD
ENDBRANCH   5  14
BRANCH   4  16
HETATM   16  O4  UNL     1      58.710 -33.509   2.390  1.00  0.00    -0.388 OA
ATOM     17  H4  UNL     1      59.188 -33.488   3.211  1.00  0.00     0.210 HD
ENDBRANCH   4  16
TORSDOF 6
ENDMDL
