MODEL 6
REMARK VINA RESULT: -6.357614406      6.371      7.728
REMARK  6 active torsions:
REMARK  status: ('A' for Active; 'I' for Inactive)
REMARK    1  A    between atoms: O1_1  and  C1_3 
REMARK    2  A    between atoms: C1_3  and  C2_4 
REMARK    3  A    between atoms: C3_6  and  O3_7 
REMARK    4  A    between atoms: C4_9  and  O4_10 
REMARK    5  A    between atoms: C5_12  and  O5_13 
REMARK    6  A    between atoms: C6_15  and  O6_16 
ROOT
HETATM    1  C2  UNL     1      58.091 -24.785  -4.253  1.00  0.00     0.179 C 
HETATM    2  O2  UNL     1      57.833 -25.594  -5.275  1.00  0.00    -0.349 OA
HETATM    3  C3  UNL     1      57.608 -26.893  -5.144  1.00  0.00     0.288 C 
HETATM    4  C4  UNL     1      57.451 -27.453  -3.774  1.00  0.00     0.204 C 
HETATM    5  C5  UNL     1      56.770 -26.357  -2.944  1.00  0.00     0.183 C 
HETATM    6  C6  UNL     1      57.848 -25.276  -2.870  1.00  0.00     0.180 C 
ENDROOT
BRANCH   1   7
HETATM    7  C1  UNL     1      59.549 -24.308  -4.356  1.00  0.00     0.198 C 
BRANCH   7   8
HETATM    8  O1  UNL     1      60.245 -24.549  -3.183  1.00  0.00    -0.398 OA
ATOM      9  H1  UNL     1      59.672 -24.874  -2.500  1.00  0.00     0.209 HD
ENDBRANCH   7   8
ENDBRANCH   1   7
BRANCH   6  10
HETATM   10  O6  UNL     1      57.434 -24.302  -1.984  1.00  0.00    -0.390 OA
ATOM     11  H6  UNL     1      56.534 -24.393  -1.694  1.00  0.00     0.210 HD
ENDBRANCH   6  10
BRANCH   3  12
HETATM   12  O3  UNL     1      56.439 -27.235  -5.866  1.00  0.00    -0.369 OA
ATOM     13  H3  UNL     1      56.403 -26.716  -6.661  1.00  0.00     0.212 HD
ENDBRANCH   3  12
BRANCH   5  14
HETATM   14  O5  UNL     1      56.374 -26.802  -1.716  1.00  0.00    -0.390 OA
ATOM     15  H5  UNL     1      56.199 -26.090  -1.111  1.00  0.00     0.210 HD
ENDBRANCH   5  14
BRANCH   4  16
HETATM   16  O4  UNL     1      56.761 -28.636  -3.728  1.00  0.00    -0.388 OA
ATOM     17  H4  UNL     1      56.943 -29.163  -2.958  1.00  0.00     0.210 HD
ENDBRANCH   4  16
TORSDOF 6
ENDMDL
