MODEL 3
REMARK VINA RESULT: -6.591824498      6.713      7.800
REMARK  6 active torsions:
REMARK  status: ('A' for Active; 'I' for Inactive)
REMARK    1  A    between atoms: O1_1  and  C1_3 
REMARK    2  A    between atoms: C1_3  and  C2_4 
REMARK    3  A    between atoms: C3_6  and  O3_7 
REMARK    4  A    between atoms: C4_9  and  O4_10 
REMARK    5  A    between atoms: C5_12  and  O5_13 
REMARK    6  A    between atoms: C6_15  and  O6_16 
ROOT
HETATM    1  C2  UNL     1      57.664 -25.412  -4.040  1.00  0.00     0.179 C 
HETATM    2  O2  UNL     1      58.442 -25.553  -5.109  1.00  0.00    -0.349 OA
HETATM    3  C3  UNL     1      58.977 -26.706  -5.481  1.00  0.00     0.288 C 
HETATM    4  C4  UNL     1      58.547 -27.948  -4.783  1.00  0.00     0.204 C 
HETATM    5  C5  UNL     1      57.068 -27.742  -4.426  1.00  0.00     0.183 C 
HETATM    6  C6  UNL     1      57.130 -26.632  -3.377  1.00  0.00     0.180 C 
ENDROOT
BRANCH   1   7
HETATM    7  C1  UNL     1      58.411 -24.571  -2.992  1.00  0.00     0.198 C 
BRANCH   7   8
HETATM    8  O1  UNL     1      57.551 -24.096  -2.017  1.00  0.00    -0.398 OA
ATOM      9  H1  UNL     1      57.757 -24.458  -1.165  1.00  0.00     0.209 HD
ENDBRANCH   7   8
ENDBRANCH   1   7
BRANCH   6  10
HETATM   10  O6  UNL     1      55.874 -26.477  -2.827  1.00  0.00    -0.390 OA
ATOM     11  H6  UNL     1      55.648 -25.580  -2.611  1.00  0.00     0.210 HD
ENDBRANCH   6  10
BRANCH   3  12
HETATM   12  O3  UNL     1      58.737 -26.903  -6.862  1.00  0.00    -0.369 OA
ATOM     13  H3  UNL     1      57.812 -27.073  -6.994  1.00  0.00     0.212 HD
ENDBRANCH   3  12
BRANCH   5  14
HETATM   14  O5  UNL     1      56.479 -28.882  -3.963  1.00  0.00    -0.390 OA
ATOM     15  H5  UNL     1      55.924 -29.295  -4.615  1.00  0.00     0.210 HD
ENDBRANCH   5  14
BRANCH   4  16
HETATM   16  O4  UNL     1      58.745 -29.095  -5.507  1.00  0.00    -0.388 OA
ATOM     17  H4  UNL     1      58.029 -29.717  -5.452  1.00  0.00     0.210 HD
ENDBRANCH   4  16
TORSDOF 6
ENDMDL
