MODEL 2
REMARK VINA RESULT: -10.146515016      2.857      5.694
REMARK  8 active torsions:
REMARK  status: ('A' for Active; 'I' for Inactive)
REMARK    1  A    between atoms: O1_2  and  C2_3 
REMARK       I    between atoms: N1_7  and  C6_8 
REMARK    2  A    between atoms: C6_8  and  C7_10 
REMARK    3  A    between atoms: C10_17  and  O3_18 
REMARK    4  A    between atoms: C11_20  and  C12_21 
REMARK    5  A    between atoms: C12_21  and  O4_22 
REMARK    6  A    between atoms: C12_21  and  N4_24 
REMARK    7  A    between atoms: N4_24  and  C14_26 
REMARK    8  A    between atoms: C17_29  and  N5_30 
ROOT
HETATM    1  C7  UNL     1      -0.089  34.304  23.241  1.00  0.00     0.128 A 
HETATM    2  N2  UNL     1      -0.206  34.387  21.901  1.00  0.00    -0.294 N 
ATOM      3  H2  UNL     1      -0.826  33.807  21.334  1.00  0.00     0.187 HD
HETATM    4  N3  UNL     1       0.592  35.321  21.424  1.00  0.00    -0.299 N 
ATOM      5  H3  UNL     1       0.683  35.572  20.439  1.00  0.00     0.187 HD
HETATM    6  C8  UNL     1       1.273  35.897  22.441  1.00  0.00     0.063 A 
HETATM    7  C9  UNL     1       2.223  36.910  22.494  1.00  0.00     0.069 A 
HETATM    8  C10 UNL     1       2.769  37.314  23.685  1.00  0.00     0.082 A 
HETATM    9  C11 UNL     1       2.342  36.672  24.863  1.00  0.00     0.049 A 
HETATM   10  C24 UNL     1       1.400  35.666  24.788  1.00  0.00     0.035 A 
HETATM   11  C25 UNL     1       0.850  35.264  23.583  1.00  0.00     0.027 A 
ENDROOT
BRANCH   9  12
HETATM   12  C12 UNL     1       2.966  37.084  26.086  1.00  0.00     0.155 C 
BRANCH  12  13
HETATM   13  O4  UNL     1       2.426  38.122  26.692  1.00  0.00    -0.345 OA
ATOM     14  H4  UNL     1       2.512  38.957  26.248  1.00  0.00     0.219 HD
ENDBRANCH  12  13
BRANCH  12  15
HETATM   15  N4  UNL     1       4.074  36.515  26.707  1.00  0.00    -0.332 N 
HETATM   16  C13 UNL     1       4.433  37.065  28.050  1.00  0.00     0.158 C 
BRANCH  15  17
HETATM   17  C14 UNL     1       4.868  35.486  26.176  1.00  0.00     0.036 A 
HETATM   18  C15 UNL     1       4.477  34.157  26.230  1.00  0.00     0.032 A 
HETATM   19  C16 UNL     1       5.239  33.145  25.673  1.00  0.00     0.031 A 
HETATM   20  C17 UNL     1       6.433  33.408  25.033  1.00  0.00     0.030 A 
HETATM   21  C22 UNL     1       6.833  34.724  24.973  1.00  0.00     0.031 A 
HETATM   22  C23 UNL     1       6.080  35.739  25.524  1.00  0.00     0.032 A 
BRANCH  20  23
HETATM   23  N5  UNL     1       7.190  32.349  24.478  1.00  0.00    -0.377 N 
HETATM   24  C18 UNL     1       8.464  32.553  23.818  1.00  0.00     0.149 C 
HETATM   25  C19 UNL     1       8.638  31.415  22.803  1.00  0.00     0.187 C 
HETATM   26  O5  UNL     1       8.694  30.173  23.418  1.00  0.00    -0.388 OA
HETATM   27  C20 UNL     1       8.021  30.130  24.624  1.00  0.00     0.187 C 
HETATM   28  C21 UNL     1       6.734  30.967  24.537  1.00  0.00     0.149 C 
ENDBRANCH  20  23
ENDBRANCH  15  17
ENDBRANCH  12  15
ENDBRANCH   9  12
BRANCH   8  29
HETATM   29  O3  UNL     1       3.720  38.325  23.763  1.00  0.00    -0.360 OA
ATOM     30  H3  UNL     1       3.705  39.083  23.189  1.00  0.00     0.217 HD
ENDBRANCH   8  29
BRANCH   1  31
HETATM   31  C6  UNL     1      -0.792  33.394  24.149  1.00  0.00     0.272 C 
HETATM   32  N1  UNL     1      -0.148  32.306  24.764  1.00  0.00    -0.344 N 
HETATM   33  C5  UNL     1       1.247  32.034  24.540  1.00  0.00     0.126 C 
HETATM   34  C26 UNL     1      -0.840  31.384  25.658  1.00  0.00     0.158 C 
HETATM   35  C4  UNL     1       1.738  31.069  25.619  1.00  0.00     0.022 C 
HETATM   36  C3  UNL     1       1.245  31.500  26.982  1.00  0.00     0.035 C 
HETATM   37  C2  UNL     1      -0.248  31.634  27.038  1.00  0.00     0.139 C 
HETATM   38  O2  UNL     1      -2.038  33.616  24.378  1.00  0.00    -0.266 OA
BRANCH  37  39
HETATM   39  O1  UNL     1      -0.848  30.897  28.033  1.00  0.00    -0.389 OA
HETATM   40  C1  UNL     1      -2.103  30.411  27.681  1.00  0.00     0.202 C 
ENDBRANCH  37  39
ENDBRANCH   1  31
TORSDOF 8
ENDMDL
