MODEL 7
REMARK VINA RESULT: -9.709741772      2.906      7.448
REMARK  8 active torsions:
REMARK  status: ('A' for Active; 'I' for Inactive)
REMARK    1  A    between atoms: O1_2  and  C2_3 
REMARK       I    between atoms: N1_7  and  C6_8 
REMARK    2  A    between atoms: C6_8  and  C7_10 
REMARK    3  A    between atoms: C10_17  and  O3_18 
REMARK    4  A    between atoms: C11_20  and  C12_21 
REMARK    5  A    between atoms: C12_21  and  O4_22 
REMARK    6  A    between atoms: C12_21  and  N4_24 
REMARK    7  A    between atoms: N4_24  and  C14_26 
REMARK    8  A    between atoms: C17_29  and  N5_30 
ROOT
HETATM    1  C7  UNL     1       2.330  31.132  25.443  1.00  0.00     0.128 A 
HETATM    2  N2  UNL     1       1.898  30.648  26.623  1.00  0.00    -0.294 N 
ATOM      3  H2  UNL     1       2.446  30.051  27.243  1.00  0.00     0.187 HD
HETATM    4  N3  UNL     1       0.666  31.052  26.867  1.00  0.00    -0.299 N 
ATOM      5  H3  UNL     1       0.123  30.817  27.698  1.00  0.00     0.187 HD
HETATM    6  C8  UNL     1       0.235  31.827  25.846  1.00  0.00     0.063 A 
HETATM    7  C9  UNL     1      -0.960  32.494  25.599  1.00  0.00     0.069 A 
HETATM    8  C10 UNL     1      -1.143  33.229  24.457  1.00  0.00     0.082 A 
HETATM    9  C11 UNL     1      -0.084  33.292  23.530  1.00  0.00     0.049 A 
HETATM   10  C24 UNL     1       1.092  32.621  23.794  1.00  0.00     0.035 A 
HETATM   11  C25 UNL     1       1.273  31.882  24.950  1.00  0.00     0.027 A 
ENDROOT
BRANCH   9  12
HETATM   12  C12 UNL     1      -0.325  34.029  22.325  1.00  0.00     0.155 C 
BRANCH  12  13
HETATM   13  O4  UNL     1      -1.162  33.482  21.468  1.00  0.00    -0.345 OA
ATOM     14  H4  UNL     1      -1.771  34.074  21.042  1.00  0.00     0.219 HD
ENDBRANCH  12  13
BRANCH  12  15
HETATM   15  N4  UNL     1       0.222  35.255  21.957  1.00  0.00    -0.332 N 
HETATM   16  C13 UNL     1      -0.131  35.752  20.592  1.00  0.00     0.158 C 
BRANCH  15  17
HETATM   17  C14 UNL     1       1.068  36.043  22.752  1.00  0.00     0.036 A 
HETATM   18  C15 UNL     1       0.572  36.924  23.701  1.00  0.00     0.032 A 
HETATM   19  C16 UNL     1       1.404  37.673  24.514  1.00  0.00     0.031 A 
HETATM   20  C17 UNL     1       2.778  37.582  24.422  1.00  0.00     0.030 A 
HETATM   21  C22 UNL     1       3.284  36.710  23.484  1.00  0.00     0.031 A 
HETATM   22  C23 UNL     1       2.463  35.960  22.670  1.00  0.00     0.032 A 
BRANCH  20  23
HETATM   23  N5  UNL     1       3.600  38.366  25.266  1.00  0.00    -0.377 N 
HETATM   24  C18 UNL     1       3.674  39.811  25.172  1.00  0.00     0.149 C 
HETATM   25  C19 UNL     1       5.058  40.229  25.686  1.00  0.00     0.187 C 
HETATM   26  O5  UNL     1       5.237  39.900  27.021  1.00  0.00    -0.388 OA
HETATM   27  C20 UNL     1       4.484  38.814  27.423  1.00  0.00     0.187 C 
HETATM   28  C21 UNL     1       4.433  37.767  26.298  1.00  0.00     0.149 C 
ENDBRANCH  20  23
ENDBRANCH  15  17
ENDBRANCH  12  15
ENDBRANCH   9  12
BRANCH   8  29
HETATM   29  O3  UNL     1      -2.328  33.904  24.189  1.00  0.00    -0.360 OA
ATOM     30  H3  UNL     1      -2.755  33.867  23.340  1.00  0.00     0.217 HD
ENDBRANCH   8  29
BRANCH   1  31
HETATM   31  C6  UNL     1       3.630  30.914  24.804  1.00  0.00     0.272 C 
HETATM   32  N1  UNL     1       4.606  31.923  24.728  1.00  0.00    -0.344 N 
HETATM   33  C5  UNL     1       4.380  33.229  25.288  1.00  0.00     0.126 C 
HETATM   34  C26 UNL     1       5.899  31.722  24.082  1.00  0.00     0.158 C 
HETATM   35  C4  UNL     1       5.723  33.951  25.404  1.00  0.00     0.022 C 
HETATM   36  C3  UNL     1       6.772  33.032  25.988  1.00  0.00     0.035 C 
HETATM   37  C2  UNL     1       6.925  31.762  25.205  1.00  0.00     0.139 C 
HETATM   38  O2  UNL     1       3.866  29.753  24.303  1.00  0.00    -0.266 OA
BRANCH  37  39
HETATM   39  O1  UNL     1       8.209  31.508  24.782  1.00  0.00    -0.389 OA
HETATM   40  C1  UNL     1       8.527  32.126  23.577  1.00  0.00     0.202 C 
ENDBRANCH  37  39
ENDBRANCH   1  31
TORSDOF 8
ENDMDL
