MODEL 3
REMARK VINA RESULT: -10.131508148      3.225      7.464
REMARK  8 active torsions:
REMARK  status: ('A' for Active; 'I' for Inactive)
REMARK    1  A    between atoms: O1_2  and  C2_3 
REMARK       I    between atoms: N1_7  and  C6_8 
REMARK    2  A    between atoms: C6_8  and  C7_10 
REMARK    3  A    between atoms: C10_17  and  O3_18 
REMARK    4  A    between atoms: C11_20  and  C12_21 
REMARK    5  A    between atoms: C12_21  and  O4_22 
REMARK    6  A    between atoms: C12_21  and  N4_24 
REMARK    7  A    between atoms: N4_24  and  C14_26 
REMARK    8  A    between atoms: C17_29  and  N5_30 
ROOT
HETATM    1  C7  UNL     1       5.839  36.432  25.889  1.00  0.00     0.128 A 
HETATM    2  N2  UNL     1       6.742  37.303  26.380  1.00  0.00    -0.294 N 
ATOM      3  H2  UNL     1       6.511  38.198  26.811  1.00  0.00     0.187 HD
HETATM    4  N3  UNL     1       7.966  36.835  26.229  1.00  0.00    -0.299 N 
ATOM      5  H3  UNL     1       8.818  37.313  26.523  1.00  0.00     0.187 HD
HETATM    6  C8  UNL     1       7.917  35.625  25.626  1.00  0.00     0.063 A 
HETATM    7  C9  UNL     1       8.896  34.718  25.238  1.00  0.00     0.069 A 
HETATM    8  C10 UNL     1       8.568  33.535  24.629  1.00  0.00     0.082 A 
HETATM    9  C11 UNL     1       7.206  33.258  24.403  1.00  0.00     0.049 A 
HETATM   10  C24 UNL     1       6.251  34.174  24.794  1.00  0.00     0.035 A 
HETATM   11  C25 UNL     1       6.586  35.367  25.410  1.00  0.00     0.027 A 
ENDROOT
BRANCH   9  12
HETATM   12  C12 UNL     1       6.901  32.034  23.722  1.00  0.00     0.155 C 
BRANCH  12  13
HETATM   13  O4  UNL     1       7.425  31.891  22.522  1.00  0.00    -0.345 OA
ATOM     14  H4  UNL     1       6.999  31.262  21.951  1.00  0.00     0.219 HD
ENDBRANCH  12  13
BRANCH  12  15
HETATM   15  N4  UNL     1       6.117  30.980  24.182  1.00  0.00    -0.332 N 
HETATM   16  C13 UNL     1       6.758  29.630  24.180  1.00  0.00     0.158 C 
BRANCH  15  17
HETATM   17  C14 UNL     1       4.792  31.085  24.634  1.00  0.00     0.036 A 
HETATM   18  C15 UNL     1       4.357  32.167  25.385  1.00  0.00     0.032 A 
HETATM   19  C16 UNL     1       3.043  32.293  25.798  1.00  0.00     0.031 A 
HETATM   20  C17 UNL     1       2.092  31.344  25.483  1.00  0.00     0.030 A 
HETATM   21  C22 UNL     1       2.510  30.265  24.738  1.00  0.00     0.031 A 
HETATM   22  C23 UNL     1       3.818  30.130  24.321  1.00  0.00     0.032 A 
BRANCH  20  23
HETATM   23  N5  UNL     1       0.757  31.502  25.926  1.00  0.00    -0.377 N 
HETATM   24  C18 UNL     1       0.401  31.619  27.326  1.00  0.00     0.149 C 
HETATM   25  C19 UNL     1      -1.034  31.098  27.475  1.00  0.00     0.187 C 
HETATM   26  O5  UNL     1      -1.943  31.864  26.761  1.00  0.00    -0.388 OA
HETATM   27  C20 UNL     1      -1.385  32.491  25.663  1.00  0.00     0.187 C 
HETATM   28  C21 UNL     1      -0.359  31.561  24.994  1.00  0.00     0.149 C 
ENDBRANCH  20  23
ENDBRANCH  15  17
ENDBRANCH  12  15
ENDBRANCH   9  12
BRANCH   8  29
HETATM   29  O3  UNL     1       9.529  32.611  24.233  1.00  0.00    -0.360 OA
ATOM     30  H3  UNL     1       9.322  31.697  24.076  1.00  0.00     0.217 HD
ENDBRANCH   8  29
BRANCH   1  31
HETATM   31  C6  UNL     1       4.382  36.573  25.854  1.00  0.00     0.272 C 
HETATM   32  N1  UNL     1       3.739  37.489  25.003  1.00  0.00    -0.344 N 
HETATM   33  C5  UNL     1       4.484  38.332  24.107  1.00  0.00     0.126 C 
HETATM   34  C26 UNL     1       2.289  37.649  24.970  1.00  0.00     0.158 C 
HETATM   35  C4  UNL     1       3.526  38.905  23.062  1.00  0.00     0.022 C 
HETATM   36  C3  UNL     1       2.617  37.824  22.525  1.00  0.00     0.035 C 
HETATM   37  C2  UNL     1       1.852  37.124  23.609  1.00  0.00     0.139 C 
HETATM   38  O2  UNL     1       3.686  35.825  26.636  1.00  0.00    -0.266 OA
BRANCH  37  39
HETATM   39  O1  UNL     1       0.488  37.125  23.434  1.00  0.00    -0.389 OA
HETATM   40  C1  UNL     1       0.040  38.130  22.582  1.00  0.00     0.202 C 
ENDBRANCH  37  39
ENDBRANCH   1  31
TORSDOF 8
ENDMDL
