MODEL 1
REMARK VINA RESULT: -10.186261216      0.000      0.000
REMARK  8 active torsions:
REMARK  status: ('A' for Active; 'I' for Inactive)
REMARK    1  A    between atoms: O1_2  and  C2_3 
REMARK       I    between atoms: N1_7  and  C6_8 
REMARK    2  A    between atoms: C6_8  and  C7_10 
REMARK    3  A    between atoms: C10_17  and  O3_18 
REMARK    4  A    between atoms: C11_20  and  C12_21 
REMARK    5  A    between atoms: C12_21  and  O4_22 
REMARK    6  A    between atoms: C12_21  and  N4_24 
REMARK    7  A    between atoms: N4_24  and  C14_26 
REMARK    8  A    between atoms: C17_29  and  N5_30 
ROOT
HETATM    1  C7  UNL     1      -0.756  33.530  23.250  1.00  0.00     0.128 A 
HETATM    2  N2  UNL     1      -1.975  33.419  23.813  1.00  0.00    -0.294 N 
ATOM      3  H2  UNL     1      -2.839  33.777  23.405  1.00  0.00     0.187 HD
HETATM    4  N3  UNL     1      -1.896  32.783  24.966  1.00  0.00    -0.299 N 
ATOM      5  H3  UNL     1      -2.684  32.577  25.579  1.00  0.00     0.187 HD
HETATM    6  C8  UNL     1      -0.608  32.446  25.209  1.00  0.00     0.063 A 
HETATM    7  C9  UNL     1       0.017  31.781  26.257  1.00  0.00     0.069 A 
HETATM    8  C10 UNL     1       1.370  31.565  26.257  1.00  0.00     0.082 A 
HETATM    9  C11 UNL     1       2.119  32.038  25.162  1.00  0.00     0.049 A 
HETATM   10  C24 UNL     1       1.478  32.698  24.133  1.00  0.00     0.035 A 
HETATM   11  C25 UNL     1       0.111  32.912  24.136  1.00  0.00     0.027 A 
ENDROOT
BRANCH   9  12
HETATM   12  C12 UNL     1       3.537  31.838  25.215  1.00  0.00     0.155 C 
BRANCH  12  13
HETATM   13  O4  UNL     1       4.216  32.691  25.954  1.00  0.00    -0.345 OA
ATOM     14  H4  UNL     1       3.882  33.580  25.981  1.00  0.00     0.219 HD
ENDBRANCH  12  13
BRANCH  12  15
HETATM   15  N4  UNL     1       4.279  30.847  24.579  1.00  0.00    -0.332 N 
HETATM   16  C13 UNL     1       3.554  29.579  24.262  1.00  0.00     0.158 C 
BRANCH  15  17
HETATM   17  C14 UNL     1       5.634  30.943  24.223  1.00  0.00     0.036 A 
HETATM   18  C15 UNL     1       6.573  30.020  24.658  1.00  0.00     0.032 A 
HETATM   19  C16 UNL     1       7.901  30.090  24.277  1.00  0.00     0.031 A 
HETATM   20  C17 UNL     1       8.362  31.088  23.443  1.00  0.00     0.030 A 
HETATM   21  C22 UNL     1       7.440  32.011  23.004  1.00  0.00     0.031 A 
HETATM   22  C23 UNL     1       6.114  31.949  23.377  1.00  0.00     0.032 A 
BRANCH  20  23
HETATM   23  N5  UNL     1       9.729  31.132  23.077  1.00  0.00    -0.377 N 
HETATM   24  C18 UNL     1      10.680  30.106  23.458  1.00  0.00     0.149 C 
HETATM   25  C19 UNL     1      12.064  30.767  23.514  1.00  0.00     0.187 C 
HETATM   26  O5  UNL     1      12.461  31.248  22.275  1.00  0.00    -0.388 OA
HETATM   27  C20 UNL     1      11.401  31.581  21.453  1.00  0.00     0.187 C 
HETATM   28  C21 UNL     1      10.276  32.222  22.282  1.00  0.00     0.149 C 
ENDBRANCH  20  23
ENDBRANCH  15  17
ENDBRANCH  12  15
ENDBRANCH   9  12
BRANCH   8  29
HETATM   29  O3  UNL     1       2.018  30.902  27.294  1.00  0.00    -0.360 OA
ATOM     30  H3  UNL     1       2.964  30.905  27.387  1.00  0.00     0.217 HD
ENDBRANCH   8  29
BRANCH   1  31
HETATM   31  C6  UNL     1      -0.409  34.172  21.979  1.00  0.00     0.272 C 
HETATM   32  N1  UNL     1       0.130  35.468  21.918  1.00  0.00    -0.344 N 
HETATM   33  C5  UNL     1       0.382  36.234  23.110  1.00  0.00     0.126 C 
HETATM   34  C26 UNL     1       0.466  36.124  20.658  1.00  0.00     0.158 C 
HETATM   35  C4  UNL     1       1.311  37.396  22.759  1.00  0.00     0.022 C 
HETATM   36  C3  UNL     1       2.455  36.919  21.893  1.00  0.00     0.035 C 
HETATM   37  C2  UNL     1       1.985  36.230  20.647  1.00  0.00     0.139 C 
HETATM   38  O2  UNL     1      -0.613  33.509  20.896  1.00  0.00    -0.266 OA
BRANCH  37  39
HETATM   39  O1  UNL     1       2.488  36.758  19.481  1.00  0.00    -0.389 OA
HETATM   40  C1  UNL     1       1.712  37.789  18.961  1.00  0.00     0.202 C 
ENDBRANCH  37  39
ENDBRANCH   1  31
TORSDOF 8
ENDMDL
