MODEL 5
REMARK VINA RESULT: -9.950191154      2.772      7.646
REMARK  8 active torsions:
REMARK  status: ('A' for Active; 'I' for Inactive)
REMARK    1  A    between atoms: O1_2  and  C2_3 
REMARK       I    between atoms: N1_7  and  C6_8 
REMARK    2  A    between atoms: C6_8  and  C7_10 
REMARK    3  A    between atoms: C10_17  and  O3_18 
REMARK    4  A    between atoms: C11_20  and  C12_21 
REMARK    5  A    between atoms: C12_21  and  O4_22 
REMARK    6  A    between atoms: C12_21  and  N4_24 
REMARK    7  A    between atoms: N4_24  and  C14_26 
REMARK    8  A    between atoms: C17_29  and  N5_30 
ROOT
HETATM    1  C7  UNL     1       2.245  32.053  25.986  1.00  0.00     0.128 A 
HETATM    2  N2  UNL     1       1.654  31.382  26.994  1.00  0.00    -0.294 N 
ATOM      3  H2  UNL     1       2.151  30.950  27.774  1.00  0.00     0.187 HD
HETATM    4  N3  UNL     1       0.346  31.364  26.834  1.00  0.00    -0.299 N 
ATOM      5  H3  UNL     1      -0.318  30.917  27.467  1.00  0.00     0.187 HD
HETATM    6  C8  UNL     1       0.019  32.029  25.702  1.00  0.00     0.063 A 
HETATM    7  C9  UNL     1      -1.193  32.301  25.078  1.00  0.00     0.069 A 
HETATM    8  C10 UNL     1      -1.247  33.013  23.908  1.00  0.00     0.082 A 
HETATM    9  C11 UNL     1      -0.036  33.465  23.349  1.00  0.00     0.049 A 
HETATM   10  C24 UNL     1       1.156  33.181  23.984  1.00  0.00     0.035 A 
HETATM   11  C25 UNL     1       1.205  32.464  25.166  1.00  0.00     0.027 A 
ENDROOT
BRANCH   9  12
HETATM   12  C12 UNL     1      -0.123  34.166  22.101  1.00  0.00     0.155 C 
BRANCH  12  13
HETATM   13  O4  UNL     1      -0.697  33.515  21.109  1.00  0.00    -0.345 OA
ATOM     14  H4  UNL     1      -1.217  34.039  20.511  1.00  0.00     0.219 HD
ENDBRANCH  12  13
BRANCH  12  15
HETATM   15  N4  UNL     1       0.324  35.453  21.817  1.00  0.00    -0.332 N 
HETATM   16  C13 UNL     1      -0.036  35.996  20.473  1.00  0.00     0.158 C 
BRANCH  15  17
HETATM   17  C14 UNL     1       1.080  36.262  22.680  1.00  0.00     0.036 A 
HETATM   18  C15 UNL     1       0.491  36.997  23.698  1.00  0.00     0.032 A 
HETATM   19  C16 UNL     1       1.237  37.765  24.575  1.00  0.00     0.031 A 
HETATM   20  C17 UNL     1       2.612  37.840  24.480  1.00  0.00     0.030 A 
HETATM   21  C22 UNL     1       3.209  37.114  23.474  1.00  0.00     0.031 A 
HETATM   22  C23 UNL     1       2.475  36.346  22.596  1.00  0.00     0.032 A 
BRANCH  20  23
HETATM   23  N5  UNL     1       3.344  38.638  25.391  1.00  0.00    -0.377 N 
HETATM   24  C18 UNL     1       3.206  40.080  25.460  1.00  0.00     0.149 C 
HETATM   25  C19 UNL     1       4.534  40.638  25.990  1.00  0.00     0.187 C 
HETATM   26  O5  UNL     1       4.809  40.195  27.275  1.00  0.00    -0.388 OA
HETATM   27  C20 UNL     1       4.234  38.972  27.566  1.00  0.00     0.187 C 
HETATM   28  C21 UNL     1       4.292  38.059  26.331  1.00  0.00     0.149 C 
ENDBRANCH  20  23
ENDBRANCH  15  17
ENDBRANCH  12  15
ENDBRANCH   9  12
BRANCH   8  29
HETATM   29  O3  UNL     1      -2.447  33.299  23.266  1.00  0.00    -0.360 OA
ATOM     30  H3  UNL     1      -2.483  33.584  22.360  1.00  0.00     0.217 HD
ENDBRANCH   8  29
BRANCH   1  31
HETATM   31  C6  UNL     1       3.675  32.295  25.784  1.00  0.00     0.272 C 
HETATM   32  N1  UNL     1       4.506  31.368  25.131  1.00  0.00    -0.344 N 
HETATM   33  C5  UNL     1       3.989  30.130  24.613  1.00  0.00     0.126 C 
HETATM   34  C26 UNL     1       5.935  31.591  24.937  1.00  0.00     0.158 C 
HETATM   35  C4  UNL     1       5.008  29.541  23.638  1.00  0.00     0.022 C 
HETATM   36  C3  UNL     1       5.529  30.610  22.704  1.00  0.00     0.035 C 
HETATM   37  C2  UNL     1       6.118  31.778  23.437  1.00  0.00     0.139 C 
HETATM   38  O2  UNL     1       4.167  33.398  26.226  1.00  0.00    -0.266 OA
BRANCH  37  39
HETATM   39  O1  UNL     1       7.410  32.082  23.077  1.00  0.00    -0.389 OA
HETATM   40  C1  UNL     1       7.855  31.375  21.964  1.00  0.00     0.202 C 
ENDBRANCH  37  39
ENDBRANCH   1  31
TORSDOF 8
ENDMDL
