MODEL 6
REMARK VINA RESULT: -6.695815882      1.289      5.449
REMARK  5 active torsions:
REMARK  status: ('A' for Active; 'I' for Inactive)
REMARK    1  A    between atoms: C1_2  and  C2_4 
REMARK    2  A    between atoms: C2_4  and  C3_5 
REMARK    3  A    between atoms: C3_5  and  C4_6 
REMARK    4  A    between atoms: C4_6  and  C5_7 
REMARK    5  A    between atoms: C5_7  and  C6_9 
ROOT
HETATM    1  C4  UNL     1       9.902 194.900  85.122  1.00  0.00     0.091 C 
ENDROOT
BRANCH   1   2
HETATM    2  C3  UNL     1       9.187 193.672  85.622  1.00  0.00     0.018 C 
BRANCH   2   3
HETATM    3  C2  UNL     1       7.910 193.374  84.918  1.00  0.00     0.113 C 
BRANCH   3   4
HETATM    4  C1  UNL     1       7.973 192.284  83.941  1.00  0.00     0.172 C 
HETATM    5  O1  UNL     1       7.423 191.188  84.288  1.00  0.00    -0.648 OA
HETATM    6  O2  UNL     1       8.560 192.329  82.700  1.00  0.00    -0.648 OA
ENDBRANCH   3   4
ENDBRANCH   2   3
ENDBRANCH   1   2
BRANCH   1   7
HETATM    7  C5  UNL     1      10.970 195.244  86.100  1.00  0.00     0.225 C 
HETATM    8  O3  UNL     1      10.786 195.142  87.335  1.00  0.00    -0.286 OA
BRANCH   7   9
HETATM    9  C6  UNL     1      12.252 195.707  85.598  1.00  0.00     0.246 C 
HETATM   10  O4  UNL     1      13.343 195.221  85.982  1.00  0.00    -0.642 OA
HETATM   11  O5  UNL     1      12.299 196.722  84.660  1.00  0.00    -0.642 OA
ENDBRANCH   7   9
ENDBRANCH   1   7
TORSDOF 5
ENDMDL
