MODEL 4
REMARK VINA RESULT: -6.778244151      1.005      5.476
REMARK  5 active torsions:
REMARK  status: ('A' for Active; 'I' for Inactive)
REMARK    1  A    between atoms: C1_2  and  C2_4 
REMARK    2  A    between atoms: C2_4  and  C3_5 
REMARK    3  A    between atoms: C3_5  and  C4_6 
REMARK    4  A    between atoms: C4_6  and  C5_7 
REMARK    5  A    between atoms: C5_7  and  C6_9 
ROOT
HETATM    1  C4  UNL     1       9.718 194.850  86.299  1.00  0.00     0.091 C 
ENDROOT
BRANCH   1   2
HETATM    2  C3  UNL     1       9.200 193.641  85.564  1.00  0.00     0.018 C 
BRANCH   2   3
HETATM    3  C2  UNL     1       7.844 193.813  84.976  1.00  0.00     0.113 C 
BRANCH   3   4
HETATM    4  C1  UNL     1       7.304 192.636  84.292  1.00  0.00     0.172 C 
HETATM    5  O1  UNL     1       6.112 192.742  83.853  1.00  0.00    -0.648 OA
HETATM    6  O2  UNL     1       7.950 191.444  84.079  1.00  0.00    -0.648 OA
ENDBRANCH   3   4
ENDBRANCH   2   3
ENDBRANCH   1   2
BRANCH   1   7
HETATM    7  C5  UNL     1      10.855 195.412  85.520  1.00  0.00     0.225 C 
HETATM    8  O3  UNL     1      10.706 195.826  84.346  1.00  0.00    -0.286 OA
BRANCH   7   9
HETATM    9  C6  UNL     1      12.164 195.477  86.146  1.00  0.00     0.246 C 
HETATM   10  O4  UNL     1      13.220 195.181  85.536  1.00  0.00    -0.642 OA
HETATM   11  O5  UNL     1      12.279 195.877  87.465  1.00  0.00    -0.642 OA
ENDBRANCH   7   9
ENDBRANCH   1   7
TORSDOF 5
ENDMDL
