MODEL 8
REMARK VINA RESULT: -6.664529432      1.085      1.616
REMARK  5 active torsions:
REMARK  status: ('A' for Active; 'I' for Inactive)
REMARK    1  A    between atoms: C1_2  and  C2_4 
REMARK    2  A    between atoms: C2_4  and  C3_5 
REMARK    3  A    between atoms: C3_5  and  C4_6 
REMARK    4  A    between atoms: C4_6  and  C5_7 
REMARK    5  A    between atoms: C5_7  and  C6_9 
ROOT
HETATM    1  C4  UNL     1       9.402 193.363  85.757  1.00  0.00     0.091 C 
ENDROOT
BRANCH   1   2
HETATM    2  C3  UNL     1      10.262 194.091  86.757  1.00  0.00     0.018 C 
BRANCH   2   3
HETATM    3  C2  UNL     1      11.726 193.929  86.542  1.00  0.00     0.113 C 
BRANCH   3   4
HETATM    4  C1  UNL     1      12.491 195.177  86.476  1.00  0.00     0.172 C 
HETATM    5  O1  UNL     1      12.992 195.466  85.340  1.00  0.00    -0.648 OA
HETATM    6  O2  UNL     1      12.717 196.056  87.506  1.00  0.00    -0.648 OA
ENDBRANCH   3   4
ENDBRANCH   2   3
ENDBRANCH   1   2
BRANCH   1   7
HETATM    7  C5  UNL     1       8.797 194.373  84.846  1.00  0.00     0.225 C 
HETATM    8  O3  UNL     1       9.500 195.211  84.235  1.00  0.00    -0.286 OA
BRANCH   7   9
HETATM    9  C6  UNL     1       7.355 194.377  84.670  1.00  0.00     0.246 C 
HETATM   10  O4  UNL     1       6.625 195.303  85.098  1.00  0.00    -0.642 OA
HETATM   11  O5  UNL     1       6.738 193.329  84.010  1.00  0.00    -0.642 OA
ENDBRANCH   7   9
ENDBRANCH   1   7
TORSDOF 5
ENDMDL
