MODEL 3
REMARK VINA RESULT: -6.785346587      1.167      1.515
REMARK  5 active torsions:
REMARK  status: ('A' for Active; 'I' for Inactive)
REMARK    1  A    between atoms: C1_2  and  C2_4 
REMARK    2  A    between atoms: C2_4  and  C3_5 
REMARK    3  A    between atoms: C3_5  and  C4_6 
REMARK    4  A    between atoms: C4_6  and  C5_7 
REMARK    5  A    between atoms: C5_7  and  C6_9 
ROOT
HETATM    1  C4  UNL     1       9.362 194.797  85.927  1.00  0.00     0.091 C 
ENDROOT
BRANCH   1   2
HETATM    2  C3  UNL     1      10.380 194.082  86.777  1.00  0.00     0.018 C 
BRANCH   2   3
HETATM    3  C2  UNL     1      11.770 194.138  86.248  1.00  0.00     0.113 C 
BRANCH   3   4
HETATM    4  C1  UNL     1      12.369 195.474  86.202  1.00  0.00     0.172 C 
HETATM    5  O1  UNL     1      12.749 195.957  87.319  1.00  0.00    -0.648 OA
HETATM    6  O2  UNL     1      12.560 196.248  85.083  1.00  0.00    -0.648 OA
ENDBRANCH   3   4
ENDBRANCH   2   3
ENDBRANCH   1   2
BRANCH   1   7
HETATM    7  C5  UNL     1       8.497 193.773  85.280  1.00  0.00     0.225 C 
HETATM    8  O3  UNL     1       8.864 192.579  85.171  1.00  0.00    -0.286 OA
BRANCH   7   9
HETATM    9  C6  UNL     1       7.200 194.178  84.768  1.00  0.00     0.246 C 
HETATM   10  O4  UNL     1       6.684 195.290  85.039  1.00  0.00    -0.642 OA
HETATM   11  O5  UNL     1       6.484 193.324  83.949  1.00  0.00    -0.642 OA
ENDBRANCH   7   9
ENDBRANCH   1   7
TORSDOF 5
ENDMDL
