MODEL 2
REMARK VINA RESULT: -6.853233229      1.041      1.424
REMARK  5 active torsions:
REMARK  status: ('A' for Active; 'I' for Inactive)
REMARK    1  A    between atoms: C1_2  and  C2_4 
REMARK    2  A    between atoms: C2_4  and  C3_5 
REMARK    3  A    between atoms: C3_5  and  C4_6 
REMARK    4  A    between atoms: C4_6  and  C5_7 
REMARK    5  A    between atoms: C5_7  and  C6_9 
ROOT
HETATM    1  C4  UNL     1       8.958 193.586  85.480  1.00  0.00     0.091 C 
ENDROOT
BRANCH   1   2
HETATM    2  C3  UNL     1       9.413 194.984  85.809  1.00  0.00     0.018 C 
BRANCH   2   3
HETATM    3  C2  UNL     1      10.643 195.050  86.644  1.00  0.00     0.113 C 
BRANCH   3   4
HETATM    4  C1  UNL     1      11.904 195.102  85.900  1.00  0.00     0.172 C 
HETATM    5  O1  UNL     1      12.553 194.008  85.822  1.00  0.00    -0.648 OA
HETATM    6  O2  UNL     1      12.448 196.202  85.285  1.00  0.00    -0.648 OA
ENDBRANCH   3   4
ENDBRANCH   2   3
ENDBRANCH   1   2
BRANCH   1   7
HETATM    7  C5  UNL     1       7.734 193.685  84.639  1.00  0.00     0.225 C 
HETATM    8  O3  UNL     1       7.239 194.793  84.329  1.00  0.00    -0.286 OA
BRANCH   7   9
HETATM    9  C6  UNL     1       7.108 192.460  84.174  1.00  0.00     0.246 C 
HETATM   10  O4  UNL     1       7.713 191.361  84.145  1.00  0.00    -0.642 OA
HETATM   11  O5  UNL     1       5.794 192.478  83.741  1.00  0.00    -0.642 OA
ENDBRANCH   7   9
ENDBRANCH   1   7
TORSDOF 5
ENDMDL
