MODEL 5
REMARK VINA RESULT: -6.726016164      1.158      5.555
REMARK  5 active torsions:
REMARK  status: ('A' for Active; 'I' for Inactive)
REMARK    1  A    between atoms: C1_2  and  C2_4 
REMARK    2  A    between atoms: C2_4  and  C3_5 
REMARK    3  A    between atoms: C3_5  and  C4_6 
REMARK    4  A    between atoms: C4_6  and  C5_7 
REMARK    5  A    between atoms: C5_7  and  C6_9 
ROOT
HETATM    1  C4  UNL     1       9.928 194.874  85.412  1.00  0.00     0.091 C 
ENDROOT
BRANCH   1   2
HETATM    2  C3  UNL     1       9.051 193.677  85.670  1.00  0.00     0.018 C 
BRANCH   2   3
HETATM    3  C2  UNL     1       7.910 193.535  84.724  1.00  0.00     0.113 C 
BRANCH   3   4
HETATM    4  C1  UNL     1       7.891 192.294  83.946  1.00  0.00     0.172 C 
HETATM    5  O1  UNL     1       8.468 192.337  82.811  1.00  0.00    -0.648 OA
HETATM    6  O2  UNL     1       7.319 191.103  84.318  1.00  0.00    -0.648 OA
ENDBRANCH   3   4
ENDBRANCH   2   3
ENDBRANCH   1   2
BRANCH   1   7
HETATM    7  C5  UNL     1      11.194 194.691  86.172  1.00  0.00     0.225 C 
HETATM    8  O3  UNL     1      11.304 193.817  87.063  1.00  0.00    -0.286 OA
BRANCH   7   9
HETATM    9  C6  UNL     1      12.322 195.554  85.865  1.00  0.00     0.246 C 
HETATM   10  O4  UNL     1      13.389 195.530  86.524  1.00  0.00    -0.642 OA
HETATM   11  O5  UNL     1      12.241 196.446  84.811  1.00  0.00    -0.642 OA
ENDBRANCH   7   9
ENDBRANCH   1   7
TORSDOF 5
ENDMDL
