MODEL 11
REMARK VINA RESULT: -6.565400678      1.244      1.716
REMARK  5 active torsions:
REMARK  status: ('A' for Active; 'I' for Inactive)
REMARK    1  A    between atoms: C1_2  and  C2_4 
REMARK    2  A    between atoms: C2_4  and  C3_5 
REMARK    3  A    between atoms: C3_5  and  C4_6 
REMARK    4  A    between atoms: C4_6  and  C5_7 
REMARK    5  A    between atoms: C5_7  and  C6_9 
ROOT
HETATM    1  C4  UNL     1       8.861 194.342  85.228  1.00  0.00     0.091 C 
ENDROOT
BRANCH   1   2
HETATM    2  C3  UNL     1       9.750 193.325  85.896  1.00  0.00     0.018 C 
BRANCH   2   3
HETATM    3  C2  UNL     1      10.577 193.869  87.008  1.00  0.00     0.113 C 
BRANCH   3   4
HETATM    4  C1  UNL     1      11.781 194.594  86.597  1.00  0.00     0.172 C 
HETATM    5  O1  UNL     1      12.530 194.002  85.752  1.00  0.00    -0.648 OA
HETATM    6  O2  UNL     1      12.177 195.836  87.028  1.00  0.00    -0.648 OA
ENDBRANCH   3   4
ENDBRANCH   2   3
ENDBRANCH   1   2
BRANCH   1   7
HETATM    7  C5  UNL     1       7.708 193.621  84.623  1.00  0.00     0.225 C 
HETATM    8  O3  UNL     1       6.537 194.058  84.719  1.00  0.00    -0.286 OA
BRANCH   7   9
HETATM    9  C6  UNL     1       7.958 192.382  83.908  1.00  0.00     0.246 C 
HETATM   10  O4  UNL     1       7.568 191.266  84.331  1.00  0.00    -0.642 OA
HETATM   11  O5  UNL     1       8.652 192.404  82.711  1.00  0.00    -0.642 OA
ENDBRANCH   7   9
ENDBRANCH   1   7
TORSDOF 5
ENDMDL
