MODEL 1
REMARK VINA RESULT: -6.865002796      0.000      0.000
REMARK  5 active torsions:
REMARK  status: ('A' for Active; 'I' for Inactive)
REMARK    1  A    between atoms: C1_2  and  C2_4 
REMARK    2  A    between atoms: C2_4  and  C3_5 
REMARK    3  A    between atoms: C3_5  and  C4_6 
REMARK    4  A    between atoms: C4_6  and  C5_7 
REMARK    5  A    between atoms: C5_7  and  C6_9 
ROOT
HETATM    1  C4  UNL     1       9.332 193.299  85.749  1.00  0.00     0.091 C 
ENDROOT
BRANCH   1   2
HETATM    2  C3  UNL     1      10.102 194.542  86.112  1.00  0.00     0.018 C 
BRANCH   2   3
HETATM    3  C2  UNL     1      11.569 194.336  86.259  1.00  0.00     0.113 C 
BRANCH   3   4
HETATM    4  C1  UNL     1      12.384 195.550  86.163  1.00  0.00     0.172 C 
HETATM    5  O1  UNL     1      12.925 195.947  87.246  1.00  0.00    -0.648 OA
HETATM    6  O2  UNL     1      12.620 196.291  85.031  1.00  0.00    -0.648 OA
ENDBRANCH   3   4
ENDBRANCH   2   3
ENDBRANCH   1   2
BRANCH   1   7
HETATM    7  C5  UNL     1       8.501 193.603  84.552  1.00  0.00     0.225 C 
HETATM    8  O3  UNL     1       8.661 194.656  83.893  1.00  0.00    -0.286 OA
BRANCH   7   9
HETATM    9  C6  UNL     1       7.485 192.647  84.149  1.00  0.00     0.246 C 
HETATM   10  O4  UNL     1       6.329 192.995  83.806  1.00  0.00    -0.642 OA
HETATM   11  O5  UNL     1       7.776 191.295  84.134  1.00  0.00    -0.642 OA
ENDBRANCH   7   9
ENDBRANCH   1   7
TORSDOF 5
ENDMDL
