MODEL 2
REMARK VINA RESULT: -6.636416961      0.943      1.827
REMARK  15 active torsions:
REMARK  status: ('A' for Active; 'I' for Inactive)
REMARK    1  A    between atoms: C9_11  and  O3_12 
REMARK    2  A    between atoms: C13_17  and  C14_18 
REMARK    3  A    between atoms: C17_21  and  N1_22 
REMARK    4  A    between atoms: N1_22  and  C18_24 
REMARK    5  A    between atoms: C18_24  and  N2_26 
REMARK    6  A    between atoms: N2_26  and  C19_28 
REMARK    7  A    between atoms: C19_28  and  C20_29 
REMARK    8  A    between atoms: C20_29  and  O4_30 
REMARK    9  A    between atoms: O4_30  and  C21_31 
REMARK   10  A    between atoms: C22_33  and  C23_34 
REMARK   11  A    between atoms: C23_34  and  O6_35 
REMARK   12  A    between atoms: C24_37  and  O7_38 
REMARK   13  A    between atoms: C25_40  and  O8_41 
REMARK   14  A    between atoms: C26_43  and  O9_44 
REMARK   15  A    between atoms: C28_47  and  C29_48 
ROOT
HETATM    1  C14 UNL     1      40.016   5.769 -49.283  1.00  0.00    -0.028 A 
HETATM    2  C15 UNL     1      39.859   5.965 -50.631  1.00  0.00     0.011 A 
HETATM    3  C16 UNL     1      38.646   6.375 -51.151  1.00  0.00     0.030 A 
HETATM    4  C17 UNL     1      37.567   6.593 -50.326  1.00  0.00     0.035 A 
HETATM    5  C27 UNL     1      37.788   6.376 -48.961  1.00  0.00     0.048 A 
HETATM    6  C28 UNL     1      39.006   5.965 -48.420  1.00  0.00     0.050 A 
ENDROOT
BRANCH   4   7
HETATM    7  N1  UNL     1      36.286   6.988 -50.765  1.00  0.00    -0.333 N 
ATOM      8  H1  UNL     1      35.534   6.946 -50.077  1.00  0.00     0.168 HD
BRANCH   7   9
HETATM    9  C18 UNL     1      35.945   7.423 -52.026  1.00  0.00     0.172 C 
HETATM   10  S1  UNL     1      35.586   6.457 -53.280  1.00  0.00    -0.041 SA
BRANCH   9  11
HETATM   11  N2  UNL     1      35.858   8.840 -52.294  1.00  0.00    -0.365 N 
ATOM     12  H2  UNL     1      35.315   9.462 -51.695  1.00  0.00     0.161 HD
BRANCH  11  13
HETATM   13  C19 UNL     1      36.574   9.338 -53.445  1.00  0.00     0.148 C 
BRANCH  13  14
HETATM   14  C20 UNL     1      38.031   9.515 -53.099  1.00  0.00     0.190 C 
BRANCH  14  15
HETATM   15  O4  UNL     1      38.141   9.720 -51.734  1.00  0.00    -0.357 OA
BRANCH  15  16
HETATM   16  C21 UNL     1      39.241  10.574 -51.527  1.00  0.00     0.291 C 
HETATM   17  O5  UNL     1      38.752  11.877 -51.561  1.00  0.00    -0.348 OA
HETATM   18  C22 UNL     1      38.181  12.167 -50.329  1.00  0.00     0.179 C 
HETATM   19  C24 UNL     1      39.303  12.451 -49.337  1.00  0.00     0.180 C 
HETATM   20  C25 UNL     1      40.469  11.546 -49.669  1.00  0.00     0.183 C 
HETATM   21  C26 UNL     1      39.904  10.257 -50.201  1.00  0.00     0.204 C 
BRANCH  18  22
HETATM   22  C23 UNL     1      37.317  13.429 -50.435  1.00  0.00     0.198 C 
BRANCH  22  23
HETATM   23  O6  UNL     1      36.740  13.665 -49.202  1.00  0.00    -0.398 OA
ATOM     24  H6  UNL     1      36.635  14.603 -49.095  1.00  0.00     0.209 HD
ENDBRANCH  22  23
ENDBRANCH  18  22
BRANCH  19  25
HETATM   25  O7  UNL     1      39.723  13.788 -49.446  1.00  0.00    -0.390 OA
ATOM     26  H7  UNL     1      38.993  14.376 -49.286  1.00  0.00     0.210 HD
ENDBRANCH  19  25
BRANCH  20  27
HETATM   27  O8  UNL     1      41.193  12.144 -50.713  1.00  0.00    -0.390 OA
ATOM     28  H8  UNL     1      41.539  11.449 -51.262  1.00  0.00     0.210 HD
ENDBRANCH  20  27
BRANCH  21  29
HETATM   29  O9  UNL     1      38.978   9.681 -49.339  1.00  0.00    -0.388 OA
ATOM     30  H9  UNL     1      38.547   8.953 -49.770  1.00  0.00     0.210 HD
ENDBRANCH  21  29
ENDBRANCH  15  16
ENDBRANCH  14  15
ENDBRANCH  13  14
ENDBRANCH  11  13
ENDBRANCH   9  11
ENDBRANCH   7   9
ENDBRANCH   4   7
BRANCH   6  31
HETATM   31  C29 UNL     1      39.081   5.813 -46.960  1.00  0.00     0.210 C 
HETATM   32  O10 UNL     1      38.528   4.770 -46.467  1.00  0.00    -0.644 OA
HETATM   33  O11 UNL     1      39.662   6.637 -46.049  1.00  0.00    -0.644 OA
ENDBRANCH   6  31
BRANCH   1  34
HETATM   34  C13 UNL     1      41.361   5.307 -48.863  1.00  0.00     0.091 A 
HETATM   35  C4  UNL     1      42.403   6.305 -49.150  1.00  0.00    -0.015 A 
HETATM   36  C3  UNL     1      42.136   7.682 -48.630  1.00  0.00     0.014 A 
HETATM   37  C5  UNL     1      43.485   6.002 -49.800  1.00  0.00     0.068 A 
HETATM   38  C2  UNL     1      43.001   8.617 -48.824  1.00  0.00     0.051 A 
HETATM   39  C1  UNL     1      44.223   8.349 -49.539  1.00  0.00     0.155 A 
HETATM   40  O1  UNL     1      45.044   9.301 -49.709  1.00  0.00    -0.293 OA
HETATM   41  C6  UNL     1      44.551   7.040 -50.069  1.00  0.00     0.148 A 
HETATM   42  O2  UNL     1      43.769   4.715 -50.310  1.00  0.00    -0.314 OA
HETATM   43  C7  UNL     1      42.816   3.739 -50.087  1.00  0.00     0.085 A 
HETATM   44  C8  UNL     1      43.027   2.430 -50.568  1.00  0.00     0.074 A 
HETATM   45  C12 UNL     1      41.663   3.977 -49.418  1.00  0.00    -0.011 A 
HETATM   46  C9  UNL     1      42.123   1.419 -50.383  1.00  0.00     0.068 A 
HETATM   47  C10 UNL     1      40.961   1.688 -49.701  1.00  0.00     0.037 A 
HETATM   48  C11 UNL     1      40.716   2.947 -49.216  1.00  0.00     0.014 A 
BRANCH  46  49
HETATM   49  O3  UNL     1      42.345   0.148 -50.859  1.00  0.00    -0.361 OA
ATOM     50  H3  UNL     1      42.921  -0.020 -51.595  1.00  0.00     0.217 HD
ENDBRANCH  46  49
ENDBRANCH   1  34
TORSDOF 15
ENDMDL
