MODEL 3
REMARK VINA RESULT: -6.581823522      1.064      1.302
REMARK  15 active torsions:
REMARK  status: ('A' for Active; 'I' for Inactive)
REMARK    1  A    between atoms: C9_11  and  O3_12 
REMARK    2  A    between atoms: C13_17  and  C14_18 
REMARK    3  A    between atoms: C17_21  and  N1_22 
REMARK    4  A    between atoms: N1_22  and  C18_24 
REMARK    5  A    between atoms: C18_24  and  N2_26 
REMARK    6  A    between atoms: N2_26  and  C19_28 
REMARK    7  A    between atoms: C19_28  and  C20_29 
REMARK    8  A    between atoms: C20_29  and  O4_30 
REMARK    9  A    between atoms: O4_30  and  C21_31 
REMARK   10  A    between atoms: C22_33  and  C23_34 
REMARK   11  A    between atoms: C23_34  and  O6_35 
REMARK   12  A    between atoms: C24_37  and  O7_38 
REMARK   13  A    between atoms: C25_40  and  O8_41 
REMARK   14  A    between atoms: C26_43  and  O9_44 
REMARK   15  A    between atoms: C28_47  and  C29_48 
ROOT
HETATM    1  C14 UNL     1      39.969   5.685 -49.360  1.00  0.00    -0.028 A 
HETATM    2  C15 UNL     1      39.847   5.843 -50.717  1.00  0.00     0.011 A 
HETATM    3  C16 UNL     1      38.656   6.262 -51.277  1.00  0.00     0.030 A 
HETATM    4  C17 UNL     1      37.563   6.528 -50.485  1.00  0.00     0.035 A 
HETATM    5  C27 UNL     1      37.748   6.348 -49.110  1.00  0.00     0.048 A 
HETATM    6  C28 UNL     1      38.944   5.928 -48.528  1.00  0.00     0.050 A 
ENDROOT
BRANCH   4   7
HETATM    7  N1  UNL     1      36.301   6.936 -50.967  1.00  0.00    -0.333 N 
ATOM      8  H1  UNL     1      35.492   6.673 -50.405  1.00  0.00     0.168 HD
BRANCH   7   9
HETATM    9  C18 UNL     1      36.049   7.651 -52.116  1.00  0.00     0.172 C 
HETATM   10  S1  UNL     1      35.533   7.013 -53.516  1.00  0.00    -0.041 SA
BRANCH   9  11
HETATM   11  N2  UNL     1      36.215   9.086 -52.116  1.00  0.00    -0.365 N 
ATOM     12  H2  UNL     1      35.527   9.700 -51.682  1.00  0.00     0.161 HD
BRANCH  11  13
HETATM   13  C19 UNL     1      37.398   9.613 -52.756  1.00  0.00     0.148 C 
BRANCH  13  14
HETATM   14  C20 UNL     1      38.430   9.954 -51.712  1.00  0.00     0.190 C 
BRANCH  14  15
HETATM   15  O4  UNL     1      38.544  11.332 -51.635  1.00  0.00    -0.357 OA
BRANCH  15  16
HETATM   16  C21 UNL     1      38.411  11.688 -50.280  1.00  0.00     0.291 C 
HETATM   17  O5  UNL     1      39.652  11.481 -49.684  1.00  0.00    -0.348 OA
HETATM   18  C22 UNL     1      40.470  12.562 -49.980  1.00  0.00     0.179 C 
HETATM   19  C24 UNL     1      40.064  13.727 -49.085  1.00  0.00     0.180 C 
HETATM   20  C25 UNL     1      38.564  13.678 -48.893  1.00  0.00     0.183 C 
HETATM   21  C26 UNL     1      37.965  13.132 -50.161  1.00  0.00     0.204 C 
BRANCH  18  22
HETATM   22  C23 UNL     1      41.931  12.217 -49.669  1.00  0.00     0.198 C 
BRANCH  22  23
HETATM   23  O6  UNL     1      42.689  13.362 -49.816  1.00  0.00    -0.398 OA
ATOM     24  H6  UNL     1      43.568  13.181 -49.502  1.00  0.00     0.209 HD
ENDBRANCH  22  23
ENDBRANCH  18  22
BRANCH  19  25
HETATM   25  O7  UNL     1      40.685  13.615 -47.828  1.00  0.00    -0.390 OA
ATOM     26  H7  UNL     1      40.664  14.450 -47.375  1.00  0.00     0.210 HD
ENDBRANCH  19  25
BRANCH  20  27
HETATM   27  O8  UNL     1      38.291  12.752 -47.873  1.00  0.00    -0.390 OA
ATOM     28  H8  UNL     1      39.098  12.292 -47.675  1.00  0.00     0.210 HD
ENDBRANCH  20  27
BRANCH  21  29
HETATM   29  O9  UNL     1      38.361  13.840 -51.290  1.00  0.00    -0.388 OA
ATOM     30  H9  UNL     1      39.190  13.501 -51.607  1.00  0.00     0.210 HD
ENDBRANCH  21  29
ENDBRANCH  15  16
ENDBRANCH  14  15
ENDBRANCH  13  14
ENDBRANCH  11  13
ENDBRANCH   9  11
ENDBRANCH   7   9
ENDBRANCH   4   7
BRANCH   6  31
HETATM   31  C29 UNL     1      38.982   5.820 -47.062  1.00  0.00     0.210 C 
HETATM   32  O10 UNL     1      38.447   4.773 -46.555  1.00  0.00    -0.644 OA
HETATM   33  O11 UNL     1      39.510   6.687 -46.160  1.00  0.00    -0.644 OA
ENDBRANCH   6  31
BRANCH   1  34
HETATM   34  C13 UNL     1      41.293   5.208 -48.894  1.00  0.00     0.091 A 
HETATM   35  C4  UNL     1      42.358   6.188 -49.157  1.00  0.00    -0.015 A 
HETATM   36  C3  UNL     1      42.094   7.573 -48.657  1.00  0.00     0.014 A 
HETATM   37  C5  UNL     1      43.455   5.864 -49.770  1.00  0.00     0.068 A 
HETATM   38  C2  UNL     1      42.979   8.494 -48.832  1.00  0.00     0.051 A 
HETATM   39  C1  UNL     1      44.219   8.203 -49.506  1.00  0.00     0.155 A 
HETATM   40  O1  UNL     1      45.058   9.141 -49.658  1.00  0.00    -0.293 OA
HETATM   41  C6  UNL     1      44.543   6.885 -50.014  1.00  0.00     0.148 A 
HETATM   42  O2  UNL     1      43.736   4.569 -50.260  1.00  0.00    -0.314 OA
HETATM   43  C7  UNL     1      42.763   3.608 -50.059  1.00  0.00     0.085 A 
HETATM   44  C8  UNL     1      42.970   2.293 -50.522  1.00  0.00     0.074 A 
HETATM   45  C12 UNL     1      41.594   3.868 -49.428  1.00  0.00    -0.011 A 
HETATM   46  C9  UNL     1      42.046   1.296 -50.357  1.00  0.00     0.068 A 
HETATM   47  C10 UNL     1      40.868   1.587 -49.714  1.00  0.00     0.037 A 
HETATM   48  C11 UNL     1      40.625   2.854 -49.247  1.00  0.00     0.014 A 
BRANCH  46  49
HETATM   49  O3  UNL     1      42.265   0.018 -50.815  1.00  0.00    -0.361 OA
ATOM     50  H3  UNL     1      41.557  -0.531 -51.131  1.00  0.00     0.217 HD
ENDBRANCH  46  49
ENDBRANCH   1  34
TORSDOF 15
ENDMDL
