MODEL 1
REMARK VINA RESULT: -6.796008259      0.000      0.000
REMARK  15 active torsions:
REMARK  status: ('A' for Active; 'I' for Inactive)
REMARK    1  A    between atoms: C9_11  and  O3_12 
REMARK    2  A    between atoms: C13_17  and  C14_18 
REMARK    3  A    between atoms: C17_21  and  N1_22 
REMARK    4  A    between atoms: N1_22  and  C18_24 
REMARK    5  A    between atoms: C18_24  and  N2_26 
REMARK    6  A    between atoms: N2_26  and  C19_28 
REMARK    7  A    between atoms: C19_28  and  C20_29 
REMARK    8  A    between atoms: C20_29  and  O4_30 
REMARK    9  A    between atoms: O4_30  and  C21_31 
REMARK   10  A    between atoms: C22_33  and  C23_34 
REMARK   11  A    between atoms: C23_34  and  O6_35 
REMARK   12  A    between atoms: C24_37  and  O7_38 
REMARK   13  A    between atoms: C25_40  and  O8_41 
REMARK   14  A    between atoms: C26_43  and  O9_44 
REMARK   15  A    between atoms: C28_47  and  C29_48 
ROOT
HETATM    1  C14 UNL     1      39.939   5.819 -49.449  1.00  0.00    -0.028 A 
HETATM    2  C15 UNL     1      39.922   6.157 -50.778  1.00  0.00     0.011 A 
HETATM    3  C16 UNL     1      38.755   6.577 -51.387  1.00  0.00     0.030 A 
HETATM    4  C17 UNL     1      37.582   6.661 -50.674  1.00  0.00     0.035 A 
HETATM    5  C27 UNL     1      37.662   6.302 -49.324  1.00  0.00     0.048 A 
HETATM    6  C28 UNL     1      38.831   5.880 -48.693  1.00  0.00     0.050 A 
ENDROOT
BRANCH   4   7
HETATM    7  N1  UNL     1      36.339   7.054 -51.214  1.00  0.00    -0.333 N 
ATOM      8  H1  UNL     1      35.506   6.677 -50.763  1.00  0.00     0.168 HD
BRANCH   7   9
HETATM    9  C18 UNL     1      36.134   7.892 -52.287  1.00  0.00     0.172 C 
HETATM   10  S1  UNL     1      35.511   7.441 -53.715  1.00  0.00    -0.041 SA
BRANCH   9  11
HETATM   11  N2  UNL     1      36.457   9.295 -52.169  1.00  0.00    -0.365 N 
ATOM     12  H2  UNL     1      36.070   9.868 -51.420  1.00  0.00     0.161 HD
BRANCH  11  13
HETATM   13  C19 UNL     1      37.351   9.851 -53.157  1.00  0.00     0.148 C 
BRANCH  13  14
HETATM   14  C20 UNL     1      37.049  11.316 -53.348  1.00  0.00     0.190 C 
BRANCH  14  15
HETATM   15  O4  UNL     1      38.008  12.057 -52.678  1.00  0.00    -0.357 OA
BRANCH  15  16
HETATM   16  C21 UNL     1      37.411  12.549 -51.502  1.00  0.00     0.291 C 
HETATM   17  O5  UNL     1      37.755  11.671 -50.477  1.00  0.00    -0.348 OA
HETATM   18  C22 UNL     1      39.043  11.969 -50.054  1.00  0.00     0.179 C 
HETATM   19  C24 UNL     1      38.982  13.213 -49.175  1.00  0.00     0.180 C 
HETATM   20  C25 UNL     1      37.913  14.130 -49.727  1.00  0.00     0.183 C 
HETATM   21  C26 UNL     1      37.895  13.957 -51.221  1.00  0.00     0.204 C 
BRANCH  18  22
HETATM   22  C23 UNL     1      39.596  10.820 -49.204  1.00  0.00     0.198 C 
BRANCH  22  23
HETATM   23  O6  UNL     1      38.545  10.237 -48.524  1.00  0.00    -0.398 OA
ATOM     24  H6  UNL     1      38.813  10.093 -47.624  1.00  0.00     0.209 HD
ENDBRANCH  22  23
ENDBRANCH  18  22
BRANCH  19  25
HETATM   25  O7  UNL     1      38.642  12.862 -47.857  1.00  0.00    -0.390 OA
ATOM     26  H7  UNL     1      37.824  13.275 -47.608  1.00  0.00     0.210 HD
ENDBRANCH  19  25
BRANCH  20  27
HETATM   27  O8  UNL     1      36.672  13.684 -49.243  1.00  0.00    -0.390 OA
ATOM     28  H8  UNL     1      36.051  14.397 -49.334  1.00  0.00     0.210 HD
ENDBRANCH  20  27
BRANCH  21  29
HETATM   29  O9  UNL     1      39.146  14.148 -51.797  1.00  0.00    -0.388 OA
ATOM     30  H9  UNL     1      39.791  14.306 -51.118  1.00  0.00     0.210 HD
ENDBRANCH  21  29
ENDBRANCH  15  16
ENDBRANCH  14  15
ENDBRANCH  13  14
ENDBRANCH  11  13
ENDBRANCH   9  11
ENDBRANCH   7   9
ENDBRANCH   4   7
BRANCH   6  31
HETATM   31  C29 UNL     1      38.752   5.569 -47.258  1.00  0.00     0.210 C 
HETATM   32  O10 UNL     1      38.206   4.455 -46.946  1.00  0.00    -0.644 OA
HETATM   33  O11 UNL     1      39.181   6.312 -46.203  1.00  0.00    -0.644 OA
ENDBRANCH   6  31
BRANCH   1  34
HETATM   34  C13 UNL     1      41.250   5.364 -48.928  1.00  0.00     0.091 A 
HETATM   35  C4  UNL     1      42.303   6.373 -49.123  1.00  0.00    -0.015 A 
HETATM   36  C3  UNL     1      41.983   7.742 -48.613  1.00  0.00     0.014 A 
HETATM   37  C5  UNL     1      43.436   6.084 -49.688  1.00  0.00     0.068 A 
HETATM   38  C2  UNL     1      42.853   8.686 -48.730  1.00  0.00     0.051 A 
HETATM   39  C1  UNL     1      44.130   8.435 -49.348  1.00  0.00     0.155 A 
HETATM   40  O1  UNL     1      44.954   9.395 -49.445  1.00  0.00    -0.293 OA
HETATM   41  C6  UNL     1      44.510   7.134 -49.862  1.00  0.00     0.148 A 
HETATM   42  O2  UNL     1      43.770   4.805 -50.185  1.00  0.00    -0.314 OA
HETATM   43  C7  UNL     1      42.812   3.819 -50.047  1.00  0.00     0.085 A 
HETATM   44  C8  UNL     1      43.071   2.517 -50.521  1.00  0.00     0.074 A 
HETATM   45  C12 UNL     1      41.607   4.041 -49.469  1.00  0.00    -0.011 A 
HETATM   46  C9  UNL     1      42.165   1.496 -50.417  1.00  0.00     0.068 A 
HETATM   47  C10 UNL     1      40.950   1.750 -49.827  1.00  0.00     0.037 A 
HETATM   48  C11 UNL     1      40.656   3.002 -49.352  1.00  0.00     0.014 A 
BRANCH  46  49
HETATM   49  O3  UNL     1      42.435   0.232 -50.885  1.00  0.00    -0.361 OA
ATOM     50  H3  UNL     1      42.568   0.055 -51.809  1.00  0.00     0.217 HD
ENDBRANCH  46  49
ENDBRANCH   1  34
TORSDOF 15
ENDMDL
