MODEL 20
REMARK VINA RESULT: -3.091811577      3.744      4.252
REMARK  0 active torsions:
REMARK  status: ('A' for Active; 'I' for Inactive)
ROOT
HETATM    1  O1  UNL     1      27.291  20.868  -5.747  1.00  0.00    -0.274 OA
HETATM    2  C1  UNL     1      26.570  20.105  -6.433  1.00  0.00     0.217 C 
HETATM    3  C2  UNL     1      25.544  20.549  -7.408  1.00  0.00     0.104 C 
HETATM    4  C3  UNL     1      24.687  19.277  -7.486  1.00  0.00     0.029 C 
HETATM    5  C4  UNL     1      25.788  18.242  -7.499  1.00  0.00     0.123 C 
HETATM    6  N1  UNL     1      26.612  18.688  -6.396  1.00  0.00    -0.361 N 
ATOM      7  H1  UNL     1      27.118  18.104  -5.730  1.00  0.00     0.162 HD
ENDROOT
TORSDOF 0
ENDMDL
