MODEL 1
REMARK VINA RESULT: -4.957273696      0.000      0.000
REMARK  0 active torsions:
REMARK  status: ('A' for Active; 'I' for Inactive)
ROOT
HETATM    1  O1  UNL     1      21.831  16.297  -7.822  1.00  0.00    -0.274 OA
HETATM    2  C1  UNL     1      22.865  17.001  -7.744  1.00  0.00     0.217 C 
HETATM    3  C2  UNL     1      23.048  18.152  -6.826  1.00  0.00     0.104 C 
HETATM    4  C3  UNL     1      24.189  18.885  -7.544  1.00  0.00     0.029 C 
HETATM    5  C4  UNL     1      25.034  17.695  -7.937  1.00  0.00     0.123 C 
HETATM    6  N1  UNL     1      24.040  16.818  -8.519  1.00  0.00    -0.361 N 
ATOM      7  H1  UNL     1      24.158  16.198  -9.319  1.00  0.00     0.162 HD
ENDROOT
TORSDOF 0
ENDMDL
