MODEL 18
REMARK VINA RESULT: -3.151010971      4.258      4.799
REMARK  0 active torsions:
REMARK  status: ('A' for Active; 'I' for Inactive)
ROOT
HETATM    1  O1  UNL     1      28.718  20.323  -7.179  1.00  0.00    -0.274 OA
HETATM    2  C1  UNL     1      27.509  19.996  -7.152  1.00  0.00     0.217 C 
HETATM    3  C2  UNL     1      26.878  19.140  -6.117  1.00  0.00     0.104 C 
HETATM    4  C3  UNL     1      25.631  18.674  -6.882  1.00  0.00     0.029 C 
HETATM    5  C4  UNL     1      25.260  19.975  -7.557  1.00  0.00     0.123 C 
HETATM    6  N1  UNL     1      26.534  20.386  -8.107  1.00  0.00    -0.361 N 
ATOM      7  H1  UNL     1      26.698  20.858  -8.996  1.00  0.00     0.162 HD
ENDROOT
TORSDOF 0
ENDMDL
