MODEL 7
REMARK VINA RESULT: -4.108547691      1.200      1.715
REMARK  0 active torsions:
REMARK  status: ('A' for Active; 'I' for Inactive)
ROOT
HETATM    1  O1  UNL     1      22.410  16.442  -7.967  1.00  0.00    -0.274 OA
HETATM    2  C1  UNL     1      23.338  17.276  -7.849  1.00  0.00     0.217 C 
HETATM    3  C2  UNL     1      24.656  17.188  -8.526  1.00  0.00     0.104 C 
HETATM    4  C3  UNL     1      25.482  18.107  -7.615  1.00  0.00     0.029 C 
HETATM    5  C4  UNL     1      24.471  19.209  -7.397  1.00  0.00     0.123 C 
HETATM    6  N1  UNL     1      23.289  18.447  -7.050  1.00  0.00    -0.361 N 
ATOM      7  H1  UNL     1      22.571  18.700  -6.372  1.00  0.00     0.162 HD
ENDROOT
TORSDOF 0
ENDMDL
