MODEL 2
REMARK VINA RESULT: -4.672870382      1.065      1.289
REMARK  0 active torsions:
REMARK  status: ('A' for Active; 'I' for Inactive)
ROOT
HETATM    1  O1  UNL     1      22.171  17.839  -6.557  1.00  0.00    -0.274 OA
HETATM    2  C1  UNL     1      23.223  17.849  -7.238  1.00  0.00     0.217 C 
HETATM    3  C2  UNL     1      24.262  18.907  -7.190  1.00  0.00     0.104 C 
HETATM    4  C3  UNL     1      24.948  18.666  -8.542  1.00  0.00     0.029 C 
HETATM    5  C4  UNL     1      24.969  17.155  -8.539  1.00  0.00     0.123 C 
HETATM    6  N1  UNL     1      23.601  16.851  -8.172  1.00  0.00    -0.361 N 
ATOM      7  H1  UNL     1      23.029  16.080  -8.515  1.00  0.00     0.162 HD
ENDROOT
TORSDOF 0
ENDMDL
