MODEL 6
REMARK VINA RESULT: -4.212451248      1.089      1.103
REMARK  0 active torsions:
REMARK  status: ('A' for Active; 'I' for Inactive)
ROOT
HETATM    1  O1  UNL     1      22.573  16.767  -8.111  1.00  0.00    -0.274 OA
HETATM    2  C1  UNL     1      23.571  17.523  -8.167  1.00  0.00     0.217 C 
HETATM    3  C2  UNL     1      24.130  18.285  -7.022  1.00  0.00     0.104 C 
HETATM    4  C3  UNL     1      24.913  19.365  -7.782  1.00  0.00     0.029 C 
HETATM    5  C4  UNL     1      25.504  18.511  -8.880  1.00  0.00     0.123 C 
HETATM    6  N1  UNL     1      24.338  17.780  -9.332  1.00  0.00    -0.361 N 
ATOM      7  H1  UNL     1      24.115  17.507 -10.288  1.00  0.00     0.162 HD
ENDROOT
TORSDOF 0
ENDMDL
