MODEL 16
REMARK VINA RESULT: -4.855606392      3.668      4.570
REMARK  1 active torsions:
REMARK  status: ('A' for Active; 'I' for Inactive)
REMARK    1  A    between atoms: C2_2  and  C3_3 
ROOT
HETATM    1  C3  UNL     1      26.625  19.535  -7.559  1.00  0.00     0.045 C 
HETATM    2  C4  UNL     1      26.578  19.541  -9.037  1.00  0.00     0.026 C 
HETATM    3  C5  UNL     1      25.850  20.715  -7.013  1.00  0.00     0.122 C 
HETATM    4  C6  UNL     1      26.692  21.211  -5.908  1.00  0.00     0.225 C 
HETATM    5  O1  UNL     1      26.331  22.040  -5.034  1.00  0.00    -0.273 OA
HETATM    6  N1  UNL     1      27.984  20.622  -5.957  1.00  0.00    -0.297 N 
ATOM      7  H1  UNL     1      28.741  20.748  -5.284  1.00  0.00     0.171 HD
HETATM    8  C7  UNL     1      28.013  19.832  -7.119  1.00  0.00     0.233 C 
HETATM    9  O2  UNL     1      29.030  19.414  -7.732  1.00  0.00    -0.272 OA
ENDROOT
BRANCH   1  10
HETATM   10  C2  UNL     1      26.151  18.283  -6.901  1.00  0.00     0.015 C 
HETATM   11  C1  UNL     1      24.691  18.055  -6.916  1.00  0.00     0.006 C 
ENDBRANCH   1  10
TORSDOF 1
ENDMDL
