MODEL 5
REMARK VINA RESULT: -5.747491914      1.164      1.202
REMARK  1 active torsions:
REMARK  status: ('A' for Active; 'I' for Inactive)
REMARK    1  A    between atoms: C2_2  and  C3_3 
ROOT
HETATM    1  C3  UNL     1      25.036  18.289  -7.217  1.00  0.00     0.045 C 
HETATM    2  C4  UNL     1      26.240  17.991  -6.411  1.00  0.00     0.026 C 
HETATM    3  C5  UNL     1      23.851  17.513  -6.683  1.00  0.00     0.122 C 
HETATM    4  C6  UNL     1      23.160  17.042  -7.898  1.00  0.00     0.225 C 
HETATM    5  O1  UNL     1      22.005  16.546  -7.932  1.00  0.00    -0.273 OA
HETATM    6  N1  UNL     1      23.979  17.223  -9.045  1.00  0.00    -0.297 N 
ATOM      7  H1  UNL     1      23.726  17.033 -10.015  1.00  0.00     0.171 HD
HETATM    8  C7  UNL     1      25.209  17.715  -8.576  1.00  0.00     0.233 C 
HETATM    9  O2  UNL     1      26.317  17.696  -9.174  1.00  0.00    -0.272 OA
ENDROOT
BRANCH   1  10
HETATM   10  C2  UNL     1      24.673  19.732  -7.328  1.00  0.00     0.015 C 
HETATM   11  C1  UNL     1      25.798  20.689  -7.288  1.00  0.00     0.006 C 
ENDBRANCH   1  10
TORSDOF 1
ENDMDL
