MODEL 20
REMARK VINA RESULT: -4.582418951      3.140      4.456
REMARK  1 active torsions:
REMARK  status: ('A' for Active; 'I' for Inactive)
REMARK    1  A    between atoms: C2_2  and  C3_3 
ROOT
HETATM    1  C3  UNL     1      26.518  19.383  -8.517  1.00  0.00     0.045 C 
HETATM    2  C4  UNL     1      25.914  18.108  -8.959  1.00  0.00     0.026 C 
HETATM    3  C5  UNL     1      27.872  19.124  -7.889  1.00  0.00     0.122 C 
HETATM    4  C6  UNL     1      27.894  20.016  -6.715  1.00  0.00     0.225 C 
HETATM    5  O1  UNL     1      28.911  20.292  -6.031  1.00  0.00    -0.273 OA
HETATM    6  N1  UNL     1      26.596  20.533  -6.451  1.00  0.00    -0.297 N 
ATOM      7  H1  UNL     1      26.342  21.213  -5.734  1.00  0.00     0.171 HD
HETATM    8  C7  UNL     1      25.733  19.920  -7.375  1.00  0.00     0.233 C 
HETATM    9  O2  UNL     1      24.481  19.814  -7.296  1.00  0.00    -0.272 OA
ENDROOT
BRANCH   1  10
HETATM   10  C2  UNL     1      26.653  20.434  -9.567  1.00  0.00     0.015 C 
HETATM   11  C1  UNL     1      27.566  20.120 -10.686  1.00  0.00     0.006 C 
ENDBRANCH   1  10
TORSDOF 1
ENDMDL
