MODEL 1
REMARK VINA RESULT: -6.287290432      0.000      0.000
REMARK  1 active torsions:
REMARK  status: ('A' for Active; 'I' for Inactive)
REMARK    1  A    between atoms: C2_2  and  C3_3 
ROOT
HETATM    1  C3  UNL     1      25.117  18.005  -7.513  1.00  0.00     0.045 C 
HETATM    2  C4  UNL     1      26.238  18.117  -6.555  1.00  0.00     0.026 C 
HETATM    3  C5  UNL     1      23.803  17.938  -6.765  1.00  0.00     0.122 C 
HETATM    4  C6  UNL     1      23.035  16.908  -7.490  1.00  0.00     0.225 C 
HETATM    5  O1  UNL     1      21.806  16.684  -7.351  1.00  0.00    -0.273 OA
HETATM    6  N1  UNL     1      23.876  16.188  -8.382  1.00  0.00    -0.297 N 
ATOM      7  H1  UNL     1      23.592  15.462  -9.040  1.00  0.00     0.171 HD
HETATM    8  C7  UNL     1      25.178  16.676  -8.175  1.00  0.00     0.233 C 
HETATM    9  O2  UNL     1      26.261  16.114  -8.483  1.00  0.00    -0.272 OA
ENDROOT
BRANCH   1  10
HETATM   10  C2  UNL     1      25.043  19.076  -8.549  1.00  0.00     0.015 C 
HETATM   11  C1  UNL     1      26.313  19.415  -9.224  1.00  0.00     0.006 C 
ENDBRANCH   1  10
TORSDOF 1
ENDMDL
