MODEL 20
REMARK VINA RESULT: -3.903777641      3.807      4.885
REMARK  0 active torsions:
REMARK  status: ('A' for Active; 'I' for Inactive)
ROOT
HETATM    1  O1  UNL     1      28.761  19.972  -8.142  1.00  0.00    -0.273 OA
HETATM    2  C1  UNL     1      27.518  20.049  -8.077  1.00  0.00     0.224 C 
HETATM    3  C2  UNL     1      26.558  19.616  -9.120  1.00  0.00     0.103 C 
HETATM    4  C3  UNL     1      25.526  18.753  -8.431  1.00  0.00     0.019 C 
HETATM    5  C4  UNL     1      24.689  19.611  -7.512  1.00  0.00     0.103 C 
HETATM    6  C5  UNL     1      25.495  20.660  -6.847  1.00  0.00     0.224 C 
HETATM    7  O2  UNL     1      24.963  21.617  -6.223  1.00  0.00    -0.273 OA
HETATM    8  N1  UNL     1      26.922  20.597  -6.906  1.00  0.00    -0.298 N 
ATOM      9  H1  UNL     1      27.496  20.934  -6.133  1.00  0.00     0.171 HD
ENDROOT
TORSDOF 0
ENDMDL
