MODEL 1
REMARK VINA RESULT: -5.739706108      0.000      0.000
REMARK  0 active torsions:
REMARK  status: ('A' for Active; 'I' for Inactive)
ROOT
HETATM    1  O1  UNL     1      21.893  16.028  -7.782  1.00  0.00    -0.273 OA
HETATM    2  C1  UNL     1      22.745  16.931  -7.892  1.00  0.00     0.224 C 
HETATM    3  C2  UNL     1      22.950  18.061  -6.954  1.00  0.00     0.103 C 
HETATM    4  C3  UNL     1      24.428  18.102  -6.638  1.00  0.00     0.019 C 
HETATM    5  C4  UNL     1      25.193  18.521  -7.870  1.00  0.00     0.103 C 
HETATM    6  C5  UNL     1      24.608  17.950  -9.106  1.00  0.00     0.224 C 
HETATM    7  O2  UNL     1      24.947  18.349 -10.252  1.00  0.00    -0.273 OA
HETATM    8  N1  UNL     1      23.628  16.914  -9.008  1.00  0.00    -0.298 N 
ATOM      9  H1  UNL     1      23.563  16.183  -9.718  1.00  0.00     0.171 HD
ENDROOT
TORSDOF 0
ENDMDL
