MODEL 2
REMARK VINA RESULT: -5.646313994      0.578      2.899
REMARK  0 active torsions:
REMARK  status: ('A' for Active; 'I' for Inactive)
ROOT
HETATM    1  O1  UNL     1      25.427  17.702  -9.851  1.00  0.00    -0.273 OA
HETATM    2  C1  UNL     1      24.694  17.572  -8.852  1.00  0.00     0.224 C 
HETATM    3  C2  UNL     1      25.027  17.970  -7.463  1.00  0.00     0.103 C 
HETATM    4  C3  UNL     1      23.860  18.783  -6.952  1.00  0.00     0.019 C 
HETATM    5  C4  UNL     1      22.658  17.884  -6.784  1.00  0.00     0.103 C 
HETATM    6  C5  UNL     1      22.574  16.866  -7.857  1.00  0.00     0.224 C 
HETATM    7  O2  UNL     1      21.789  15.883  -7.786  1.00  0.00    -0.273 OA
HETATM    8  N1  UNL     1      23.404  16.991  -9.014  1.00  0.00    -0.298 N 
ATOM      9  H1  UNL     1      23.082  16.674  -9.929  1.00  0.00     0.171 HD
ENDROOT
TORSDOF 0
ENDMDL
