MODEL 5
REMARK VINA RESULT: -4.445653282      1.210      3.197
REMARK  0 active torsions:
REMARK  status: ('A' for Active; 'I' for Inactive)
ROOT
HETATM    1  O1  UNL     1      21.827  15.022  -7.465  1.00  0.00    -0.271 OA
HETATM    2  C1  UNL     1      22.747  15.845  -7.576  1.00  0.00     0.243 C 
HETATM    3  C2  UNL     1      22.988  17.007  -6.662  1.00  0.00     0.227 C 
HETATM    4  N1  UNL     1      24.438  17.023  -6.657  1.00  0.00    -0.334 N 
ATOM      5  H1  UNL     1      25.048  17.253  -5.873  1.00  0.00     0.164 HD
HETATM    6  C3  UNL     1      24.835  16.652  -7.966  1.00  0.00     0.323 C 
HETATM    7  O2  UNL     1      25.963  16.958  -8.487  1.00  0.00    -0.247 OA
HETATM    8  N2  UNL     1      23.790  15.908  -8.572  1.00  0.00    -0.278 N 
ATOM      9  H2  UNL     1      23.777  15.505  -9.509  1.00  0.00     0.173 HD
ENDROOT
TORSDOF 0
ENDMDL
