MODEL 6
REMARK VINA RESULT: -4.393903759      1.384      2.784
REMARK  0 active torsions:
REMARK  status: ('A' for Active; 'I' for Inactive)
ROOT
HETATM    1  O1  UNL     1      21.985  16.803  -6.323  1.00  0.00    -0.271 OA
HETATM    2  C1  UNL     1      23.062  16.599  -6.903  1.00  0.00     0.243 C 
HETATM    3  C2  UNL     1      23.306  15.539  -7.934  1.00  0.00     0.227 C 
HETATM    4  N1  UNL     1      24.220  16.249  -8.808  1.00  0.00    -0.334 N 
ATOM      5  H1  UNL     1      24.276  16.182  -9.824  1.00  0.00     0.164 HD
HETATM    6  C3  UNL     1      25.021  17.055  -7.960  1.00  0.00     0.323 C 
HETATM    7  O2  UNL     1      26.187  17.481  -8.269  1.00  0.00    -0.247 OA
HETATM    8  N2  UNL     1      24.318  17.294  -6.751  1.00  0.00    -0.278 N 
ATOM      9  H2  UNL     1      24.632  17.838  -5.948  1.00  0.00     0.173 HD
ENDROOT
TORSDOF 0
ENDMDL
