MODEL 19
REMARK VINA RESULT: -3.220507562      8.919      9.750
REMARK  0 active torsions:
REMARK  status: ('A' for Active; 'I' for Inactive)
ROOT
HETATM    1  O1  UNL     1      16.257  12.304 -14.180  1.00  0.00    -0.271 OA
HETATM    2  C1  UNL     1      17.445  12.266 -13.828  1.00  0.00     0.243 C 
HETATM    3  C2  UNL     1      18.025  11.307 -12.833  1.00  0.00     0.227 C 
HETATM    4  N1  UNL     1      19.328  11.088 -13.430  1.00  0.00    -0.334 N 
ATOM      5  H1  UNL     1      19.861  10.219 -13.441  1.00  0.00     0.164 HD
HETATM    6  C3  UNL     1      19.710  12.330 -13.997  1.00  0.00     0.323 C 
HETATM    7  O2  UNL     1      20.922  12.673 -14.222  1.00  0.00    -0.247 OA
HETATM    8  N2  UNL     1      18.544  13.095 -14.259  1.00  0.00    -0.278 N 
ATOM      9  H2  UNL     1      18.494  14.030 -14.665  1.00  0.00     0.173 HD
ENDROOT
TORSDOF 0
ENDMDL
