MODEL 15
REMARK VINA RESULT: -3.475752393      9.046      9.406
REMARK  0 active torsions:
REMARK  status: ('A' for Active; 'I' for Inactive)
ROOT
HETATM    1  O1  UNL     1      20.548  12.464 -14.015  1.00  0.00    -0.271 OA
HETATM    2  C1  UNL     1      19.324  12.294 -13.907  1.00  0.00     0.243 C 
HETATM    3  C2  UNL     1      18.661  11.040 -13.424  1.00  0.00     0.227 C 
HETATM    4  N1  UNL     1      17.545  11.614 -12.697  1.00  0.00    -0.334 N 
ATOM      5  H1  UNL     1      17.128  11.264 -11.835  1.00  0.00     0.164 HD
HETATM    6  C3  UNL     1      17.152  12.761 -13.431  1.00  0.00     0.323 C 
HETATM    7  O2  UNL     1      15.983  13.278 -13.381  1.00  0.00    -0.247 OA
HETATM    8  N2  UNL     1      18.253  13.214 -14.204  1.00  0.00    -0.278 N 
ATOM      9  H2  UNL     1      18.281  14.016 -14.833  1.00  0.00     0.173 HD
ENDROOT
TORSDOF 0
ENDMDL
