MODEL 3
REMARK VINA RESULT: -4.495829580      1.881      2.689
REMARK  0 active torsions:
REMARK  status: ('A' for Active; 'I' for Inactive)
ROOT
HETATM    1  O1  UNL     1      22.122  16.667  -6.323  1.00  0.00    -0.271 OA
HETATM    2  C1  UNL     1      23.145  16.656  -7.024  1.00  0.00     0.243 C 
HETATM    3  C2  UNL     1      24.212  17.708  -7.018  1.00  0.00     0.227 C 
HETATM    4  N1  UNL     1      25.382  16.875  -7.219  1.00  0.00    -0.334 N 
ATOM      5  H1  UNL     1      26.308  17.009  -6.814  1.00  0.00     0.164 HD
HETATM    6  C3  UNL     1      24.974  15.837  -8.093  1.00  0.00     0.323 C 
HETATM    7  O2  UNL     1      25.774  15.173  -8.840  1.00  0.00    -0.247 OA
HETATM    8  N2  UNL     1      23.569  15.674  -7.992  1.00  0.00    -0.278 N 
ATOM      9  H2  UNL     1      22.983  15.008  -8.496  1.00  0.00     0.173 HD
ENDROOT
TORSDOF 0
ENDMDL
