MODEL 16
REMARK VINA RESULT: -3.137737781      3.843      4.487
REMARK  0 active torsions:
REMARK  status: ('A' for Active; 'I' for Inactive)
ROOT
HETATM    1  O1  UNL     1      24.422  19.479  -7.059  1.00  0.00    -0.272 OA
HETATM    2  C1  UNL     1      25.508  20.090  -7.349  1.00  0.00     0.234 C 
HETATM    3  C2  UNL     1      26.083  19.997  -8.715  1.00  0.00     0.187 C 
HETATM    4  S1  UNL     1      27.870  20.210  -8.317  1.00  0.00    -0.060 SA
HETATM    5  C3  UNL     1      27.636  20.863  -6.678  1.00  0.00     0.286 C 
HETATM    6  O2  UNL     1      28.523  21.226  -5.899  1.00  0.00    -0.260 OA
HETATM    7  N1  UNL     1      26.243  20.877  -6.464  1.00  0.00    -0.288 N 
ATOM      8  H1  UNL     1      25.806  21.419  -5.719  1.00  0.00     0.172 HD
ENDROOT
TORSDOF 0
ENDMDL
