MODEL 12
REMARK VINA RESULT: -3.228473592      3.630      3.901
REMARK  0 active torsions:
REMARK  status: ('A' for Active; 'I' for Inactive)
ROOT
HETATM    1  O1  UNL     1      28.490  21.248  -6.264  1.00  0.00    -0.272 OA
HETATM    2  C1  UNL     1      27.683  20.493  -6.909  1.00  0.00     0.234 C 
HETATM    3  C2  UNL     1      27.954  20.136  -8.324  1.00  0.00     0.187 C 
HETATM    4  S1  UNL     1      26.227  19.906  -8.926  1.00  0.00    -0.060 SA
HETATM    5  C3  UNL     1      25.469  19.782  -7.319  1.00  0.00     0.286 C 
HETATM    6  O2  UNL     1      24.272  19.593  -7.086  1.00  0.00    -0.260 OA
HETATM    7  N1  UNL     1      26.514  19.944  -6.387  1.00  0.00    -0.288 N 
ATOM      8  H1  UNL     1      26.421  19.679  -5.406  1.00  0.00     0.172 HD
ENDROOT
TORSDOF 0
ENDMDL
