MODEL 3
REMARK VINA RESULT: -4.137981224      1.220      2.918
REMARK  0 active torsions:
REMARK  status: ('A' for Active; 'I' for Inactive)
ROOT
HETATM    1  O1  UNL     1      21.751  16.530  -7.988  1.00  0.00    -0.272 OA
HETATM    2  C1  UNL     1      22.880  17.088  -7.761  1.00  0.00     0.234 C 
HETATM    3  C2  UNL     1      23.013  18.119  -6.702  1.00  0.00     0.187 C 
HETATM    4  S1  UNL     1      24.393  19.117  -7.406  1.00  0.00    -0.060 SA
HETATM    5  C3  UNL     1      24.936  17.903  -8.590  1.00  0.00     0.286 C 
HETATM    6  O2  UNL     1      25.886  18.013  -9.370  1.00  0.00    -0.260 OA
HETATM    7  N1  UNL     1      24.061  16.808  -8.447  1.00  0.00    -0.288 N 
ATOM      8  H1  UNL     1      24.274  15.882  -8.818  1.00  0.00     0.172 HD
ENDROOT
TORSDOF 0
ENDMDL
