MODEL 5
REMARK VINA RESULT: -3.828883334      1.629      2.874
REMARK  0 active torsions:
REMARK  status: ('A' for Active; 'I' for Inactive)
ROOT
HETATM    1  O1  UNL     1      22.557  16.892  -8.098  1.00  0.00    -0.272 OA
HETATM    2  C1  UNL     1      23.674  17.512  -8.022  1.00  0.00     0.234 C 
HETATM    3  C2  UNL     1      24.021  18.293  -6.808  1.00  0.00     0.187 C 
HETATM    4  S1  UNL     1      25.113  19.573  -7.562  1.00  0.00    -0.060 SA
HETATM    5  C3  UNL     1      25.394  18.718  -9.098  1.00  0.00     0.286 C 
HETATM    6  O2  UNL     1      26.102  19.105 -10.034  1.00  0.00    -0.260 OA
HETATM    7  N1  UNL     1      24.648  17.526  -9.018  1.00  0.00    -0.288 N 
ATOM      8  H1  UNL     1      24.809  16.734  -9.641  1.00  0.00     0.172 HD
ENDROOT
TORSDOF 0
ENDMDL
