MODEL 17
REMARK VINA RESULT: -3.097617580      3.852      4.853
REMARK  0 active torsions:
REMARK  status: ('A' for Active; 'I' for Inactive)
ROOT
HETATM    1  O1  UNL     1      24.596  19.903  -7.071  1.00  0.00    -0.272 OA
HETATM    2  C1  UNL     1      25.731  20.488  -6.987  1.00  0.00     0.234 C 
HETATM    3  C2  UNL     1      25.809  21.949  -6.736  1.00  0.00     0.187 C 
HETATM    4  S1  UNL     1      27.399  22.329  -7.588  1.00  0.00    -0.060 SA
HETATM    5  C3  UNL     1      27.980  20.649  -7.688  1.00  0.00     0.286 C 
HETATM    6  O2  UNL     1      29.054  20.272  -8.167  1.00  0.00    -0.260 OA
HETATM    7  N1  UNL     1      26.966  19.856  -7.115  1.00  0.00    -0.288 N 
ATOM      8  H1  UNL     1      27.124  18.893  -6.816  1.00  0.00     0.172 HD
ENDROOT
TORSDOF 0
ENDMDL
