MODEL 13
REMARK VINA RESULT: -3.182750273      4.361      4.908
REMARK  0 active torsions:
REMARK  status: ('A' for Active; 'I' for Inactive)
ROOT
HETATM    1  O1  UNL     1      28.170  20.466  -5.175  1.00  0.00    -0.271 OA
HETATM    2  C1  UNL     1      27.139  20.283  -5.869  1.00  0.00     0.241 A 
HETATM    3  C2  UNL     1      26.307  21.370  -6.412  1.00  0.00     0.225 A 
HETATM    4  N1  UNL     1      25.272  20.670  -7.116  1.00  0.00    -0.361 N 
ATOM      5  H1  UNL     1      24.512  21.129  -7.619  1.00  0.00     0.162 HD
HETATM    6  C3  UNL     1      25.413  19.396  -7.037  1.00  0.00     0.154 A 
HETATM    7  S1  UNL     1      24.334  18.174  -7.777  1.00  0.00    -0.013 SA
HETATM    8  N2  UNL     1      26.555  19.060  -6.275  1.00  0.00    -0.306 N 
ATOM      9  H2  UNL     1      26.892  18.121  -6.060  1.00  0.00     0.171 HD
ENDROOT
TORSDOF 0
ENDMDL
