MODEL 11
REMARK VINA RESULT: -3.198342267      1.392      1.479
REMARK  0 active torsions:
REMARK  status: ('A' for Active; 'I' for Inactive)
ROOT
HETATM    1  O1  UNL     1      21.969  17.854  -6.622  1.00  0.00    -0.271 OA
HETATM    2  C1  UNL     1      23.083  17.869  -7.203  1.00  0.00     0.241 A 
HETATM    3  C2  UNL     1      24.049  18.977  -7.104  1.00  0.00     0.225 A 
HETATM    4  N1  UNL     1      25.138  18.535  -7.926  1.00  0.00    -0.361 N 
ATOM      5  H1  UNL     1      25.991  19.073  -8.080  1.00  0.00     0.162 HD
HETATM    6  C3  UNL     1      24.913  17.382  -8.445  1.00  0.00     0.154 A 
HETATM    7  S1  UNL     1      26.021  16.487  -9.528  1.00  0.00    -0.013 SA
HETATM    8  N2  UNL     1      23.650  16.887  -8.049  1.00  0.00    -0.306 N 
ATOM      9  H2  UNL     1      23.230  15.997  -8.319  1.00  0.00     0.171 HD
ENDROOT
TORSDOF 0
ENDMDL
