MODEL 7
REMARK VINA RESULT: -3.352819687      3.934      4.650
REMARK  0 active torsions:
REMARK  status: ('A' for Active; 'I' for Inactive)
ROOT
HETATM    1  O1  UNL     1      28.068  20.315  -6.414  1.00  0.00    -0.271 OA
HETATM    2  C1  UNL     1      27.068  19.848  -7.015  1.00  0.00     0.241 A 
HETATM    3  C2  UNL     1      26.893  19.886  -8.477  1.00  0.00     0.225 A 
HETATM    4  N1  UNL     1      25.625  19.244  -8.671  1.00  0.00    -0.361 N 
ATOM      5  H1  UNL     1      25.193  19.099  -9.584  1.00  0.00     0.162 HD
HETATM    6  C3  UNL     1      25.098  18.872  -7.561  1.00  0.00     0.154 A 
HETATM    7  S1  UNL     1      23.526  18.038  -7.374  1.00  0.00    -0.013 SA
HETATM    8  N2  UNL     1      25.930  19.209  -6.468  1.00  0.00    -0.306 N 
ATOM      9  H2  UNL     1      25.747  19.027  -5.481  1.00  0.00     0.171 HD
ENDROOT
TORSDOF 0
ENDMDL
