MODEL 5
REMARK VINA RESULT: -3.580821789      1.660      1.779
REMARK  0 active torsions:
REMARK  status: ('A' for Active; 'I' for Inactive)
ROOT
HETATM    1  O1  UNL     1      23.055  16.752  -8.002  1.00  0.00    -0.271 OA
HETATM    2  C1  UNL     1      23.907  17.667  -8.130  1.00  0.00     0.241 A 
HETATM    3  C2  UNL     1      24.171  18.695  -7.110  1.00  0.00     0.225 A 
HETATM    4  N1  UNL     1      25.202  19.492  -7.708  1.00  0.00    -0.361 N 
ATOM      5  H1  UNL     1      25.627  20.305  -7.262  1.00  0.00     0.162 HD
HETATM    6  C3  UNL     1      25.529  19.061  -8.873  1.00  0.00     0.154 A 
HETATM    7  S1  UNL     1      26.772  19.776  -9.944  1.00  0.00    -0.013 SA
HETATM    8  N2  UNL     1      24.770  17.921  -9.222  1.00  0.00    -0.306 N 
ATOM      9  H2  UNL     1      24.832  17.387 -10.089  1.00  0.00     0.171 HD
ENDROOT
TORSDOF 0
ENDMDL
