MODEL 2
REMARK VINA RESULT: -4.539799758      1.137      1.799
REMARK  0 active torsions:
REMARK  status: ('A' for Active; 'I' for Inactive)
ROOT
HETATM    1  O1  UNL     1      22.068  17.927  -6.290  1.00  0.00    -0.271 OA
HETATM    2  C1  UNL     1      22.994  17.898  -7.139  1.00  0.00     0.241 A 
HETATM    3  C2  UNL     1      23.128  16.862  -8.177  1.00  0.00     0.225 A 
HETATM    4  N1  UNL     1      24.314  17.255  -8.881  1.00  0.00    -0.361 N 
ATOM      5  H1  UNL     1      24.701  16.747  -9.676  1.00  0.00     0.162 HD
HETATM    6  C3  UNL     1      24.833  18.323  -8.391  1.00  0.00     0.154 A 
HETATM    7  S1  UNL     1      26.314  19.135  -8.982  1.00  0.00    -0.013 SA
HETATM    8  N2  UNL     1      24.075  18.797  -7.296  1.00  0.00    -0.306 N 
ATOM      9  H2  UNL     1      24.268  19.624  -6.731  1.00  0.00     0.171 HD
ENDROOT
TORSDOF 0
ENDMDL
