MODEL 1
REMARK VINA RESULT: -4.599600695      0.000      0.000
REMARK  0 active torsions:
REMARK  status: ('A' for Active; 'I' for Inactive)
ROOT
HETATM    1  O1  UNL     1      21.416  16.107  -7.673  1.00  0.00    -0.271 OA
HETATM    2  C1  UNL     1      22.424  16.856  -7.718  1.00  0.00     0.241 A 
HETATM    3  C2  UNL     1      22.660  17.976  -6.790  1.00  0.00     0.225 A 
HETATM    4  N1  UNL     1      23.912  18.513  -7.238  1.00  0.00    -0.361 N 
ATOM      5  H1  UNL     1      24.377  19.312  -6.807  1.00  0.00     0.162 HD
HETATM    6  C3  UNL     1      24.379  17.869  -8.246  1.00  0.00     0.154 A 
HETATM    7  S1  UNL     1      25.913  18.224  -9.097  1.00  0.00    -0.013 SA
HETATM    8  N2  UNL     1      23.515  16.814  -8.617  1.00  0.00    -0.306 N 
ATOM      9  H2  UNL     1      23.650  16.153  -9.383  1.00  0.00     0.171 HD
ENDROOT
TORSDOF 0
ENDMDL
