MODEL 14
REMARK VINA RESULT: -3.111053194      4.043      4.600
REMARK  0 active torsions:
REMARK  status: ('A' for Active; 'I' for Inactive)
ROOT
HETATM    1  O1  UNL     1      28.398  20.596  -8.064  1.00  0.00    -0.271 OA
HETATM    2  C1  UNL     1      27.381  19.916  -7.778  1.00  0.00     0.241 A 
HETATM    3  C2  UNL     1      26.854  19.757  -6.412  1.00  0.00     0.225 A 
HETATM    4  N1  UNL     1      25.711  18.910  -6.599  1.00  0.00    -0.361 N 
ATOM      5  H1  UNL     1      25.103  18.597  -5.842  1.00  0.00     0.162 HD
HETATM    6  C3  UNL     1      25.544  18.592  -7.832  1.00  0.00     0.154 A 
HETATM    7  S1  UNL     1      24.238  17.554  -8.478  1.00  0.00    -0.013 SA
HETATM    8  N2  UNL     1      26.543  19.176  -8.644  1.00  0.00    -0.306 N 
ATOM      9  H2  UNL     1      26.641  19.082  -9.656  1.00  0.00     0.171 HD
ENDROOT
TORSDOF 0
ENDMDL
