MODEL 1
REMARK VINA RESULT: -8.005307703      0.000      0.000
REMARK  5 active torsions:
REMARK  status: ('A' for Active; 'I' for Inactive)
REMARK    1  A    between atoms: C6_8  and  N2_9 
REMARK       I    between atoms: N2_9  and  C7_11 
REMARK    2  A    between atoms: C7_11  and  C8_13 
REMARK    3  A    between atoms: C8_13  and  S1_14 
REMARK    4  A    between atoms: S1_14  and  C9_15 
REMARK    5  A    between atoms: N4_22  and  C13_23 
ROOT
HETATM    1  C9  UNL     1      20.019 -35.862  -5.778  1.00  0.00     0.155 A 
HETATM    2  N3  UNL     1      20.480 -36.878  -6.500  1.00  0.00    -0.338 N 
ATOM      3  H3  UNL     1      20.844 -37.704  -6.025  1.00  0.00     0.168 HD
HETATM    4  C10 UNL     1      20.477 -36.837  -7.866  1.00  0.00     0.034 A 
HETATM    5  C11 UNL     1      19.977 -35.697  -8.416  1.00  0.00     0.091 A 
HETATM    6  C12 UNL     1      19.510 -34.668  -7.656  1.00  0.00     0.273 A 
HETATM    7  O2  UNL     1      19.045 -33.610  -8.158  1.00  0.00    -0.266 OA
HETATM    8  N4  UNL     1      19.522 -34.729  -6.291  1.00  0.00    -0.257 N 
HETATM    9  S2  UNL     1      20.113 -35.903 -10.178  1.00  0.00    -0.122 SA
HETATM   10  C19 UNL     1      21.363 -37.263 -10.099  1.00  0.00     0.086 C 
HETATM   11  C20 UNL     1      20.930 -37.866  -8.783  1.00  0.00     0.069 C 
ENDROOT
BRANCH   1  12
HETATM   12  S1  UNL     1      20.050 -35.976  -3.971  1.00  0.00    -0.084 SA
BRANCH  12  13
HETATM   13  C8  UNL     1      21.746 -35.667  -3.371  1.00  0.00     0.185 C 
BRANCH  13  14
HETATM   14  C7  UNL     1      22.718 -35.719  -4.490  1.00  0.00     0.233 C 
HETATM   15  N2  UNL     1      22.995 -34.600  -5.309  1.00  0.00    -0.306 N 
ATOM     16  H2  UNL     1      22.515 -33.717  -5.136  1.00  0.00     0.171 HD
HETATM   17  O1  UNL     1      23.330 -36.789  -4.736  1.00  0.00    -0.272 OA
BRANCH  15  18
HETATM   18  C6  UNL     1      23.950 -34.694  -6.388  1.00  0.00     0.152 A 
HETATM   19  N1  UNL     1      23.977 -35.558  -7.383  1.00  0.00    -0.335 N 
HETATM   20  C5  UNL     1      24.925 -35.492  -8.273  1.00  0.00     0.051 A 
ATOM     21  H1  UNL     1      23.256 -36.276  -7.456  1.00  0.00     0.168 HD
HETATM   22  C4  UNL     1      25.075 -36.346  -9.384  1.00  0.00     0.031 A 
HETATM   23  C21 UNL     1      25.866 -34.510  -8.130  1.00  0.00     0.035 A 
HETATM   24  C3  UNL     1      26.108 -36.173 -10.241  1.00  0.00     0.009 A 
HETATM   25  C2  UNL     1      27.061 -35.194 -10.115  1.00  0.00    -0.061 A 
HETATM   26  C1  UNL     1      28.170 -35.037 -11.066  1.00  0.00     0.048 C 
HETATM   27  C22 UNL     1      26.930 -34.351  -9.036  1.00  0.00     0.028 A 
HETATM   28  S3  UNL     1      25.326 -33.730  -6.706  1.00  0.00    -0.052 SA
ENDBRANCH  15  18
ENDBRANCH  13  14
ENDBRANCH  12  13
ENDBRANCH   1  12
BRANCH   8  29
HETATM   29  C13 UNL     1      19.053 -33.700  -5.449  1.00  0.00     0.044 A 
HETATM   30  C14 UNL     1      19.961 -32.824  -4.889  1.00  0.00     0.030 A 
HETATM   31  C15 UNL     1      19.554 -31.788  -4.048  1.00  0.00     0.002 A 
HETATM   32  C16 UNL     1      18.220 -31.608  -3.752  1.00  0.00     0.000 A 
HETATM   33  C17 UNL     1      17.324 -32.490  -4.318  1.00  0.00     0.002 A 
HETATM   34  C18 UNL     1      17.717 -33.517  -5.150  1.00  0.00     0.030 A 
ENDBRANCH   8  29
TORSDOF 5
ENDMDL
