MODEL 3
REMARK VINA RESULT: -7.586430291      2.114      7.784
REMARK  5 active torsions:
REMARK  status: ('A' for Active; 'I' for Inactive)
REMARK    1  A    between atoms: C6_8  and  N2_9 
REMARK       I    between atoms: N2_9  and  C7_11 
REMARK    2  A    between atoms: C7_11  and  C8_13 
REMARK    3  A    between atoms: C8_13  and  S1_14 
REMARK    4  A    between atoms: S1_14  and  C9_15 
REMARK    5  A    between atoms: N4_22  and  C13_23 
ROOT
HETATM    1  C9  UNL     1      23.510 -36.049  -8.041  1.00  0.00     0.155 A 
HETATM    2  N3  UNL     1      22.278 -36.490  -7.810  1.00  0.00    -0.338 N 
ATOM      3  H3  UNL     1      21.743 -36.096  -7.036  1.00  0.00     0.168 HD
HETATM    4  C10 UNL     1      21.714 -37.462  -8.588  1.00  0.00     0.034 A 
HETATM    5  C11 UNL     1      22.499 -37.932  -9.596  1.00  0.00     0.091 A 
HETATM    6  C12 UNL     1      23.759 -37.465  -9.814  1.00  0.00     0.273 A 
HETATM    7  O2  UNL     1      24.491 -37.895 -10.745  1.00  0.00    -0.266 OA
HETATM    8  N4  UNL     1      24.304 -36.493  -9.024  1.00  0.00    -0.257 N 
HETATM    9  S2  UNL     1      21.539 -39.182 -10.421  1.00  0.00    -0.122 SA
HETATM   10  C19 UNL     1      20.346 -39.433  -9.031  1.00  0.00     0.086 C 
HETATM   11  C20 UNL     1      20.385 -38.031  -8.469  1.00  0.00     0.069 C 
ENDROOT
BRANCH   1  12
HETATM   12  S1  UNL     1      24.201 -34.760  -6.974  1.00  0.00    -0.084 SA
BRANCH  12  13
HETATM   13  C8  UNL     1      23.745 -35.097  -5.239  1.00  0.00     0.185 C 
BRANCH  13  14
HETATM   14  C7  UNL     1      22.379 -34.598  -4.947  1.00  0.00     0.233 C 
HETATM   15  N2  UNL     1      22.101 -33.231  -4.719  1.00  0.00    -0.306 N 
ATOM     16  H2  UNL     1      22.860 -32.550  -4.753  1.00  0.00     0.171 HD
HETATM   17  O1  UNL     1      21.416 -35.406  -4.897  1.00  0.00    -0.272 OA
BRANCH  15  18
HETATM   18  C6  UNL     1      20.756 -32.787  -4.438  1.00  0.00     0.152 A 
HETATM   19  N1  UNL     1      19.624 -33.252  -4.927  1.00  0.00    -0.335 N 
HETATM   20  C5  UNL     1      18.493 -32.722  -4.558  1.00  0.00     0.051 A 
ATOM     21  H1  UNL     1      19.634 -34.024  -5.593  1.00  0.00     0.168 HD
HETATM   22  C4  UNL     1      17.215 -33.118  -4.998  1.00  0.00     0.031 A 
HETATM   23  C21 UNL     1      18.535 -31.691  -3.661  1.00  0.00     0.035 A 
HETATM   24  C3  UNL     1      16.110 -32.485  -4.537  1.00  0.00     0.009 A 
HETATM   25  C2  UNL     1      16.131 -31.449  -3.638  1.00  0.00    -0.061 A 
HETATM   26  C1  UNL     1      14.911 -30.786  -3.159  1.00  0.00     0.048 C 
HETATM   27  C22 UNL     1      17.373 -31.050  -3.197  1.00  0.00     0.028 A 
HETATM   28  S3  UNL     1      20.220 -31.539  -3.400  1.00  0.00    -0.052 SA
ENDBRANCH  15  18
ENDBRANCH  13  14
ENDBRANCH  12  13
ENDBRANCH   1  12
BRANCH   8  29
HETATM   29  C13 UNL     1      25.601 -35.967  -9.197  1.00  0.00     0.044 A 
HETATM   30  C14 UNL     1      25.760 -34.784  -9.888  1.00  0.00     0.030 A 
HETATM   31  C15 UNL     1      27.019 -34.218 -10.090  1.00  0.00     0.002 A 
HETATM   32  C16 UNL     1      28.151 -34.833  -9.599  1.00  0.00     0.000 A 
HETATM   33  C17 UNL     1      27.978 -36.015  -8.911  1.00  0.00     0.002 A 
HETATM   34  C18 UNL     1      26.737 -36.581  -8.707  1.00  0.00     0.030 A 
ENDBRANCH   8  29
TORSDOF 5
ENDMDL
