MODEL 2
REMARK VINA RESULT: -7.691817512      2.170      7.806
REMARK  5 active torsions:
REMARK  status: ('A' for Active; 'I' for Inactive)
REMARK    1  A    between atoms: C6_8  and  N2_9 
REMARK       I    between atoms: N2_9  and  C7_11 
REMARK    2  A    between atoms: C7_11  and  C8_13 
REMARK    3  A    between atoms: C8_13  and  S1_14 
REMARK    4  A    between atoms: S1_14  and  C9_15 
REMARK    5  A    between atoms: N4_22  and  C13_23 
ROOT
HETATM    1  C9  UNL     1      23.654 -36.288  -8.137  1.00  0.00     0.155 A 
HETATM    2  N3  UNL     1      22.441 -36.780  -7.913  1.00  0.00    -0.338 N 
ATOM      3  H3  UNL     1      21.906 -36.446  -7.111  1.00  0.00     0.168 HD
HETATM    4  C10 UNL     1      21.895 -37.726  -8.735  1.00  0.00     0.034 A 
HETATM    5  C11 UNL     1      22.677 -38.116  -9.778  1.00  0.00     0.091 A 
HETATM    6  C12 UNL     1      23.919 -37.597  -9.989  1.00  0.00     0.273 A 
HETATM    7  O2  UNL     1      24.648 -37.953 -10.952  1.00  0.00    -0.266 OA
HETATM    8  N4  UNL     1      24.446 -36.652  -9.155  1.00  0.00    -0.257 N 
HETATM    9  S2  UNL     1      21.744 -39.350 -10.656  1.00  0.00    -0.122 SA
HETATM   10  C19 UNL     1      20.582 -39.713  -9.264  1.00  0.00     0.086 C 
HETATM   11  C20 UNL     1      20.586 -38.343  -8.628  1.00  0.00     0.069 C 
ENDROOT
BRANCH   1  12
HETATM   12  S1  UNL     1      24.322 -35.036  -7.012  1.00  0.00    -0.084 SA
BRANCH  12  13
HETATM   13  C8  UNL     1      23.979 -35.525  -5.287  1.00  0.00     0.185 C 
BRANCH  13  14
HETATM   14  C7  UNL     1      22.834 -34.756  -4.740  1.00  0.00     0.233 C 
HETATM   15  N2  UNL     1      21.997 -33.957  -5.552  1.00  0.00    -0.306 N 
ATOM     16  H2  UNL     1      22.174 -33.898  -6.555  1.00  0.00     0.171 HD
HETATM   17  O1  UNL     1      22.583 -34.803  -3.509  1.00  0.00    -0.272 OA
BRANCH  15  18
HETATM   18  C6  UNL     1      20.893 -33.225  -4.978  1.00  0.00     0.152 A 
HETATM   19  N1  UNL     1      20.929 -32.117  -4.266  1.00  0.00    -0.335 N 
HETATM   20  C5  UNL     1      19.821 -31.594  -3.824  1.00  0.00     0.051 A 
ATOM     21  H1  UNL     1      21.823 -31.670  -4.061  1.00  0.00     0.168 HD
HETATM   22  C4  UNL     1      19.713 -30.418  -3.056  1.00  0.00     0.031 A 
HETATM   23  C21 UNL     1      18.650 -32.231  -4.128  1.00  0.00     0.035 A 
HETATM   24  C3  UNL     1      18.499 -29.975  -2.656  1.00  0.00     0.009 A 
HETATM   25  C2  UNL     1      17.313 -30.599  -2.950  1.00  0.00    -0.061 A 
HETATM   26  C1  UNL     1      16.012 -30.088  -2.499  1.00  0.00     0.048 C 
HETATM   27  C22 UNL     1      17.400 -31.750  -3.701  1.00  0.00     0.028 A 
HETATM   28  S3  UNL     1      19.218 -33.563  -5.040  1.00  0.00    -0.052 SA
ENDBRANCH  15  18
ENDBRANCH  13  14
ENDBRANCH  12  13
ENDBRANCH   1  12
BRANCH   8  29
HETATM   29  C13 UNL     1      25.723 -36.076  -9.318  1.00  0.00     0.044 A 
HETATM   30  C14 UNL     1      25.830 -34.840  -9.920  1.00  0.00     0.030 A 
HETATM   31  C15 UNL     1      27.068 -34.223 -10.108  1.00  0.00     0.002 A 
HETATM   32  C16 UNL     1      28.229 -34.839  -9.692  1.00  0.00     0.000 A 
HETATM   33  C17 UNL     1      28.106 -36.075  -9.092  1.00  0.00     0.002 A 
HETATM   34  C18 UNL     1      26.888 -36.692  -8.902  1.00  0.00     0.030 A 
ENDBRANCH   8  29
TORSDOF 5
ENDMDL
