MODEL 2
REMARK VINA RESULT: -6.718711181      0.079      1.026
REMARK  5 active torsions:
REMARK  status: ('A' for Active; 'I' for Inactive)
REMARK    1  A    between atoms: C1_2  and  C2_4 
REMARK    2  A    between atoms: C2_4  and  C3_5 
REMARK    3  A    between atoms: C3_5  and  C4_6 
REMARK    4  A    between atoms: C4_6  and  C5_7 
REMARK    5  A    between atoms: C5_7  and  C6_8 
ROOT
HETATM    1  C3  UNL     1      57.057 358.869  86.098  1.00  0.00     0.011 C 
ENDROOT
BRANCH   1   2
HETATM    2  C2  UNL     1      58.535 358.705  85.841  1.00  0.00     0.113 C 
BRANCH   2   3
HETATM    3  C1  UNL     1      59.232 359.986  85.714  1.00  0.00     0.172 C 
HETATM    4  O1  UNL     1      59.224 360.596  84.622  1.00  0.00    -0.648 OA
HETATM    5  O2  UNL     1      59.904 360.528  86.809  1.00  0.00    -0.648 OA
ENDBRANCH   2   3
ENDBRANCH   1   2
BRANCH   1   6
HETATM    6  C4  UNL     1      56.300 357.828  85.342  1.00  0.00     0.011 C 
BRANCH   6   7
HETATM    7  C5  UNL     1      55.051 358.324  84.668  1.00  0.00     0.113 C 
BRANCH   7   8
HETATM    8  C6  UNL     1      54.410 357.204  83.914  1.00  0.00     0.172 C 
HETATM    9  O3  UNL     1      53.222 357.386  83.505  1.00  0.00    -0.648 OA
HETATM   10  O4  UNL     1      55.075 356.002  83.659  1.00  0.00    -0.648 OA
ENDBRANCH   7   8
ENDBRANCH   6   7
ENDBRANCH   1   6
TORSDOF 5
ENDMDL
