MODEL 4
REMARK VINA RESULT: -6.690944788      0.140      5.582
REMARK  5 active torsions:
REMARK  status: ('A' for Active; 'I' for Inactive)
REMARK    1  A    between atoms: C1_2  and  C2_4 
REMARK    2  A    between atoms: C2_4  and  C3_5 
REMARK    3  A    between atoms: C3_5  and  C4_6 
REMARK    4  A    between atoms: C4_6  and  C5_7 
REMARK    5  A    between atoms: C5_7  and  C6_8 
ROOT
HETATM    1  C3  UNL     1      56.255 357.779  85.327  1.00  0.00     0.011 C 
ENDROOT
BRANCH   1   2
HETATM    2  C2  UNL     1      55.022 358.267  84.608  1.00  0.00     0.113 C 
BRANCH   2   3
HETATM    3  C1  UNL     1      54.320 357.196  83.899  1.00  0.00     0.172 C 
HETATM    4  O1  UNL     1      53.159 357.385  83.472  1.00  0.00    -0.648 OA
HETATM    5  O2  UNL     1      54.943 355.965  83.697  1.00  0.00    -0.648 OA
ENDBRANCH   2   3
ENDBRANCH   1   2
BRANCH   1   6
HETATM    6  C4  UNL     1      57.052 358.948  85.801  1.00  0.00     0.011 C 
BRANCH   6   7
HETATM    7  C5  UNL     1      58.538 358.722  85.837  1.00  0.00     0.113 C 
BRANCH   7   8
HETATM    8  C6  UNL     1      59.248 360.028  85.674  1.00  0.00     0.172 C 
HETATM    9  O3  UNL     1      59.894 360.465  86.676  1.00  0.00    -0.648 OA
HETATM   10  O4  UNL     1      59.214 360.750  84.479  1.00  0.00    -0.648 OA
ENDBRANCH   7   8
ENDBRANCH   6   7
ENDBRANCH   1   6
TORSDOF 5
ENDMDL
