MODEL 5
REMARK VINA RESULT: -6.680422803      0.150      1.037
REMARK  5 active torsions:
REMARK  status: ('A' for Active; 'I' for Inactive)
REMARK    1  A    between atoms: C1_2  and  C2_4 
REMARK    2  A    between atoms: C2_4  and  C3_5 
REMARK    3  A    between atoms: C3_5  and  C4_6 
REMARK    4  A    between atoms: C4_6  and  C5_7 
REMARK    5  A    between atoms: C5_7  and  C6_8 
ROOT
HETATM    1  C3  UNL     1      57.007 358.904  85.995  1.00  0.00     0.011 C 
ENDROOT
BRANCH   1   2
HETATM    2  C2  UNL     1      58.490 358.715  85.792  1.00  0.00     0.113 C 
BRANCH   2   3
HETATM    3  C1  UNL     1      59.213 359.985  85.693  1.00  0.00     0.172 C 
HETATM    4  O1  UNL     1      59.838 360.427  86.682  1.00  0.00    -0.648 OA
HETATM    5  O2  UNL     1      59.205 360.702  84.497  1.00  0.00    -0.648 OA
ENDBRANCH   2   3
ENDBRANCH   1   2
BRANCH   1   6
HETATM    6  C4  UNL     1      56.265 357.811  85.301  1.00  0.00     0.011 C 
BRANCH   6   7
HETATM    7  C5  UNL     1      54.987 358.243  84.637  1.00  0.00     0.113 C 
BRANCH   7   8
HETATM    8  C6  UNL     1      54.387 357.086  83.904  1.00  0.00     0.172 C 
HETATM    9  O3  UNL     1      55.145 356.096  83.663  1.00  0.00    -0.648 OA
HETATM   10  O4  UNL     1      53.051 357.076  83.495  1.00  0.00    -0.648 OA
ENDBRANCH   7   8
ENDBRANCH   6   7
ENDBRANCH   1   6
TORSDOF 5
ENDMDL
