MODEL 19
REMARK VINA RESULT: -5.994951848      3.162      4.579
REMARK  5 active torsions:
REMARK  status: ('A' for Active; 'I' for Inactive)
REMARK    1  A    between atoms: C1_2  and  C2_4 
REMARK    2  A    between atoms: C2_4  and  C3_5 
REMARK    3  A    between atoms: C3_5  and  C4_6 
REMARK    4  A    between atoms: C4_6  and  C5_7 
REMARK    5  A    between atoms: C5_7  and  C6_8 
ROOT
HETATM    1  C3  UNL     1      57.366 358.770  87.387  1.00  0.00     0.011 C 
ENDROOT
BRANCH   1   2
HETATM    2  C2  UNL     1      57.808 359.945  88.224  1.00  0.00     0.113 C 
BRANCH   2   3
HETATM    3  C1  UNL     1      56.834 360.301  89.257  1.00  0.00     0.172 C 
HETATM    4  O1  UNL     1      56.628 359.525  90.216  1.00  0.00    -0.648 OA
HETATM    5  O2  UNL     1      56.134 361.504  89.173  1.00  0.00    -0.648 OA
ENDBRANCH   2   3
ENDBRANCH   1   2
BRANCH   1   6
HETATM    6  C4  UNL     1      58.230 358.668  86.174  1.00  0.00     0.011 C 
BRANCH   6   7
HETATM    7  C5  UNL     1      59.050 359.893  85.881  1.00  0.00     0.113 C 
BRANCH   7   8
HETATM    8  C6  UNL     1      58.552 360.543  84.630  1.00  0.00     0.172 C 
HETATM    9  O3  UNL     1      57.366 360.270  84.269  1.00  0.00    -0.648 OA
HETATM   10  O4  UNL     1      59.343 361.415  83.879  1.00  0.00    -0.648 OA
ENDBRANCH   7   8
ENDBRANCH   6   7
ENDBRANCH   1   6
TORSDOF 5
ENDMDL
