MODEL 1
REMARK VINA RESULT: -6.738818905      0.000      0.000
REMARK  5 active torsions:
REMARK  status: ('A' for Active; 'I' for Inactive)
REMARK    1  A    between atoms: C1_2  and  C2_4 
REMARK    2  A    between atoms: C2_4  and  C3_5 
REMARK    3  A    between atoms: C3_5  and  C4_6 
REMARK    4  A    between atoms: C4_6  and  C5_7 
REMARK    5  A    between atoms: C5_7  and  C6_8 
ROOT
HETATM    1  C3  UNL     1      57.096 358.845  86.113  1.00  0.00     0.011 C 
ENDROOT
BRANCH   1   2
HETATM    2  C2  UNL     1      58.565 358.717  85.792  1.00  0.00     0.113 C 
BRANCH   2   3
HETATM    3  C1  UNL     1      59.240 360.013  85.708  1.00  0.00     0.172 C 
HETATM    4  O1  UNL     1      59.845 360.468  86.704  1.00  0.00    -0.648 OA
HETATM    5  O2  UNL     1      59.210 360.742  84.519  1.00  0.00    -0.648 OA
ENDBRANCH   2   3
ENDBRANCH   1   2
BRANCH   1   6
HETATM    6  C4  UNL     1      56.328 357.811  85.360  1.00  0.00     0.011 C 
BRANCH   6   7
HETATM    7  C5  UNL     1      55.083 358.319  84.686  1.00  0.00     0.113 C 
BRANCH   7   8
HETATM    8  C6  UNL     1      54.436 357.207  83.924  1.00  0.00     0.172 C 
HETATM    9  O3  UNL     1      53.241 357.388  83.537  1.00  0.00    -0.648 OA
HETATM   10  O4  UNL     1      55.103 356.013  83.640  1.00  0.00    -0.648 OA
ENDBRANCH   7   8
ENDBRANCH   6   7
ENDBRANCH   1   6
TORSDOF 5
ENDMDL
