MODEL 3
REMARK VINA RESULT: -8.688542287      1.813      3.998
REMARK  7 active torsions:
REMARK  status: ('A' for Active; 'I' for Inactive)
REMARK    1  A    between atoms: C7_7  and  O1_8 
REMARK    2  A    between atoms: C11_14  and  O3_15 
REMARK    3  A    between atoms: C12_17  and  O4_18 
REMARK    4  A    between atoms: C14_22  and  C15_23 
REMARK    5  A    between atoms: C16_26  and  O7_27 
REMARK    6  A    between atoms: C17_29  and  N2_30 
REMARK    7  A    between atoms: C21_34  and  O8_35 
ROOT
HETATM    1  C1  UNL     1       9.936 -17.615 -15.062  1.00  0.00     0.016 C 
HETATM    2  C2  UNL     1       8.662 -17.222 -15.851  1.00  0.00     0.027 A 
HETATM    3  C3  UNL     1       7.740 -18.336 -15.696  1.00  0.00    -0.037 A 
HETATM    4  C4  UNL     1       8.218 -19.580 -16.128  1.00  0.00     0.009 A 
HETATM    5  C5  UNL     1       7.411 -20.688 -16.020  1.00  0.00     0.003 A 
HETATM    6  C6  UNL     1       6.151 -20.604 -15.500  1.00  0.00     0.037 A 
HETATM    7  C7  UNL     1       5.662 -19.378 -15.067  1.00  0.00     0.080 A 
HETATM    8  C8  UNL     1       6.484 -18.266 -15.181  1.00  0.00     0.054 A 
HETATM    9  C9  UNL     1       5.999 -16.967 -14.734  1.00  0.00     0.194 A 
HETATM   10  O2  UNL     1       4.863 -16.774 -14.241  1.00  0.00    -0.287 OA
HETATM   11  C10 UNL     1       6.860 -15.805 -14.851  1.00  0.00     0.033 A 
HETATM   12  C11 UNL     1       6.488 -14.586 -14.513  1.00  0.00     0.097 C 
HETATM   13  C12 UNL     1       7.458 -13.491 -14.678  1.00  0.00     0.180 C 
HETATM   14  C13 UNL     1       6.731 -12.225 -14.422  1.00  0.00     0.208 C 
HETATM   15  O5  UNL     1       5.680 -12.234 -13.779  1.00  0.00    -0.288 OA
HETATM   16  C14 UNL     1       7.295 -10.989 -14.950  1.00  0.00     0.109 C 
HETATM   17  C16 UNL     1       7.870 -11.097 -16.132  1.00  0.00     0.096 C 
HETATM   18  C17 UNL     1       7.918 -12.389 -16.850  1.00  0.00     0.289 C 
HETATM   19  C20 UNL     1       8.264 -13.490 -15.922  1.00  0.00     0.104 C 
HETATM   20  C21 UNL     1       8.242 -14.854 -16.530  1.00  0.00     0.137 C 
HETATM   21  C22 UNL     1       8.244 -15.882 -15.378  1.00  0.00     0.063 A 
ENDROOT
BRANCH  16  22
HETATM   22  C15 UNL     1       7.203  -9.730 -14.197  1.00  0.00     0.271 C 
HETATM   23  N1  UNL     1       7.766  -9.597 -12.909  1.00  0.00    -0.057 NA
HETATM   24  O6  UNL     1       6.612  -8.757 -14.715  1.00  0.00    -0.271 OA
ENDBRANCH  16  22
BRANCH  17  25
HETATM   25  O7  UNL     1       8.421  -9.924 -16.654  1.00  0.00    -0.362 OA
ATOM     26  H7  UNL     1       9.370  -9.886 -16.682  1.00  0.00     0.217 HD
ENDBRANCH  17  25
BRANCH  13  27
HETATM   27  O4  UNL     1       8.319 -13.611 -13.539  1.00  0.00    -0.374 OA
ATOM     28  H4  UNL     1       8.480 -12.714 -13.274  1.00  0.00     0.211 HD
ENDBRANCH  13  27
BRANCH  18  29
HETATM   29  N2  UNL     1       8.813 -12.190 -17.965  1.00  0.00     0.091 N 
HETATM   30  C18 UNL     1      10.207 -12.413 -17.637  1.00  0.00     0.310 C 
HETATM   31  C19 UNL     1       8.401 -12.767 -19.204  1.00  0.00     0.310 C 
ENDBRANCH  18  29
BRANCH  12  32
HETATM   32  O3  UNL     1       5.215 -14.398 -14.024  1.00  0.00    -0.361 OA
ATOM     33  H3  UNL     1       4.685 -15.162 -13.829  1.00  0.00     0.217 HD
ENDBRANCH  12  32
BRANCH  20  34
HETATM   34  O8  UNL     1       9.332 -15.204 -17.284  1.00  0.00    -0.394 OA
ATOM     35  H8  UNL     1      10.136 -15.378 -16.809  1.00  0.00     0.210 HD
ENDBRANCH  20  34
BRANCH   7  36
HETATM   36  O1  UNL     1       4.411 -19.349 -14.561  1.00  0.00    -0.360 OA
ATOM     37  H1  UNL     1       4.319 -19.343 -13.615  1.00  0.00     0.217 HD
ENDBRANCH   7  36
TORSDOF 7
ENDMDL
