MODEL 1
REMARK VINA RESULT: -8.998269413      0.000      0.000
REMARK  7 active torsions:
REMARK  status: ('A' for Active; 'I' for Inactive)
REMARK    1  A    between atoms: C7_7  and  O1_8 
REMARK    2  A    between atoms: C11_14  and  O3_15 
REMARK    3  A    between atoms: C12_17  and  O4_18 
REMARK    4  A    between atoms: C14_22  and  C15_23 
REMARK    5  A    between atoms: C16_26  and  O7_27 
REMARK    6  A    between atoms: C17_29  and  N2_30 
REMARK    7  A    between atoms: C21_34  and  O8_35 
ROOT
HETATM    1  C1  UNL     1       4.453 -16.450 -16.327  1.00  0.00     0.016 C 
HETATM    2  C2  UNL     1       5.597 -16.601 -15.295  1.00  0.00     0.027 A 
HETATM    3  C3  UNL     1       5.800 -18.032 -15.134  1.00  0.00    -0.037 A 
HETATM    4  C4  UNL     1       4.674 -18.760 -14.726  1.00  0.00     0.009 A 
HETATM    5  C5  UNL     1       4.777 -20.119 -14.547  1.00  0.00     0.003 A 
HETATM    6  C6  UNL     1       5.953 -20.779 -14.759  1.00  0.00     0.037 A 
HETATM    7  C7  UNL     1       7.079 -20.074 -15.164  1.00  0.00     0.080 A 
HETATM    8  C8  UNL     1       6.966 -18.701 -15.341  1.00  0.00     0.054 A 
HETATM    9  C9  UNL     1       8.129 -17.934 -15.766  1.00  0.00     0.194 A 
HETATM   10  O2  UNL     1       9.256 -18.435 -15.990  1.00  0.00    -0.287 OA
HETATM   11  C10 UNL     1       8.008 -16.500 -15.953  1.00  0.00     0.033 A 
HETATM   12  C11 UNL     1       9.017 -15.723 -16.293  1.00  0.00     0.097 C 
HETATM   13  C12 UNL     1       8.763 -14.282 -16.454  1.00  0.00     0.180 C 
HETATM   14  C13 UNL     1      10.080 -13.627 -16.634  1.00  0.00     0.208 C 
HETATM   15  O5  UNL     1      11.053 -14.284 -17.007  1.00  0.00    -0.288 OA
HETATM   16  C14 UNL     1      10.181 -12.199 -16.359  1.00  0.00     0.109 C 
HETATM   17  C16 UNL     1       9.458 -11.772 -15.342  1.00  0.00     0.096 C 
HETATM   18  C17 UNL     1       8.620 -12.700 -14.552  1.00  0.00     0.289 C 
HETATM   19  C20 UNL     1       7.895 -13.637 -15.440  1.00  0.00     0.104 C 
HETATM   20  C21 UNL     1       7.094 -14.681 -14.734  1.00  0.00     0.137 C 
HETATM   21  C22 UNL     1       6.730 -15.772 -15.764  1.00  0.00     0.063 A 
ENDROOT
BRANCH  16  22
HETATM   22  C15 UNL     1      11.044 -11.329 -17.170  1.00  0.00     0.271 C 
HETATM   23  N1  UNL     1      10.868 -11.208 -18.566  1.00  0.00    -0.057 NA
HETATM   24  O6  UNL     1      11.953 -10.681 -16.606  1.00  0.00    -0.271 OA
ENDBRANCH  16  22
BRANCH  17  25
HETATM   25  O7  UNL     1       9.537 -10.406 -15.064  1.00  0.00    -0.362 OA
ATOM     26  H7  UNL     1       8.998  -9.839 -15.603  1.00  0.00     0.217 HD
ENDBRANCH  17  25
BRANCH  13  27
HETATM   27  O4  UNL     1       8.162 -14.175 -17.750  1.00  0.00    -0.374 OA
ATOM     28  H4  UNL     1       8.639 -13.468 -18.169  1.00  0.00     0.211 HD
ENDBRANCH  13  27
BRANCH  18  29
HETATM   29  N2  UNL     1       7.802 -11.868 -13.701  1.00  0.00     0.091 N 
HETATM   30  C18 UNL     1       6.567 -11.437 -14.323  1.00  0.00     0.310 C 
HETATM   31  C19 UNL     1       7.657 -12.311 -12.351  1.00  0.00     0.310 C 
ENDBRANCH  18  29
BRANCH  12  32
HETATM   32  O3  UNL     1      10.256 -16.296 -16.480  1.00  0.00    -0.361 OA
ATOM     33  H3  UNL     1      11.028 -15.796 -16.242  1.00  0.00     0.217 HD
ENDBRANCH  12  32
BRANCH  20  34
HETATM   34  O8  UNL     1       5.882 -14.285 -14.233  1.00  0.00    -0.394 OA
ATOM     35  H8  UNL     1       5.367 -14.951 -13.794  1.00  0.00     0.210 HD
ENDBRANCH  20  34
BRANCH   7  36
HETATM   36  O1  UNL     1       8.217 -20.772 -15.360  1.00  0.00    -0.360 OA
ATOM     37  H1  UNL     1       8.792 -20.895 -14.614  1.00  0.00     0.217 HD
ENDBRANCH   7  36
TORSDOF 7
ENDMDL
