MODEL 2
REMARK VINA RESULT: -8.899016000      0.911      1.085
REMARK  7 active torsions:
REMARK  status: ('A' for Active; 'I' for Inactive)
REMARK    1  A    between atoms: C7_7  and  O1_8 
REMARK    2  A    between atoms: C11_14  and  O3_15 
REMARK    3  A    between atoms: C12_17  and  O4_18 
REMARK    4  A    between atoms: C14_22  and  C15_23 
REMARK    5  A    between atoms: C16_26  and  O7_27 
REMARK    6  A    between atoms: C17_29  and  N2_30 
REMARK    7  A    between atoms: C21_34  and  O8_35 
ROOT
HETATM    1  C1  UNL     1       4.362 -17.171 -16.077  1.00  0.00     0.016 C 
HETATM    2  C2  UNL     1       5.561 -17.257 -15.101  1.00  0.00     0.027 A 
HETATM    3  C3  UNL     1       5.953 -18.658 -15.077  1.00  0.00    -0.037 A 
HETATM    4  C4  UNL     1       4.949 -19.559 -14.699  1.00  0.00     0.009 A 
HETATM    5  C5  UNL     1       5.233 -20.903 -14.648  1.00  0.00     0.003 A 
HETATM    6  C6  UNL     1       6.473 -21.382 -14.958  1.00  0.00     0.037 A 
HETATM    7  C7  UNL     1       7.480 -20.503 -15.335  1.00  0.00     0.080 A 
HETATM    8  C8  UNL     1       7.184 -19.147 -15.383  1.00  0.00     0.054 A 
HETATM    9  C9  UNL     1       8.219 -18.200 -15.776  1.00  0.00     0.194 A 
HETATM   10  O2  UNL     1       9.389 -18.528 -16.082  1.00  0.00    -0.287 OA
HETATM   11  C10 UNL     1       7.907 -16.784 -15.829  1.00  0.00     0.033 A 
HETATM   12  C11 UNL     1       8.792 -15.855 -16.130  1.00  0.00     0.097 C 
HETATM   13  C12 UNL     1       8.348 -14.451 -16.152  1.00  0.00     0.180 C 
HETATM   14  C13 UNL     1       9.561 -13.616 -16.316  1.00  0.00     0.208 C 
HETATM   15  O5  UNL     1      10.593 -14.105 -16.780  1.00  0.00    -0.288 OA
HETATM   16  C14 UNL     1       9.490 -12.215 -15.917  1.00  0.00     0.109 C 
HETATM   17  C16 UNL     1       8.765 -11.976 -14.842  1.00  0.00     0.096 C 
HETATM   18  C17 UNL     1       8.089 -13.070 -14.110  1.00  0.00     0.289 C 
HETATM   19  C20 UNL     1       7.451 -14.015 -15.055  1.00  0.00     0.104 C 
HETATM   20  C21 UNL     1       6.823 -15.212 -14.420  1.00  0.00     0.137 C 
HETATM   21  C22 UNL     1       6.556 -16.249 -15.532  1.00  0.00     0.063 A 
ENDROOT
BRANCH  16  22
HETATM   22  C15 UNL     1      10.197 -11.173 -16.675  1.00  0.00     0.271 C 
HETATM   23  N1  UNL     1      11.352 -10.542 -16.162  1.00  0.00    -0.057 NA
HETATM   24  O6  UNL     1       9.762 -10.842 -17.800  1.00  0.00    -0.271 OA
ENDBRANCH  16  22
BRANCH  17  25
HETATM   25  O7  UNL     1       8.681 -10.640 -14.444  1.00  0.00    -0.362 OA
ATOM     26  H7  UNL     1       8.546 -10.489 -13.516  1.00  0.00     0.217 HD
ENDBRANCH  17  25
BRANCH  13  27
HETATM   27  O4  UNL     1       7.681 -14.314 -17.412  1.00  0.00    -0.374 OA
ATOM     28  H4  UNL     1       7.368 -13.418 -17.413  1.00  0.00     0.211 HD
ENDBRANCH  13  27
BRANCH  18  29
HETATM   29  N2  UNL     1       7.211 -12.428 -13.161  1.00  0.00     0.091 N 
HETATM   30  C18 UNL     1       7.911 -11.727 -12.104  1.00  0.00     0.310 C 
HETATM   31  C19 UNL     1       6.113 -11.705 -13.720  1.00  0.00     0.310 C 
ENDBRANCH  18  29
BRANCH  12  32
HETATM   32  O3  UNL     1      10.084 -16.241 -16.410  1.00  0.00    -0.361 OA
ATOM     33  H3  UNL     1      10.706 -15.580 -16.691  1.00  0.00     0.217 HD
ENDBRANCH  12  32
BRANCH  20  34
HETATM   34  O8  UNL     1       5.594 -15.022 -13.845  1.00  0.00    -0.394 OA
ATOM     35  H8  UNL     1       5.030 -15.784 -13.793  1.00  0.00     0.210 HD
ENDBRANCH  20  34
BRANCH   7  36
HETATM   36  O1  UNL     1       8.688 -21.026 -15.632  1.00  0.00    -0.360 OA
ATOM     37  H1  UNL     1       8.789 -21.449 -16.476  1.00  0.00     0.217 HD
ENDBRANCH   7  36
TORSDOF 7
ENDMDL
