MODEL 11
REMARK VINA RESULT: -7.356459533      3.529      5.796
REMARK  7 active torsions:
REMARK  status: ('A' for Active; 'I' for Inactive)
REMARK    1  A    between atoms: C7_7  and  O1_8 
REMARK    2  A    between atoms: C11_14  and  O3_15 
REMARK    3  A    between atoms: C12_17  and  O4_18 
REMARK    4  A    between atoms: C14_22  and  C15_23 
REMARK    5  A    between atoms: C16_26  and  O7_27 
REMARK    6  A    between atoms: C17_29  and  N2_30 
REMARK    7  A    between atoms: C21_34  and  O8_35 
ROOT
HETATM    1  C1  UNL     1      -7.638  19.111 -15.227  1.00  0.00     0.016 C 
HETATM    2  C2  UNL     1      -6.212  19.380 -15.689  1.00  0.00     0.027 C 
HETATM    3  C3  UNL     1      -5.763  20.666 -15.134  1.00  0.00    -0.037 A 
HETATM    4  C4  UNL     1      -6.595  21.770 -15.373  1.00  0.00     0.009 A 
HETATM    5  C5  UNL     1      -6.235  22.995 -14.891  1.00  0.00     0.003 A 
HETATM    6  C6  UNL     1      -5.087  23.248 -14.168  1.00  0.00     0.037 A 
HETATM    7  C7  UNL     1      -4.267  22.168 -13.930  1.00  0.00     0.080 A 
HETATM    8  C8  UNL     1      -4.617  20.894 -14.417  1.00  0.00     0.054 A 
HETATM    9  C9  UNL     1      -3.724  19.770 -14.138  1.00  0.00     0.194 C 
HETATM   10  O2  UNL     1      -2.666  19.955 -13.481  1.00  0.00    -0.287 OA
HETATM   11  C10 UNL     1      -4.110  18.460 -14.643  1.00  0.00     0.033 C 
HETATM   12  C11 UNL     1      -3.280  17.470 -14.482  1.00  0.00     0.096 C 
HETATM   13  C12 UNL     1      -3.588  16.109 -14.958  1.00  0.00     0.175 C 
HETATM   14  C13 UNL     1      -2.272  15.479 -15.240  1.00  0.00     0.183 C 
HETATM   15  O5  UNL     1      -1.254  15.810 -14.655  1.00  0.00    -0.293 OA
HETATM   16  C14 UNL     1      -2.158  14.406 -16.264  1.00  0.00     0.179 C 
HETATM   17  C16 UNL     1      -2.858  14.965 -17.479  1.00  0.00     0.172 C 
HETATM   18  C17 UNL     1      -4.311  15.055 -17.135  1.00  0.00     0.262 C 
HETATM   19  C20 UNL     1      -4.572  16.050 -16.034  1.00  0.00     0.100 C 
HETATM   20  C21 UNL     1      -4.968  17.405 -16.583  1.00  0.00     0.137 C 
HETATM   21  C22 UNL     1      -5.393  18.212 -15.329  1.00  0.00     0.063 C 
ENDROOT
BRANCH  16  22
HETATM   22  C15 UNL     1      -0.755  14.038 -16.533  1.00  0.00     0.245 C 
HETATM   23  N1  UNL     1      -0.229  12.914 -15.839  1.00  0.00    -0.061 NA
HETATM   24  O6  UNL     1      -0.008  14.647 -17.329  1.00  0.00    -0.276 OA
ENDBRANCH  16  22
BRANCH  17  25
HETATM   25  O7  UNL     1      -2.393  16.296 -17.614  1.00  0.00    -0.392 OA
ATOM     26  H7  UNL     1      -3.162  16.848 -17.535  1.00  0.00     0.210 HD
ENDBRANCH  17  25
BRANCH  13  27
HETATM   27  O4  UNL     1      -4.044  15.420 -13.795  1.00  0.00    -0.375 OA
ATOM     28  H4  UNL     1      -4.092  14.509 -14.062  1.00  0.00     0.211 HD
ENDBRANCH  13  27
BRANCH  18  29
HETATM   29  N2  UNL     1      -4.910  13.781 -16.845  1.00  0.00     0.087 N 
HETATM   30  C18 UNL     1      -6.249  14.004 -16.279  1.00  0.00     0.310 C 
HETATM   31  C19 UNL     1      -5.077  12.935 -17.977  1.00  0.00     0.310 C 
ENDBRANCH  18  29
BRANCH  12  32
HETATM   32  O3  UNL     1      -2.049  17.739 -13.823  1.00  0.00    -0.361 OA
ATOM     33  H3  UNL     1      -1.247  17.617 -14.317  1.00  0.00     0.217 HD
ENDBRANCH  12  32
BRANCH  20  34
HETATM   34  O8  UNL     1      -5.985  17.347 -17.501  1.00  0.00    -0.394 OA
ATOM     35  H8  UNL     1      -5.704  17.053 -18.359  1.00  0.00     0.210 HD
ENDBRANCH  20  34
BRANCH   7  36
HETATM   36  O1  UNL     1      -3.083  22.275 -13.219  1.00  0.00    -0.360 OA
ATOM     37  H1  UNL     1      -2.854  23.052 -12.721  1.00  0.00     0.217 HD
ENDBRANCH   7  36
TORSDOF 7
ENDMDL
