MODEL 3
REMARK VINA RESULT: -8.318675164      1.681      2.232
REMARK  7 active torsions:
REMARK  status: ('A' for Active; 'I' for Inactive)
REMARK    1  A    between atoms: C7_7  and  O1_8 
REMARK    2  A    between atoms: C11_14  and  O3_15 
REMARK    3  A    between atoms: C12_17  and  O4_18 
REMARK    4  A    between atoms: C14_22  and  C15_23 
REMARK    5  A    between atoms: C16_26  and  O7_27 
REMARK    6  A    between atoms: C17_29  and  N2_30 
REMARK    7  A    between atoms: C21_34  and  O8_35 
ROOT
HETATM    1  C1  UNL     1      -2.847  17.063 -15.299  1.00  0.00     0.016 C 
HETATM    2  C2  UNL     1      -4.202  17.048 -14.603  1.00  0.00     0.027 C 
HETATM    3  C3  UNL     1      -4.838  18.364 -14.764  1.00  0.00    -0.037 A 
HETATM    4  C4  UNL     1      -4.074  19.475 -14.373  1.00  0.00     0.009 A 
HETATM    5  C5  UNL     1      -4.607  20.727 -14.490  1.00  0.00     0.003 A 
HETATM    6  C6  UNL     1      -5.869  21.001 -14.973  1.00  0.00     0.037 A 
HETATM    7  C7  UNL     1      -6.623  19.915 -15.358  1.00  0.00     0.080 A 
HETATM    8  C8  UNL     1      -6.096  18.614 -15.248  1.00  0.00     0.054 A 
HETATM    9  C9  UNL     1      -6.924  17.486 -15.674  1.00  0.00     0.194 C 
HETATM   10  O2  UNL     1      -8.083  17.690 -16.121  1.00  0.00    -0.287 OA
HETATM   11  C10 UNL     1      -6.356  16.150 -15.559  1.00  0.00     0.033 C 
HETATM   12  C11 UNL     1      -7.114  15.133 -15.847  1.00  0.00     0.096 C 
HETATM   13  C12 UNL     1      -6.623  13.745 -15.762  1.00  0.00     0.175 C 
HETATM   14  C13 UNL     1      -7.822  12.915 -15.473  1.00  0.00     0.183 C 
HETATM   15  O5  UNL     1      -8.942  13.249 -15.822  1.00  0.00    -0.293 OA
HETATM   16  C14 UNL     1      -7.685  11.630 -14.737  1.00  0.00     0.179 C 
HETATM   17  C16 UNL     1      -6.855  11.975 -13.524  1.00  0.00     0.172 C 
HETATM   18  C17 UNL     1      -5.485  12.313 -14.022  1.00  0.00     0.262 C 
HETATM   19  C20 UNL     1      -5.483  13.557 -14.871  1.00  0.00     0.100 C 
HETATM   20  C21 UNL     1      -5.122  14.788 -14.064  1.00  0.00     0.137 C 
HETATM   21  C22 UNL     1      -4.965  15.905 -15.127  1.00  0.00     0.063 C 
ENDROOT
BRANCH  16  22
HETATM   22  C15 UNL     1      -8.993  11.047 -14.385  1.00  0.00     0.245 C 
HETATM   23  N1  UNL     1      -9.443   9.938 -15.154  1.00  0.00    -0.061 NA
HETATM   24  O6  UNL     1      -9.723  11.462 -13.459  1.00  0.00    -0.276 OA
ENDBRANCH  16  22
BRANCH  17  25
HETATM   25  O7  UNL     1      -7.403  13.174 -13.009  1.00  0.00    -0.392 OA
ATOM     26  H7  UNL     1      -6.688  13.619 -12.571  1.00  0.00     0.210 HD
ENDBRANCH  17  25
BRANCH  13  27
HETATM   27  O4  UNL     1      -6.296  13.400 -17.107  1.00  0.00    -0.375 OA
ATOM     28  H4  UNL     1      -5.548  12.819 -17.028  1.00  0.00     0.211 HD
ENDBRANCH  13  27
BRANCH  18  29
HETATM   29  N2  UNL     1      -4.834  11.219 -14.689  1.00  0.00     0.087 N 
HETATM   30  C18 UNL     1      -3.610  11.719 -15.335  1.00  0.00     0.310 C 
HETATM   31  C19 UNL     1      -4.442  10.152 -13.834  1.00  0.00     0.310 C 
ENDBRANCH  18  29
BRANCH  12  32
HETATM   32  O3  UNL     1      -8.451  15.397 -16.254  1.00  0.00    -0.361 OA
ATOM     33  H3  UNL     1      -8.814  14.865 -16.951  1.00  0.00     0.217 HD
ENDBRANCH  12  32
BRANCH  20  34
HETATM   34  O8  UNL     1      -3.974  14.642 -13.329  1.00  0.00    -0.394 OA
ATOM     35  H8  UNL     1      -3.184  14.642 -13.857  1.00  0.00     0.210 HD
ENDBRANCH  20  34
BRANCH   7  36
HETATM   36  O1  UNL     1      -7.908  20.041 -15.862  1.00  0.00    -0.360 OA
ATOM     37  H1  UNL     1      -8.240  19.487 -16.559  1.00  0.00     0.217 HD
ENDBRANCH   7  36
TORSDOF 7
ENDMDL
