MODEL 1
REMARK VINA RESULT: -8.667783580      0.000      0.000
REMARK  7 active torsions:
REMARK  status: ('A' for Active; 'I' for Inactive)
REMARK    1  A    between atoms: C7_7  and  O1_8 
REMARK    2  A    between atoms: C11_14  and  O3_15 
REMARK    3  A    between atoms: C12_17  and  O4_18 
REMARK    4  A    between atoms: C14_22  and  C15_23 
REMARK    5  A    between atoms: C16_26  and  O7_27 
REMARK    6  A    between atoms: C17_29  and  N2_30 
REMARK    7  A    between atoms: C21_34  and  O8_35 
ROOT
HETATM    1  C1  UNL     1      -3.376  16.971 -15.915  1.00  0.00     0.016 C 
HETATM    2  C2  UNL     1      -4.479  16.641 -14.917  1.00  0.00     0.027 C 
HETATM    3  C3  UNL     1      -5.608  17.558 -15.130  1.00  0.00    -0.037 A 
HETATM    4  C4  UNL     1      -5.305  18.928 -15.123  1.00  0.00     0.009 A 
HETATM    5  C5  UNL     1      -6.308  19.836 -15.309  1.00  0.00     0.003 A 
HETATM    6  C6  UNL     1      -7.634  19.510 -15.508  1.00  0.00     0.037 A 
HETATM    7  C7  UNL     1      -7.937  18.167 -15.516  1.00  0.00     0.080 A 
HETATM    8  C8  UNL     1      -6.920  17.212 -15.327  1.00  0.00     0.054 A 
HETATM    9  C9  UNL     1      -7.279  15.794 -15.349  1.00  0.00     0.194 C 
HETATM   10  O2  UNL     1      -8.478  15.452 -15.527  1.00  0.00    -0.287 OA
HETATM   11  C10 UNL     1      -6.211  14.824 -15.160  1.00  0.00     0.033 C 
HETATM   12  C11 UNL     1      -6.530  13.565 -15.085  1.00  0.00     0.096 C 
HETATM   13  C12 UNL     1      -5.515  12.512 -14.898  1.00  0.00     0.175 C 
HETATM   14  C13 UNL     1      -6.213  11.405 -14.194  1.00  0.00     0.183 C 
HETATM   15  O5  UNL     1      -7.413  11.217 -14.309  1.00  0.00    -0.293 OA
HETATM   16  C14 UNL     1      -5.453  10.477 -13.315  1.00  0.00     0.179 C 
HETATM   17  C16 UNL     1      -4.649  11.383 -12.413  1.00  0.00     0.172 C 
HETATM   18  C17 UNL     1      -3.632  12.058 -13.278  1.00  0.00     0.262 C 
HETATM   19  C20 UNL     1      -4.267  12.971 -14.293  1.00  0.00     0.100 C 
HETATM   20  C21 UNL     1      -4.309  14.406 -13.809  1.00  0.00     0.137 C 
HETATM   21  C22 UNL     1      -4.790  15.209 -15.046  1.00  0.00     0.063 C 
ENDROOT
BRANCH  16  22
HETATM   22  C15 UNL     1      -6.339   9.568 -12.564  1.00  0.00     0.245 C 
HETATM   23  N1  UNL     1      -6.324   8.193 -12.927  1.00  0.00    -0.061 NA
HETATM   24  O6  UNL     1      -7.096   9.928 -11.637  1.00  0.00    -0.276 OA
ENDBRANCH  16  22
BRANCH  17  25
HETATM   25  O7  UNL     1      -5.544  12.392 -11.982  1.00  0.00    -0.392 OA
ATOM     26  H7  UNL     1      -5.011  13.036 -11.532  1.00  0.00     0.210 HD
ENDBRANCH  17  25
BRANCH  13  27
HETATM   27  O4  UNL     1      -5.297  11.990 -16.208  1.00  0.00    -0.375 OA
ATOM     28  H4  UNL     1      -4.989  11.103 -16.061  1.00  0.00     0.211 HD
ENDBRANCH  13  27
BRANCH  18  29
HETATM   29  N2  UNL     1      -2.712  11.144 -13.897  1.00  0.00     0.087 N 
HETATM   30  C18 UNL     1      -1.927  11.871 -14.907  1.00  0.00     0.310 C 
HETATM   31  C19 UNL     1      -1.779  10.546 -13.004  1.00  0.00     0.310 C 
ENDBRANCH  18  29
BRANCH  12  32
HETATM   32  O3  UNL     1      -7.906  13.223 -15.191  1.00  0.00    -0.361 OA
ATOM     33  H3  UNL     1      -8.241  13.000 -16.051  1.00  0.00     0.217 HD
ENDBRANCH  12  32
BRANCH  20  34
HETATM   34  O8  UNL     1      -3.097  14.867 -13.363  1.00  0.00    -0.394 OA
ATOM     35  H8  UNL     1      -3.152  15.703 -12.914  1.00  0.00     0.210 HD
ENDBRANCH  20  34
BRANCH   7  36
HETATM   36  O1  UNL     1      -9.226  17.696 -15.704  1.00  0.00    -0.360 OA
ATOM     37  H1  UNL     1      -9.481  17.199 -16.473  1.00  0.00     0.217 HD
ENDBRANCH   7  36
TORSDOF 7
ENDMDL
