MODEL 4
REMARK VINA RESULT: -8.244219634      1.109      1.317
REMARK  7 active torsions:
REMARK  status: ('A' for Active; 'I' for Inactive)
REMARK    1  A    between atoms: C7_7  and  O1_8 
REMARK    2  A    between atoms: C11_14  and  O3_15 
REMARK    3  A    between atoms: C12_17  and  O4_18 
REMARK    4  A    between atoms: C14_22  and  C15_23 
REMARK    5  A    between atoms: C16_26  and  O7_27 
REMARK    6  A    between atoms: C17_29  and  N2_30 
REMARK    7  A    between atoms: C21_34  and  O8_35 
ROOT
HETATM    1  C1  UNL     1      -4.388  16.175 -16.138  1.00  0.00     0.016 C 
HETATM    2  C2  UNL     1      -5.364  15.696 -15.070  1.00  0.00     0.027 C 
HETATM    3  C3  UNL     1      -6.634  16.422 -15.222  1.00  0.00    -0.037 A 
HETATM    4  C4  UNL     1      -6.549  17.823 -15.247  1.00  0.00     0.009 A 
HETATM    5  C5  UNL     1      -7.691  18.559 -15.378  1.00  0.00     0.003 A 
HETATM    6  C6  UNL     1      -8.959  18.028 -15.491  1.00  0.00     0.037 A 
HETATM    7  C7  UNL     1      -9.048  16.654 -15.468  1.00  0.00     0.080 A 
HETATM    8  C8  UNL     1      -7.884  15.873 -15.333  1.00  0.00     0.054 A 
HETATM    9  C9  UNL     1      -8.018  14.416 -15.320  1.00  0.00     0.194 C 
HETATM   10  O2  UNL     1      -9.157  13.888 -15.420  1.00  0.00    -0.287 OA
HETATM   11  C10 UNL     1      -6.802  13.628 -15.188  1.00  0.00     0.033 C 
HETATM   12  C11 UNL     1      -6.914  12.336 -15.082  1.00  0.00     0.096 C 
HETATM   13  C12 UNL     1      -5.738  11.458 -14.948  1.00  0.00     0.175 C 
HETATM   14  C13 UNL     1      -6.211  10.269 -14.192  1.00  0.00     0.183 C 
HETATM   15  O5  UNL     1      -7.372   9.895 -14.230  1.00  0.00    -0.293 OA
HETATM   16  C14 UNL     1      -5.264   9.488 -13.352  1.00  0.00     0.179 C 
HETATM   17  C16 UNL     1      -4.559  10.524 -12.511  1.00  0.00     0.172 C 
HETATM   18  C17 UNL     1      -3.714  11.333 -13.444  1.00  0.00     0.262 C 
HETATM   19  C20 UNL     1      -4.544  12.117 -14.426  1.00  0.00     0.100 C 
HETATM   20  C21 UNL     1      -4.781  13.537 -13.954  1.00  0.00     0.137 C 
HETATM   21  C22 UNL     1      -5.454  14.231 -15.166  1.00  0.00     0.063 C 
ENDROOT
BRANCH  16  22
HETATM   22  C15 UNL     1      -5.951   8.466 -12.540  1.00  0.00     0.245 C 
HETATM   23  N1  UNL     1      -5.694   7.102 -12.850  1.00  0.00    -0.061 NA
HETATM   24  O6  UNL     1      -6.737   8.723 -11.603  1.00  0.00    -0.276 OA
ENDBRANCH  16  22
BRANCH  17  25
HETATM   25  O7  UNL     1      -5.573  11.390 -12.035  1.00  0.00    -0.392 OA
ATOM     26  H7  UNL     1      -5.122  12.114 -11.618  1.00  0.00     0.210 HD
ENDBRANCH  17  25
BRANCH  13  27
HETATM   27  O4  UNL     1      -5.520  10.951 -16.264  1.00  0.00    -0.375 OA
ATOM     28  H4  UNL     1      -4.742  10.411 -16.184  1.00  0.00     0.211 HD
ENDBRANCH  13  27
BRANCH  18  29
HETATM   29  N2  UNL     1      -2.700  10.561 -14.110  1.00  0.00     0.087 N 
HETATM   30  C18 UNL     1      -2.090  11.388 -15.162  1.00  0.00     0.310 C 
HETATM   31  C19 UNL     1      -1.642  10.120 -13.267  1.00  0.00     0.310 C 
ENDBRANCH  18  29
BRANCH  12  32
HETATM   32  O3  UNL     1      -8.224  11.782 -15.099  1.00  0.00    -0.361 OA
ATOM     33  H3  UNL     1      -8.950  12.356 -14.886  1.00  0.00     0.217 HD
ENDBRANCH  12  32
BRANCH  20  34
HETATM   34  O8  UNL     1      -3.632  14.189 -13.588  1.00  0.00    -0.394 OA
ATOM     35  H8  UNL     1      -3.062  14.392 -14.321  1.00  0.00     0.210 HD
ENDBRANCH  20  34
BRANCH   7  36
HETATM   36  O1  UNL     1     -10.257  15.984 -15.572  1.00  0.00    -0.360 OA
ATOM     37  H1  UNL     1     -10.474  15.235 -15.029  1.00  0.00     0.217 HD
ENDBRANCH   7  36
TORSDOF 7
ENDMDL
