MODEL 10
REMARK VINA RESULT: -7.806904496      2.020      4.937
REMARK  11 active torsions:
REMARK  status: ('A' for Active; 'I' for Inactive)
REMARK    1  A    between atoms: O1_2  and  C2_3 
REMARK    2  A    between atoms: C10_12  and  O3_13 
REMARK    3  A    between atoms: C13_17  and  O4_18 
REMARK    4  A    between atoms: C17_24  and  O6_25 
REMARK    5  A    between atoms: C17_24  and  C18_27 
REMARK    6  A    between atoms: C18_27  and  C19_29 
REMARK    7  A    between atoms: C19_29  and  O8_30 
REMARK    8  A    between atoms: C21_33  and  O9_34 
REMARK    9  A    between atoms: O9_34  and  C22_35 
REMARK   10  A    between atoms: C24_37  and  N1_38 
REMARK   11  A    between atoms: C25_42  and  O10_43 
ROOT
HETATM    1  C2  UNL     1     -22.832   5.773   1.959  1.00  0.00     0.083 A 
HETATM    2  C3  UNL     1     -23.404   6.960   2.420  1.00  0.00     0.038 A 
HETATM    3  C4  UNL     1     -22.628   8.028   2.812  1.00  0.00     0.004 A 
HETATM    4  C5  UNL     1     -21.269   7.910   2.740  1.00  0.00     0.017 A 
HETATM    5  C6  UNL     1     -20.712   6.738   2.283  1.00  0.00     0.032 A 
HETATM    6  C7  UNL     1     -21.460   5.654   1.887  1.00  0.00     0.062 A 
HETATM    7  C8  UNL     1     -20.865   4.412   1.403  1.00  0.00     0.200 A 
HETATM    8  O2  UNL     1     -21.611   3.467   1.059  1.00  0.00    -0.286 OA
HETATM    9  C9  UNL     1     -19.406   4.327   1.342  1.00  0.00     0.066 A 
HETATM   10  C10 UNL     1     -18.807   3.152   0.884  1.00  0.00     0.090 A 
HETATM   11  C11 UNL     1     -17.434   3.114   0.843  1.00  0.00     0.014 A 
HETATM   12  C12 UNL     1     -16.682   4.206   1.243  1.00  0.00    -0.009 A 
HETATM   13  C13 UNL     1     -17.238   5.366   1.694  1.00  0.00     0.088 A 
HETATM   14  C14 UNL     1     -18.634   5.412   1.739  1.00  0.00     0.066 A 
HETATM   15  C15 UNL     1     -19.261   6.625   2.212  1.00  0.00     0.197 A 
HETATM   16  O5  UNL     1     -18.536   7.587   2.562  1.00  0.00    -0.286 OA
HETATM   17  C16 UNL     1     -15.218   4.035   1.150  1.00  0.00     0.088 C 
HETATM   18  C17 UNL     1     -14.827   3.521  -0.212  1.00  0.00     0.127 C 
HETATM   19  C20 UNL     1     -15.764   2.492  -0.732  1.00  0.00     0.083 C 
HETATM   20  C21 UNL     1     -16.674   1.937   0.379  1.00  0.00     0.164 C 
ENDROOT
BRANCH  20  21
HETATM   21  O9  UNL     1     -17.427   0.898  -0.098  1.00  0.00    -0.351 OA
BRANCH  21  22
HETATM   22  C22 UNL     1     -17.515  -0.081   0.865  1.00  0.00     0.263 C 
HETATM   23  C23 UNL     1     -17.694  -1.474   0.353  1.00  0.00     0.096 C 
HETATM   24  C24 UNL     1     -16.533  -1.978  -0.437  1.00  0.00     0.219 C 
HETATM   25  C25 UNL     1     -15.268  -1.753   0.366  1.00  0.00     0.177 C 
HETATM   26  C26 UNL     1     -15.244  -0.352   0.947  1.00  0.00     0.151 C 
HETATM   27  C27 UNL     1     -14.023  -0.256   1.822  1.00  0.00     0.042 C 
HETATM   28  O11 UNL     1     -16.367  -0.071   1.686  1.00  0.00    -0.354 OA
BRANCH  24  29
HETATM   29  N1  UNL     1     -16.723  -3.431  -0.581  1.00  0.00    -0.072 N 
ATOM     30  H13 UNL     1     -17.148  -3.866   0.238  1.00  0.00     0.274 HD
ATOM     31  H12 UNL     1     -17.453  -3.678  -1.249  1.00  0.00     0.274 HD
ATOM     32  H11 UNL     1     -15.811  -3.820  -0.818  1.00  0.00     0.274 HD
ENDBRANCH  24  29
BRANCH  25  33
HETATM   33  O10 UNL     1     -15.148  -2.722   1.357  1.00  0.00    -0.391 OA
ATOM     34  H10 UNL     1     -15.251  -3.589   0.984  1.00  0.00     0.210 HD
ENDBRANCH  25  33
ENDBRANCH  21  22
ENDBRANCH  20  21
BRANCH  10  35
HETATM   35  O3  UNL     1     -19.481   2.047   0.478  1.00  0.00    -0.359 OA
ATOM     36  H3  UNL     1     -19.126   1.374  -0.091  1.00  0.00     0.217 HD
ENDBRANCH  10  35
BRANCH  18  37
HETATM   37  O6  UNL     1     -14.800   4.632  -1.069  1.00  0.00    -0.382 OA
ATOM     38  H6  UNL     1     -14.131   4.457  -1.720  1.00  0.00     0.211 HD
ENDBRANCH  18  37
BRANCH  18  39
HETATM   39  C18 UNL     1     -13.435   2.965  -0.079  1.00  0.00     0.184 C 
HETATM   40  O7  UNL     1     -12.808   3.160   0.937  1.00  0.00    -0.292 OA
BRANCH  39  41
HETATM   41  C19 UNL     1     -12.830   2.187  -1.171  1.00  0.00     0.245 C 
BRANCH  41  42
HETATM   42  O8  UNL     1     -12.623   2.935  -2.307  1.00  0.00    -0.393 OA
ATOM     43  H8  UNL     1     -12.347   2.409  -3.048  1.00  0.00     0.209 HD
ENDBRANCH  41  42
ENDBRANCH  39  41
ENDBRANCH  18  39
BRANCH  13  44
HETATM   44  O4  UNL     1     -16.537   6.483   2.103  1.00  0.00    -0.359 OA
ATOM     45  H4  UNL     1     -16.920   7.265   2.481  1.00  0.00     0.217 HD
ENDBRANCH  13  44
BRANCH   1  46
HETATM   46  O1  UNL     1     -23.598   4.700   1.567  1.00  0.00    -0.355 OA
HETATM   47  C1  UNL     1     -24.955   4.545   1.926  1.00  0.00     0.210 C 
ENDBRANCH   1  46
TORSDOF 11
ENDMDL
