MODEL 8
REMARK VINA RESULT: -7.861834310      2.416      5.333
REMARK  11 active torsions:
REMARK  status: ('A' for Active; 'I' for Inactive)
REMARK    1  A    between atoms: O1_2  and  C2_3 
REMARK    2  A    between atoms: C10_12  and  O3_13 
REMARK    3  A    between atoms: C13_17  and  O4_18 
REMARK    4  A    between atoms: C17_24  and  O6_25 
REMARK    5  A    between atoms: C17_24  and  C18_27 
REMARK    6  A    between atoms: C18_27  and  C19_29 
REMARK    7  A    between atoms: C19_29  and  O8_30 
REMARK    8  A    between atoms: C21_33  and  O9_34 
REMARK    9  A    between atoms: O9_34  and  C22_35 
REMARK   10  A    between atoms: C24_37  and  N1_38 
REMARK   11  A    between atoms: C25_42  and  O10_43 
ROOT
HETATM    1  C2  UNL     1     -21.887   5.128   1.697  1.00  0.00     0.083 A 
HETATM    2  C3  UNL     1     -22.309   6.370   2.174  1.00  0.00     0.038 A 
HETATM    3  C4  UNL     1     -21.407   7.344   2.542  1.00  0.00     0.004 A 
HETATM    4  C5  UNL     1     -20.072   7.075   2.429  1.00  0.00     0.017 A 
HETATM    5  C6  UNL     1     -19.663   5.849   1.957  1.00  0.00     0.032 A 
HETATM    6  C7  UNL     1     -20.540   4.857   1.584  1.00  0.00     0.062 A 
HETATM    7  C8  UNL     1     -20.102   3.557   1.083  1.00  0.00     0.200 A 
HETATM    8  O2  UNL     1     -20.958   2.702   0.763  1.00  0.00    -0.286 OA
HETATM    9  C9  UNL     1     -18.664   3.310   0.980  1.00  0.00     0.066 A 
HETATM   10  C10 UNL     1     -18.214   2.076   0.505  1.00  0.00     0.090 A 
HETATM   11  C11 UNL     1     -16.855   1.885   0.423  1.00  0.00     0.014 A 
HETATM   12  C12 UNL     1     -15.975   2.886   0.800  1.00  0.00    -0.009 A 
HETATM   13  C13 UNL     1     -16.384   4.100   1.267  1.00  0.00     0.088 A 
HETATM   14  C14 UNL     1     -17.763   4.301   1.353  1.00  0.00     0.066 A 
HETATM   15  C15 UNL     1     -18.237   5.575   1.844  1.00  0.00     0.197 A 
HETATM   16  O5  UNL     1     -17.399   6.449   2.172  1.00  0.00    -0.286 OA
HETATM   17  C16 UNL     1     -14.542   2.552   0.664  1.00  0.00     0.088 C 
HETATM   18  C17 UNL     1     -14.251   2.001  -0.708  1.00  0.00     0.127 C 
HETATM   19  C20 UNL     1     -15.312   1.085  -1.199  1.00  0.00     0.083 C 
HETATM   20  C21 UNL     1     -16.246   0.633  -0.062  1.00  0.00     0.164 C 
ENDROOT
BRANCH  20  21
HETATM   21  O9  UNL     1     -17.124  -0.315  -0.517  1.00  0.00    -0.351 OA
BRANCH  21  22
HETATM   22  C22 UNL     1     -17.189  -1.347   0.390  1.00  0.00     0.263 C 
HETATM   23  C23 UNL     1     -17.511  -2.690  -0.184  1.00  0.00     0.096 C 
HETATM   24  C24 UNL     1     -16.466  -3.213  -1.112  1.00  0.00     0.219 C 
HETATM   25  C25 UNL     1     -15.119  -3.122  -0.425  1.00  0.00     0.177 C 
HETATM   26  C26 UNL     1     -14.944  -1.767   0.235  1.00  0.00     0.151 C 
HETATM   27  C27 UNL     1     -13.643  -1.806   0.990  1.00  0.00     0.042 C 
HETATM   28  O11 UNL     1     -15.971  -1.465   1.095  1.00  0.00    -0.354 OA
BRANCH  24  29
HETATM   29  N1  UNL     1     -16.770  -4.638  -1.324  1.00  0.00    -0.072 N 
ATOM     30  H13 UNL     1     -17.029  -5.127  -0.467  1.00  0.00     0.274 HD
ATOM     31  H12 UNL     1     -17.642  -4.795  -1.828  1.00  0.00     0.274 HD
ATOM     32  H11 UNL     1     -15.956  -5.041  -1.789  1.00  0.00     0.274 HD
ENDBRANCH  24  29
BRANCH  25  33
HETATM   33  O10 UNL     1     -14.975  -4.161   0.491  1.00  0.00    -0.391 OA
ATOM     34  H10 UNL     1     -14.154  -4.616   0.345  1.00  0.00     0.210 HD
ENDBRANCH  25  33
ENDBRANCH  21  22
ENDBRANCH  20  21
BRANCH  10  35
HETATM   35  O3  UNL     1     -19.019   1.055   0.119  1.00  0.00    -0.359 OA
ATOM     36  H3  UNL     1     -18.724   0.168  -0.054  1.00  0.00     0.217 HD
ENDBRANCH  10  35
BRANCH  18  37
HETATM   37  O6  UNL     1     -14.125   3.105  -1.566  1.00  0.00    -0.382 OA
ATOM     38  H6  UNL     1     -14.059   2.758  -2.448  1.00  0.00     0.211 HD
ENDBRANCH  18  37
BRANCH  18  39
HETATM   39  C18 UNL     1     -12.926   1.293  -0.616  1.00  0.00     0.184 C 
HETATM   40  O7  UNL     1     -12.262   1.396   0.389  1.00  0.00    -0.292 OA
BRANCH  39  41
HETATM   41  C19 UNL     1     -12.433   0.477  -1.735  1.00  0.00     0.245 C 
BRANCH  41  42
HETATM   42  O8  UNL     1     -12.195   1.216  -2.871  1.00  0.00    -0.393 OA
ATOM     43  H8  UNL     1     -11.295   1.155  -3.168  1.00  0.00     0.209 HD
ENDBRANCH  41  42
ENDBRANCH  39  41
ENDBRANCH  18  39
BRANCH  13  44
HETATM   44  O4  UNL     1     -15.550   5.129   1.655  1.00  0.00    -0.359 OA
ATOM     45  H4  UNL     1     -15.252   5.836   1.094  1.00  0.00     0.217 HD
ENDBRANCH  13  44
BRANCH   1  46
HETATM   46  O1  UNL     1     -22.779   4.148   1.327  1.00  0.00    -0.355 OA
HETATM   47  C1  UNL     1     -24.173   4.255   1.530  1.00  0.00     0.210 C 
ENDBRANCH   1  46
TORSDOF 11
ENDMDL
