MODEL 9
REMARK VINA RESULT: -7.816209760      2.011      5.080
REMARK  11 active torsions:
REMARK  status: ('A' for Active; 'I' for Inactive)
REMARK    1  A    between atoms: O1_2  and  C2_3 
REMARK    2  A    between atoms: C10_12  and  O3_13 
REMARK    3  A    between atoms: C13_17  and  O4_18 
REMARK    4  A    between atoms: C17_24  and  O6_25 
REMARK    5  A    between atoms: C17_24  and  C18_27 
REMARK    6  A    between atoms: C18_27  and  C19_29 
REMARK    7  A    between atoms: C19_29  and  O8_30 
REMARK    8  A    between atoms: C21_33  and  O9_34 
REMARK    9  A    between atoms: O9_34  and  C22_35 
REMARK   10  A    between atoms: C24_37  and  N1_38 
REMARK   11  A    between atoms: C25_42  and  O10_43 
ROOT
HETATM    1  C2  UNL     1     -22.766   5.537   1.840  1.00  0.00     0.083 A 
HETATM    2  C3  UNL     1     -23.514   6.642   2.249  1.00  0.00     0.038 A 
HETATM    3  C4  UNL     1     -22.909   7.804   2.673  1.00  0.00     0.004 A 
HETATM    4  C5  UNL     1     -21.543   7.862   2.686  1.00  0.00     0.017 A 
HETATM    5  C6  UNL     1     -20.812   6.771   2.280  1.00  0.00     0.032 A 
HETATM    6  C7  UNL     1     -21.388   5.597   1.853  1.00  0.00     0.062 A 
HETATM    7  C8  UNL     1     -20.609   4.439   1.423  1.00  0.00     0.200 A 
HETATM    8  O2  UNL     1     -21.203   3.404   1.047  1.00  0.00    -0.286 OA
HETATM    9  C9  UNL     1     -19.150   4.544   1.453  1.00  0.00     0.066 A 
HETATM   10  C10 UNL     1     -18.377   3.454   1.048  1.00  0.00     0.090 A 
HETATM   11  C11 UNL     1     -17.011   3.594   1.092  1.00  0.00     0.014 A 
HETATM   12  C12 UNL     1     -16.433   4.777   1.523  1.00  0.00    -0.009 A 
HETATM   13  C13 UNL     1     -17.161   5.858   1.924  1.00  0.00     0.088 A 
HETATM   14  C14 UNL     1     -18.551   5.722   1.882  1.00  0.00     0.066 A 
HETATM   15  C15 UNL     1     -19.357   6.846   2.300  1.00  0.00     0.197 A 
HETATM   16  O5  UNL     1     -18.786   7.896   2.681  1.00  0.00    -0.286 OA
HETATM   17  C16 UNL     1     -14.956   4.796   1.522  1.00  0.00     0.088 C 
HETATM   18  C17 UNL     1     -14.417   4.330   0.194  1.00  0.00     0.127 C 
HETATM   19  C20 UNL     1     -15.179   3.186  -0.369  1.00  0.00     0.083 C 
HETATM   20  C21 UNL     1     -16.078   2.524   0.691  1.00  0.00     0.164 C 
ENDROOT
BRANCH  20  21
HETATM   21  O9  UNL     1     -16.659   1.393   0.182  1.00  0.00    -0.351 OA
BRANCH  21  22
HETATM   22  C22 UNL     1     -15.694   0.432  -0.009  1.00  0.00     0.263 C 
HETATM   23  C23 UNL     1     -16.016  -0.923   0.537  1.00  0.00     0.096 C 
HETATM   24  C24 UNL     1     -17.182  -1.576  -0.125  1.00  0.00     0.219 C 
HETATM   25  C25 UNL     1     -16.976  -1.529  -1.625  1.00  0.00     0.177 C 
HETATM   26  C26 UNL     1     -16.527  -0.147  -2.061  1.00  0.00     0.151 C 
HETATM   27  C27 UNL     1     -16.231  -0.221  -3.535  1.00  0.00     0.042 C 
HETATM   28  O11 UNL     1     -15.412   0.281  -1.385  1.00  0.00    -0.354 OA
BRANCH  24  29
HETATM   29  N1  UNL     1     -17.161  -2.989   0.289  1.00  0.00    -0.072 N 
ATOM     30  H13 UNL     1     -16.755  -3.609  -0.412  1.00  0.00     0.274 HD
ATOM     31  H12 UNL     1     -16.489  -3.182   1.033  1.00  0.00     0.274 HD
ATOM     32  H11 UNL     1     -18.119  -3.232   0.538  1.00  0.00     0.274 HD
ENDBRANCH  24  29
BRANCH  25  33
HETATM   33  O10 UNL     1     -16.069  -2.510  -2.018  1.00  0.00    -0.391 OA
ATOM     34  H10 UNL     1     -15.274  -2.447  -1.503  1.00  0.00     0.210 HD
ENDBRANCH  25  33
ENDBRANCH  21  22
ENDBRANCH  20  21
BRANCH  10  35
HETATM   35  O3  UNL     1     -18.876   2.269   0.616  1.00  0.00    -0.359 OA
ATOM     36  H3  UNL     1     -18.355   1.497   0.431  1.00  0.00     0.217 HD
ENDBRANCH  10  35
BRANCH  18  37
HETATM   37  O6  UNL     1     -14.480   5.432  -0.674  1.00  0.00    -0.382 OA
ATOM     38  H6  UNL     1     -15.400   5.580  -0.859  1.00  0.00     0.211 HD
ENDBRANCH  18  37
BRANCH  18  39
HETATM   39  C18 UNL     1     -12.976   3.960   0.419  1.00  0.00     0.184 C 
HETATM   40  O7  UNL     1     -12.707   2.963   1.049  1.00  0.00    -0.292 OA
BRANCH  39  41
HETATM   41  C19 UNL     1     -11.893   4.797  -0.118  1.00  0.00     0.245 C 
BRANCH  41  42
HETATM   42  O8  UNL     1     -11.797   6.015   0.513  1.00  0.00    -0.393 OA
ATOM     43  H8  UNL     1     -10.911   6.220   0.785  1.00  0.00     0.209 HD
ENDBRANCH  41  42
ENDBRANCH  39  41
ENDBRANCH  18  39
BRANCH  13  44
HETATM   44  O4  UNL     1     -16.636   7.057   2.360  1.00  0.00    -0.359 OA
ATOM     45  H4  UNL     1     -16.849   7.912   2.005  1.00  0.00     0.217 HD
ENDBRANCH  13  44
BRANCH   1  46
HETATM   46  O1  UNL     1     -23.361   4.372   1.415  1.00  0.00    -0.355 OA
HETATM   47  C1  UNL     1     -24.756   4.157   1.454  1.00  0.00     0.210 C 
ENDBRANCH   1  46
TORSDOF 11
ENDMDL
