MODEL 3
REMARK VINA RESULT: -9.663990488      1.629      2.023
REMARK  11 active torsions:
REMARK  status: ('A' for Active; 'I' for Inactive)
REMARK    1  A    between atoms: O1_2  and  C2_3 
REMARK    2  A    between atoms: C10_12  and  O3_13 
REMARK    3  A    between atoms: C13_17  and  O4_18 
REMARK    4  A    between atoms: C17_24  and  O6_25 
REMARK    5  A    between atoms: C17_24  and  C18_27 
REMARK    6  A    between atoms: C18_27  and  C19_29 
REMARK    7  A    between atoms: C19_29  and  O8_30 
REMARK    8  A    between atoms: C21_33  and  O9_34 
REMARK    9  A    between atoms: O9_34  and  C22_35 
REMARK   10  A    between atoms: C24_37  and  N1_38 
REMARK   11  A    between atoms: C25_42  and  O10_43 
ROOT
HETATM    1  C2  UNL     1     -20.676   7.681   2.707  1.00  0.00     0.083 A 
HETATM    2  C3  UNL     1     -22.006   8.051   2.915  1.00  0.00     0.038 A 
HETATM    3  C4  UNL     1     -23.046   7.200   2.612  1.00  0.00     0.004 A 
HETATM    4  C5  UNL     1     -22.754   5.969   2.098  1.00  0.00     0.017 A 
HETATM    5  C6  UNL     1     -21.441   5.610   1.896  1.00  0.00     0.032 A 
HETATM    6  C7  UNL     1     -20.382   6.438   2.188  1.00  0.00     0.062 A 
HETATM    7  C8  UNL     1     -18.990   6.054   1.973  1.00  0.00     0.200 A 
HETATM    8  O2  UNL     1     -18.079   6.861   2.263  1.00  0.00    -0.286 OA
HETATM    9  C9  UNL     1     -18.722   4.726   1.420  1.00  0.00     0.066 A 
HETATM   10  C10 UNL     1     -17.401   4.330   1.203  1.00  0.00     0.090 A 
HETATM   11  C11 UNL     1     -17.192   3.076   0.682  1.00  0.00     0.014 A 
HETATM   12  C12 UNL     1     -18.260   2.244   0.388  1.00  0.00    -0.009 A 
HETATM   13  C13 UNL     1     -19.560   2.602   0.590  1.00  0.00     0.088 A 
HETATM   14  C14 UNL     1     -19.779   3.877   1.119  1.00  0.00     0.066 A 
HETATM   15  C15 UNL     1     -21.144   4.294   1.347  1.00  0.00     0.197 A 
HETATM   16  O5  UNL     1     -22.076   3.503   1.065  1.00  0.00    -0.286 OA
HETATM   17  C16 UNL     1     -17.899   0.923  -0.166  1.00  0.00     0.088 C 
HETATM   18  C17 UNL     1     -16.852   0.254   0.687  1.00  0.00     0.127 C 
HETATM   19  C20 UNL     1     -15.817   1.200   1.178  1.00  0.00     0.083 C 
HETATM   20  C21 UNL     1     -15.849   2.531   0.405  1.00  0.00     0.164 C 
ENDROOT
BRANCH  20  21
HETATM   21  O9  UNL     1     -14.800   3.325   0.783  1.00  0.00    -0.351 OA
BRANCH  21  22
HETATM   22  C22 UNL     1     -13.617   2.706   0.450  1.00  0.00     0.263 C 
HETATM   23  C23 UNL     1     -12.768   3.431  -0.545  1.00  0.00     0.096 C 
HETATM   24  C24 UNL     1     -12.256   4.744  -0.056  1.00  0.00     0.219 C 
HETATM   25  C25 UNL     1     -11.611   4.537   1.300  1.00  0.00     0.177 C 
HETATM   26  C26 UNL     1     -12.494   3.683   2.189  1.00  0.00     0.151 C 
HETATM   27  C27 UNL     1     -11.729   3.428   3.460  1.00  0.00     0.042 C 
HETATM   28  O11 UNL     1     -12.832   2.488   1.603  1.00  0.00    -0.354 OA
BRANCH  24  29
HETATM   29  N1  UNL     1     -11.204   5.161  -0.998  1.00  0.00    -0.072 N 
ATOM     30  H13 UNL     1     -10.503   4.439  -1.166  1.00  0.00     0.274 HD
ATOM     31  H12 UNL     1     -11.534   5.244  -1.960  1.00  0.00     0.274 HD
ATOM     32  H11 UNL     1     -10.812   6.027  -0.629  1.00  0.00     0.274 HD
ENDBRANCH  24  29
BRANCH  25  33
HETATM   33  O10 UNL     1     -10.343   3.980   1.149  1.00  0.00    -0.391 OA
ATOM     34  H10 UNL     1     -10.266   3.193   1.674  1.00  0.00     0.210 HD
ENDBRANCH  25  33
ENDBRANCH  21  22
ENDBRANCH  20  21
BRANCH  10  35
HETATM   35  O3  UNL     1     -16.310   5.092   1.467  1.00  0.00    -0.359 OA
ATOM     36  H3  UNL     1     -15.683   5.386   0.816  1.00  0.00     0.217 HD
ENDBRANCH  10  35
BRANCH  18  37
HETATM   37  O6  UNL     1     -17.529  -0.331   1.769  1.00  0.00    -0.382 OA
ATOM     38  H6  UNL     1     -16.905  -0.898   2.205  1.00  0.00     0.211 HD
ENDBRANCH  18  37
BRANCH  18  39
HETATM   39  C18 UNL     1     -16.236  -0.830  -0.156  1.00  0.00     0.184 C 
HETATM   40  O7  UNL     1     -15.511  -0.531  -1.077  1.00  0.00    -0.292 OA
BRANCH  39  41
HETATM   41  C19 UNL     1     -16.507  -2.246   0.128  1.00  0.00     0.245 C 
BRANCH  41  42
HETATM   42  O8  UNL     1     -17.851  -2.532   0.187  1.00  0.00    -0.393 OA
ATOM     43  H8  UNL     1     -18.351  -2.089  -0.488  1.00  0.00     0.209 HD
ENDBRANCH  41  42
ENDBRANCH  39  41
ENDBRANCH  18  39
BRANCH  13  44
HETATM   44  O4  UNL     1     -20.659   1.813   0.316  1.00  0.00    -0.359 OA
ATOM     45  H4  UNL     1     -21.108   1.768  -0.520  1.00  0.00     0.217 HD
ENDBRANCH  13  44
BRANCH   1  46
HETATM   46  O1  UNL     1     -19.631   8.524   3.006  1.00  0.00    -0.355 OA
HETATM   47  C1  UNL     1     -19.636   9.902   2.699  1.00  0.00     0.210 C 
ENDBRANCH   1  46
TORSDOF 11
ENDMDL
