MODEL 2
REMARK VINA RESULT: -9.710795723      1.532      2.105
REMARK  11 active torsions:
REMARK  status: ('A' for Active; 'I' for Inactive)
REMARK    1  A    between atoms: O1_2  and  C2_3 
REMARK    2  A    between atoms: C10_12  and  O3_13 
REMARK    3  A    between atoms: C13_17  and  O4_18 
REMARK    4  A    between atoms: C17_24  and  O6_25 
REMARK    5  A    between atoms: C17_24  and  C18_27 
REMARK    6  A    between atoms: C18_27  and  C19_29 
REMARK    7  A    between atoms: C19_29  and  O8_30 
REMARK    8  A    between atoms: C21_33  and  O9_34 
REMARK    9  A    between atoms: O9_34  and  C22_35 
REMARK   10  A    between atoms: C24_37  and  N1_38 
REMARK   11  A    between atoms: C25_42  and  O10_43 
ROOT
HETATM    1  C2  UNL     1     -20.734   7.810   2.668  1.00  0.00     0.083 A 
HETATM    2  C3  UNL     1     -22.082   8.126   2.845  1.00  0.00     0.038 A 
HETATM    3  C4  UNL     1     -23.078   7.219   2.559  1.00  0.00     0.004 A 
HETATM    4  C5  UNL     1     -22.723   5.985   2.093  1.00  0.00     0.017 A 
HETATM    5  C6  UNL     1     -21.393   5.680   1.922  1.00  0.00     0.032 A 
HETATM    6  C7  UNL     1     -20.377   6.565   2.197  1.00  0.00     0.062 A 
HETATM    7  C8  UNL     1     -18.966   6.237   2.014  1.00  0.00     0.200 A 
HETATM    8  O2  UNL     1     -18.096   7.095   2.286  1.00  0.00    -0.286 OA
HETATM    9  C9  UNL     1     -18.630   4.905   1.512  1.00  0.00     0.066 A 
HETATM   10  C10 UNL     1     -17.289   4.562   1.326  1.00  0.00     0.090 A 
HETATM   11  C11 UNL     1     -17.017   3.301   0.853  1.00  0.00     0.014 A 
HETATM   12  C12 UNL     1     -18.042   2.411   0.576  1.00  0.00    -0.009 A 
HETATM   13  C13 UNL     1     -19.359   2.717   0.747  1.00  0.00     0.088 A 
HETATM   14  C14 UNL     1     -19.643   3.998   1.227  1.00  0.00     0.066 A 
HETATM   15  C15 UNL     1     -21.028   4.360   1.423  1.00  0.00     0.197 A 
HETATM   16  O5  UNL     1     -21.920   3.518   1.158  1.00  0.00    -0.286 OA
HETATM   17  C16 UNL     1     -17.613   1.090   0.073  1.00  0.00     0.088 C 
HETATM   18  C17 UNL     1     -16.550   0.500   0.963  1.00  0.00     0.127 C 
HETATM   19  C20 UNL     1     -15.565   1.509   1.433  1.00  0.00     0.083 C 
HETATM   20  C21 UNL     1     -15.647   2.809   0.613  1.00  0.00     0.164 C 
ENDROOT
BRANCH  20  21
HETATM   21  O9  UNL     1     -14.640   3.663   0.976  1.00  0.00    -0.351 OA
BRANCH  21  22
HETATM   22  C22 UNL     1     -13.887   3.976  -0.132  1.00  0.00     0.263 C 
HETATM   23  C23 UNL     1     -12.921   5.104   0.043  1.00  0.00     0.096 C 
HETATM   24  C24 UNL     1     -11.841   4.823   1.032  1.00  0.00     0.219 C 
HETATM   25  C25 UNL     1     -11.206   3.491   0.689  1.00  0.00     0.177 C 
HETATM   26  C26 UNL     1     -12.269   2.448   0.405  1.00  0.00     0.151 C 
HETATM   27  C27 UNL     1     -11.557   1.199  -0.041  1.00  0.00     0.042 C 
HETATM   28  O11 UNL     1     -13.153   2.850  -0.566  1.00  0.00    -0.354 OA
BRANCH  24  29
HETATM   29  N1  UNL     1     -10.822   5.870   0.847  1.00  0.00    -0.072 N 
ATOM     30  H13 UNL     1     -11.059   6.540   0.116  1.00  0.00     0.274 HD
ATOM     31  H12 UNL     1     -10.781   6.535   1.620  1.00  0.00     0.274 HD
ATOM     32  H11 UNL     1      -9.938   5.388   0.683  1.00  0.00     0.274 HD
ENDBRANCH  24  29
BRANCH  25  33
HETATM   33  O10 UNL     1     -10.330   3.637  -0.383  1.00  0.00    -0.391 OA
ATOM     34  H10 UNL     1      -9.508   3.198  -0.198  1.00  0.00     0.210 HD
ENDBRANCH  25  33
ENDBRANCH  21  22
ENDBRANCH  20  21
BRANCH  10  35
HETATM   35  O3  UNL     1     -16.238   5.382   1.577  1.00  0.00    -0.359 OA
ATOM     36  H3  UNL     1     -15.394   5.096   1.905  1.00  0.00     0.217 HD
ENDBRANCH  10  35
BRANCH  18  37
HETATM   37  O6  UNL     1     -17.215  -0.078   2.056  1.00  0.00    -0.382 OA
ATOM     38  H6  UNL     1     -16.559  -0.550   2.555  1.00  0.00     0.211 HD
ENDBRANCH  18  37
BRANCH  18  39
HETATM   39  C18 UNL     1     -15.873  -0.584   0.167  1.00  0.00     0.184 C 
HETATM   40  O7  UNL     1     -14.679  -0.534  -0.015  1.00  0.00    -0.292 OA
BRANCH  39  41
HETATM   41  C19 UNL     1     -16.649  -1.701  -0.391  1.00  0.00     0.245 C 
BRANCH  41  42
HETATM   42  O8  UNL     1     -17.286  -2.444   0.577  1.00  0.00    -0.393 OA
ATOM     43  H8  UNL     1     -17.914  -3.058   0.215  1.00  0.00     0.209 HD
ENDBRANCH  41  42
ENDBRANCH  39  41
ENDBRANCH  18  39
BRANCH  13  44
HETATM   44  O4  UNL     1     -20.417   1.869   0.487  1.00  0.00    -0.359 OA
ATOM     45  H4  UNL     1     -20.661   1.117   1.014  1.00  0.00     0.217 HD
ENDBRANCH  13  44
BRANCH   1  46
HETATM   46  O1  UNL     1     -19.732   8.710   2.950  1.00  0.00    -0.355 OA
HETATM   47  C1  UNL     1     -19.805  10.080   2.615  1.00  0.00     0.210 C 
ENDBRANCH   1  46
TORSDOF 11
ENDMDL
