MODEL 3
REMARK VINA RESULT: -9.040622935      3.549      7.537
REMARK  7 active torsions:
REMARK  status: ('A' for Active; 'I' for Inactive)
REMARK    1  A    between atoms: O1_2  and  C2_3 
REMARK    2  A    between atoms: C4_5  and  C5_6 
REMARK    3  A    between atoms: C5_6  and  O2_7 
REMARK    4  A    between atoms: C5_6  and  N1_9 
REMARK    5  A    between atoms: C8_12  and  N2_13 
REMARK    6  A    between atoms: C18_24  and  N4_25 
REMARK    7  A    between atoms: N4_25  and  C19_27 
ROOT
HETATM    1  C2  UNL     1       1.828  -6.166  16.125  1.00  0.00     0.096 A 
HETATM    2  C3  UNL     1       2.784  -6.854  15.430  1.00  0.00     0.054 A 
HETATM    3  C4  UNL     1       2.468  -7.726  14.371  1.00  0.00     0.017 A 
HETATM    4  C16 UNL     1       1.145  -7.852  14.071  1.00  0.00     0.018 A 
HETATM    5  C17 UNL     1       0.135  -7.173  14.752  1.00  0.00     0.034 A 
HETATM    6  C18 UNL     1       0.488  -6.333  15.776  1.00  0.00     0.082 A 
ENDROOT
BRANCH   6   7
HETATM    7  N4  UNL     1      -0.471  -5.602  16.497  1.00  0.00    -0.189 N 
ATOM      8  H4  UNL     1      -0.934  -4.849  15.990  1.00  0.00     0.184 HD
BRANCH   7   9
HETATM    9  C19 UNL     1      -0.873  -5.786  17.842  1.00  0.00     0.684 A 
HETATM   10  N5  UNL     1      -1.875  -6.681  18.113  1.00  0.00    -0.199 N 
HETATM   11  C20 UNL     1      -2.340  -6.927  19.339  1.00  0.00     0.139 A 
ATOM     12  H5  UNL     1      -2.289  -7.189  17.332  1.00  0.00     0.183 HD
HETATM   13  C21 UNL     1      -1.824  -6.275  20.429  1.00  0.00     0.098 A 
HETATM   14  C22 UNL     1      -0.806  -5.363  20.168  1.00  0.00     0.152 A 
HETATM   15  N8  UNL     1      -2.411  -6.634  21.673  1.00  0.00    -0.314 N 
HETATM   16  N6  UNL     1      -0.384  -5.163  18.915  1.00  0.00    -0.174 N 
HETATM   17  N7  UNL     1      -0.142  -4.570  21.146  1.00  0.00    -0.334 N 
ATOM     18  H6  UNL     1       0.364  -4.485  18.771  1.00  0.00     0.186 HD
HETATM   19  C23 UNL     1       1.158  -4.097  20.797  1.00  0.00     0.158 C 
HETATM   20  C24 UNL     1      -0.587  -4.159  22.447  1.00  0.00     0.051 A 
HETATM   21  C25 UNL     1       0.054  -3.030  22.922  1.00  0.00     0.031 A 
HETATM   22  C29 UNL     1      -1.544  -4.741  23.242  1.00  0.00     0.059 A 
HETATM   23  C26 UNL     1      -0.238  -2.480  24.151  1.00  0.00     0.002 A 
HETATM   24  C27 UNL     1      -1.209  -3.069  24.962  1.00  0.00     0.001 A 
HETATM   25  C28 UNL     1      -1.844  -4.197  24.480  1.00  0.00     0.019 A 
HETATM   26  C30 UNL     1      -2.337  -5.931  22.926  1.00  0.00     0.260 C 
HETATM   27  O3  UNL     1      -3.038  -6.408  23.842  1.00  0.00    -0.267 OA
HETATM   28  C31 UNL     1      -3.169  -7.864  21.640  1.00  0.00     0.160 C 
ENDBRANCH   7   9
ENDBRANCH   6   7
BRANCH   1  29
HETATM   29  O1  UNL     1       2.162  -5.304  17.173  1.00  0.00    -0.354 OA
HETATM   30  C1  UNL     1       3.124  -5.713  18.116  1.00  0.00     0.210 C 
ENDBRANCH   1  29
BRANCH   3  31
HETATM   31  C5  UNL     1       3.566  -8.386  13.733  1.00  0.00     0.148 C 
BRANCH  31  32
HETATM   32  O2  UNL     1       3.311  -8.995  12.594  1.00  0.00    -0.346 OA
ATOM     33  H2  UNL     1       3.379  -8.473  11.803  1.00  0.00     0.219 HD
ENDBRANCH  31  32
BRANCH  31  34
HETATM   34  N1  UNL     1       4.901  -8.513  14.107  1.00  0.00    -0.361 N 
HETATM   35  C6  UNL     1       5.201  -9.206  15.379  1.00  0.00     0.127 C 
HETATM   36  C7  UNL     1       6.017  -8.269  16.255  1.00  0.00     0.055 C 
HETATM   37  C8  UNL     1       7.253  -7.808  15.526  1.00  0.00     0.226 C 
HETATM   38  C14 UNL     1       7.304  -8.371  14.156  1.00  0.00     0.055 C 
HETATM   39  C15 UNL     1       6.017  -8.022  13.395  1.00  0.00     0.127 C 
BRANCH  37  40
HETATM   40  N2  UNL     1       7.342  -6.379  15.622  1.00  0.00     0.096 N 
HETATM   41  C9  UNL     1       6.545  -5.995  16.783  1.00  0.00     0.303 C 
HETATM   42  C10 UNL     1       6.706  -4.569  17.194  1.00  0.00     0.302 C 
HETATM   43  N3  UNL     1       8.109  -4.229  17.301  1.00  0.00     0.087 N 
HETATM   44  C11 UNL     1       8.275  -2.816  17.611  1.00  0.00     0.310 C 
HETATM   45  C12 UNL     1       8.666  -4.417  15.957  1.00  0.00     0.302 C 
HETATM   46  C13 UNL     1       8.723  -5.924  15.761  1.00  0.00     0.303 C 
ENDBRANCH  37  40
ENDBRANCH  31  34
ENDBRANCH   3  31
TORSDOF 7
ENDMDL
