MODEL 2
REMARK VINA RESULT: -9.232082307      1.334      1.715
REMARK  7 active torsions:
REMARK  status: ('A' for Active; 'I' for Inactive)
REMARK    1  A    between atoms: O1_2  and  C2_3 
REMARK    2  A    between atoms: C4_5  and  C5_6 
REMARK    3  A    between atoms: C5_6  and  O2_7 
REMARK    4  A    between atoms: C5_6  and  N1_9 
REMARK    5  A    between atoms: C8_12  and  N2_13 
REMARK    6  A    between atoms: C18_24  and  N4_25 
REMARK    7  A    between atoms: N4_25  and  C19_27 
ROOT
HETATM    1  C2  UNL     1       6.666 -10.491  14.905  1.00  0.00     0.096 A 
HETATM    2  C3  UNL     1       5.780 -11.359  14.329  1.00  0.00     0.054 A 
HETATM    3  C4  UNL     1       5.822 -11.685  12.960  1.00  0.00     0.017 A 
HETATM    4  C16 UNL     1       6.801 -11.084  12.229  1.00  0.00     0.018 A 
HETATM    5  C17 UNL     1       7.727 -10.192  12.772  1.00  0.00     0.034 A 
HETATM    6  C18 UNL     1       7.650  -9.904  14.110  1.00  0.00     0.082 A 
ENDROOT
BRANCH   6   7
HETATM    7  N4  UNL     1       8.556  -9.028  14.731  1.00  0.00    -0.189 N 
ATOM      8  H4  UNL     1       9.528  -9.334  14.757  1.00  0.00     0.184 HD
BRANCH   7   9
HETATM    9  C19 UNL     1       8.283  -7.772  15.325  1.00  0.00     0.684 A 
HETATM   10  N5  UNL     1       9.248  -6.799  15.277  1.00  0.00    -0.199 N 
HETATM   11  C20 UNL     1       9.104  -5.585  15.811  1.00  0.00     0.139 A 
ATOM     12  H5  UNL     1      10.126  -7.016  14.806  1.00  0.00     0.183 HD
HETATM   13  C21 UNL     1       7.947  -5.234  16.456  1.00  0.00     0.098 A 
HETATM   14  C22 UNL     1       6.959  -6.214  16.513  1.00  0.00     0.152 A 
HETATM   15  N8  UNL     1       7.929  -3.911  16.976  1.00  0.00    -0.314 N 
HETATM   16  N6  UNL     1       7.166  -7.412  15.957  1.00  0.00    -0.174 N 
HETATM   17  N7  UNL     1       5.692  -6.068  17.145  1.00  0.00    -0.334 N 
ATOM     18  H6  UNL     1       6.415  -8.099  16.021  1.00  0.00     0.186 HD
HETATM   19  C23 UNL     1       4.656  -6.935  16.685  1.00  0.00     0.158 C 
HETATM   20  C24 UNL     1       5.290  -5.176  18.194  1.00  0.00     0.051 A 
HETATM   21  C25 UNL     1       4.182  -5.611  18.898  1.00  0.00     0.031 A 
HETATM   22  C29 UNL     1       5.863  -3.984  18.564  1.00  0.00     0.059 A 
HETATM   23  C26 UNL     1       3.647  -4.893  19.944  1.00  0.00     0.002 A 
HETATM   24  C27 UNL     1       4.226  -3.681  20.322  1.00  0.00     0.001 A 
HETATM   25  C28 UNL     1       5.332  -3.254  19.614  1.00  0.00     0.019 A 
HETATM   26  C30 UNL     1       7.036  -3.353  17.956  1.00  0.00     0.260 C 
HETATM   27  O3  UNL     1       7.309  -2.190  18.317  1.00  0.00    -0.267 OA
HETATM   28  C31 UNL     1       8.948  -3.044  16.429  1.00  0.00     0.160 C 
ENDBRANCH   7   9
ENDBRANCH   6   7
BRANCH   1  29
HETATM   29  O1  UNL     1       6.609 -10.182  16.267  1.00  0.00    -0.354 OA
HETATM   30  C1  UNL     1       6.806 -11.207  17.210  1.00  0.00     0.210 C 
ENDBRANCH   1  29
BRANCH   3  31
HETATM   31  C5  UNL     1       4.831 -12.604  12.488  1.00  0.00     0.148 C 
BRANCH  31  32
HETATM   32  O2  UNL     1       5.262 -13.767  12.047  1.00  0.00    -0.346 OA
ATOM     33  H2  UNL     1       6.073 -13.764  11.553  1.00  0.00     0.219 HD
ENDBRANCH  31  32
BRANCH  31  34
HETATM   34  N1  UNL     1       3.446 -12.491  12.398  1.00  0.00    -0.361 N 
HETATM   35  C6  UNL     1       2.878 -11.873  11.180  1.00  0.00     0.127 C 
HETATM   36  C7  UNL     1       2.009 -10.697  11.600  1.00  0.00     0.055 C 
HETATM   37  C8  UNL     1       0.958 -11.143  12.583  1.00  0.00     0.226 C 
HETATM   38  C14 UNL     1       1.090 -12.588  12.885  1.00  0.00     0.055 C 
HETATM   39  C15 UNL     1       2.512 -12.894  13.377  1.00  0.00     0.127 C 
BRANCH  37  40
HETATM   40  N2  UNL     1       0.977 -10.260  13.713  1.00  0.00     0.096 N 
HETATM   41  C9  UNL     1       1.709  -9.070  13.292  1.00  0.00     0.303 C 
HETATM   42  C10 UNL     1       1.631  -7.929  14.252  1.00  0.00     0.302 C 
HETATM   43  N3  UNL     1       0.256  -7.675  14.626  1.00  0.00     0.087 N 
HETATM   44  C11 UNL     1       0.180  -6.626  15.632  1.00  0.00     0.310 C 
HETATM   45  C12 UNL     1      -0.208  -8.902  15.284  1.00  0.00     0.302 C 
HETATM   46  C13 UNL     1      -0.370  -9.915  14.161  1.00  0.00     0.303 C 
ENDBRANCH  37  40
ENDBRANCH  31  34
ENDBRANCH   3  31
TORSDOF 7
ENDMDL
