MODEL 1
REMARK VINA RESULT: -9.283366920      0.000      0.000
REMARK  7 active torsions:
REMARK  status: ('A' for Active; 'I' for Inactive)
REMARK    1  A    between atoms: O1_2  and  C2_3 
REMARK    2  A    between atoms: C4_5  and  C5_6 
REMARK    3  A    between atoms: C5_6  and  O2_7 
REMARK    4  A    between atoms: C5_6  and  N1_9 
REMARK    5  A    between atoms: C8_12  and  N2_13 
REMARK    6  A    between atoms: C18_24  and  N4_25 
REMARK    7  A    between atoms: N4_25  and  C19_27 
ROOT
HETATM    1  C2  UNL     1       6.969 -10.017  15.209  1.00  0.00     0.096 A 
HETATM    2  C3  UNL     1       6.308 -10.972  14.485  1.00  0.00     0.054 A 
HETATM    3  C4  UNL     1       5.751 -10.710  13.220  1.00  0.00     0.017 A 
HETATM    4  C16 UNL     1       5.903  -9.442  12.747  1.00  0.00     0.018 A 
HETATM    5  C17 UNL     1       6.568  -8.435  13.448  1.00  0.00     0.034 A 
HETATM    6  C18 UNL     1       7.097  -8.734  14.677  1.00  0.00     0.082 A 
ENDROOT
BRANCH   6   7
HETATM    7  N4  UNL     1       7.793  -7.779  15.435  1.00  0.00    -0.189 N 
ATOM      8  H4  UNL     1       8.811  -7.823  15.386  1.00  0.00     0.184 HD
BRANCH   7   9
HETATM    9  C19 UNL     1       7.254  -6.761  16.257  1.00  0.00     0.684 A 
HETATM   10  N5  UNL     1       8.109  -5.851  16.824  1.00  0.00    -0.199 N 
HETATM   11  C20 UNL     1       7.714  -4.858  17.622  1.00  0.00     0.139 A 
ATOM     12  H5  UNL     1       9.105  -5.939  16.623  1.00  0.00     0.183 HD
HETATM   13  C21 UNL     1       6.389  -4.689  17.929  1.00  0.00     0.098 A 
HETATM   14  C22 UNL     1       5.510  -5.606  17.361  1.00  0.00     0.152 A 
HETATM   15  N8  UNL     1       6.110  -3.592  18.788  1.00  0.00    -0.314 N 
HETATM   16  N6  UNL     1       5.970  -6.579  16.568  1.00  0.00    -0.174 N 
HETATM   17  N7  UNL     1       4.100  -5.624  17.558  1.00  0.00    -0.334 N 
ATOM     18  H6  UNL     1       5.290  -7.229  16.173  1.00  0.00     0.186 HD
HETATM   19  C23 UNL     1       3.331  -6.273  16.546  1.00  0.00     0.158 C 
HETATM   20  C24 UNL     1       3.319  -5.089  18.636  1.00  0.00     0.051 A 
HETATM   21  C25 UNL     1       2.080  -5.685  18.774  1.00  0.00     0.031 A 
HETATM   22  C29 UNL     1       3.655  -4.088  19.515  1.00  0.00     0.059 A 
HETATM   23  C26 UNL     1       1.187  -5.311  19.753  1.00  0.00     0.002 A 
HETATM   24  C27 UNL     1       1.525  -4.293  20.648  1.00  0.00     0.001 A 
HETATM   25  C28 UNL     1       2.765  -3.703  20.503  1.00  0.00     0.019 A 
HETATM   26  C30 UNL     1       4.912  -3.337  19.544  1.00  0.00     0.260 C 
HETATM   27  O3  UNL     1       4.969  -2.352  20.308  1.00  0.00    -0.267 OA
HETATM   28  C31 UNL     1       7.184  -2.630  18.893  1.00  0.00     0.160 C 
ENDBRANCH   7   9
ENDBRANCH   6   7
BRANCH   1  29
HETATM   29  O1  UNL     1       7.518 -10.298  16.464  1.00  0.00    -0.354 OA
HETATM   30  C1  UNL     1       6.830 -11.166  17.332  1.00  0.00     0.210 C 
ENDBRANCH   1  29
BRANCH   3  31
HETATM   31  C5  UNL     1       5.082 -11.799  12.575  1.00  0.00     0.148 C 
BRANCH  31  32
HETATM   32  O2  UNL     1       5.844 -12.742  12.060  1.00  0.00    -0.346 OA
ATOM     33  H2  UNL     1       5.544 -13.638  12.162  1.00  0.00     0.219 HD
ENDBRANCH  31  32
BRANCH  31  34
HETATM   34  N1  UNL     1       3.728 -12.054  12.378  1.00  0.00    -0.361 N 
HETATM   35  C6  UNL     1       3.083 -11.483  11.176  1.00  0.00     0.127 C 
HETATM   36  C7  UNL     1       1.899 -10.638  11.623  1.00  0.00     0.055 C 
HETATM   37  C8  UNL     1       0.957 -11.455  12.468  1.00  0.00     0.226 C 
HETATM   38  C14 UNL     1       1.467 -12.835  12.650  1.00  0.00     0.055 C 
HETATM   39  C15 UNL     1       2.887 -12.799  13.233  1.00  0.00     0.127 C 
BRANCH  37  40
HETATM   40  N2  UNL     1       0.666 -10.729  13.670  1.00  0.00     0.096 N 
HETATM   41  C9  UNL     1       1.268  -9.409  13.509  1.00  0.00     0.303 C 
HETATM   42  C10 UNL     1       0.870  -8.420  14.554  1.00  0.00     0.302 C 
HETATM   43  N3  UNL     1      -0.569  -8.399  14.708  1.00  0.00     0.087 N 
HETATM   44  C11 UNL     1      -0.959  -7.505  15.790  1.00  0.00     0.310 C 
HETATM   45  C12 UNL     1      -0.941  -9.749  15.144  1.00  0.00     0.302 C 
HETATM   46  C13 UNL     1      -0.771 -10.623  13.912  1.00  0.00     0.303 C 
ENDBRANCH  37  40
ENDBRANCH  31  34
ENDBRANCH   3  31
TORSDOF 7
ENDMDL
