MODEL 2
REMARK VINA RESULT: -7.718725513      1.434      2.183
REMARK  7 active torsions:
REMARK  status: ('A' for Active; 'I' for Inactive)
REMARK    1  A    between atoms: C2_2  and  N1_3 
REMARK    2  A    between atoms: N1_3  and  C3_5 
REMARK    3  A    between atoms: C4_8  and  N3_9 
REMARK    4  A    between atoms: N3_9  and  C5_11 
REMARK    5  A    between atoms: C8_15  and  C9_16 
REMARK       I    between atoms: C9_16  and  N4_18 
REMARK    6  A    between atoms: C15_25  and  O3_26 
REMARK    7  A    between atoms: C18_31  and  C19_32 
ROOT
HETATM    1  N3  UNL     1       4.652  -6.825  16.856  1.00  0.00    -0.189 N 
ATOM      2  H3  UNL     1       5.093  -7.689  17.170  1.00  0.00     0.184 HD
ENDROOT
BRANCH   1   3
HETATM    3  C4  UNL     1       5.394  -5.651  17.051  1.00  0.00     0.684 A 
HETATM    4  N2  UNL     1       5.172  -4.876  18.150  1.00  0.00    -0.176 N 
HETATM    5  C3  UNL     1       5.806  -3.752  18.438  1.00  0.00     0.133 A 
ATOM      6  H2  UNL     1       4.456  -5.189  18.806  1.00  0.00     0.186 HD
HETATM    7  C18 UNL     1       6.781  -3.303  17.576  1.00  0.00     0.107 A 
HETATM    8  C17 UNL     1       7.025  -4.067  16.461  1.00  0.00     0.126 A 
HETATM    9  N5  UNL     1       6.345  -5.201  16.222  1.00  0.00    -0.201 N 
ATOM     10  H5  UNL     1       6.560  -5.737  15.381  1.00  0.00     0.183 HD
BRANCH   5  11
HETATM   11  N1  UNL     1       5.518  -2.997  19.605  1.00  0.00    -0.376 N 
ATOM     12  H1  UNL     1       6.197  -2.319  19.952  1.00  0.00     0.161 HD
BRANCH  11  13
HETATM   13  C2  UNL     1       4.277  -3.185  20.298  1.00  0.00     0.116 C 
HETATM   14  C1  UNL     1       3.281  -2.073  19.977  1.00  0.00     0.026 C 
ENDBRANCH  11  13
ENDBRANCH   5  11
BRANCH   7  15
HETATM   15  C19 UNL     1       7.556  -2.060  17.798  1.00  0.00     0.422 C 
HETATM   16  F2  UNL     1       6.642  -1.018  17.908  1.00  0.00    -0.166 F 
HETATM   17  F3  UNL     1       8.293  -2.162  18.941  1.00  0.00    -0.166 F 
HETATM   18  F4  UNL     1       8.405  -1.859  16.726  1.00  0.00    -0.166 F 
ENDBRANCH   7  15
ENDBRANCH   1   3
BRANCH   1  19
HETATM   19  C5  UNL     1       3.378  -6.959  16.280  1.00  0.00     0.085 A 
HETATM   20  C6  UNL     1       3.102  -7.580  15.085  1.00  0.00     0.076 A 
HETATM   21  C7  UNL     1       1.792  -7.659  14.598  1.00  0.00     0.134 A 
HETATM   22  F1  UNL     1       1.547  -8.278  13.417  1.00  0.00    -0.205 F 
HETATM   23  C8  UNL     1       0.722  -7.128  15.276  1.00  0.00     0.073 A 
HETATM   24  C14 UNL     1       0.990  -6.507  16.471  1.00  0.00     0.059 A 
HETATM   25  C15 UNL     1       2.277  -6.425  16.955  1.00  0.00     0.096 A 
BRANCH  23  26
HETATM   26  C9  UNL     1      -0.622  -7.232  14.737  1.00  0.00     0.257 C 
HETATM   27  O1  UNL     1      -1.011  -6.466  13.817  1.00  0.00    -0.267 OA
HETATM   28  N4  UNL     1      -1.566  -8.192  15.209  1.00  0.00    -0.344 N 
HETATM   29  C10 UNL     1      -2.896  -8.308  14.689  1.00  0.00     0.152 C 
HETATM   30  C13 UNL     1      -1.165  -9.097  16.268  1.00  0.00     0.152 C 
HETATM   31  C11 UNL     1      -3.184  -9.758  14.428  1.00  0.00     0.187 C 
HETATM   32  O2  UNL     1      -2.095 -10.579  14.614  1.00  0.00    -0.388 OA
HETATM   33  C12 UNL     1      -1.530 -10.490  15.862  1.00  0.00     0.187 C 
ENDBRANCH  23  26
BRANCH  25  34
HETATM   34  O3  UNL     1       2.510  -5.783  18.176  1.00  0.00    -0.354 OA
HETATM   35  C16 UNL     1       1.515  -4.932  18.704  1.00  0.00     0.210 C 
ENDBRANCH  25  34
ENDBRANCH   1  19
TORSDOF 7
ENDMDL
