MODEL 3
REMARK VINA RESULT: -7.706915533      2.286      2.791
REMARK  7 active torsions:
REMARK  status: ('A' for Active; 'I' for Inactive)
REMARK    1  A    between atoms: C2_2  and  N1_3 
REMARK    2  A    between atoms: N1_3  and  C3_5 
REMARK    3  A    between atoms: C4_8  and  N3_9 
REMARK    4  A    between atoms: N3_9  and  C5_11 
REMARK    5  A    between atoms: C8_15  and  C9_16 
REMARK       I    between atoms: C9_16  and  N4_18 
REMARK    6  A    between atoms: C15_25  and  O3_26 
REMARK    7  A    between atoms: C18_31  and  C19_32 
ROOT
HETATM    1  N3  UNL     1       4.135  -6.896  17.354  1.00  0.00    -0.189 N 
ATOM      2  H3  UNL     1       3.830  -7.354  18.213  1.00  0.00     0.184 HD
ENDROOT
BRANCH   1   3
HETATM    3  C4  UNL     1       4.937  -5.756  17.518  1.00  0.00     0.684 A 
HETATM    4  N2  UNL     1       4.669  -4.868  18.515  1.00  0.00    -0.176 N 
HETATM    5  C3  UNL     1       5.352  -3.764  18.764  1.00  0.00     0.133 A 
ATOM      6  H2  UNL     1       3.874  -5.071  19.121  1.00  0.00     0.186 HD
HETATM    7  C18 UNL     1       6.433  -3.460  17.967  1.00  0.00     0.107 A 
HETATM    8  C17 UNL     1       6.725  -4.341  16.954  1.00  0.00     0.126 A 
HETATM    9  N5  UNL     1       5.991  -5.447  16.751  1.00  0.00    -0.201 N 
ATOM     10  H5  UNL     1       6.245  -6.074  15.986  1.00  0.00     0.183 HD
BRANCH   5  11
HETATM   11  N1  UNL     1       5.010  -2.884  19.825  1.00  0.00    -0.376 N 
ATOM     12  H1  UNL     1       5.612  -2.821  20.647  1.00  0.00     0.161 HD
BRANCH  11  13
HETATM   13  C2  UNL     1       3.823  -2.084  19.745  1.00  0.00     0.116 C 
HETATM   14  C1  UNL     1       2.651  -2.747  20.465  1.00  0.00     0.026 C 
ENDBRANCH  11  13
ENDBRANCH   5  11
BRANCH   7  15
HETATM   15  C19 UNL     1       7.271  -2.253  18.154  1.00  0.00     0.422 C 
HETATM   16  F2  UNL     1       8.096  -2.147  17.039  1.00  0.00    -0.166 F 
HETATM   17  F3  UNL     1       6.483  -1.145  18.263  1.00  0.00    -0.166 F 
HETATM   18  F4  UNL     1       8.018  -2.395  19.308  1.00  0.00    -0.166 F 
ENDBRANCH   7  15
ENDBRANCH   1   3
BRANCH   1  19
HETATM   19  C5  UNL     1       3.699  -7.483  16.155  1.00  0.00     0.085 A 
HETATM   20  C6  UNL     1       2.668  -7.026  15.369  1.00  0.00     0.076 A 
HETATM   21  C7  UNL     1       2.311  -7.688  14.188  1.00  0.00     0.134 A 
HETATM   22  F1  UNL     1       1.291  -7.215  13.431  1.00  0.00    -0.205 F 
HETATM   23  C8  UNL     1       2.962  -8.816  13.753  1.00  0.00     0.073 A 
HETATM   24  C14 UNL     1       3.994  -9.279  14.533  1.00  0.00     0.059 A 
HETATM   25  C15 UNL     1       4.348  -8.632  15.696  1.00  0.00     0.096 A 
BRANCH  23  26
HETATM   26  C9  UNL     1       2.562  -9.473  12.521  1.00  0.00     0.257 C 
HETATM   27  O1  UNL     1       3.171  -9.252  11.443  1.00  0.00    -0.267 OA
HETATM   28  N4  UNL     1       1.472 -10.392  12.462  1.00  0.00    -0.344 N 
HETATM   29  C10 UNL     1       1.062 -11.048  11.256  1.00  0.00     0.152 C 
HETATM   30  C13 UNL     1       0.739 -10.679  13.679  1.00  0.00     0.152 C 
HETATM   31  C11 UNL     1       0.863 -12.507  11.547  1.00  0.00     0.187 C 
HETATM   32  O2  UNL     1       1.242 -12.872  12.820  1.00  0.00    -0.388 OA
HETATM   33  C12 UNL     1       0.617 -12.164  13.816  1.00  0.00     0.187 C 
ENDBRANCH  23  26
BRANCH  25  34
HETATM   34  O3  UNL     1       5.404  -9.135  16.463  1.00  0.00    -0.354 OA
HETATM   35  C16 UNL     1       6.670  -9.305  15.862  1.00  0.00     0.210 C 
ENDBRANCH  25  34
ENDBRANCH   1  19
TORSDOF 7
ENDMDL
