MODEL 1
REMARK VINA RESULT: -7.916873075      0.000      0.000
REMARK  7 active torsions:
REMARK  status: ('A' for Active; 'I' for Inactive)
REMARK    1  A    between atoms: C2_2  and  N1_3 
REMARK    2  A    between atoms: N1_3  and  C3_5 
REMARK    3  A    between atoms: C4_8  and  N3_9 
REMARK    4  A    between atoms: N3_9  and  C5_11 
REMARK    5  A    between atoms: C8_15  and  C9_16 
REMARK       I    between atoms: C9_16  and  N4_18 
REMARK    6  A    between atoms: C15_25  and  O3_26 
REMARK    7  A    between atoms: C18_31  and  C19_32 
ROOT
HETATM    1  N3  UNL     1       4.893  -6.768  16.030  1.00  0.00    -0.189 N 
ATOM      2  H3  UNL     1       5.483  -7.579  15.840  1.00  0.00     0.184 HD
ENDROOT
BRANCH   1   3
HETATM    3  C4  UNL     1       5.553  -5.630  16.518  1.00  0.00     0.684 A 
HETATM    4  N2  UNL     1       5.207  -5.103  17.726  1.00  0.00    -0.176 N 
HETATM    5  C3  UNL     1       5.755  -4.038  18.285  1.00  0.00     0.133 A 
ATOM      6  H2  UNL     1       4.461  -5.569  18.243  1.00  0.00     0.186 HD
HETATM    7  C18 UNL     1       6.766  -3.386  17.614  1.00  0.00     0.107 A 
HETATM    8  C17 UNL     1       7.135  -3.898  16.395  1.00  0.00     0.126 A 
HETATM    9  N5  UNL     1       6.538  -4.985  15.879  1.00  0.00    -0.201 N 
ATOM     10  H5  UNL     1       6.845  -5.332  14.969  1.00  0.00     0.183 HD
BRANCH   5  11
HETATM   11  N1  UNL     1       5.339  -3.546  19.550  1.00  0.00    -0.376 N 
ATOM     12  H1  UNL     1       6.030  -3.184  20.206  1.00  0.00     0.161 HD
BRANCH  11  13
HETATM   13  C2  UNL     1       3.950  -3.559  19.907  1.00  0.00     0.116 C 
HETATM   14  C1  UNL     1       3.399  -2.143  20.065  1.00  0.00     0.026 C 
ENDBRANCH  11  13
ENDBRANCH   5  11
BRANCH   7  15
HETATM   15  C19 UNL     1       7.453  -2.185  18.144  1.00  0.00     0.422 C 
HETATM   16  F2  UNL     1       8.330  -1.742  17.159  1.00  0.00    -0.166 F 
HETATM   17  F3  UNL     1       6.544  -1.212  18.437  1.00  0.00    -0.166 F 
HETATM   18  F4  UNL     1       8.139  -2.527  19.295  1.00  0.00    -0.166 F 
ENDBRANCH   7  15
ENDBRANCH   1   3
BRANCH   1  19
HETATM   19  C5  UNL     1       3.523  -6.930  15.771  1.00  0.00     0.085 A 
HETATM   20  C6  UNL     1       2.501  -6.562  16.614  1.00  0.00     0.076 A 
HETATM   21  C7  UNL     1       1.162  -6.769  16.259  1.00  0.00     0.134 A 
HETATM   22  F1  UNL     1       0.174  -6.395  17.108  1.00  0.00    -0.205 F 
HETATM   23  C8  UNL     1       0.798  -7.343  15.066  1.00  0.00     0.073 A 
HETATM   24  C14 UNL     1       1.814  -7.713  14.219  1.00  0.00     0.059 A 
HETATM   25  C15 UNL     1       3.132  -7.513  14.563  1.00  0.00     0.096 A 
BRANCH  23  26
HETATM   26  C9  UNL     1      -0.602  -7.539  14.736  1.00  0.00     0.257 C 
HETATM   27  O1  UNL     1      -1.247  -6.662  14.105  1.00  0.00    -0.267 OA
HETATM   28  N4  UNL     1      -1.319  -8.717  15.103  1.00  0.00    -0.344 N 
HETATM   29  C10 UNL     1      -2.700  -8.927  14.786  1.00  0.00     0.152 C 
HETATM   30  C13 UNL     1      -0.619  -9.756  15.832  1.00  0.00     0.152 C 
HETATM   31  C11 UNL     1      -2.859 -10.311  14.228  1.00  0.00     0.187 C 
HETATM   32  O2  UNL     1      -1.665 -10.968  14.033  1.00  0.00    -0.388 OA
HETATM   33  C12 UNL     1      -0.888 -11.066  15.160  1.00  0.00     0.187 C 
ENDBRANCH  23  26
BRANCH  25  34
HETATM   34  O3  UNL     1       4.138  -7.904  13.673  1.00  0.00    -0.354 OA
HETATM   35  C16 UNL     1       3.811  -8.115  12.316  1.00  0.00     0.210 C 
ENDBRANCH  25  34
ENDBRANCH   1  19
TORSDOF 7
ENDMDL
