MODEL 18
REMARK VINA RESULT: -6.501770183      2.213      4.470
REMARK  2 active torsions:
REMARK  status: ('A' for Active; 'I' for Inactive)
REMARK    1  A    between atoms: C6_7  and  C7_8 
REMARK    2  A    between atoms: C11_18  and  N5_19 
ROOT
HETATM    1  N1  UNL     1       6.154  -5.400  13.156  1.00  0.00    -0.191 NA
HETATM    2  C1  UNL     1       6.492  -5.160  14.249  1.00  0.00     0.099 C 
HETATM    3  C2  UNL     1       6.910  -4.872  15.592  1.00  0.00     0.045 A 
HETATM    4  C3  UNL     1       8.120  -5.370  15.999  1.00  0.00     0.023 A 
HETATM    5  C4  UNL     1       8.582  -5.137  17.259  1.00  0.00     0.002 A 
HETATM    6  C5  UNL     1       7.790  -4.385  18.107  1.00  0.00     0.012 A 
HETATM    7  C6  UNL     1       6.575  -3.872  17.733  1.00  0.00    -0.022 A 
HETATM    8  C17 UNL     1       6.133  -4.121  16.459  1.00  0.00     0.035 A 
ENDROOT
BRANCH   7   9
HETATM    9  C7  UNL     1       5.755  -3.092  18.628  1.00  0.00     0.007 A 
HETATM   10  C8  UNL     1       6.177  -1.936  19.310  1.00  0.00     0.103 A 
HETATM   11  N2  UNL     1       5.188  -1.510  20.096  1.00  0.00    -0.351 N 
HETATM   12  C9  UNL     1       4.123  -2.319  19.977  1.00  0.00     0.121 A 
ATOM     13  H2  UNL     1       5.233  -0.689  20.701  1.00  0.00     0.166 HD
HETATM   14  N3  UNL     1       2.910  -2.332  20.533  1.00  0.00    -0.338 N 
HETATM   15  C16 UNL     1       4.466  -3.327  19.047  1.00  0.00     0.064 A 
HETATM   16  C10 UNL     1       2.019  -3.284  20.222  1.00  0.00     0.183 A 
ATOM     17  H3  UNL     1       2.658  -1.607  21.205  1.00  0.00     0.168 HD
HETATM   18  N4  UNL     1       2.319  -4.239  19.349  1.00  0.00    -0.338 N 
HETATM   19  C11 UNL     1       3.547  -4.295  18.732  1.00  0.00     0.119 A 
ATOM     20  H4  UNL     1       1.620  -4.950  19.129  1.00  0.00     0.168 HD
BRANCH  19  21
HETATM   21  N5  UNL     1       3.784  -5.290  17.779  1.00  0.00    -0.362 N 
HETATM   22  C12 UNL     1       3.302  -5.104  16.404  1.00  0.00     0.150 C 
HETATM   23  C13 UNL     1       2.369  -6.258  16.042  1.00  0.00     0.187 C 
HETATM   24  O1  UNL     1       2.294  -7.164  17.089  1.00  0.00    -0.388 OA
HETATM   25  C14 UNL     1       3.600  -7.661  17.312  1.00  0.00     0.187 C 
HETATM   26  C15 UNL     1       4.418  -6.578  18.027  1.00  0.00     0.150 C 
ENDBRANCH  19  21
ENDBRANCH   7   9
TORSDOF 2
ENDMDL
