MODEL 8
REMARK VINA RESULT: -7.029172997      2.080      4.917
REMARK  2 active torsions:
REMARK  status: ('A' for Active; 'I' for Inactive)
REMARK    1  A    between atoms: C6_7  and  C7_8 
REMARK    2  A    between atoms: C11_18  and  N5_19 
ROOT
HETATM    1  N1  UNL     1      10.258  -7.278  15.387  1.00  0.00    -0.191 NA
HETATM    2  C1  UNL     1       9.301  -6.608  15.425  1.00  0.00     0.099 C 
HETATM    3  C2  UNL     1       8.125  -5.785  15.463  1.00  0.00     0.045 A 
HETATM    4  C3  UNL     1       7.271  -5.849  14.393  1.00  0.00     0.023 A 
HETATM    5  C4  UNL     1       6.137  -5.097  14.360  1.00  0.00     0.002 A 
HETATM    6  C5  UNL     1       5.880  -4.270  15.438  1.00  0.00     0.012 A 
HETATM    7  C6  UNL     1       6.711  -4.181  16.523  1.00  0.00    -0.022 A 
HETATM    8  C17 UNL     1       7.847  -4.948  16.532  1.00  0.00     0.035 A 
ENDROOT
BRANCH   7   9
HETATM    9  C7  UNL     1       6.435  -3.312  17.642  1.00  0.00     0.007 A 
HETATM   10  C8  UNL     1       7.273  -2.270  18.082  1.00  0.00     0.103 A 
HETATM   11  N2  UNL     1       6.743  -1.718  19.174  1.00  0.00    -0.351 N 
HETATM   12  C9  UNL     1       5.593  -2.334  19.489  1.00  0.00     0.121 A 
ATOM     13  H2  UNL     1       7.152  -0.941  19.694  1.00  0.00     0.166 HD
HETATM   14  N3  UNL     1       4.698  -2.168  20.466  1.00  0.00    -0.338 N 
HETATM   15  C16 UNL     1       5.381  -3.346  18.526  1.00  0.00     0.064 A 
HETATM   16  C10 UNL     1       3.608  -2.946  20.542  1.00  0.00     0.183 A 
ATOM     17  H3  UNL     1       4.845  -1.439  21.164  1.00  0.00     0.168 HD
HETATM   18  N4  UNL     1       3.389  -3.902  19.646  1.00  0.00    -0.338 N 
HETATM   19  C11 UNL     1       4.263  -4.135  18.610  1.00  0.00     0.119 A 
ATOM     20  H4  UNL     1       2.550  -4.477  19.728  1.00  0.00     0.168 HD
BRANCH  19  21
HETATM   21  N5  UNL     1       3.949  -5.117  17.665  1.00  0.00    -0.362 N 
HETATM   22  C12 UNL     1       2.959  -4.824  16.620  1.00  0.00     0.150 C 
HETATM   23  C13 UNL     1       1.825  -5.844  16.709  1.00  0.00     0.187 C 
HETATM   24  O1  UNL     1       2.087  -6.771  17.706  1.00  0.00    -0.388 OA
HETATM   25  C14 UNL     1       3.291  -7.429  17.364  1.00  0.00     0.187 C 
HETATM   26  C15 UNL     1       4.463  -6.480  17.645  1.00  0.00     0.150 C 
ENDBRANCH  19  21
ENDBRANCH   7   9
TORSDOF 2
ENDMDL
