MODEL 2
REMARK VINA RESULT: -7.954627074      2.510      3.544
REMARK  2 active torsions:
REMARK  status: ('A' for Active; 'I' for Inactive)
REMARK    1  A    between atoms: C6_7  and  C7_8 
REMARK    2  A    between atoms: C11_18  and  N5_19 
ROOT
HETATM    1  N1  UNL     1      -1.001  -6.011  21.503  1.00  0.00    -0.191 NA
HETATM    2  C1  UNL     1      -0.378  -5.424  20.707  1.00  0.00     0.099 C 
HETATM    3  C2  UNL     1       0.386  -4.709  19.725  1.00  0.00     0.045 A 
HETATM    4  C3  UNL     1      -0.177  -4.538  18.487  1.00  0.00     0.023 A 
HETATM    5  C4  UNL     1       0.488  -3.869  17.504  1.00  0.00     0.002 A 
HETATM    6  C5  UNL     1       1.745  -3.373  17.799  1.00  0.00     0.012 A 
HETATM    7  C6  UNL     1       2.337  -3.526  19.025  1.00  0.00    -0.022 A 
HETATM    8  C17 UNL     1       1.647  -4.203  19.997  1.00  0.00     0.035 A 
ENDROOT
BRANCH   7   9
HETATM    9  C7  UNL     1       3.651  -3.007  19.321  1.00  0.00     0.007 A 
HETATM   10  C8  UNL     1       3.917  -1.921  20.175  1.00  0.00     0.103 A 
HETATM   11  N2  UNL     1       5.227  -1.673  20.167  1.00  0.00    -0.351 N 
HETATM   12  C9  UNL     1       5.855  -2.537  19.354  1.00  0.00     0.121 A 
ATOM     13  H2  UNL     1       5.686  -0.934  20.702  1.00  0.00     0.166 HD
HETATM   14  N3  UNL     1       7.131  -2.710  19.004  1.00  0.00    -0.338 N 
HETATM   15  C16 UNL     1       4.869  -3.392  18.810  1.00  0.00     0.064 A 
HETATM   16  C10 UNL     1       7.486  -3.681  18.149  1.00  0.00     0.183 A 
ATOM     17  H3  UNL     1       7.846  -2.096  19.393  1.00  0.00     0.168 HD
HETATM   18  N4  UNL     1       6.576  -4.497  17.628  1.00  0.00    -0.338 N 
HETATM   19  C11 UNL     1       5.241  -4.382  17.939  1.00  0.00     0.119 A 
ATOM     20  H4  UNL     1       6.876  -5.227  16.981  1.00  0.00     0.168 HD
BRANCH  19  21
HETATM   21  N5  UNL     1       4.338  -5.307  17.405  1.00  0.00    -0.362 N 
HETATM   22  C12 UNL     1       3.993  -6.509  18.176  1.00  0.00     0.150 C 
HETATM   23  C13 UNL     1       4.339  -7.747  17.351  1.00  0.00     0.187 C 
HETATM   24  O1  UNL     1       4.824  -7.377  16.106  1.00  0.00    -0.388 OA
HETATM   25  C14 UNL     1       3.803  -6.645  15.456  1.00  0.00     0.187 C 
HETATM   26  C15 UNL     1       3.734  -5.245  16.080  1.00  0.00     0.150 C 
ENDBRANCH  19  21
ENDBRANCH   7   9
TORSDOF 2
ENDMDL
