MODEL 1
REMARK VINA RESULT: -8.116809864      0.000      0.000
REMARK  2 active torsions:
REMARK  status: ('A' for Active; 'I' for Inactive)
REMARK    1  A    between atoms: C6_7  and  C7_8 
REMARK    2  A    between atoms: C11_18  and  N5_19 
ROOT
HETATM    1  N1  UNL     1       0.202  -5.877  14.443  1.00  0.00    -0.191 NA
HETATM    2  C1  UNL     1       1.088  -6.038  15.188  1.00  0.00     0.099 C 
HETATM    3  C2  UNL     1       2.173  -6.243  16.105  1.00  0.00     0.045 A 
HETATM    4  C3  UNL     1       2.687  -7.510  16.206  1.00  0.00     0.023 A 
HETATM    5  C4  UNL     1       3.717  -7.780  17.055  1.00  0.00     0.002 A 
HETATM    6  C5  UNL     1       4.222  -6.735  17.808  1.00  0.00     0.012 A 
HETATM    7  C6  UNL     1       3.733  -5.458  17.733  1.00  0.00    -0.022 A 
HETATM    8  C17 UNL     1       2.695  -5.213  16.871  1.00  0.00     0.035 A 
ENDROOT
BRANCH   7   9
HETATM    9  C7  UNL     1       4.264  -4.376  18.527  1.00  0.00     0.007 A 
HETATM   10  C8  UNL     1       3.639  -3.821  19.658  1.00  0.00     0.103 A 
HETATM   11  N2  UNL     1       4.373  -2.802  20.104  1.00  0.00    -0.351 N 
HETATM   12  C9  UNL     1       5.460  -2.644  19.332  1.00  0.00     0.121 A 
ATOM     13  H2  UNL     1       4.143  -2.225  20.915  1.00  0.00     0.166 HD
HETATM   14  N3  UNL     1       6.486  -1.791  19.350  1.00  0.00    -0.338 N 
HETATM   15  C16 UNL     1       5.407  -3.637  18.327  1.00  0.00     0.064 A 
HETATM   16  C10 UNL     1       7.461  -1.865  18.432  1.00  0.00     0.183 A 
ATOM     17  H3  UNL     1       6.530  -1.073  20.073  1.00  0.00     0.168 HD
HETATM   18  N4  UNL     1       7.432  -2.791  17.481  1.00  0.00    -0.338 N 
HETATM   19  C11 UNL     1       6.409  -3.707  17.395  1.00  0.00     0.119 A 
ATOM     20  H4  UNL     1       8.189  -2.825  16.796  1.00  0.00     0.168 HD
BRANCH  19  21
HETATM   21  N5  UNL     1       6.464  -4.695  16.406  1.00  0.00    -0.362 N 
HETATM   22  C12 UNL     1       7.374  -5.836  16.573  1.00  0.00     0.150 C 
HETATM   23  C13 UNL     1       8.335  -5.884  15.387  1.00  0.00     0.187 C 
HETATM   24  O1  UNL     1       8.035  -4.878  14.481  1.00  0.00    -0.388 OA
HETATM   25  C14 UNL     1       6.713  -5.098  14.030  1.00  0.00     0.187 C 
HETATM   26  C15 UNL     1       5.741  -4.679  15.140  1.00  0.00     0.150 C 
ENDBRANCH  19  21
ENDBRANCH   7   9
TORSDOF 2
ENDMDL
