MODEL 3
REMARK VINA RESULT: -7.440705463      1.950      2.949
REMARK  2 active torsions:
REMARK  status: ('A' for Active; 'I' for Inactive)
REMARK    1  A    between atoms: C6_7  and  C7_8 
REMARK    2  A    between atoms: C11_18  and  N5_19 
ROOT
HETATM    1  N1  UNL     1       1.531 -10.689  15.571  1.00  0.00    -0.191 NA
HETATM    2  C1  UNL     1       1.404  -9.527  15.610  1.00  0.00     0.099 C 
HETATM    3  C2  UNL     1       1.249  -8.101  15.651  1.00  0.00     0.045 A 
HETATM    4  C3  UNL     1       0.796  -7.480  14.517  1.00  0.00     0.023 A 
HETATM    5  C4  UNL     1       0.625  -6.129  14.482  1.00  0.00     0.002 A 
HETATM    6  C5  UNL     1       0.923  -5.412  15.626  1.00  0.00     0.012 A 
HETATM    7  C6  UNL     1       1.378  -5.999  16.777  1.00  0.00    -0.022 A 
HETATM    8  C17 UNL     1       1.542  -7.361  16.786  1.00  0.00     0.035 A 
ENDROOT
BRANCH   7   9
HETATM    9  C7  UNL     1       1.690  -5.241  17.964  1.00  0.00     0.007 A 
HETATM   10  C8  UNL     1       0.770  -4.906  18.974  1.00  0.00     0.103 A 
HETATM   11  N2  UNL     1       1.381  -4.149  19.886  1.00  0.00    -0.351 N 
HETATM   12  C9  UNL     1       2.664  -3.959  19.540  1.00  0.00     0.121 A 
ATOM     13  H2  UNL     1       0.938  -3.769  20.723  1.00  0.00     0.166 HD
HETATM   14  N3  UNL     1       3.679  -3.294  20.098  1.00  0.00    -0.338 N 
HETATM   15  C16 UNL     1       2.878  -4.647  18.324  1.00  0.00     0.064 A 
HETATM   16  C10 UNL     1       4.889  -3.272  19.521  1.00  0.00     0.183 A 
ATOM     17  H3  UNL     1       3.531  -2.795  20.975  1.00  0.00     0.168 HD
HETATM   18  N4  UNL     1       5.112  -3.914  18.379  1.00  0.00    -0.338 N 
HETATM   19  C11 UNL     1       4.119  -4.621  17.743  1.00  0.00     0.119 A 
ATOM     20  H4  UNL     1       6.044  -3.881  17.964  1.00  0.00     0.168 HD
BRANCH  19  21
HETATM   21  N5  UNL     1       4.429  -5.325  16.574  1.00  0.00    -0.362 N 
HETATM   22  C12 UNL     1       5.086  -6.635  16.672  1.00  0.00     0.150 C 
HETATM   23  C13 UNL     1       6.406  -6.589  15.905  1.00  0.00     0.187 C 
HETATM   24  O1  UNL     1       6.570  -5.351  15.301  1.00  0.00    -0.388 OA
HETATM   25  C14 UNL     1       5.493  -5.174  14.403  1.00  0.00     0.187 C 
HETATM   26  C15 UNL     1       4.231  -4.848  15.212  1.00  0.00     0.150 C 
ENDBRANCH  19  21
ENDBRANCH   7   9
TORSDOF 2
ENDMDL
