MODEL 3
REMARK VINA RESULT: -9.015550991      3.476      6.678
REMARK  6 active torsions:
REMARK  status: ('A' for Active; 'I' for Inactive)
REMARK    1  A    between atoms: N2_5  and  C4_6 
REMARK    2  A    between atoms: C7_9  and  O1_10 
REMARK    3  A    between atoms: O1_10  and  C8_11 
REMARK    4  A    between atoms: C8_11  and  C9_12 
REMARK    5  A    between atoms: C15_18  and  C16_19 
REMARK       I    between atoms: C16_19  and  N3_21 
REMARK    6  A    between atoms: N3_21  and  C17_23 
ROOT
HETATM    1  C4  UNL     1       1.975  -9.545  12.386  1.00  0.00     0.031 A 
HETATM    2  C5  UNL     1       0.989  -8.737  12.941  1.00  0.00     0.032 A 
HETATM    3  C6  UNL     1       1.350  -7.778  13.857  1.00  0.00     0.040 A 
HETATM    4  C7  UNL     1       2.687  -7.605  14.238  1.00  0.00     0.085 A 
HETATM    5  C15 UNL     1       3.651  -8.403  13.689  1.00  0.00     0.067 A 
HETATM    6  C22 UNL     1       3.296  -9.392  12.746  1.00  0.00     0.049 A 
ENDROOT
BRANCH   5   7
HETATM    7  C16 UNL     1       5.054  -8.284  14.017  1.00  0.00     0.259 C 
HETATM    8  O2  UNL     1       5.651  -9.303  14.516  1.00  0.00    -0.267 OA
HETATM    9  N3  UNL     1       5.856  -7.152  13.848  1.00  0.00    -0.322 N 
ATOM     10  H3  UNL     1       5.402  -6.327  13.456  1.00  0.00     0.169 HD
BRANCH   9  11
HETATM   11  C17 UNL     1       7.242  -7.025  14.163  1.00  0.00     0.050 A 
HETATM   12  C18 UNL     1       7.749  -6.096  15.010  1.00  0.00     0.032 A 
HETATM   13  C19 UNL     1       9.126  -6.007  15.263  1.00  0.00     0.019 A 
HETATM   14  C20 UNL     1       9.978  -6.884  14.637  1.00  0.00     0.088 A 
HETATM   15  N4  UNL     1       9.462  -7.804  13.798  1.00  0.00    -0.373 N 
HETATM   16  C21 UNL     1       8.156  -7.889  13.557  1.00  0.00     0.117 A 
ATOM     17  H4  UNL     1      10.093  -8.456  13.332  1.00  0.00     0.164 HD
ENDBRANCH   9  11
ENDBRANCH   5   7
BRANCH   4  18
HETATM   18  O1  UNL     1       2.944  -6.628  15.156  1.00  0.00    -0.346 OA
BRANCH  18  19
HETATM   19  C8  UNL     1       2.477  -6.743  16.476  1.00  0.00     0.214 C 
BRANCH  19  20
HETATM   20  C9  UNL     1       3.147  -5.830  17.416  1.00  0.00    -0.034 A 
HETATM   21  C10 UNL     1       2.452  -4.978  18.207  1.00  0.00     0.009 A 
HETATM   22  C11 UNL     1       3.094  -4.146  19.074  1.00  0.00     0.001 A 
HETATM   23  C12 UNL     1       4.479  -4.183  19.136  1.00  0.00     0.000 A 
HETATM   24  C13 UNL     1       5.185  -5.054  18.327  1.00  0.00     0.001 A 
HETATM   25  C14 UNL     1       4.537  -5.889  17.459  1.00  0.00     0.009 A 
ENDBRANCH  19  20
ENDBRANCH  18  19
ENDBRANCH   4  18
BRANCH   1  26
HETATM   26  N2  UNL     1       1.660 -10.557  11.443  1.00  0.00    -0.377 N 
HETATM   27  C3  UNL     1       2.470 -10.960  10.327  1.00  0.00     0.153 C 
HETATM   28  C2  UNL     1       2.929 -12.384  10.631  1.00  0.00     0.291 C 
HETATM   29  N1  UNL     1       1.770 -13.202  10.911  1.00  0.00     0.087 N 
HETATM   30  C1  UNL     1       1.843 -13.675  12.290  1.00  0.00     0.310 C 
HETATM   31  C24 UNL     1       0.517 -12.516  10.752  1.00  0.00     0.291 C 
HETATM   32  C23 UNL     1       0.400 -11.273  11.608  1.00  0.00     0.153 C 
ENDBRANCH   1  26
TORSDOF 6
ENDMDL
