MODEL 2
REMARK VINA RESULT: -9.089061717      1.697      2.265
REMARK  6 active torsions:
REMARK  status: ('A' for Active; 'I' for Inactive)
REMARK    1  A    between atoms: N2_5  and  C4_6 
REMARK    2  A    between atoms: C7_9  and  O1_10 
REMARK    3  A    between atoms: O1_10  and  C8_11 
REMARK    4  A    between atoms: C8_11  and  C9_12 
REMARK    5  A    between atoms: C15_18  and  C16_19 
REMARK       I    between atoms: C16_19  and  N3_21 
REMARK    6  A    between atoms: N3_21  and  C17_23 
ROOT
HETATM    1  C4  UNL     1       0.488  -5.429  19.035  1.00  0.00     0.031 A 
HETATM    2  C5  UNL     1       1.574  -4.853  19.684  1.00  0.00     0.032 A 
HETATM    3  C6  UNL     1       2.795  -4.833  19.053  1.00  0.00     0.040 A 
HETATM    4  C7  UNL     1       2.960  -5.382  17.774  1.00  0.00     0.085 A 
HETATM    5  C15 UNL     1       1.888  -5.946  17.142  1.00  0.00     0.067 A 
HETATM    6  C22 UNL     1       0.628  -5.974  17.777  1.00  0.00     0.049 A 
ENDROOT
BRANCH   5   7
HETATM    7  C16 UNL     1       1.968  -6.524  15.819  1.00  0.00     0.259 C 
HETATM    8  O2  UNL     1       0.992  -6.331  15.010  1.00  0.00    -0.267 OA
HETATM    9  N3  UNL     1       3.018  -7.292  15.308  1.00  0.00    -0.322 N 
ATOM     10  H3  UNL     1       3.804  -7.462  15.935  1.00  0.00     0.169 HD
BRANCH   9  11
HETATM   11  C17 UNL     1       3.111  -7.863  14.003  1.00  0.00     0.050 A 
HETATM   12  C18 UNL     1       2.406  -8.946  13.594  1.00  0.00     0.032 A 
HETATM   13  C19 UNL     1       2.557  -9.474  12.303  1.00  0.00     0.019 A 
HETATM   14  C20 UNL     1       3.439  -8.878  11.435  1.00  0.00     0.088 A 
HETATM   15  N4  UNL     1       4.133  -7.801  11.854  1.00  0.00    -0.373 N 
HETATM   16  C21 UNL     1       3.991  -7.299  13.078  1.00  0.00     0.117 A 
ATOM     17  H4  UNL     1       4.789  -7.356  11.211  1.00  0.00     0.164 HD
ENDBRANCH   9  11
ENDBRANCH   5   7
BRANCH   4  18
HETATM   18  O1  UNL     1       4.211  -5.316  17.233  1.00  0.00    -0.346 OA
BRANCH  18  19
HETATM   19  C8  UNL     1       5.351  -5.365  18.052  1.00  0.00     0.214 C 
BRANCH  19  20
HETATM   20  C9  UNL     1       6.553  -4.799  17.419  1.00  0.00    -0.034 A 
HETATM   21  C10 UNL     1       7.179  -5.417  16.388  1.00  0.00     0.009 A 
HETATM   22  C11 UNL     1       8.288  -4.871  15.814  1.00  0.00     0.001 A 
HETATM   23  C12 UNL     1       8.771  -3.667  16.302  1.00  0.00     0.000 A 
HETATM   24  C13 UNL     1       8.129  -3.039  17.354  1.00  0.00     0.001 A 
HETATM   25  C14 UNL     1       7.016  -3.589  17.927  1.00  0.00     0.009 A 
ENDBRANCH  19  20
ENDBRANCH  18  19
ENDBRANCH   4  18
BRANCH   1  26
HETATM   26  N2  UNL     1      -0.793  -5.486  19.642  1.00  0.00    -0.377 N 
HETATM   27  C3  UNL     1      -1.802  -6.480  19.404  1.00  0.00     0.153 C 
HETATM   28  C2  UNL     1      -1.937  -7.265  20.707  1.00  0.00     0.291 C 
HETATM   29  N1  UNL     1      -2.191  -6.339  21.790  1.00  0.00     0.087 N 
HETATM   30  C1  UNL     1      -1.080  -6.397  22.734  1.00  0.00     0.310 C 
HETATM   31  C24 UNL     1      -2.334  -4.972  21.369  1.00  0.00     0.291 C 
HETATM   32  C23 UNL     1      -1.134  -4.449  20.609  1.00  0.00     0.153 C 
ENDBRANCH   1  26
TORSDOF 6
ENDMDL
