MODEL 4
REMARK VINA RESULT: -8.944503129      1.846      2.272
REMARK  6 active torsions:
REMARK  status: ('A' for Active; 'I' for Inactive)
REMARK    1  A    between atoms: N2_5  and  C4_6 
REMARK    2  A    between atoms: C7_9  and  O1_10 
REMARK    3  A    between atoms: O1_10  and  C8_11 
REMARK    4  A    between atoms: C8_11  and  C9_12 
REMARK    5  A    between atoms: C15_18  and  C16_19 
REMARK       I    between atoms: C16_19  and  N3_21 
REMARK    6  A    between atoms: N3_21  and  C17_23 
ROOT
HETATM    1  C4  UNL     1       0.518  -5.317  18.871  1.00  0.00     0.031 A 
HETATM    2  C5  UNL     1       1.630  -4.759  19.492  1.00  0.00     0.032 A 
HETATM    3  C6  UNL     1       2.854  -4.844  18.873  1.00  0.00     0.040 A 
HETATM    4  C7  UNL     1       2.996  -5.481  17.632  1.00  0.00     0.085 A 
HETATM    5  C15 UNL     1       1.899  -6.026  17.027  1.00  0.00     0.067 A 
HETATM    6  C22 UNL     1       0.636  -5.947  17.651  1.00  0.00     0.049 A 
ENDROOT
BRANCH   5   7
HETATM    7  C16 UNL     1       1.955  -6.690  15.743  1.00  0.00     0.259 C 
HETATM    8  O2  UNL     1       1.201  -6.259  14.802  1.00  0.00    -0.267 OA
HETATM    9  N3  UNL     1       2.762  -7.781  15.405  1.00  0.00    -0.322 N 
ATOM     10  H3  UNL     1       3.368  -8.144  16.141  1.00  0.00     0.169 HD
BRANCH   9  11
HETATM   11  C17 UNL     1       2.830  -8.441  14.142  1.00  0.00     0.050 A 
HETATM   12  C18 UNL     1       1.758  -8.960  13.495  1.00  0.00     0.032 A 
HETATM   13  C19 UNL     1       1.893  -9.617  12.263  1.00  0.00     0.019 A 
HETATM   14  C20 UNL     1       3.140  -9.736  11.701  1.00  0.00     0.088 A 
HETATM   15  N4  UNL     1       4.198  -9.215  12.354  1.00  0.00    -0.373 N 
HETATM   16  C21 UNL     1       4.072  -8.591  13.523  1.00  0.00     0.117 A 
ATOM     17  H4  UNL     1       5.126  -9.303  11.939  1.00  0.00     0.164 HD
ENDBRANCH   9  11
ENDBRANCH   5   7
BRANCH   4  18
HETATM   18  O1  UNL     1       4.252  -5.515  17.099  1.00  0.00    -0.346 OA
BRANCH  18  19
HETATM   19  C8  UNL     1       5.385  -5.423  17.924  1.00  0.00     0.214 C 
BRANCH  19  20
HETATM   20  C9  UNL     1       6.587  -4.950  17.219  1.00  0.00    -0.034 A 
HETATM   21  C10 UNL     1       7.242  -3.824  17.595  1.00  0.00     0.009 A 
HETATM   22  C11 UNL     1       8.356  -3.409  16.929  1.00  0.00     0.001 A 
HETATM   23  C12 UNL     1       8.813  -4.156  15.855  1.00  0.00     0.000 A 
HETATM   24  C13 UNL     1       8.141  -5.304  15.475  1.00  0.00     0.001 A 
HETATM   25  C14 UNL     1       7.024  -5.719  16.145  1.00  0.00     0.009 A 
ENDBRANCH  19  20
ENDBRANCH  18  19
ENDBRANCH   4  18
BRANCH   1  26
HETATM   26  N2  UNL     1      -0.768  -5.267  19.469  1.00  0.00    -0.377 N 
HETATM   27  C3  UNL     1      -1.899  -6.079  19.117  1.00  0.00     0.153 C 
HETATM   28  C2  UNL     1      -2.160  -6.984  20.319  1.00  0.00     0.291 C 
HETATM   29  N1  UNL     1      -2.301  -6.164  21.503  1.00  0.00     0.087 N 
HETATM   30  C1  UNL     1      -1.223  -6.484  22.433  1.00  0.00     0.310 C 
HETATM   31  C24 UNL     1      -2.250  -4.751  21.246  1.00  0.00     0.291 C 
HETATM   32  C23 UNL     1      -0.979  -4.313  20.552  1.00  0.00     0.153 C 
ENDBRANCH   1  26
TORSDOF 6
ENDMDL
