MODEL 9
REMARK VINA RESULT: -5.034072569      9.520     11.031
REMARK  4 active torsions:
REMARK  status: ('A' for Active; 'I' for Inactive)
REMARK    1  A    between atoms: O1_2  and  C2_3 
REMARK    2  A    between atoms: C7_8  and  C8_9 
REMARK    3  A    between atoms: C11_12  and  C12_13 
REMARK    4  A    between atoms: C12_13  and  N1_14 
ROOT
HETATM    1  C8  UNL     1       7.172 133.933 343.185  1.00  0.00    -0.001 A 
HETATM    2  C9  UNL     1       8.044 134.744 342.506  1.00  0.00     0.014 A 
HETATM    3  C10 UNL     1       9.419 134.590 342.642  1.00  0.00     0.010 A 
HETATM    4  C11 UNL     1       9.965 133.611 343.472  1.00  0.00    -0.031 A 
HETATM    5  C13 UNL     1       9.069 132.808 344.143  1.00  0.00     0.033 A 
HETATM    6  C14 UNL     1       7.691 132.959 344.008  1.00  0.00     0.045 A 
HETATM    7 CL1  UNL     1       6.643 131.872 344.902  1.00  0.00    -0.083 Cl
ENDROOT
BRANCH   1   8
HETATM    8  C7  UNL     1       5.710 134.068 343.092  1.00  0.00     0.009 A 
HETATM    9  C2  UNL     1       4.957 133.369 342.180  1.00  0.00     0.079 A 
HETATM   10  C3  UNL     1       3.578 133.541 342.125  1.00  0.00     0.037 A 
HETATM   11  C4  UNL     1       2.946 134.413 342.980  1.00  0.00     0.003 A 
HETATM   12  C5  UNL     1       3.718 135.107 343.888  1.00  0.00     0.001 A 
HETATM   13  C6  UNL     1       5.072 134.959 343.967  1.00  0.00     0.015 A 
BRANCH   9  14
HETATM   14  O1  UNL     1       5.592 132.474 341.302  1.00  0.00    -0.355 OA
HETATM   15  C1  UNL     1       5.460 131.069 341.555  1.00  0.00     0.210 C 
ENDBRANCH   9  14
ENDBRANCH   1   8
BRANCH   4  16
HETATM   16  C12 UNL     1      11.436 133.449 343.620  1.00  0.00     0.268 C 
BRANCH  16  17
HETATM   17  N1  UNL     1      11.927 134.379 344.617  1.00  0.00    -0.075 N 
ATOM     18  H13 UNL     1      11.508 134.218 345.533  1.00  0.00     0.274 HD
ATOM     19  H12 UNL     1      12.899 134.198 344.868  1.00  0.00     0.274 HD
ATOM     20  H11 UNL     1      11.784 135.335 344.290  1.00  0.00     0.274 HD
ENDBRANCH  16  17
ENDBRANCH   4  16
TORSDOF 4
ENDMDL
