MODEL 6
REMARK VINA RESULT: -5.820773993      3.069      5.678
REMARK  4 active torsions:
REMARK  status: ('A' for Active; 'I' for Inactive)
REMARK    1  A    between atoms: O1_2  and  C2_3 
REMARK    2  A    between atoms: C7_8  and  C8_9 
REMARK    3  A    between atoms: C11_12  and  C12_13 
REMARK    4  A    between atoms: C12_13  and  N1_14 
ROOT
HETATM    1  C8  UNL     1       4.455 141.174 350.736  1.00  0.00    -0.001 A 
HETATM    2  C9  UNL     1       5.401 141.819 349.984  1.00  0.00     0.014 A 
HETATM    3  C10 UNL     1       5.315 143.185 349.741  1.00  0.00     0.010 A 
HETATM    4  C11 UNL     1       4.265 143.951 350.249  1.00  0.00    -0.031 A 
HETATM    5  C13 UNL     1       3.327 143.281 351.002  1.00  0.00     0.033 A 
HETATM    6  C14 UNL     1       3.412 141.913 351.248  1.00  0.00     0.045 A 
HETATM    7 CL1  UNL     1       2.165 141.164 352.231  1.00  0.00    -0.083 Cl
ENDROOT
BRANCH   1   8
HETATM    8  C7  UNL     1       4.489 139.727 351.004  1.00  0.00     0.009 A 
HETATM    9  C2  UNL     1       3.666 138.835 350.362  1.00  0.00     0.079 A 
HETATM   10  C3  UNL     1       3.729 137.478 350.659  1.00  0.00     0.037 A 
HETATM   11  C4  UNL     1       4.613 137.008 351.602  1.00  0.00     0.003 A 
HETATM   12  C5  UNL     1       5.431 137.918 352.236  1.00  0.00     0.001 A 
HETATM   13  C6  UNL     1       5.394 139.255 351.965  1.00  0.00     0.015 A 
BRANCH   9  14
HETATM   14  O1  UNL     1       2.757 139.305 349.397  1.00  0.00    -0.355 OA
HETATM   15  C1  UNL     1       3.047 139.051 348.015  1.00  0.00     0.210 C 
ENDBRANCH   9  14
ENDBRANCH   1   8
BRANCH   4  16
HETATM   16  C12 UNL     1       4.171 145.412 349.987  1.00  0.00     0.268 C 
BRANCH  16  17
HETATM   17  N1  UNL     1       4.979 145.749 348.832  1.00  0.00    -0.075 N 
ATOM     18  H13 UNL     1       5.895 146.111 349.095  1.00  0.00     0.274 HD
ATOM     19  H12 UNL     1       5.291 144.920 348.325  1.00  0.00     0.274 HD
ATOM     20  H11 UNL     1       4.465 146.396 348.234  1.00  0.00     0.274 HD
ENDBRANCH  16  17
ENDBRANCH   4  16
TORSDOF 4
ENDMDL
