MODEL 4
REMARK VINA RESULT: -6.449321666      3.071      5.692
REMARK  4 active torsions:
REMARK  status: ('A' for Active; 'I' for Inactive)
REMARK    1  A    between atoms: O1_2  and  C2_3 
REMARK    2  A    between atoms: C7_8  and  C8_9 
REMARK    3  A    between atoms: C11_12  and  C12_13 
REMARK    4  A    between atoms: C12_13  and  N1_14 
ROOT
HETATM    1  C8  UNL     1       4.309 141.209 350.867  1.00  0.00    -0.001 A 
HETATM    2  C9  UNL     1       3.478 142.026 351.588  1.00  0.00     0.014 A 
HETATM    3  C10 UNL     1       3.411 143.391 351.328  1.00  0.00     0.010 A 
HETATM    4  C11 UNL     1       4.186 143.981 350.329  1.00  0.00    -0.031 A 
HETATM    5  C13 UNL     1       5.013 143.140 349.618  1.00  0.00     0.033 A 
HETATM    6  C14 UNL     1       5.081 141.773 349.876  1.00  0.00     0.045 A 
HETATM    7 CL1  UNL     1       6.162 140.794 348.900  1.00  0.00    -0.083 Cl
ENDROOT
BRANCH   1   8
HETATM    8  C7  UNL     1       4.432 139.765 351.117  1.00  0.00     0.009 A 
HETATM    9  C2  UNL     1       3.645 138.833 350.486  1.00  0.00     0.079 A 
HETATM   10  C3  UNL     1       3.793 137.479 350.765  1.00  0.00     0.037 A 
HETATM   11  C4  UNL     1       4.727 137.051 351.679  1.00  0.00     0.003 A 
HETATM   12  C5  UNL     1       5.508 137.999 352.303  1.00  0.00     0.001 A 
HETATM   13  C6  UNL     1       5.387 139.335 352.049  1.00  0.00     0.015 A 
BRANCH   9  14
HETATM   14  O1  UNL     1       2.686 139.260 349.550  1.00  0.00    -0.355 OA
HETATM   15  C1  UNL     1       2.956 139.042 348.158  1.00  0.00     0.210 C 
ENDBRANCH   9  14
ENDBRANCH   1   8
BRANCH   4  16
HETATM   16  C12 UNL     1       4.117 145.441 350.053  1.00  0.00     0.268 C 
BRANCH  16  17
HETATM   17  N1  UNL     1       4.909 145.749 348.879  1.00  0.00    -0.075 N 
ATOM     18  H13 UNL     1       5.238 144.908 348.405  1.00  0.00     0.274 HD
ATOM     19  H12 UNL     1       4.343 146.131 348.121  1.00  0.00     0.274 HD
ATOM     20  H11 UNL     1       5.676 146.370 349.140  1.00  0.00     0.274 HD
ENDBRANCH  16  17
ENDBRANCH   4  16
TORSDOF 4
ENDMDL
