MODEL 1
REMARK VINA RESULT: -7.624667086      0.000      0.000
REMARK  4 active torsions:
REMARK  status: ('A' for Active; 'I' for Inactive)
REMARK    1  A    between atoms: O1_2  and  C2_3 
REMARK    2  A    between atoms: C7_8  and  C8_9 
REMARK    3  A    between atoms: C11_12  and  C12_13 
REMARK    4  A    between atoms: C12_13  and  N1_14 
ROOT
HETATM    1  C8  UNL     1       4.743 140.145 351.134  1.00  0.00    -0.001 A 
HETATM    2  C9  UNL     1       5.544 139.640 352.124  1.00  0.00     0.014 A 
HETATM    3  C10 UNL     1       5.539 138.283 352.428  1.00  0.00     0.010 A 
HETATM    4  C11 UNL     1       4.721 137.385 351.741  1.00  0.00    -0.031 A 
HETATM    5  C13 UNL     1       3.926 137.917 350.750  1.00  0.00     0.033 A 
HETATM    6  C14 UNL     1       3.930 139.275 350.443  1.00  0.00     0.045 A 
HETATM    7 CL1  UNL     1       2.884 139.840 349.152  1.00  0.00    -0.083 Cl
ENDROOT
BRANCH   1   8
HETATM    8  C7  UNL     1       4.696 141.575 350.788  1.00  0.00     0.009 A 
HETATM    9  C2  UNL     1       5.507 142.133 349.832  1.00  0.00     0.079 A 
HETATM   10  C3  UNL     1       5.432 143.494 349.550  1.00  0.00     0.037 A 
HETATM   11  C4  UNL     1       4.546 144.300 350.226  1.00  0.00     0.003 A 
HETATM   12  C5  UNL     1       3.740 143.722 351.182  1.00  0.00     0.001 A 
HETATM   13  C6  UNL     1       3.790 142.391 351.480  1.00  0.00     0.015 A 
BRANCH   9  14
HETATM   14  O1  UNL     1       6.417 141.318 349.136  1.00  0.00    -0.355 OA
HETATM   15  C1  UNL     1       6.349 141.301 347.703  1.00  0.00     0.210 C 
ENDBRANCH   9  14
ENDBRANCH   1   8
BRANCH   4  16
HETATM   16  C12 UNL     1       4.713 135.934 352.068  1.00  0.00     0.268 C 
BRANCH  16  17
HETATM   17  N1  UNL     1       5.872 135.615 352.877  1.00  0.00    -0.075 N 
ATOM     18  H13 UNL     1       6.506 134.971 352.405  1.00  0.00     0.274 HD
ATOM     19  H12 UNL     1       6.509 136.406 352.967  1.00  0.00     0.274 HD
ATOM     20  H11 UNL     1       5.567 135.260 353.784  1.00  0.00     0.274 HD
ENDBRANCH  16  17
ENDBRANCH   4  16
TORSDOF 4
ENDMDL
