MODEL 5
REMARK VINA RESULT: -6.645486528      2.689      3.564
REMARK  8 active torsions:
REMARK  status: ('A' for Active; 'I' for Inactive)
REMARK    1  A    between atoms: C2_2  and  N1_3 
REMARK    2  A    between atoms: C2_2  and  C9_18 
REMARK    3  A    between atoms: N1_3  and  C3_6 
REMARK    4  A    between atoms: C3_6  and  C4_7 
REMARK    5  A    between atoms: C3_6  and  C8_15 
REMARK    6  A    between atoms: C4_7  and  C5_8 
REMARK    7  A    between atoms: C5_8  and  C6_9 
REMARK    8  A    between atoms: C6_9  and  N2_10 
ROOT
HETATM    1  C3  UNL     1     -15.997 -24.830  23.584  1.00  0.00     0.286 C 
ENDROOT
BRANCH   1   2
HETATM    2  N1  UNL     1     -16.397 -26.168  23.917  1.00  0.00    -0.047 N 
ATOM      3  H12 UNL     1     -16.173 -26.808  23.155  1.00  0.00     0.279 HD
ATOM      4  H11 UNL     1     -17.414 -26.248  23.916  1.00  0.00     0.279 HD
BRANCH   2   5
HETATM    5  C2  UNL     1     -15.858 -26.648  25.150  1.00  0.00     0.282 C 
HETATM    6  C1  UNL     1     -14.349 -26.785  25.153  1.00  0.00     0.052 C 
BRANCH   5   7
HETATM    7  C9  UNL     1     -16.468 -27.923  25.621  1.00  0.00     0.204 C 
HETATM    8  O3  UNL     1     -16.281 -29.039  25.128  1.00  0.00    -0.646 OA
HETATM    9  O4  UNL     1     -17.322 -27.827  26.716  1.00  0.00    -0.646 OA
ENDBRANCH   5   7
ENDBRANCH   2   5
ENDBRANCH   1   2
BRANCH   1  10
HETATM   10  C4  UNL     1     -15.424 -24.807  22.194  1.00  0.00     0.046 C 
BRANCH  10  11
HETATM   11  C5  UNL     1     -16.365 -25.157  21.097  1.00  0.00     0.022 C 
BRANCH  11  12
HETATM   12  C6  UNL     1     -15.500 -25.504  19.880  1.00  0.00     0.122 C 
BRANCH  12  13
HETATM   13  N2  UNL     1     -16.166 -26.490  19.067  1.00  0.00    -0.367 N 
HETATM   14  C7  UNL     1     -16.131 -26.479  17.788  1.00  0.00     0.196 C 
HETATM   15  N3  UNL     1     -16.796 -27.463  17.010  1.00  0.00    -0.067 NA
HETATM   16  N4  UNL     1     -15.401 -25.447  17.109  1.00  0.00    -0.067 NA
ATOM     17  H2  UNL     1     -16.689 -27.232  19.534  1.00  0.00     0.161 HD
ENDBRANCH  12  13
ENDBRANCH  11  12
ENDBRANCH  10  11
ENDBRANCH   1  10
BRANCH   1  18
HETATM   18  C8  UNL     1     -17.181 -23.944  23.575  1.00  0.00     0.204 C 
HETATM   19  O1  UNL     1     -18.311 -24.421  23.779  1.00  0.00    -0.646 OA
HETATM   20  O2  UNL     1     -17.045 -22.594  23.344  1.00  0.00    -0.646 OA
ENDBRANCH   1  18
TORSDOF 8
ENDMDL
