MODEL 2
REMARK VINA RESULT: -7.297792005      2.514      3.371
REMARK  8 active torsions:
REMARK  status: ('A' for Active; 'I' for Inactive)
REMARK    1  A    between atoms: C2_2  and  N1_3 
REMARK    2  A    between atoms: C2_2  and  C9_18 
REMARK    3  A    between atoms: N1_3  and  C3_6 
REMARK    4  A    between atoms: C3_6  and  C4_7 
REMARK    5  A    between atoms: C3_6  and  C8_15 
REMARK    6  A    between atoms: C4_7  and  C5_8 
REMARK    7  A    between atoms: C5_8  and  C6_9 
REMARK    8  A    between atoms: C6_9  and  N2_10 
ROOT
HETATM    1  C3  UNL     1     -16.265 -24.878  23.671  1.00  0.00     0.286 C 
ENDROOT
BRANCH   1   2
HETATM    2  N1  UNL     1     -16.843 -26.102  24.148  1.00  0.00    -0.047 N 
ATOM      3  H12 UNL     1     -17.519 -26.464  23.474  1.00  0.00     0.279 HD
ATOM      4  H11 UNL     1     -17.464 -25.921  24.936  1.00  0.00     0.279 HD
BRANCH   2   5
HETATM    5  C2  UNL     1     -15.886 -27.107  24.485  1.00  0.00     0.282 C 
HETATM    6  C1  UNL     1     -16.498 -28.403  24.977  1.00  0.00     0.052 C 
BRANCH   5   7
HETATM    7  C9  UNL     1     -14.850 -26.654  25.455  1.00  0.00     0.204 C 
HETATM    8  O3  UNL     1     -15.055 -26.306  26.621  1.00  0.00    -0.646 OA
HETATM    9  O4  UNL     1     -13.540 -26.627  24.987  1.00  0.00    -0.646 OA
ENDBRANCH   5   7
ENDBRANCH   2   5
ENDBRANCH   1   2
BRANCH   1  10
HETATM   10  C4  UNL     1     -15.644 -25.106  22.321  1.00  0.00     0.046 C 
BRANCH  10  11
HETATM   11  C5  UNL     1     -16.572 -25.548  21.246  1.00  0.00     0.022 C 
BRANCH  11  12
HETATM   12  C6  UNL     1     -15.744 -25.603  19.956  1.00  0.00     0.122 C 
BRANCH  12  13
HETATM   13  N2  UNL     1     -16.301 -26.579  19.054  1.00  0.00    -0.367 N 
HETATM   14  C7  UNL     1     -16.139 -26.529  17.785  1.00  0.00     0.196 C 
HETATM   15  N3  UNL     1     -16.698 -27.504  16.918  1.00  0.00    -0.067 NA
HETATM   16  N4  UNL     1     -15.370 -25.463  17.212  1.00  0.00    -0.067 NA
ATOM     17  H2  UNL     1     -16.850 -27.345  19.445  1.00  0.00     0.161 HD
ENDBRANCH  12  13
ENDBRANCH  11  12
ENDBRANCH  10  11
ENDBRANCH   1  10
BRANCH   1  18
HETATM   18  C8  UNL     1     -17.324 -23.863  23.491  1.00  0.00     0.204 C 
HETATM   19  O1  UNL     1     -18.506 -24.152  23.747  1.00  0.00    -0.646 OA
HETATM   20  O2  UNL     1     -17.016 -22.598  23.043  1.00  0.00    -0.646 OA
ENDBRANCH   1  18
TORSDOF 8
ENDMDL
