MODEL 6
REMARK VINA RESULT: -6.357046234      2.660      3.491
REMARK  8 active torsions:
REMARK  status: ('A' for Active; 'I' for Inactive)
REMARK    1  A    between atoms: C2_2  and  N1_3 
REMARK    2  A    between atoms: C2_2  and  C9_18 
REMARK    3  A    between atoms: N1_3  and  C3_6 
REMARK    4  A    between atoms: C3_6  and  C4_7 
REMARK    5  A    between atoms: C3_6  and  C8_15 
REMARK    6  A    between atoms: C4_7  and  C5_8 
REMARK    7  A    between atoms: C5_8  and  C6_9 
REMARK    8  A    between atoms: C6_9  and  N2_10 
ROOT
HETATM    1  C3  UNL     1     -16.327 -25.310  23.619  1.00  0.00     0.286 C 
ENDROOT
BRANCH   1   2
HETATM    2  N1  UNL     1     -16.988 -26.328  24.385  1.00  0.00    -0.047 N 
ATOM      3  H12 UNL     1     -17.522 -26.946  23.774  1.00  0.00     0.279 HD
ATOM      4  H11 UNL     1     -17.750 -25.926  24.932  1.00  0.00     0.279 HD
BRANCH   2   5
HETATM    5  C2  UNL     1     -16.115 -27.086  25.225  1.00  0.00     0.282 C 
HETATM    6  C1  UNL     1     -14.675 -26.617  25.202  1.00  0.00     0.052 C 
BRANCH   5   7
HETATM    7  C9  UNL     1     -16.158 -28.553  24.974  1.00  0.00     0.204 C 
HETATM    8  O3  UNL     1     -16.523 -29.414  25.780  1.00  0.00    -0.646 OA
HETATM    9  O4  UNL     1     -15.747 -28.973  23.712  1.00  0.00    -0.646 OA
ENDBRANCH   5   7
ENDBRANCH   2   5
ENDBRANCH   1   2
BRANCH   1  10
HETATM   10  C4  UNL     1     -16.103 -25.802  22.216  1.00  0.00     0.046 C 
BRANCH  10  11
HETATM   11  C5  UNL     1     -15.014 -25.130  21.458  1.00  0.00     0.022 C 
BRANCH  11  12
HETATM   12  C6  UNL     1     -15.584 -24.816  20.069  1.00  0.00     0.122 C 
BRANCH  12  13
HETATM   13  N2  UNL     1     -16.128 -26.011  19.477  1.00  0.00    -0.367 N 
HETATM   14  C7  UNL     1     -16.021 -26.284  18.231  1.00  0.00     0.196 C 
HETATM   15  N3  UNL     1     -16.566 -27.469  17.672  1.00  0.00    -0.067 NA
HETATM   16  N4  UNL     1     -15.331 -25.372  17.364  1.00  0.00    -0.067 NA
ATOM     17  H2  UNL     1     -16.620 -26.672  20.080  1.00  0.00     0.161 HD
ENDBRANCH  12  13
ENDBRANCH  11  12
ENDBRANCH  10  11
ENDBRANCH   1  10
BRANCH   1  18
HETATM   18  C8  UNL     1     -17.194 -24.117  23.522  1.00  0.00     0.204 C 
HETATM   19  O1  UNL     1     -18.425 -24.255  23.416  1.00  0.00    -0.646 OA
HETATM   20  O2  UNL     1     -16.652 -22.852  23.548  1.00  0.00    -0.646 OA
ENDBRANCH   1  18
TORSDOF 8
ENDMDL
