MODEL 8
REMARK VINA RESULT: -5.801552954      2.797      5.104
REMARK  8 active torsions:
REMARK  status: ('A' for Active; 'I' for Inactive)
REMARK    1  A    between atoms: C2_2  and  N1_3 
REMARK    2  A    between atoms: C2_2  and  C9_18 
REMARK    3  A    between atoms: N1_3  and  C3_6 
REMARK    4  A    between atoms: C3_6  and  C4_7 
REMARK    5  A    between atoms: C3_6  and  C8_15 
REMARK    6  A    between atoms: C4_7  and  C5_8 
REMARK    7  A    between atoms: C5_8  and  C6_9 
REMARK    8  A    between atoms: C6_9  and  N2_10 
ROOT
HETATM    1  C3  UNL     1     -14.363 -24.933  21.667  1.00  0.00     0.286 C 
ENDROOT
BRANCH   1   2
HETATM    2  N1  UNL     1     -13.291 -24.225  21.029  1.00  0.00    -0.047 N 
ATOM      3  H12 UNL     1     -13.339 -23.229  21.249  1.00  0.00     0.279 HD
ATOM      4  H11 UNL     1     -13.439 -24.186  20.020  1.00  0.00     0.279 HD
BRANCH   2   5
HETATM    5  C2  UNL     1     -11.993 -24.741  21.325  1.00  0.00     0.282 C 
HETATM    6  C1  UNL     1     -11.899 -25.447  22.663  1.00  0.00     0.052 C 
BRANCH   5   7
HETATM    7  C9  UNL     1     -10.903 -23.731  21.225  1.00  0.00     0.204 C 
HETATM    8  O3  UNL     1     -10.925 -22.594  21.705  1.00  0.00    -0.646 OA
HETATM    9  O4  UNL     1      -9.766 -24.121  20.524  1.00  0.00    -0.646 OA
ENDBRANCH   5   7
ENDBRANCH   2   5
ENDBRANCH   1   2
BRANCH   1  10
HETATM   10  C4  UNL     1     -15.025 -24.040  22.680  1.00  0.00     0.046 C 
BRANCH  10  11
HETATM   11  C5  UNL     1     -16.507 -24.138  22.764  1.00  0.00     0.022 C 
BRANCH  11  12
HETATM   12  C6  UNL     1     -16.821 -24.791  24.115  1.00  0.00     0.122 C 
BRANCH  12  13
HETATM   13  N2  UNL     1     -16.690 -26.222  24.014  1.00  0.00    -0.367 N 
HETATM   14  C7  UNL     1     -15.786 -26.885  24.631  1.00  0.00     0.196 C 
HETATM   15  N3  UNL     1     -15.678 -28.296  24.515  1.00  0.00    -0.067 NA
HETATM   16  N4  UNL     1     -14.849 -26.193  25.470  1.00  0.00    -0.067 NA
ATOM     17  H2  UNL     1     -17.349 -26.730  23.423  1.00  0.00     0.161 HD
ENDBRANCH  12  13
ENDBRANCH  11  12
ENDBRANCH  10  11
ENDBRANCH   1  10
BRANCH   1  18
HETATM   18  C8  UNL     1     -15.394 -25.285  20.667  1.00  0.00     0.204 C 
HETATM   19  O1  UNL     1     -15.515 -24.598  19.638  1.00  0.00    -0.646 OA
HETATM   20  O2  UNL     1     -16.222 -26.367  20.863  1.00  0.00    -0.646 OA
ENDBRANCH   1  18
TORSDOF 8
ENDMDL
