MODEL 7
REMARK VINA RESULT: -6.055027066      2.312      4.850
REMARK  8 active torsions:
REMARK  status: ('A' for Active; 'I' for Inactive)
REMARK    1  A    between atoms: C2_2  and  N1_3 
REMARK    2  A    between atoms: C2_2  and  C9_18 
REMARK    3  A    between atoms: N1_3  and  C3_6 
REMARK    4  A    between atoms: C3_6  and  C4_7 
REMARK    5  A    between atoms: C3_6  and  C8_15 
REMARK    6  A    between atoms: C4_7  and  C5_8 
REMARK    7  A    between atoms: C5_8  and  C6_9 
REMARK    8  A    between atoms: C6_9  and  N2_10 
ROOT
HETATM    1  C3  UNL     1     -14.678 -25.058  21.464  1.00  0.00     0.286 C 
ENDROOT
BRANCH   1   2
HETATM    2  N1  UNL     1     -13.471 -24.494  20.929  1.00  0.00    -0.047 N 
ATOM      3  H12 UNL     1     -13.667 -23.612  20.456  1.00  0.00     0.279 HD
ATOM      4  H11 UNL     1     -13.139 -25.045  20.137  1.00  0.00     0.279 HD
BRANCH   2   5
HETATM    5  C2  UNL     1     -12.429 -24.326  21.892  1.00  0.00     0.282 C 
HETATM    6  C1  UNL     1     -11.243 -23.529  21.387  1.00  0.00     0.052 C 
BRANCH   5   7
HETATM    7  C9  UNL     1     -11.945 -25.602  22.489  1.00  0.00     0.204 C 
HETATM    8  O3  UNL     1     -12.224 -26.025  23.615  1.00  0.00    -0.646 OA
HETATM    9  O4  UNL     1     -11.105 -26.374  21.692  1.00  0.00    -0.646 OA
ENDBRANCH   5   7
ENDBRANCH   2   5
ENDBRANCH   1   2
BRANCH   1  10
HETATM   10  C4  UNL     1     -15.361 -24.046  22.342  1.00  0.00     0.046 C 
BRANCH  10  11
HETATM   11  C5  UNL     1     -16.503 -24.551  23.149  1.00  0.00     0.022 C 
BRANCH  11  12
HETATM   12  C6  UNL     1     -15.912 -25.532  24.169  1.00  0.00     0.122 C 
BRANCH  12  13
HETATM   13  N2  UNL     1     -16.169 -26.888  23.755  1.00  0.00    -0.367 N 
HETATM   14  C7  UNL     1     -15.779 -27.907  24.424  1.00  0.00     0.196 C 
HETATM   15  N3  UNL     1     -16.045 -29.234  23.994  1.00  0.00    -0.067 NA
HETATM   16  N4  UNL     1     -15.053 -27.716  25.646  1.00  0.00    -0.067 NA
ATOM     17  H2  UNL     1     -16.686 -27.042  22.888  1.00  0.00     0.161 HD
ENDBRANCH  12  13
ENDBRANCH  11  12
ENDBRANCH  10  11
ENDBRANCH   1  10
BRANCH   1  18
HETATM   18  C8  UNL     1     -15.613 -25.370  20.362  1.00  0.00     0.204 C 
HETATM   19  O1  UNL     1     -15.605 -24.677  19.330  1.00  0.00    -0.646 OA
HETATM   20  O2  UNL     1     -16.493 -26.423  20.465  1.00  0.00    -0.646 OA
ENDBRANCH   1  18
TORSDOF 8
ENDMDL
