MODEL 12
REMARK VINA RESULT: -5.760073064      3.599      5.703
REMARK  3 active torsions:
REMARK  status: ('A' for Active; 'I' for Inactive)
REMARK    1  A    between atoms: C7_7  and  C8_8 
REMARK    2  A    between atoms: C11_11  and  C12_12 
REMARK    3  A    between atoms: C12_12  and  N1_13 
ROOT
HETATM    1  C8  UNL     1      18.156 154.748 379.925  1.00  0.00    -0.004 A 
HETATM    2  C9  UNL     1      17.916 156.066 380.337  1.00  0.00     0.014 A 
HETATM    3  C10 UNL     1      18.651 157.138 379.897  1.00  0.00     0.010 A 
HETATM    4  C11 UNL     1      19.690 156.931 378.995  1.00  0.00    -0.031 A 
HETATM    5  C13 UNL     1      19.953 155.655 378.568  1.00  0.00     0.033 A 
HETATM    6  C14 UNL     1      19.183 154.589 379.038  1.00  0.00     0.045 A 
HETATM    7 CL1  UNL     1      19.532 152.977 378.462  1.00  0.00    -0.083 Cl
ENDROOT
BRANCH   1   8
HETATM    8  C7  UNL     1      17.311 153.679 380.415  1.00  0.00    -0.018 A 
HETATM    9  C2  UNL     1      17.483 153.144 381.670  1.00  0.00    -0.051 A 
HETATM   10  C1  UNL     1      18.610 153.591 382.515  1.00  0.00     0.049 C 
HETATM   11  C3  UNL     1      16.656 152.160 382.197  1.00  0.00     0.007 A 
HETATM   12  C4  UNL     1      15.613 151.715 381.396  1.00  0.00     0.001 A 
HETATM   13  C5  UNL     1      15.413 152.228 380.136  1.00  0.00     0.001 A 
HETATM   14  C6  UNL     1      16.273 153.217 379.649  1.00  0.00     0.013 A 
ENDBRANCH   1   8
BRANCH   4  15
HETATM   15  C12 UNL     1      20.488 158.085 378.500  1.00  0.00     0.268 C 
BRANCH  15  16
HETATM   16  N1  UNL     1      20.486 158.100 377.036  1.00  0.00    -0.075 N 
ATOM     17  H13 UNL     1      20.544 157.160 376.643  1.00  0.00     0.274 HD
ATOM     18  H12 UNL     1      19.576 158.363 376.657  1.00  0.00     0.274 HD
ATOM     19  H11 UNL     1      21.233 158.704 376.694  1.00  0.00     0.274 HD
ENDBRANCH  15  16
ENDBRANCH   4  15
TORSDOF 3
ENDMDL
