MODEL 4
REMARK VINA RESULT: -6.740007366      3.345      5.761
REMARK  3 active torsions:
REMARK  status: ('A' for Active; 'I' for Inactive)
REMARK    1  A    between atoms: C7_7  and  C8_8 
REMARK    2  A    between atoms: C11_11  and  C12_12 
REMARK    3  A    between atoms: C12_12  and  N1_13 
ROOT
HETATM    1  C8  UNL     1      18.226 153.865 379.850  1.00  0.00    -0.004 A 
HETATM    2  C9  UNL     1      19.240 153.326 379.047  1.00  0.00     0.014 A 
HETATM    3  C10 UNL     1      19.855 154.026 378.039  1.00  0.00     0.010 A 
HETATM    4  C11 UNL     1      19.470 155.339 377.784  1.00  0.00    -0.031 A 
HETATM    5  C13 UNL     1      18.480 155.900 378.550  1.00  0.00     0.033 A 
HETATM    6  C14 UNL     1      17.879 155.156 379.568  1.00  0.00     0.045 A 
HETATM    7 CL1  UNL     1      16.634 155.905 380.538  1.00  0.00    -0.083 Cl
ENDROOT
BRANCH   1   8
HETATM    8  C7  UNL     1      17.654 153.066 380.914  1.00  0.00    -0.018 A 
HETATM    9  C2  UNL     1      16.450 152.421 380.761  1.00  0.00    -0.051 A 
HETATM   10  C1  UNL     1      15.662 152.612 379.524  1.00  0.00     0.049 C 
HETATM   11  C3  UNL     1      15.898 151.599 381.735  1.00  0.00     0.007 A 
HETATM   12  C4  UNL     1      16.620 151.440 382.910  1.00  0.00     0.001 A 
HETATM   13  C5  UNL     1      17.827 152.071 383.097  1.00  0.00     0.001 A 
HETATM   14  C6  UNL     1      18.340 152.890 382.086  1.00  0.00     0.013 A 
ENDBRANCH   1   8
BRANCH   4  15
HETATM   15  C12 UNL     1      20.134 156.114 376.702  1.00  0.00     0.268 C 
BRANCH  15  16
HETATM   16  N1  UNL     1      19.513 157.434 376.583  1.00  0.00    -0.075 N 
ATOM     17  H13 UNL     1      20.176 158.143 376.272  1.00  0.00     0.274 HD
ATOM     18  H12 UNL     1      18.864 157.483 375.797  1.00  0.00     0.274 HD
ATOM     19  H11 UNL     1      19.068 157.688 377.465  1.00  0.00     0.274 HD
ENDBRANCH  15  16
ENDBRANCH   4  15
TORSDOF 3
ENDMDL
