MODEL 1
REMARK VINA RESULT: -7.291020244      0.000      0.000
REMARK  3 active torsions:
REMARK  status: ('A' for Active; 'I' for Inactive)
REMARK    1  A    between atoms: C7_7  and  C8_8 
REMARK    2  A    between atoms: C11_11  and  C12_12 
REMARK    3  A    between atoms: C12_12  and  N1_13 
ROOT
HETATM    1  C8  UNL     1      17.330 153.302 381.945  1.00  0.00    -0.004 A 
HETATM    2  C9  UNL     1      18.422 153.500 382.801  1.00  0.00     0.014 A 
HETATM    3  C10 UNL     1      18.847 152.563 383.709  1.00  0.00     0.010 A 
HETATM    4  C11 UNL     1      18.177 151.347 383.801  1.00  0.00    -0.031 A 
HETATM    5  C13 UNL     1      17.104 151.117 382.979  1.00  0.00     0.033 A 
HETATM    6  C14 UNL     1      16.701 152.096 382.067  1.00  0.00     0.045 A 
HETATM    7 CL1  UNL     1      15.342 151.766 381.021  1.00  0.00    -0.083 Cl
ENDROOT
BRANCH   1   8
HETATM    8  C7  UNL     1      16.970 154.333 380.994  1.00  0.00    -0.018 A 
HETATM    9  C2  UNL     1      17.551 154.399 379.749  1.00  0.00    -0.051 A 
HETATM   10  C1  UNL     1      18.638 153.463 379.391  1.00  0.00     0.049 C 
HETATM   11  C3  UNL     1      17.188 155.336 378.790  1.00  0.00     0.007 A 
HETATM   12  C4  UNL     1      16.189 156.236 379.131  1.00  0.00     0.001 A 
HETATM   13  C5  UNL     1      15.588 156.200 380.367  1.00  0.00     0.001 A 
HETATM   14  C6  UNL     1      15.988 155.237 381.300  1.00  0.00     0.013 A 
ENDBRANCH   1   8
BRANCH   4  15
HETATM   15  C12 UNL     1      18.632 150.316 384.773  1.00  0.00     0.268 C 
BRANCH  15  16
HETATM   16  N1  UNL     1      19.880 149.710 384.306  1.00  0.00    -0.075 N 
ATOM     17  H13 UNL     1      20.039 148.792 384.721  1.00  0.00     0.274 HD
ATOM     18  H12 UNL     1      19.824 149.423 383.328  1.00  0.00     0.274 HD
ATOM     19  H11 UNL     1      20.659 150.347 384.474  1.00  0.00     0.274 HD
ENDBRANCH  15  16
ENDBRANCH   4  15
TORSDOF 3
ENDMDL
