MODEL 3
REMARK VINA RESULT: -6.946614527      3.405      5.719
REMARK  3 active torsions:
REMARK  status: ('A' for Active; 'I' for Inactive)
REMARK    1  A    between atoms: C7_7  and  C8_8 
REMARK    2  A    between atoms: C11_11  and  C12_12 
REMARK    3  A    between atoms: C12_12  and  N1_13 
ROOT
HETATM    1  C8  UNL     1      17.920 154.039 379.604  1.00  0.00    -0.004 A 
HETATM    2  C9  UNL     1      19.038 153.579 378.895  1.00  0.00     0.014 A 
HETATM    3  C10 UNL     1      19.834 154.396 378.131  1.00  0.00     0.010 A 
HETATM    4  C11 UNL     1      19.534 155.752 378.040  1.00  0.00    -0.031 A 
HETATM    5  C13 UNL     1      18.447 156.238 378.720  1.00  0.00     0.033 A 
HETATM    6  C14 UNL     1      17.662 155.376 379.489  1.00  0.00     0.045 A 
HETATM    7 CL1  UNL     1      16.294 156.029 380.357  1.00  0.00    -0.083 Cl
ENDROOT
BRANCH   1   8
HETATM    8  C7  UNL     1      17.154 153.113 380.412  1.00  0.00    -0.018 A 
HETATM    9  C2  UNL     1      17.499 152.842 381.715  1.00  0.00    -0.051 A 
HETATM   10  C1  UNL     1      18.729 153.426 382.291  1.00  0.00     0.049 C 
HETATM   11  C3  UNL     1      16.755 152.006 382.540  1.00  0.00     0.007 A 
HETATM   12  C4  UNL     1      15.615 151.432 381.995  1.00  0.00     0.001 A 
HETATM   13  C5  UNL     1      15.243 151.681 380.695  1.00  0.00     0.001 A 
HETATM   14  C6  UNL     1      16.024 152.529 379.904  1.00  0.00     0.013 A 
ENDBRANCH   1   8
BRANCH   4  15
HETATM   15  C12 UNL     1      20.393 156.652 377.224  1.00  0.00     0.268 C 
BRANCH  15  16
HETATM   16  N1  UNL     1      19.564 157.420 376.293  1.00  0.00    -0.075 N 
ATOM     17  H13 UNL     1      19.846 157.280 375.323  1.00  0.00     0.274 HD
ATOM     18  H12 UNL     1      18.616 157.048 376.227  1.00  0.00     0.274 HD
ATOM     19  H11 UNL     1      19.572 158.406 376.555  1.00  0.00     0.274 HD
ENDBRANCH  15  16
ENDBRANCH   4  15
TORSDOF 3
ENDMDL
