MODEL 5
REMARK VINA RESULT: -6.681551446      0.745      1.806
REMARK  3 active torsions:
REMARK  status: ('A' for Active; 'I' for Inactive)
REMARK    1  A    between atoms: C7_7  and  C8_8 
REMARK    2  A    between atoms: C11_11  and  C12_12 
REMARK    3  A    between atoms: C12_12  and  N1_13 
ROOT
HETATM    1  C8  UNL     1      17.905 153.059 381.899  1.00  0.00    -0.004 A 
HETATM    2  C9  UNL     1      18.952 153.171 382.824  1.00  0.00     0.014 A 
HETATM    3  C10 UNL     1      19.109 152.320 383.890  1.00  0.00     0.010 A 
HETATM    4  C11 UNL     1      18.197 151.287 384.081  1.00  0.00    -0.031 A 
HETATM    5  C13 UNL     1      17.159 151.146 383.195  1.00  0.00     0.033 A 
HETATM    6  C14 UNL     1      17.032 152.032 382.123  1.00  0.00     0.045 A 
HETATM    7 CL1  UNL     1      15.710 151.816 381.002  1.00  0.00    -0.083 Cl
ENDROOT
BRANCH   1   8
HETATM    8  C7  UNL     1      17.832 153.981 380.785  1.00  0.00    -0.018 A 
HETATM    9  C2  UNL     1      16.990 155.068 380.804  1.00  0.00    -0.051 A 
HETATM   10  C1  UNL     1      16.062 155.264 381.938  1.00  0.00     0.049 C 
HETATM   11  C3  UNL     1      16.936 156.006 379.780  1.00  0.00     0.007 A 
HETATM   12  C4  UNL     1      17.785 155.811 378.700  1.00  0.00     0.001 A 
HETATM   13  C5  UNL     1      18.638 154.734 378.647  1.00  0.00     0.001 A 
HETATM   14  C6  UNL     1      18.655 153.817 379.702  1.00  0.00     0.013 A 
ENDBRANCH   1   8
BRANCH   4  15
HETATM   15  C12 UNL     1      18.361 150.350 385.226  1.00  0.00     0.268 C 
BRANCH  15  16
HETATM   16  N1  UNL     1      19.238 149.244 384.840  1.00  0.00    -0.075 N 
ATOM     17  H13 UNL     1      20.057 149.175 385.443  1.00  0.00     0.274 HD
ATOM     18  H12 UNL     1      18.823 148.335 385.048  1.00  0.00     0.274 HD
ATOM     19  H11 UNL     1      19.494 149.331 383.856  1.00  0.00     0.274 HD
ENDBRANCH  15  16
ENDBRANCH   4  15
TORSDOF 3
ENDMDL
