MODEL 2
REMARK VINA RESULT: -7.220135217      1.360      1.787
REMARK  3 active torsions:
REMARK  status: ('A' for Active; 'I' for Inactive)
REMARK    1  A    between atoms: C7_7  and  C8_8 
REMARK    2  A    between atoms: C11_11  and  C12_12 
REMARK    3  A    between atoms: C12_12  and  N1_13 
ROOT
HETATM    1  C8  UNL     1      17.407 153.241 381.892  1.00  0.00    -0.004 A 
HETATM    2  C9  UNL     1      16.584 152.158 382.230  1.00  0.00     0.014 A 
HETATM    3  C10 UNL     1      16.954 151.179 383.119  1.00  0.00     0.010 A 
HETATM    4  C11 UNL     1      18.204 151.245 383.728  1.00  0.00    -0.031 A 
HETATM    5  C13 UNL     1      19.036 152.291 383.421  1.00  0.00     0.033 A 
HETATM    6  C14 UNL     1      18.623 153.268 382.513  1.00  0.00     0.045 A 
HETATM    7 CL1  UNL     1      19.699 154.598 382.157  1.00  0.00    -0.083 Cl
ENDROOT
BRANCH   1   8
HETATM    8  C7  UNL     1      16.923 154.246 380.969  1.00  0.00    -0.018 A 
HETATM    9  C2  UNL     1      17.265 154.223 379.637  1.00  0.00    -0.051 A 
HETATM   10  C1  UNL     1      18.222 153.213 379.137  1.00  0.00     0.049 C 
HETATM   11  C3  UNL     1      16.774 155.135 378.711  1.00  0.00     0.007 A 
HETATM   12  C4  UNL     1      15.898 156.104 379.181  1.00  0.00     0.001 A 
HETATM   13  C5  UNL     1      15.537 156.156 380.506  1.00  0.00     0.001 A 
HETATM   14  C6  UNL     1      16.058 155.216 381.401  1.00  0.00     0.013 A 
ENDBRANCH   1   8
BRANCH   4  15
HETATM   15  C12 UNL     1      18.615 150.198 384.701  1.00  0.00     0.268 C 
BRANCH  15  16
HETATM   16  N1  UNL     1      19.930 149.669 384.335  1.00  0.00    -0.075 N 
ATOM     17  H13 UNL     1      20.267 148.980 385.008  1.00  0.00     0.274 HD
ATOM     18  H12 UNL     1      19.886 149.065 383.514  1.00  0.00     0.274 HD
ATOM     19  H11 UNL     1      20.590 150.437 384.212  1.00  0.00     0.274 HD
ENDBRANCH  15  16
ENDBRANCH   4  15
TORSDOF 3
ENDMDL
