MODEL 7
REMARK VINA RESULT: -6.313558242      2.903      5.698
REMARK  4 active torsions:
REMARK  status: ('A' for Active; 'I' for Inactive)
REMARK    1  A    between atoms: C2_2  and  C3_3 
REMARK    2  A    between atoms: C8_8  and  C9_9 
REMARK    3  A    between atoms: C12_12  and  C13_13 
REMARK    4  A    between atoms: C13_13  and  N1_14 
ROOT
HETATM    1  C9  UNL     1      -5.046 166.677 399.255  1.00  0.00    -0.004 A 
HETATM    2  C10 UNL     1      -5.773 165.696 399.881  1.00  0.00     0.014 A 
HETATM    3  C11 UNL     1      -7.083 165.873 400.242  1.00  0.00     0.010 A 
HETATM    4  C12 UNL     1      -7.696 167.074 399.973  1.00  0.00    -0.031 A 
HETATM    5  C14 UNL     1      -6.976 168.076 399.342  1.00  0.00     0.033 A 
HETATM    6  C15 UNL     1      -5.672 167.872 398.991  1.00  0.00     0.045 A 
HETATM    7 CL1  UNL     1      -4.745 169.172 398.198  1.00  0.00    -0.083 Cl
ENDROOT
BRANCH   1   8
HETATM    8  C8  UNL     1      -3.643 166.488 398.886  1.00  0.00    -0.018 A 
HETATM    9  C3  UNL     1      -2.593 166.845 399.682  1.00  0.00    -0.047 A 
HETATM   10  C4  UNL     1      -1.283 166.603 399.264  1.00  0.00     0.008 A 
HETATM   11  C5  UNL     1      -1.024 166.013 398.059  1.00  0.00     0.001 A 
HETATM   12  C6  UNL     1      -2.090 165.646 397.237  1.00  0.00     0.001 A 
HETATM   13  C7  UNL     1      -3.378 165.892 397.667  1.00  0.00     0.013 A 
BRANCH   9  14
HETATM   14  C2  UNL     1      -2.794 167.499 400.966  1.00  0.00     0.035 C 
HETATM   15  C1  UNL     1      -2.305 168.939 401.030  1.00  0.00     0.010 C 
ENDBRANCH   9  14
ENDBRANCH   1   8
BRANCH   4  16
HETATM   16  C13 UNL     1      -9.103 167.250 400.383  1.00  0.00     0.268 C 
BRANCH  16  17
HETATM   17  N1  UNL     1      -9.458 166.513 401.578  1.00  0.00    -0.075 N 
ATOM     18  H13 UNL     1      -9.019 165.592 401.577  1.00  0.00     0.274 HD
ATOM     19  H12 UNL     1      -9.006 166.917 402.398  1.00  0.00     0.274 HD
ATOM     20  H11 UNL     1     -10.465 166.431 401.726  1.00  0.00     0.274 HD
ENDBRANCH  16  17
ENDBRANCH   4  16
TORSDOF 4
ENDMDL
