MODEL 9
REMARK VINA RESULT: -6.094921623      2.906      5.722
REMARK  4 active torsions:
REMARK  status: ('A' for Active; 'I' for Inactive)
REMARK    1  A    between atoms: C2_2  and  C3_3 
REMARK    2  A    between atoms: C8_8  and  C9_9 
REMARK    3  A    between atoms: C12_12  and  C13_13 
REMARK    4  A    between atoms: C13_13  and  N1_14 
ROOT
HETATM    1  C9  UNL     1      -4.930 166.833 399.097  1.00  0.00    -0.004 A 
HETATM    2  C10 UNL     1      -5.766 167.670 398.399  1.00  0.00     0.014 A 
HETATM    3  C11 UNL     1      -7.086 167.828 398.730  1.00  0.00     0.010 A 
HETATM    4  C12 UNL     1      -7.601 167.124 399.793  1.00  0.00    -0.031 A 
HETATM    5  C14 UNL     1      -6.772 166.274 400.508  1.00  0.00     0.033 A 
HETATM    6  C15 UNL     1      -5.458 166.137 400.159  1.00  0.00     0.045 A 
HETATM    7 CL1  UNL     1      -4.402 165.026 401.068  1.00  0.00    -0.083 Cl
ENDROOT
BRANCH   1   8
HETATM    8  C8  UNL     1      -3.526 166.657 398.731  1.00  0.00    -0.018 A 
HETATM    9  C3  UNL     1      -2.514 167.453 399.188  1.00  0.00    -0.047 A 
HETATM   10  C4  UNL     1      -1.195 167.197 398.810  1.00  0.00     0.008 A 
HETATM   11  C5  UNL     1      -0.888 166.157 397.980  1.00  0.00     0.001 A 
HETATM   12  C6  UNL     1      -1.913 165.337 397.506  1.00  0.00     0.001 A 
HETATM   13  C7  UNL     1      -3.212 165.606 397.891  1.00  0.00     0.013 A 
BRANCH   9  14
HETATM   14  C2  UNL     1      -2.771 168.594 400.055  1.00  0.00     0.035 C 
HETATM   15  C1  UNL     1      -2.336 168.406 401.501  1.00  0.00     0.010 C 
ENDBRANCH   9  14
ENDBRANCH   1   8
BRANCH   4  16
HETATM   16  C13 UNL     1      -9.028 167.297 400.122  1.00  0.00     0.268 C 
BRANCH  16  17
HETATM   17  N1  UNL     1      -9.432 166.620 401.338  1.00  0.00    -0.075 N 
ATOM     18  H13 UNL     1     -10.346 166.182 401.220  1.00  0.00     0.274 HD
ATOM     19  H12 UNL     1      -8.862 165.788 401.493  1.00  0.00     0.274 HD
ATOM     20  H11 UNL     1      -9.424 167.219 402.164  1.00  0.00     0.274 HD
ENDBRANCH  16  17
ENDBRANCH   4  16
TORSDOF 4
ENDMDL
