MODEL 1
REMARK VINA RESULT: -8.057640011      0.000      0.000
REMARK  4 active torsions:
REMARK  status: ('A' for Active; 'I' for Inactive)
REMARK    1  A    between atoms: C2_2  and  C3_3 
REMARK    2  A    between atoms: C8_8  and  C9_9 
REMARK    3  A    between atoms: C12_12  and  C13_13 
REMARK    4  A    between atoms: C13_13  and  N1_14 
ROOT
HETATM    1  C9  UNL     1      -4.156 167.011 399.183  1.00  0.00    -0.004 A 
HETATM    2  C10 UNL     1      -3.199 167.580 399.986  1.00  0.00     0.014 A 
HETATM    3  C11 UNL     1      -1.859 167.367 399.791  1.00  0.00     0.010 A 
HETATM    4  C12 UNL     1      -1.451 166.554 398.761  1.00  0.00    -0.031 A 
HETATM    5  C14 UNL     1      -2.404 165.970 397.940  1.00  0.00     0.033 A 
HETATM    6  C15 UNL     1      -3.734 166.201 398.155  1.00  0.00     0.045 A 
HETATM    7 CL1  UNL     1      -4.955 165.431 397.110  1.00  0.00    -0.083 Cl
ENDROOT
BRANCH   1   8
HETATM    8  C8  UNL     1      -5.585 167.229 399.404  1.00  0.00    -0.018 A 
HETATM    9  C3  UNL     1      -6.410 166.319 400.001  1.00  0.00    -0.047 A 
HETATM   10  C4  UNL     1      -7.759 166.619 400.198  1.00  0.00     0.008 A 
HETATM   11  C5  UNL     1      -8.280 167.817 399.800  1.00  0.00     0.001 A 
HETATM   12  C6  UNL     1      -7.447 168.754 399.187  1.00  0.00     0.001 A 
HETATM   13  C7  UNL     1      -6.116 168.439 399.001  1.00  0.00     0.013 A 
BRANCH   9  14
HETATM   14  C2  UNL     1      -5.927 165.013 400.428  1.00  0.00     0.035 C 
HETATM   15  C1  UNL     1      -5.192 165.011 401.760  1.00  0.00     0.010 C 
ENDBRANCH   9  14
ENDBRANCH   1   8
BRANCH   4  16
HETATM   16  C13 UNL     1      -0.006 166.326 398.578  1.00  0.00     0.268 C 
BRANCH  16  17
HETATM   17  N1  UNL     1       0.317 165.542 397.403  1.00  0.00    -0.075 N 
ATOM     18  H13 UNL     1       0.147 164.550 397.574  1.00  0.00     0.274 HD
ATOM     19  H12 UNL     1      -0.365 165.707 396.662  1.00  0.00     0.274 HD
ATOM     20  H11 UNL     1       1.266 165.690 397.058  1.00  0.00     0.274 HD
ENDBRANCH  16  17
ENDBRANCH   4  16
TORSDOF 4
ENDMDL
