MODEL 12
REMARK VINA RESULT: -5.544420255      3.106      5.837
REMARK  4 active torsions:
REMARK  status: ('A' for Active; 'I' for Inactive)
REMARK    1  A    between atoms: C2_2  and  C3_3 
REMARK    2  A    between atoms: C8_8  and  C9_9 
REMARK    3  A    between atoms: C12_12  and  C13_13 
REMARK    4  A    between atoms: C13_13  and  N1_14 
ROOT
HETATM    1  C9  UNL     1      -4.936 166.111 399.130  1.00  0.00    -0.004 A 
HETATM    2  C10 UNL     1      -6.047 166.323 398.352  1.00  0.00     0.014 A 
HETATM    3  C11 UNL     1      -7.319 166.152 398.831  1.00  0.00     0.010 A 
HETATM    4  C12 UNL     1      -7.498 165.751 400.134  1.00  0.00    -0.031 A 
HETATM    5  C14 UNL     1      -6.387 165.531 400.933  1.00  0.00     0.033 A 
HETATM    6  C15 UNL     1      -5.129 165.711 400.431  1.00  0.00     0.045 A 
HETATM    7 CL1  UNL     1      -3.704 165.406 401.457  1.00  0.00    -0.083 Cl
ENDROOT
BRANCH   1   8
HETATM    8  C8  UNL     1      -3.580 166.280 398.609  1.00  0.00    -0.018 A 
HETATM    9  C3  UNL     1      -2.840 167.417 398.768  1.00  0.00    -0.047 A 
HETATM   10  C4  UNL     1      -1.540 167.484 398.262  1.00  0.00     0.008 A 
HETATM   11  C5  UNL     1      -0.985 166.425 397.601  1.00  0.00     0.001 A 
HETATM   12  C6  UNL     1      -1.732 165.259 397.432  1.00  0.00     0.001 A 
HETATM   13  C7  UNL     1      -3.015 165.211 397.939  1.00  0.00     0.013 A 
BRANCH   9  14
HETATM   14  C2  UNL     1      -3.377 168.591 399.440  1.00  0.00     0.035 C 
HETATM   15  C1  UNL     1      -4.041 169.604 398.519  1.00  0.00     0.010 C 
ENDBRANCH   9  14
ENDBRANCH   1   8
BRANCH   4  16
HETATM   16  C13 UNL     1      -8.875 165.558 400.625  1.00  0.00     0.268 C 
BRANCH  16  17
HETATM   17  N1  UNL     1      -9.373 166.668 401.413  1.00  0.00    -0.075 N 
ATOM     18  H13 UNL     1     -10.277 166.984 401.059  1.00  0.00     0.274 HD
ATOM     19  H12 UNL     1      -9.654 166.352 402.342  1.00  0.00     0.274 HD
ATOM     20  H11 UNL     1      -8.720 167.449 401.482  1.00  0.00     0.274 HD
ENDBRANCH  16  17
ENDBRANCH   4  16
TORSDOF 4
ENDMDL
