MODEL 3
REMARK VINA RESULT: -7.779793367      1.507      1.932
REMARK  4 active torsions:
REMARK  status: ('A' for Active; 'I' for Inactive)
REMARK    1  A    between atoms: C2_2  and  C3_3 
REMARK    2  A    between atoms: C8_8  and  C9_9 
REMARK    3  A    between atoms: C12_12  and  C13_13 
REMARK    4  A    between atoms: C13_13  and  N1_14 
ROOT
HETATM    1  C9  UNL     1      -3.476 166.476 398.868  1.00  0.00    -0.004 A 
HETATM    2  C10 UNL     1      -2.969 165.627 397.916  1.00  0.00     0.014 A 
HETATM    3  C11 UNL     1      -1.628 165.548 397.645  1.00  0.00     0.010 A 
HETATM    4  C12 UNL     1      -0.754 166.345 398.345  1.00  0.00    -0.031 A 
HETATM    5  C14 UNL     1      -1.249 167.210 399.310  1.00  0.00     0.033 A 
HETATM    6  C15 UNL     1      -2.590 167.267 399.561  1.00  0.00     0.045 A 
HETATM    7 CL1  UNL     1      -3.223 168.395 400.788  1.00  0.00    -0.083 Cl
ENDROOT
BRANCH   1   8
HETATM    8  C8  UNL     1      -4.909 166.568 399.142  1.00  0.00    -0.018 A 
HETATM    9  C3  UNL     1      -5.554 165.817 400.084  1.00  0.00    -0.047 A 
HETATM   10  C4  UNL     1      -6.922 165.989 400.300  1.00  0.00     0.008 A 
HETATM   11  C5  UNL     1      -7.642 166.900 399.581  1.00  0.00     0.001 A 
HETATM   12  C6  UNL     1      -6.994 167.671 398.615  1.00  0.00     0.001 A 
HETATM   13  C7  UNL     1      -5.641 167.488 398.415  1.00  0.00     0.013 A 
BRANCH   9  14
HETATM   14  C2  UNL     1      -4.855 164.811 400.869  1.00  0.00     0.035 C 
HETATM   15  C1  UNL     1      -4.425 165.271 402.255  1.00  0.00     0.010 C 
ENDBRANCH   9  14
ENDBRANCH   1   8
BRANCH   4  16
HETATM   16  C13 UNL     1       0.684 166.256 398.029  1.00  0.00     0.268 C 
BRANCH  16  17
HETATM   17  N1  UNL     1       1.011 165.196 397.096  1.00  0.00    -0.075 N 
ATOM     18  H13 UNL     1       0.310 164.456 397.132  1.00  0.00     0.274 HD
ATOM     19  H12 UNL     1       0.878 165.510 396.135  1.00  0.00     0.274 HD
ATOM     20  H11 UNL     1       1.947 164.811 397.223  1.00  0.00     0.274 HD
ENDBRANCH  16  17
ENDBRANCH   4  16
TORSDOF 4
ENDMDL
