MODEL 1
REMARK VINA RESULT: -8.121161109      0.000      0.000
REMARK  3 active torsions:
REMARK  status: ('A' for Active; 'I' for Inactive)
REMARK    1  A    between atoms: N1_1  and  C1_5 
REMARK    2  A    between atoms: C1_5  and  C2_6 
REMARK    3  A    between atoms: C5_9  and  C6_10 
ROOT
HETATM    1  C2  UNL     1      69.997 139.930 350.396  1.00  0.00    -0.031 A 
HETATM    2  C3  UNL     1      69.158 140.441 349.432  1.00  0.00     0.010 A 
HETATM    3  C4  UNL     1      68.979 141.820 349.283  1.00  0.00     0.014 A 
HETATM    4  C5  UNL     1      69.640 142.704 350.102  1.00  0.00    -0.001 A 
HETATM    5  C12 UNL     1      70.477 142.148 351.063  1.00  0.00     0.045 A 
HETATM    6 CL1  UNL     1      71.331 143.236 352.141  1.00  0.00    -0.083 Cl
HETATM    7  C13 UNL     1      70.652 140.806 351.208  1.00  0.00     0.033 A 
ENDROOT
BRANCH   4   8
HETATM    8  C6  UNL     1      69.524 144.147 350.000  1.00  0.00     0.014 A 
HETATM    9  C7  UNL     1      70.477 144.926 349.376  1.00  0.00     0.015 A 
HETATM   10  C8  UNL     1      70.356 146.299 349.273  1.00  0.00     0.001 A 
HETATM   11  C9  UNL     1      69.248 146.912 349.811  1.00  0.00     0.003 A 
HETATM   12  C10 UNL     1      68.291 146.153 350.436  1.00  0.00     0.043 A 
HETATM   13  C11 UNL     1      68.416 144.763 350.538  1.00  0.00     0.127 A 
HETATM   14  F1  UNL     1      67.421 144.096 351.176  1.00  0.00    -0.205 F 
ENDBRANCH   4   8
BRANCH   1  15
HETATM   15  C1  UNL     1      70.145 138.471 350.506  1.00  0.00     0.268 C 
BRANCH  15  16
HETATM   16  N1  UNL     1      70.723 138.061 351.768  1.00  0.00    -0.075 N 
ATOM     17  H13 UNL     1      71.368 138.767 352.123  1.00  0.00     0.274 HD
ATOM     18  H12 UNL     1      70.028 138.083 352.514  1.00  0.00     0.274 HD
ATOM     19  H11 UNL     1      71.175 137.147 351.716  1.00  0.00     0.274 HD
ENDBRANCH  15  16
ENDBRANCH   1  15
TORSDOF 3
ENDMDL
