MODEL 9
REMARK VINA RESULT: -6.483295123      2.702      5.848
REMARK  3 active torsions:
REMARK  status: ('A' for Active; 'I' for Inactive)
REMARK    1  A    between atoms: N1_1  and  C1_5 
REMARK    2  A    between atoms: C1_5  and  C2_6 
REMARK    3  A    between atoms: C5_9  and  C6_10 
ROOT
HETATM    1  C2  UNL     1      69.044 143.247 349.728  1.00  0.00    -0.031 A 
HETATM    2  C3  UNL     1      68.317 142.213 349.185  1.00  0.00     0.010 A 
HETATM    3  C4  UNL     1      68.629 140.879 349.470  1.00  0.00     0.014 A 
HETATM    4  C5  UNL     1      69.677 140.569 350.303  1.00  0.00    -0.001 A 
HETATM    5  C12 UNL     1      70.386 141.642 350.831  1.00  0.00     0.045 A 
HETATM    6 CL1  UNL     1      71.741 141.295 351.888  1.00  0.00    -0.083 Cl
HETATM    7  C13 UNL     1      70.082 142.940 350.555  1.00  0.00     0.033 A 
ENDROOT
BRANCH   4   8
HETATM    8  C6  UNL     1      70.054 139.214 350.663  1.00  0.00     0.014 A 
HETATM    9  C7  UNL     1      70.933 138.462 349.910  1.00  0.00     0.015 A 
HETATM   10  C8  UNL     1      71.295 137.177 350.263  1.00  0.00     0.001 A 
HETATM   11  C9  UNL     1      70.761 136.624 351.405  1.00  0.00     0.003 A 
HETATM   12  C10 UNL     1      69.885 137.356 352.165  1.00  0.00     0.043 A 
HETATM   13  C11 UNL     1      69.520 138.658 351.805  1.00  0.00     0.127 A 
HETATM   14  F1  UNL     1      68.645 139.304 352.616  1.00  0.00    -0.205 F 
ENDBRANCH   4   8
BRANCH   1  15
HETATM   15  C1  UNL     1      68.668 144.629 349.392  1.00  0.00     0.268 C 
BRANCH  15  16
HETATM   16  N1  UNL     1      69.622 145.602 349.881  1.00  0.00    -0.075 N 
ATOM     17  H13 UNL     1      69.578 145.680 350.897  1.00  0.00     0.274 HD
ATOM     18  H12 UNL     1      70.578 145.259 349.783  1.00  0.00     0.274 HD
ATOM     19  H11 UNL     1      69.515 146.516 349.439  1.00  0.00     0.274 HD
ENDBRANCH  15  16
ENDBRANCH   1  15
TORSDOF 3
ENDMDL
