MODEL 2
REMARK VINA RESULT: -8.107449822      1.176      1.670
REMARK  3 active torsions:
REMARK  status: ('A' for Active; 'I' for Inactive)
REMARK    1  A    between atoms: N1_1  and  C1_5 
REMARK    2  A    between atoms: C1_5  and  C2_6 
REMARK    3  A    between atoms: C5_9  and  C6_10 
ROOT
HETATM    1  C2  UNL     1      70.044 139.934 350.394  1.00  0.00    -0.031 A 
HETATM    2  C3  UNL     1      69.163 140.402 349.447  1.00  0.00     0.010 A 
HETATM    3  C4  UNL     1      68.915 141.772 349.300  1.00  0.00     0.014 A 
HETATM    4  C5  UNL     1      69.551 142.687 350.105  1.00  0.00    -0.001 A 
HETATM    5  C12 UNL     1      70.433 142.173 351.048  1.00  0.00     0.045 A 
HETATM    6 CL1  UNL     1      71.256 143.302 352.108  1.00  0.00    -0.083 Cl
HETATM    7  C13 UNL     1      70.674 140.841 351.191  1.00  0.00     0.033 A 
ENDROOT
BRANCH   4   8
HETATM    8  C6  UNL     1      69.364 144.123 350.004  1.00  0.00     0.014 A 
HETATM    9  C7  UNL     1      68.268 144.769 350.540  1.00  0.00     0.015 A 
HETATM   10  C8  UNL     1      68.100 146.137 350.449  1.00  0.00     0.001 A 
HETATM   11  C9  UNL     1      69.058 146.884 349.801  1.00  0.00     0.003 A 
HETATM   12  C10 UNL     1      70.154 146.259 349.262  1.00  0.00     0.043 A 
HETATM   13  C11 UNL     1      70.321 144.872 349.356  1.00  0.00     0.127 A 
HETATM   14  F1  UNL     1      71.434 144.342 348.789  1.00  0.00    -0.205 F 
ENDBRANCH   4   8
BRANCH   1  15
HETATM   15  C1  UNL     1      70.263 138.483 350.501  1.00  0.00     0.268 C 
BRANCH  15  16
HETATM   16  N1  UNL     1      70.652 138.074 351.834  1.00  0.00    -0.075 N 
ATOM     17  H13 UNL     1      71.191 138.805 352.299  1.00  0.00     0.274 HD
ATOM     18  H12 UNL     1      69.846 138.042 352.458  1.00  0.00     0.274 HD
ATOM     19  H11 UNL     1      71.156 137.187 351.843  1.00  0.00     0.274 HD
ENDBRANCH  15  16
ENDBRANCH   1  15
TORSDOF 3
ENDMDL
