MODEL 7
REMARK VINA RESULT: -6.630312503      3.157      5.945
REMARK  3 active torsions:
REMARK  status: ('A' for Active; 'I' for Inactive)
REMARK    1  A    between atoms: N1_1  and  C1_5 
REMARK    2  A    between atoms: C1_5  and  C2_6 
REMARK    3  A    between atoms: C5_9  and  C6_10 
ROOT
HETATM    1  C2  UNL     1      69.666 144.923 350.039  1.00  0.00    -0.031 A 
HETATM    2  C3  UNL     1      70.571 144.451 350.962  1.00  0.00     0.010 A 
HETATM    3  C4  UNL     1      70.657 143.086 351.262  1.00  0.00     0.014 A 
HETATM    4  C5  UNL     1      69.833 142.180 350.638  1.00  0.00    -0.001 A 
HETATM    5  C12 UNL     1      68.934 142.698 349.712  1.00  0.00     0.045 A 
HETATM    6 CL1  UNL     1      67.852 141.582 348.901  1.00  0.00    -0.083 Cl
HETATM    7  C13 UNL     1      68.850 144.025 349.420  1.00  0.00     0.033 A 
ENDROOT
BRANCH   4   8
HETATM    8  C6  UNL     1      69.872 140.749 350.878  1.00  0.00     0.014 A 
HETATM    9  C7  UNL     1      69.326 140.171 352.007  1.00  0.00     0.015 A 
HETATM   10  C8  UNL     1      69.357 138.807 352.225  1.00  0.00     0.001 A 
HETATM   11  C9  UNL     1      69.954 137.995 351.287  1.00  0.00     0.003 A 
HETATM   12  C10 UNL     1      70.503 138.554 350.160  1.00  0.00     0.043 A 
HETATM   13  C11 UNL     1      70.469 139.936 349.941  1.00  0.00     0.127 A 
HETATM   14  F1  UNL     1      71.040 140.397 348.800  1.00  0.00    -0.205 F 
ENDBRANCH   4   8
BRANCH   1  15
HETATM   15  C1  UNL     1      69.623 146.368 349.766  1.00  0.00     0.268 C 
BRANCH  15  16
HETATM   16  N1  UNL     1      68.635 147.058 350.569  1.00  0.00    -0.075 N 
ATOM     17  H13 UNL     1      67.873 146.432 350.832  1.00  0.00     0.274 HD
ATOM     18  H12 UNL     1      69.001 147.272 351.497  1.00  0.00     0.274 HD
ATOM     19  H11 UNL     1      68.276 147.899 350.115  1.00  0.00     0.274 HD
ENDBRANCH  15  16
ENDBRANCH   1  15
TORSDOF 3
ENDMDL
