MODEL 17
REMARK VINA RESULT: -5.659002578      1.154      1.402
REMARK  3 active torsions:
REMARK  status: ('A' for Active; 'I' for Inactive)
REMARK    1  A    between atoms: N1_1  and  C1_5 
REMARK    2  A    between atoms: C1_5  and  C2_6 
REMARK    3  A    between atoms: C5_9  and  C6_10 
ROOT
HETATM    1  C2  UNL     1      69.910 138.699 350.626  1.00  0.00    -0.031 A 
HETATM    2  C3  UNL     1      69.062 139.173 349.652  1.00  0.00     0.010 A 
HETATM    3  C4  UNL     1      68.948 140.544 349.395  1.00  0.00     0.014 A 
HETATM    4  C5  UNL     1      69.683 141.454 350.115  1.00  0.00    -0.001 A 
HETATM    5  C12 UNL     1      70.527 140.934 351.090  1.00  0.00     0.045 A 
HETATM    6 CL1  UNL     1      71.475 142.058 352.045  1.00  0.00    -0.083 Cl
HETATM    7  C13 UNL     1      70.639 139.601 351.340  1.00  0.00     0.033 A 
ENDROOT
BRANCH   4   8
HETATM    8  C6  UNL     1      69.636 142.889 349.897  1.00  0.00     0.014 A 
HETATM    9  C7  UNL     1      70.767 143.680 349.919  1.00  0.00     0.015 A 
HETATM   10  C8  UNL     1      70.717 145.044 349.702  1.00  0.00     0.001 A 
HETATM   11  C9  UNL     1      69.498 145.635 349.455  1.00  0.00     0.003 A 
HETATM   12  C10 UNL     1      68.365 144.864 349.431  1.00  0.00     0.043 A 
HETATM   13  C11 UNL     1      68.418 143.482 349.651  1.00  0.00     0.127 A 
HETATM   14  F1  UNL     1      67.245 142.802 349.611  1.00  0.00    -0.205 F 
ENDBRANCH   4   8
BRANCH   1  15
HETATM   15  C1  UNL     1      69.988 137.247 350.851  1.00  0.00     0.268 C 
BRANCH  15  16
HETATM   16  N1  UNL     1      71.343 136.788 351.074  1.00  0.00    -0.075 N 
ATOM     17  H13 UNL     1      71.826 136.629 350.189  1.00  0.00     0.274 HD
ATOM     18  H12 UNL     1      71.927 137.537 351.448  1.00  0.00     0.274 HD
ATOM     19  H11 UNL     1      71.386 135.960 351.668  1.00  0.00     0.274 HD
ENDBRANCH  15  16
ENDBRANCH   1  15
TORSDOF 3
ENDMDL
