MODEL 5
REMARK VINA RESULT: -6.786000303      2.951      6.202
REMARK  3 active torsions:
REMARK  status: ('A' for Active; 'I' for Inactive)
REMARK    1  A    between atoms: N1_1  and  C1_5 
REMARK    2  A    between atoms: C1_5  and  C2_6 
REMARK    3  A    between atoms: C5_9  and  C6_10 
ROOT
HETATM    1  C2  UNL     1      70.117 143.262 350.377  1.00  0.00    -0.031 A 
HETATM    2  C3  UNL     1      70.994 142.739 351.299  1.00  0.00     0.010 A 
HETATM    3  C4  UNL     1      71.081 141.360 351.517  1.00  0.00     0.014 A 
HETATM    4  C5  UNL     1      70.286 140.489 350.810  1.00  0.00    -0.001 A 
HETATM    5  C12 UNL     1      69.414 141.057 349.888  1.00  0.00     0.045 A 
HETATM    6 CL1  UNL     1      68.370 139.987 348.973  1.00  0.00    -0.083 Cl
HETATM    7  C13 UNL     1      69.330 142.399 349.676  1.00  0.00     0.033 A 
ENDROOT
BRANCH   4   8
HETATM    8  C6  UNL     1      70.329 139.046 350.962  1.00  0.00     0.014 A 
HETATM    9  C7  UNL     1      71.136 138.241 350.182  1.00  0.00     0.015 A 
HETATM   10  C8  UNL     1      71.180 136.869 350.338  1.00  0.00     0.001 A 
HETATM   11  C9  UNL     1      70.393 136.283 351.303  1.00  0.00     0.003 A 
HETATM   12  C10 UNL     1      69.584 137.067 352.086  1.00  0.00     0.043 A 
HETATM   13  C11 UNL     1      69.542 138.457 351.926  1.00  0.00     0.127 A 
HETATM   14  F1  UNL     1      68.711 139.151 352.744  1.00  0.00    -0.205 F 
ENDBRANCH   4   8
BRANCH   1  15
HETATM   15  C1  UNL     1      70.070 144.721 350.193  1.00  0.00     0.268 C 
BRANCH  15  16
HETATM   16  N1  UNL     1      68.821 145.172 349.615  1.00  0.00    -0.075 N 
ATOM     17  H13 UNL     1      68.921 146.101 349.206  1.00  0.00     0.274 HD
ATOM     18  H12 UNL     1      68.595 144.643 348.772  1.00  0.00     0.274 HD
ATOM     19  H11 UNL     1      68.048 145.147 350.281  1.00  0.00     0.274 HD
ENDBRANCH  15  16
ENDBRANCH   1  15
TORSDOF 3
ENDMDL
