MODEL 10
REMARK VINA RESULT: -6.482513814      1.693      1.914
REMARK  3 active torsions:
REMARK  status: ('A' for Active; 'I' for Inactive)
REMARK    1  A    between atoms: N1_1  and  C1_5 
REMARK    2  A    between atoms: C1_5  and  C2_6 
REMARK    3  A    between atoms: C5_9  and  C6_10 
ROOT
HETATM    1  C2  UNL     1      70.257 139.765 350.336  1.00  0.00    -0.031 A 
HETATM    2  C3  UNL     1      69.399 140.313 351.261  1.00  0.00     0.010 A 
HETATM    3  C4  UNL     1      69.116 141.684 351.266  1.00  0.00     0.014 A 
HETATM    4  C5  UNL     1      69.693 142.520 350.340  1.00  0.00    -0.001 A 
HETATM    5  C12 UNL     1      70.554 141.927 349.423  1.00  0.00     0.045 A 
HETATM    6 CL1  UNL     1      71.325 142.957 348.232  1.00  0.00    -0.083 Cl
HETATM    7  C13 UNL     1      70.829 140.594 349.418  1.00  0.00     0.033 A 
ENDROOT
BRANCH   4   8
HETATM    8  C6  UNL     1      69.437 143.947 350.266  1.00  0.00     0.014 A 
HETATM    9  C7  UNL     1      68.507 144.490 349.403  1.00  0.00     0.015 A 
HETATM   10  C8  UNL     1      68.260 145.848 349.343  1.00  0.00     0.001 A 
HETATM   11  C9  UNL     1      68.966 146.690 350.172  1.00  0.00     0.003 A 
HETATM   12  C10 UNL     1      69.896 146.168 351.035  1.00  0.00     0.043 A 
HETATM   13  C11 UNL     1      70.143 144.791 351.094  1.00  0.00     0.127 A 
HETATM   14  F1  UNL     1      71.082 144.366 351.976  1.00  0.00    -0.205 F 
ENDBRANCH   4   8
BRANCH   1  15
HETATM   15  C1  UNL     1      70.516 138.318 350.381  1.00  0.00     0.268 C 
BRANCH  15  16
HETATM   16  N1  UNL     1      70.693 137.823 351.730  1.00  0.00    -0.075 N 
ATOM     17  H13 UNL     1      71.281 136.989 351.741  1.00  0.00     0.274 HD
ATOM     18  H12 UNL     1      71.285 138.450 352.276  1.00  0.00     0.274 HD
ATOM     19  H11 UNL     1      69.807 137.652 352.206  1.00  0.00     0.274 HD
ENDBRANCH  15  16
ENDBRANCH   1  15
TORSDOF 3
ENDMDL
