MODEL 3
REMARK VINA RESULT: -7.582615759      1.772      2.428
REMARK  3 active torsions:
REMARK  status: ('A' for Active; 'I' for Inactive)
REMARK    1  A    between atoms: N1_1  and  C1_5 
REMARK    2  A    between atoms: C1_5  and  C2_6 
REMARK    3  A    between atoms: C5_9  and  C6_10 
ROOT
HETATM    1  C2  UNL     1      70.222 139.720 350.583  1.00  0.00    -0.031 A 
HETATM    2  C3  UNL     1      70.997 140.633 351.260  1.00  0.00     0.010 A 
HETATM    3  C4  UNL     1      70.756 142.008 351.157  1.00  0.00     0.014 A 
HETATM    4  C5  UNL     1      69.732 142.481 350.372  1.00  0.00    -0.001 A 
HETATM    5  C12 UNL     1      68.972 141.526 349.705  1.00  0.00     0.045 A 
HETATM    6 CL1  UNL     1      67.664 142.083 348.679  1.00  0.00    -0.083 Cl
HETATM    7  C13 UNL     1      69.207 140.189 349.805  1.00  0.00     0.033 A 
ENDROOT
BRANCH   4   8
HETATM    8  C6  UNL     1      69.404 143.888 350.228  1.00  0.00     0.014 A 
HETATM    9  C7  UNL     1      68.300 144.458 350.828  1.00  0.00     0.015 A 
HETATM   10  C8  UNL     1      67.998 145.800 350.696  1.00  0.00     0.001 A 
HETATM   11  C9  UNL     1      68.826 146.597 349.938  1.00  0.00     0.003 A 
HETATM   12  C10 UNL     1      69.928 146.046 349.333  1.00  0.00     0.043 A 
HETATM   13  C11 UNL     1      70.231 144.687 349.470  1.00  0.00     0.127 A 
HETATM   14  F1  UNL     1      71.339 144.231 348.833  1.00  0.00    -0.205 F 
ENDBRANCH   4   8
BRANCH   1  15
HETATM   15  C1  UNL     1      70.524 138.288 350.729  1.00  0.00     0.268 C 
BRANCH  15  16
HETATM   16  N1  UNL     1      70.669 137.886 352.113  1.00  0.00    -0.075 N 
ATOM     17  H13 UNL     1      71.399 137.181 352.216  1.00  0.00     0.274 HD
ATOM     18  H12 UNL     1      71.082 138.634 352.671  1.00  0.00     0.274 HD
ATOM     19  H11 UNL     1      69.792 137.566 352.524  1.00  0.00     0.274 HD
ENDBRANCH  15  16
ENDBRANCH   1  15
TORSDOF 3
ENDMDL
