MODEL 11
REMARK VINA RESULT: -3.506990956      2.516      5.338
REMARK  4 active torsions:
REMARK  status: ('A' for Active; 'I' for Inactive)
REMARK    1  A    between atoms: S1_2  and  C2_3 
REMARK    2  A    between atoms: C3_7  and  S3_8 
REMARK    3  A    between atoms: C5_10  and  C6_11 
REMARK    4  A    between atoms: C6_11  and  O1_12 
ROOT
HETATM    1  C2  UNL     1     -10.665  15.184 -18.555  1.00  0.00     0.086 A 
HETATM    2  N1  UNL     1     -10.626  16.388 -17.969  1.00  0.00    -0.319 N 
ATOM      3  H1  UNL     1     -10.139  16.652 -17.113  1.00  0.00     0.175 HD
HETATM    4  S2  UNL     1     -11.551  17.351 -18.955  1.00  0.00    -0.006 SA
HETATM    5  C3  UNL     1     -12.004  16.219 -20.148  1.00  0.00     0.068 A 
HETATM    6  C5  UNL     1     -11.395  15.078 -19.728  1.00  0.00     0.024 A 
ENDROOT
BRANCH   6   7
HETATM    7  C6  UNL     1     -11.321  13.814 -20.595  1.00  0.00     0.207 C 
BRANCH   7   8
HETATM    8  O1  UNL     1     -12.295  12.879 -20.215  1.00  0.00    -0.396 OA
ATOM      9  H1  UNL     1     -12.048  11.999 -20.474  1.00  0.00     0.209 HD
ENDBRANCH   7   8
ENDBRANCH   6   7
BRANCH   1  10
HETATM   10  S1  UNL     1      -9.706  13.791 -17.802  1.00  0.00    -0.116 SA
HETATM   11  C1  UNL     1     -10.973  12.805 -16.878  1.00  0.00     0.097 C 
ENDBRANCH   1  10
BRANCH   5  12
HETATM   12  S3  UNL     1     -13.045  16.425 -21.626  1.00  0.00    -0.125 SA
HETATM   13  C4  UNL     1     -13.798  18.105 -21.416  1.00  0.00     0.096 C 
ENDBRANCH   5  12
TORSDOF 4
ENDMDL
