MODEL 5
REMARK VINA RESULT: -3.718886308      2.389      2.699
REMARK  4 active torsions:
REMARK  status: ('A' for Active; 'I' for Inactive)
REMARK    1  A    between atoms: S1_2  and  C2_3 
REMARK    2  A    between atoms: C3_7  and  S3_8 
REMARK    3  A    between atoms: C5_10  and  C6_11 
REMARK    4  A    between atoms: C6_11  and  O1_12 
ROOT
HETATM    1  C2  UNL     1     -12.049  14.722 -17.224  1.00  0.00     0.086 A 
HETATM    2  N1  UNL     1     -13.141  14.826 -16.456  1.00  0.00    -0.319 N 
ATOM      3  H1  UNL     1     -13.880  15.526 -16.510  1.00  0.00     0.175 HD
HETATM    4  S2  UNL     1     -13.014  13.556 -15.395  1.00  0.00    -0.006 SA
HETATM    5  C3  UNL     1     -11.549  12.861 -15.926  1.00  0.00     0.068 A 
HETATM    6  C5  UNL     1     -11.189  13.670 -16.958  1.00  0.00     0.024 A 
ENDROOT
BRANCH   6   7
HETATM    7  C6  UNL     1     -10.037  13.326 -17.913  1.00  0.00     0.207 C 
BRANCH   7   8
HETATM    8  O1  UNL     1      -8.878  14.047 -17.591  1.00  0.00    -0.396 OA
ATOM      9  H1  UNL     1      -8.360  14.231 -18.367  1.00  0.00     0.209 HD
ENDBRANCH   7   8
ENDBRANCH   6   7
BRANCH   1  10
HETATM   10  S1  UNL     1     -11.808  15.934 -18.603  1.00  0.00    -0.116 SA
HETATM   11  C1  UNL     1     -10.634  17.190 -17.914  1.00  0.00     0.097 C 
ENDBRANCH   1  10
BRANCH   5  12
HETATM   12  S3  UNL     1     -10.645  11.410 -15.304  1.00  0.00    -0.125 SA
HETATM   13  C4  UNL     1     -11.189  11.263 -13.538  1.00  0.00     0.096 C 
ENDBRANCH   5  12
TORSDOF 4
ENDMDL
