MODEL 2
REMARK VINA RESULT: -3.866687561      2.256      2.575
REMARK  4 active torsions:
REMARK  status: ('A' for Active; 'I' for Inactive)
REMARK    1  A    between atoms: S1_2  and  C2_3 
REMARK    2  A    between atoms: C3_7  and  S3_8 
REMARK    3  A    between atoms: C5_10  and  C6_11 
REMARK    4  A    between atoms: C6_11  and  O1_12 
ROOT
HETATM    1  C2  UNL     1     -11.495  15.528 -17.265  1.00  0.00     0.086 A 
HETATM    2  N1  UNL     1     -12.761  15.506 -16.829  1.00  0.00    -0.319 N 
ATOM      3  H1  UNL     1     -13.455  16.251 -16.884  1.00  0.00     0.175 HD
HETATM    4  S2  UNL     1     -12.941  13.990 -16.179  1.00  0.00    -0.006 SA
HETATM    5  C3  UNL     1     -11.385  13.351 -16.462  1.00  0.00     0.068 A 
HETATM    6  C5  UNL     1     -10.745  14.378 -17.082  1.00  0.00     0.024 A 
ENDROOT
BRANCH   6   7
HETATM    7  C6  UNL     1      -9.368  14.216 -17.740  1.00  0.00     0.207 C 
BRANCH   7   8
HETATM    8  O1  UNL     1      -9.480  13.661 -19.023  1.00  0.00    -0.396 OA
ATOM      9  H1  UNL     1      -8.962  14.146 -19.655  1.00  0.00     0.209 HD
ENDBRANCH   7   8
ENDBRANCH   6   7
BRANCH   1  10
HETATM   10  S1  UNL     1     -10.871  17.046 -18.123  1.00  0.00    -0.116 SA
HETATM   11  C1  UNL     1     -11.933  17.192 -19.634  1.00  0.00     0.097 C 
ENDBRANCH   1  10
BRANCH   5  12
HETATM   12  S3  UNL     1     -10.694  11.718 -16.052  1.00  0.00    -0.125 SA
HETATM   13  C4  UNL     1     -10.862  11.607 -14.210  1.00  0.00     0.096 C 
ENDBRANCH   5  12
TORSDOF 4
ENDMDL
