MODEL 13
REMARK VINA RESULT: -6.002792370      4.067      6.593
REMARK  4 active torsions:
REMARK  status: ('A' for Active; 'I' for Inactive)
REMARK    1  A    between atoms: C1_2  and  C2_3 
REMARK       I    between atoms: C1_2  and  N1_13 
REMARK    2  A    between atoms: C2_3  and  C3_4 
REMARK    3  A    between atoms: C3_4  and  O2_5 
REMARK    4  A    between atoms: O2_5  and  C4_6 
ROOT
HETATM    1  C2  UNL     1      -8.958  12.804 -17.397  1.00  0.00     0.129 C 
ENDROOT
BRANCH   1   2
HETATM    2  C1  UNL     1      -9.709  13.328 -18.557  1.00  0.00     0.221 C 
HETATM    3  O1  UNL     1      -9.723  12.654 -19.614  1.00  0.00    -0.273 OA
HETATM    4  N1  UNL     1     -10.410  14.549 -18.529  1.00  0.00    -0.351 N 
HETATM    5  C10 UNL     1     -10.422  15.359 -17.333  1.00  0.00     0.136 C 
HETATM    6  C13 UNL     1     -11.125  15.012 -19.690  1.00  0.00     0.136 C 
HETATM    7  C11 UNL     1     -10.911  16.769 -17.589  1.00  0.00     0.093 C 
HETATM    8  S1  UNL     1     -12.622  16.689 -18.247  1.00  0.00    -0.166 SA
HETATM    9  C12 UNL     1     -12.610  15.255 -19.395  1.00  0.00     0.093 C 
ENDBRANCH   1   2
BRANCH   1  10
HETATM   10  C3  UNL     1      -9.346  11.413 -17.023  1.00  0.00     0.185 C 
BRANCH  10  11
HETATM   11  O2  UNL     1     -10.755  11.373 -16.885  1.00  0.00    -0.351 OA
BRANCH  11  12
HETATM   12  C4  UNL     1     -11.417  11.963 -15.816  1.00  0.00     0.069 A 
HETATM   13  C5  UNL     1     -12.475  12.804 -16.065  1.00  0.00     0.040 A 
HETATM   14  C6  UNL     1     -13.184  13.430 -15.045  1.00  0.00     0.045 A 
HETATM   15  C7  UNL     1     -12.834  13.216 -13.726  1.00  0.00     0.116 A 
HETATM   16  F1  UNL     1     -13.530  13.831 -12.731  1.00  0.00    -0.206 F 
HETATM   17  C8  UNL     1     -11.771  12.371 -13.481  1.00  0.00     0.045 A 
HETATM   18  C9  UNL     1     -11.063  11.746 -14.499  1.00  0.00     0.040 A 
ENDBRANCH  11  12
ENDBRANCH  10  11
ENDBRANCH   1  10
TORSDOF 4
ENDMDL
