MODEL 12
REMARK VINA RESULT: -6.030407786      4.497      7.861
REMARK  4 active torsions:
REMARK  status: ('A' for Active; 'I' for Inactive)
REMARK    1  A    between atoms: C1_2  and  C2_3 
REMARK       I    between atoms: C1_2  and  N1_13 
REMARK    2  A    between atoms: C2_3  and  C3_4 
REMARK    3  A    between atoms: C3_4  and  O2_5 
REMARK    4  A    between atoms: O2_5  and  C4_6 
ROOT
HETATM    1  C2  UNL     1     -13.349  14.691 -16.698  1.00  0.00     0.129 C 
ENDROOT
BRANCH   1   2
HETATM    2  C1  UNL     1     -12.965  14.412 -18.098  1.00  0.00     0.221 C 
HETATM    3  O1  UNL     1     -12.940  13.220 -18.486  1.00  0.00    -0.273 OA
HETATM    4  N1  UNL     1     -12.626  15.425 -19.016  1.00  0.00    -0.351 N 
HETATM    5  C10 UNL     1     -12.640  16.813 -18.614  1.00  0.00     0.136 C 
HETATM    6  C13 UNL     1     -12.259  15.096 -20.369  1.00  0.00     0.136 C 
HETATM    7  C11 UNL     1     -11.922  17.712 -19.598  1.00  0.00     0.093 C 
HETATM    8  S1  UNL     1     -12.747  17.577 -21.231  1.00  0.00    -0.166 SA
HETATM    9  C12 UNL     1     -13.156  15.794 -21.397  1.00  0.00     0.093 C 
ENDBRANCH   1   2
BRANCH   1  10
HETATM   10  C3  UNL     1     -13.407  13.466 -15.848  1.00  0.00     0.185 C 
BRANCH  10  11
HETATM   11  O2  UNL     1     -12.146  13.305 -15.224  1.00  0.00    -0.351 OA
BRANCH  11  12
HETATM   12  C4  UNL     1     -11.835  12.200 -14.444  1.00  0.00     0.069 A 
HETATM   13  C5  UNL     1     -11.046  11.206 -14.975  1.00  0.00     0.040 A 
HETATM   14  C6  UNL     1     -10.695  10.070 -14.253  1.00  0.00     0.045 A 
HETATM   15  C7  UNL     1     -11.139   9.909 -12.956  1.00  0.00     0.116 A 
HETATM   16  F1  UNL     1     -10.793   8.796 -12.254  1.00  0.00    -0.206 F 
HETATM   17  C8  UNL     1     -11.930  10.908 -12.427  1.00  0.00     0.045 A 
HETATM   18  C9  UNL     1     -12.282  12.042 -13.147  1.00  0.00     0.040 A 
ENDBRANCH  11  12
ENDBRANCH  10  11
ENDBRANCH   1  10
TORSDOF 4
ENDMDL
