MODEL 15
REMARK VINA RESULT: -5.970524466      2.533      3.484
REMARK  4 active torsions:
REMARK  status: ('A' for Active; 'I' for Inactive)
REMARK    1  A    between atoms: C1_2  and  C2_3 
REMARK       I    between atoms: C1_2  and  N1_13 
REMARK    2  A    between atoms: C2_3  and  C3_4 
REMARK    3  A    between atoms: C3_4  and  O2_5 
REMARK    4  A    between atoms: O2_5  and  C4_6 
ROOT
HETATM    1  C2  UNL     1      -9.094  13.776 -17.613  1.00  0.00     0.129 C 
ENDROOT
BRANCH   1   2
HETATM    2  C1  UNL     1      -9.393  12.475 -16.978  1.00  0.00     0.221 C 
HETATM    3  O1  UNL     1      -8.666  11.492 -17.257  1.00  0.00    -0.273 OA
HETATM    4  N1  UNL     1     -10.455  12.290 -16.072  1.00  0.00    -0.351 N 
HETATM    5  C10 UNL     1     -11.319  13.394 -15.721  1.00  0.00     0.136 C 
HETATM    6  C13 UNL     1     -10.701  11.000 -15.483  1.00  0.00     0.136 C 
HETATM    7  C11 UNL     1     -12.590  12.944 -15.033  1.00  0.00     0.093 C 
HETATM    8  S1  UNL     1     -12.142  12.050 -13.494  1.00  0.00    -0.166 SA
HETATM    9  C12 UNL     1     -10.671  11.049 -13.951  1.00  0.00     0.093 C 
ENDBRANCH   1   2
BRANCH   1  10
HETATM   10  C3  UNL     1      -9.522  13.846 -19.042  1.00  0.00     0.185 C 
BRANCH  10  11
HETATM   11  O2  UNL     1     -10.923  14.056 -19.069  1.00  0.00    -0.351 OA
BRANCH  11  12
HETATM   12  C4  UNL     1     -11.492  15.228 -19.547  1.00  0.00     0.069 A 
HETATM   13  C5  UNL     1     -12.223  15.191 -20.711  1.00  0.00     0.040 A 
HETATM   14  C6  UNL     1     -12.822  16.325 -21.249  1.00  0.00     0.045 A 
HETATM   15  C7  UNL     1     -12.693  17.545 -20.614  1.00  0.00     0.116 A 
HETATM   16  F1  UNL     1     -13.280  18.652 -21.144  1.00  0.00    -0.206 F 
HETATM   17  C8  UNL     1     -11.958  17.577 -19.446  1.00  0.00     0.045 A 
HETATM   18  C9  UNL     1     -11.360  16.445 -18.908  1.00  0.00     0.040 A 
ENDBRANCH  11  12
ENDBRANCH  10  11
ENDBRANCH   1  10
TORSDOF 4
ENDMDL
