MODEL 8
REMARK VINA RESULT: -6.067639164      4.475      7.745
REMARK  4 active torsions:
REMARK  status: ('A' for Active; 'I' for Inactive)
REMARK    1  A    between atoms: C1_2  and  C2_3 
REMARK       I    between atoms: C1_2  and  N1_13 
REMARK    2  A    between atoms: C2_3  and  C3_4 
REMARK    3  A    between atoms: C3_4  and  O2_5 
REMARK    4  A    between atoms: O2_5  and  C4_6 
ROOT
HETATM    1  C2  UNL     1     -13.376  14.739 -16.676  1.00  0.00     0.129 C 
ENDROOT
BRANCH   1   2
HETATM    2  C1  UNL     1     -12.927  14.408 -18.044  1.00  0.00     0.221 C 
HETATM    3  O1  UNL     1     -12.819  13.200 -18.363  1.00  0.00    -0.273 OA
HETATM    4  N1  UNL     1     -12.616  15.388 -19.008  1.00  0.00    -0.351 N 
HETATM    5  C10 UNL     1     -12.726  16.792 -18.686  1.00  0.00     0.136 C 
HETATM    6  C13 UNL     1     -12.183  15.008 -20.328  1.00  0.00     0.136 C 
HETATM    7  C11 UNL     1     -12.028  17.678 -19.696  1.00  0.00     0.093 C 
HETATM    8  S1  UNL     1     -12.786  17.404 -21.344  1.00  0.00    -0.166 SA
HETATM    9  C12 UNL     1     -13.084  15.593 -21.422  1.00  0.00     0.093 C 
ENDBRANCH   1   2
BRANCH   1  10
HETATM   10  C3  UNL     1     -13.457  13.550 -15.778  1.00  0.00     0.185 C 
BRANCH  10  11
HETATM   11  O2  UNL     1     -12.226  13.438 -15.088  1.00  0.00    -0.351 OA
BRANCH  11  12
HETATM   12  C4  UNL     1     -11.838  12.272 -14.441  1.00  0.00     0.069 A 
HETATM   13  C5  UNL     1     -12.258  12.050 -13.151  1.00  0.00     0.040 A 
HETATM   14  C6  UNL     1     -11.909  10.907 -12.440  1.00  0.00     0.045 A 
HETATM   15  C7  UNL     1     -11.112   9.944 -13.027  1.00  0.00     0.116 A 
HETATM   16  F1  UNL     1     -10.772   8.826 -12.329  1.00  0.00    -0.206 F 
HETATM   17  C8  UNL     1     -10.692  10.170 -14.322  1.00  0.00     0.045 A 
HETATM   18  C9  UNL     1     -11.040  11.312 -15.031  1.00  0.00     0.040 A 
ENDBRANCH  11  12
ENDBRANCH  10  11
ENDBRANCH   1  10
TORSDOF 4
ENDMDL
