MODEL 14
REMARK VINA RESULT: -5.974051311      2.686      3.307
REMARK  4 active torsions:
REMARK  status: ('A' for Active; 'I' for Inactive)
REMARK    1  A    between atoms: C1_2  and  C2_3 
REMARK       I    between atoms: C1_2  and  N1_13 
REMARK    2  A    between atoms: C2_3  and  C3_4 
REMARK    3  A    between atoms: C3_4  and  O2_5 
REMARK    4  A    between atoms: O2_5  and  C4_6 
ROOT
HETATM    1  C2  UNL     1      -9.728  12.274 -18.091  1.00  0.00     0.129 C 
ENDROOT
BRANCH   1   2
HETATM    2  C1  UNL     1      -9.555  11.014 -17.338  1.00  0.00     0.221 C 
HETATM    3  O1  UNL     1      -8.476  10.388 -17.460  1.00  0.00    -0.273 OA
HETATM    4  N1  UNL     1     -10.546  10.487 -16.488  1.00  0.00    -0.351 N 
HETATM    5  C10 UNL     1     -11.805  11.174 -16.316  1.00  0.00     0.136 C 
HETATM    6  C13 UNL     1     -10.324   9.254 -15.777  1.00  0.00     0.136 C 
HETATM    7  C11 UNL     1     -12.860  10.305 -15.666  1.00  0.00     0.093 C 
HETATM    8  S1  UNL     1     -12.258   9.783 -14.013  1.00  0.00    -0.166 SA
HETATM    9  C12 UNL     1     -10.473   9.426 -14.261  1.00  0.00     0.093 C 
ENDBRANCH   1   2
BRANCH   1  10
HETATM   10  C3  UNL     1      -9.065  13.444 -17.445  1.00  0.00     0.185 C 
BRANCH  10  11
HETATM   11  O2  UNL     1     -10.031  14.112 -16.653  1.00  0.00    -0.351 OA
BRANCH  11  12
HETATM   12  C4  UNL     1     -10.879  15.081 -17.173  1.00  0.00     0.069 A 
HETATM   13  C5  UNL     1     -10.338  16.216 -17.729  1.00  0.00     0.040 A 
HETATM   14  C6  UNL     1     -11.125  17.228 -18.267  1.00  0.00     0.045 A 
HETATM   15  C7  UNL     1     -12.501  17.115 -18.257  1.00  0.00     0.116 A 
HETATM   16  F1  UNL     1     -13.268  18.108 -18.785  1.00  0.00    -0.206 F 
HETATM   17  C8  UNL     1     -13.040  15.974 -17.698  1.00  0.00     0.045 A 
HETATM   18  C9  UNL     1     -12.254  14.963 -17.160  1.00  0.00     0.040 A 
ENDBRANCH  11  12
ENDBRANCH  10  11
ENDBRANCH   1  10
TORSDOF 4
ENDMDL
