MODEL 1
REMARK VINA RESULT: -6.177814449      0.000      0.000
REMARK  5 active torsions:
REMARK  status: ('A' for Active; 'I' for Inactive)
REMARK    1  A    between atoms: N1_1  and  C1_5 
REMARK    2  A    between atoms: C1_5  and  C2_6 
REMARK    3  A    between atoms: C7_11  and  N2_12 
REMARK    4  A    between atoms: C10_15  and  C11_16 
REMARK    5  A    between atoms: C11_16  and  O1_17 
ROOT
HETATM    1  C2  UNL     1     -10.063  12.738 -16.416  1.00  0.00    -0.006 A 
HETATM    2  C3  UNL     1      -9.641  11.593 -15.756  1.00  0.00     0.011 A 
HETATM    3  C4  UNL     1     -10.117  11.240 -14.521  1.00  0.00     0.001 A 
HETATM    4  C5  UNL     1     -11.046  12.045 -13.906  1.00  0.00     0.002 A 
HETATM    5  C6  UNL     1     -11.467  13.178 -14.556  1.00  0.00     0.030 A 
HETATM    6  C7  UNL     1     -10.992  13.553 -15.816  1.00  0.00     0.038 A 
ENDROOT
BRANCH   6   7
HETATM    7  N2  UNL     1     -11.481  14.714 -16.412  1.00  0.00    -0.380 N 
HETATM    8  C8  UNL     1     -12.880  14.871 -16.717  1.00  0.00     0.123 C 
HETATM    9  C9  UNL     1     -12.959  15.424 -18.117  1.00  0.00     0.026 C 
HETATM   10  C10 UNL     1     -12.312  16.780 -18.232  1.00  0.00     0.012 C 
HETATM   11  C12 UNL     1     -11.115  16.962 -17.361  1.00  0.00     0.026 C 
HETATM   12  C13 UNL     1     -10.552  15.773 -16.722  1.00  0.00     0.123 C 
BRANCH  10  13
HETATM   13  C11 UNL     1     -11.970  16.960 -19.705  1.00  0.00     0.168 C 
BRANCH  13  14
HETATM   14  O1  UNL     1     -11.637  15.704 -20.206  1.00  0.00    -0.400 OA
ATOM     15  H1  UNL     1     -12.003  15.645 -21.082  1.00  0.00     0.209 HD
ENDBRANCH  13  14
ENDBRANCH  10  13
ENDBRANCH   6   7
BRANCH   1  16
HETATM   16  C1  UNL     1      -9.520  13.090 -17.735  1.00  0.00     0.270 C 
BRANCH  16  17
HETATM   17  N1  UNL     1     -10.314  12.395 -18.758  1.00  0.00    -0.075 N 
ATOM     18  H13 UNL     1      -9.750  11.775 -19.340  1.00  0.00     0.274 HD
ATOM     19  H12 UNL     1     -10.932  11.688 -18.363  1.00  0.00     0.274 HD
ATOM     20  H11 UNL     1     -10.815  13.097 -19.304  1.00  0.00     0.274 HD
ENDBRANCH  16  17
ENDBRANCH   1  16
TORSDOF 5
ENDMDL
