MODEL 3
REMARK VINA RESULT: -5.860279327      1.578      2.159
REMARK  5 active torsions:
REMARK  status: ('A' for Active; 'I' for Inactive)
REMARK    1  A    between atoms: N1_1  and  C1_5 
REMARK    2  A    between atoms: C1_5  and  C2_6 
REMARK    3  A    between atoms: C7_11  and  N2_12 
REMARK    4  A    between atoms: C10_15  and  C11_16 
REMARK    5  A    between atoms: C11_16  and  O1_17 
ROOT
HETATM    1  C2  UNL     1     -10.226  11.787 -15.466  1.00  0.00    -0.006 A 
HETATM    2  C3  UNL     1     -10.357  11.034 -14.308  1.00  0.00     0.011 A 
HETATM    3  C4  UNL     1     -11.250  11.354 -13.320  1.00  0.00     0.001 A 
HETATM    4  C5  UNL     1     -12.051  12.461 -13.474  1.00  0.00     0.002 A 
HETATM    5  C6  UNL     1     -11.926  13.209 -14.618  1.00  0.00     0.030 A 
HETATM    6  C7  UNL     1     -11.020  12.896 -15.635  1.00  0.00     0.038 A 
ENDROOT
BRANCH   6   7
HETATM    7  N2  UNL     1     -10.965  13.702 -16.771  1.00  0.00    -0.380 N 
HETATM    8  C8  UNL     1      -9.900  14.652 -16.968  1.00  0.00     0.123 C 
HETATM    9  C9  UNL     1     -10.544  15.938 -17.419  1.00  0.00     0.026 C 
HETATM   10  C10 UNL     1     -11.265  15.783 -18.733  1.00  0.00     0.012 C 
HETATM   11  C12 UNL     1     -11.908  14.451 -18.925  1.00  0.00     0.026 C 
HETATM   12  C13 UNL     1     -12.004  13.569 -17.761  1.00  0.00     0.123 C 
BRANCH  10  13
HETATM   13  C11 UNL     1     -12.284  16.914 -18.790  1.00  0.00     0.168 C 
BRANCH  13  14
HETATM   14  O1  UNL     1     -12.538  17.304 -17.478  1.00  0.00    -0.400 OA
ATOM     15  H1  UNL     1     -13.483  17.349 -17.376  1.00  0.00     0.209 HD
ENDBRANCH  13  14
ENDBRANCH  10  13
ENDBRANCH   6   7
BRANCH   1  16
HETATM   16  C1  UNL     1      -9.248  11.420 -16.498  1.00  0.00     0.270 C 
BRANCH  16  17
HETATM   17  N1  UNL     1      -9.166   9.954 -16.551  1.00  0.00    -0.075 N 
ATOM     18  H13 UNL     1      -9.895   9.499 -16.002  1.00  0.00     0.274 HD
ATOM     19  H12 UNL     1      -9.426   9.578 -17.463  1.00  0.00     0.274 HD
ATOM     20  H11 UNL     1      -8.227   9.677 -16.265  1.00  0.00     0.274 HD
ENDBRANCH  16  17
ENDBRANCH   1  16
TORSDOF 5
ENDMDL
