MODEL 5
REMARK VINA RESULT: -5.821551185      3.457      6.149
REMARK  5 active torsions:
REMARK  status: ('A' for Active; 'I' for Inactive)
REMARK    1  A    between atoms: N1_1  and  C1_5 
REMARK    2  A    between atoms: C1_5  and  C2_6 
REMARK    3  A    between atoms: C7_11  and  N2_12 
REMARK    4  A    between atoms: C10_15  and  C11_16 
REMARK    5  A    between atoms: C11_16  and  O1_17 
ROOT
HETATM    1  C2  UNL     1     -11.671  13.999 -16.196  1.00  0.00    -0.006 A 
HETATM    2  C3  UNL     1     -11.133  14.944 -17.058  1.00  0.00     0.011 A 
HETATM    3  C4  UNL     1      -9.868  14.834 -17.571  1.00  0.00     0.001 A 
HETATM    4  C5  UNL     1      -9.096  13.751 -17.224  1.00  0.00     0.002 A 
HETATM    5  C6  UNL     1      -9.624  12.813 -16.372  1.00  0.00     0.030 A 
HETATM    6  C7  UNL     1     -10.913  12.910 -15.840  1.00  0.00     0.038 A 
ENDROOT
BRANCH   6   7
HETATM    7  N2  UNL     1     -11.377  11.908 -14.990  1.00  0.00    -0.380 N 
HETATM    8  C8  UNL     1     -11.564  12.143 -13.581  1.00  0.00     0.123 C 
HETATM    9  C9  UNL     1     -10.961  10.964 -12.860  1.00  0.00     0.026 C 
HETATM   10  C10 UNL     1     -11.656   9.672 -13.203  1.00  0.00     0.012 C 
HETATM   11  C12 UNL     1     -12.141   9.592 -14.611  1.00  0.00     0.026 C 
HETATM   12  C13 UNL     1     -11.674  10.613 -15.550  1.00  0.00     0.123 C 
BRANCH  10  13
HETATM   13  C11 UNL     1     -10.662   8.562 -12.886  1.00  0.00     0.168 C 
BRANCH  13  14
HETATM   14  O1  UNL     1     -10.740   8.319 -11.517  1.00  0.00    -0.400 OA
ATOM     15  H1  UNL     1     -10.001   7.767 -11.288  1.00  0.00     0.209 HD
ENDBRANCH  13  14
ENDBRANCH  10  13
ENDBRANCH   6   7
BRANCH   1  16
HETATM   16  C1  UNL     1     -13.028  14.158 -15.656  1.00  0.00     0.270 C 
BRANCH  16  17
HETATM   17  N1  UNL     1     -13.894  14.661 -16.731  1.00  0.00    -0.075 N 
ATOM     18  H13 UNL     1     -13.970  14.009 -17.512  1.00  0.00     0.274 HD
ATOM     19  H12 UNL     1     -14.880  14.676 -16.468  1.00  0.00     0.274 HD
ATOM     20  H11 UNL     1     -13.549  15.577 -17.016  1.00  0.00     0.274 HD
ENDBRANCH  16  17
ENDBRANCH   1  16
TORSDOF 5
ENDMDL
