MODEL 2
REMARK VINA RESULT: -5.936675274      1.282      1.936
REMARK  5 active torsions:
REMARK  status: ('A' for Active; 'I' for Inactive)
REMARK    1  A    between atoms: N1_1  and  C1_5 
REMARK    2  A    between atoms: C1_5  and  C2_6 
REMARK    3  A    between atoms: C7_11  and  N2_12 
REMARK    4  A    between atoms: C10_15  and  C11_16 
REMARK    5  A    between atoms: C11_16  and  O1_17 
ROOT
HETATM    1  C2  UNL     1     -10.506  13.094 -16.003  1.00  0.00    -0.006 A 
HETATM    2  C3  UNL     1     -10.724  12.297 -14.888  1.00  0.00     0.011 A 
HETATM    3  C4  UNL     1     -11.853  12.402 -14.120  1.00  0.00     0.001 A 
HETATM    4  C5  UNL     1     -12.810  13.328 -14.459  1.00  0.00     0.002 A 
HETATM    5  C6  UNL     1     -12.599  14.118 -15.561  1.00  0.00     0.030 A 
HETATM    6  C7  UNL     1     -11.453  14.024 -16.356  1.00  0.00     0.038 A 
ENDROOT
BRANCH   6   7
HETATM    7  N2  UNL     1     -11.323  14.856 -17.466  1.00  0.00    -0.380 N 
HETATM    8  C8  UNL     1     -10.656  16.131 -17.376  1.00  0.00     0.123 C 
HETATM    9  C9  UNL     1     -11.529  17.128 -18.094  1.00  0.00     0.026 C 
HETATM   10  C10 UNL     1     -11.686  16.798 -19.556  1.00  0.00     0.012 C 
HETATM   11  C12 UNL     1     -11.721  15.337 -19.854  1.00  0.00     0.026 C 
HETATM   12  C13 UNL     1     -11.871  14.417 -18.725  1.00  0.00     0.123 C 
BRANCH  10  13
HETATM   13  C11 UNL     1     -12.961  17.497 -20.011  1.00  0.00     0.168 C 
BRANCH  13  14
HETATM   14  O1  UNL     1     -12.805  17.799 -21.361  1.00  0.00    -0.400 OA
ATOM     15  H1  UNL     1     -13.411  18.503 -21.563  1.00  0.00     0.209 HD
ENDBRANCH  13  14
ENDBRANCH  10  13
ENDBRANCH   6   7
BRANCH   1  16
HETATM   16  C1  UNL     1      -9.276  12.961 -16.796  1.00  0.00     0.270 C 
BRANCH  16  17
HETATM   17  N1  UNL     1      -9.444  11.829 -17.717  1.00  0.00    -0.075 N 
ATOM     18  H13 UNL     1     -10.217  11.219 -17.454  1.00  0.00     0.274 HD
ATOM     19  H12 UNL     1      -9.799  12.114 -18.630  1.00  0.00     0.274 HD
ATOM     20  H11 UNL     1      -8.555  11.332 -17.778  1.00  0.00     0.274 HD
ENDBRANCH  16  17
ENDBRANCH   1  16
TORSDOF 5
ENDMDL
