MODEL 7
REMARK VINA RESULT: -5.798637351      2.554      5.125
REMARK  5 active torsions:
REMARK  status: ('A' for Active; 'I' for Inactive)
REMARK    1  A    between atoms: N1_1  and  C1_5 
REMARK    2  A    between atoms: C1_5  and  C2_6 
REMARK    3  A    between atoms: C7_11  and  N2_12 
REMARK    4  A    between atoms: C10_15  and  C11_16 
REMARK    5  A    between atoms: C11_16  and  O1_17 
ROOT
HETATM    1  C2  UNL     1     -10.448  14.628 -16.969  1.00  0.00    -0.006 A 
HETATM    2  C3  UNL     1     -10.141  15.839 -17.572  1.00  0.00     0.011 A 
HETATM    3  C4  UNL     1     -11.085  16.803 -17.807  1.00  0.00     0.001 A 
HETATM    4  C5  UNL     1     -12.387  16.570 -17.435  1.00  0.00     0.002 A 
HETATM    5  C6  UNL     1     -12.697  15.373 -16.838  1.00  0.00     0.030 A 
HETATM    6  C7  UNL     1     -11.745  14.379 -16.591  1.00  0.00     0.038 A 
ENDROOT
BRANCH   6   7
HETATM    7  N2  UNL     1     -12.141  13.196 -15.968  1.00  0.00    -0.380 N 
HETATM    8  C8  UNL     1     -12.138  13.064 -14.534  1.00  0.00     0.123 C 
HETATM    9  C9  UNL     1     -11.500  11.735 -14.221  1.00  0.00     0.026 C 
HETATM   10  C10 UNL     1     -12.286  10.579 -14.784  1.00  0.00     0.012 C 
HETATM   11  C12 UNL     1     -12.948  10.868 -16.090  1.00  0.00     0.026 C 
HETATM   12  C13 UNL     1     -12.560  12.091 -16.793  1.00  0.00     0.123 C 
BRANCH  10  13
HETATM   13  C11 UNL     1     -11.308   9.418 -14.893  1.00  0.00     0.168 C 
BRANCH  13  14
HETATM   14  O1  UNL     1     -10.045   9.914 -14.582  1.00  0.00    -0.400 OA
ATOM     15  H1  UNL     1      -9.433   9.190 -14.655  1.00  0.00     0.209 HD
ENDBRANCH  13  14
ENDBRANCH  10  13
ENDBRANCH   6   7
BRANCH   1  16
HETATM   16  C1  UNL     1      -9.410  13.613 -16.745  1.00  0.00     0.270 C 
BRANCH  16  17
HETATM   17  N1  UNL     1      -9.251  12.837 -17.983  1.00  0.00    -0.075 N 
ATOM     18  H13 UNL     1     -10.003  12.163 -18.124  1.00  0.00     0.274 HD
ATOM     19  H12 UNL     1      -9.409  13.397 -18.821  1.00  0.00     0.274 HD
ATOM     20  H11 UNL     1      -8.330  12.400 -17.969  1.00  0.00     0.274 HD
ENDBRANCH  16  17
ENDBRANCH   1  16
TORSDOF 5
ENDMDL
