MODEL 8
REMARK VINA RESULT: -5.782363420      3.148      5.705
REMARK  5 active torsions:
REMARK  status: ('A' for Active; 'I' for Inactive)
REMARK    1  A    between atoms: N1_1  and  C1_5 
REMARK    2  A    between atoms: C1_5  and  C2_6 
REMARK    3  A    between atoms: C7_11  and  N2_12 
REMARK    4  A    between atoms: C10_15  and  C11_16 
REMARK    5  A    between atoms: C11_16  and  O1_17 
ROOT
HETATM    1  C2  UNL     1     -10.933  14.013 -16.719  1.00  0.00    -0.006 A 
HETATM    2  C3  UNL     1     -11.394  15.146 -17.373  1.00  0.00     0.011 A 
HETATM    3  C4  UNL     1     -12.706  15.535 -17.331  1.00  0.00     0.001 A 
HETATM    4  C5  UNL     1     -13.607  14.780 -16.619  1.00  0.00     0.002 A 
HETATM    5  C6  UNL     1     -13.155  13.658 -15.969  1.00  0.00     0.030 A 
HETATM    6  C7  UNL     1     -11.819  13.247 -16.001  1.00  0.00     0.038 A 
ENDROOT
BRANCH   6   7
HETATM    7  N2  UNL     1     -11.442  12.101 -15.304  1.00  0.00    -0.380 N 
HETATM    8  C8  UNL     1     -11.524  10.794 -15.905  1.00  0.00     0.123 C 
HETATM    9  C9  UNL     1     -12.158   9.886 -14.883  1.00  0.00     0.026 C 
HETATM   10  C10 UNL     1     -11.323   9.762 -13.635  1.00  0.00     0.012 C 
HETATM   11  C12 UNL     1     -10.592  11.007 -13.262  1.00  0.00     0.026 C 
HETATM   12  C13 UNL     1     -10.958  12.244 -13.954  1.00  0.00     0.123 C 
BRANCH  10  13
HETATM   13  C11 UNL     1     -12.275   9.316 -12.534  1.00  0.00     0.168 C 
BRANCH  13  14
HETATM   14  O1  UNL     1     -11.768   9.800 -11.331  1.00  0.00    -0.400 OA
ATOM     15  H1  UNL     1     -11.362   9.067 -10.881  1.00  0.00     0.209 HD
ENDBRANCH  13  14
ENDBRANCH  10  13
ENDBRANCH   6   7
BRANCH   1  16
HETATM   16  C1  UNL     1      -9.519  13.620 -16.797  1.00  0.00     0.270 C 
BRANCH  16  17
HETATM   17  N1  UNL     1      -9.313  12.892 -18.056  1.00  0.00    -0.075 N 
ATOM     18  H13 UNL     1      -9.633  13.416 -18.870  1.00  0.00     0.274 HD
ATOM     19  H12 UNL     1      -8.329  12.824 -18.315  1.00  0.00     0.274 HD
ATOM     20  H11 UNL     1      -9.763  11.980 -17.974  1.00  0.00     0.274 HD
ENDBRANCH  16  17
ENDBRANCH   1  16
TORSDOF 5
ENDMDL
