MODEL 4
REMARK VINA RESULT: -7.390865366      3.601      5.972
REMARK  1 active torsions:
REMARK  status: ('A' for Active; 'I' for Inactive)
REMARK    1  A    between atoms: C5_9  and  C6_10 
ROOT
HETATM    1  O1  UNL     1     -13.501  17.961 -20.286  1.00  0.00    -0.273 OA
HETATM    2  C1  UNL     1     -12.855  16.892 -20.297  1.00  0.00     0.229 C 
HETATM    3  N1  UNL     1     -13.005  15.806 -21.178  1.00  0.00    -0.297 N 
ATOM      4  H1  UNL     1     -13.683  15.759 -21.937  1.00  0.00     0.171 HD
HETATM    5  C2  UNL     1     -12.068  14.782 -20.852  1.00  0.00     0.229 C 
HETATM    6  O2  UNL     1     -11.736  13.827 -21.590  1.00  0.00    -0.273 OA
HETATM    7  C3  UNL     1     -11.556  15.067 -19.462  1.00  0.00     0.092 C 
HETATM    8  C4  UNL     1     -12.314  14.248 -18.481  1.00  0.00     0.024 C 
HETATM    9  C5  UNL     1     -12.427  14.831 -17.109  1.00  0.00     0.019 C 
HETATM   10  C12 UNL     1     -11.401  15.974 -17.040  1.00  0.00     0.010 C 
HETATM   11  C13 UNL     1     -11.991  17.040 -17.973  1.00  0.00     0.015 C 
HETATM   12  C14 UNL     1     -11.776  16.546 -19.361  1.00  0.00     0.091 C 
ENDROOT
BRANCH   9  13
HETATM   13  C6  UNL     1     -12.137  13.929 -16.011  1.00  0.00    -0.054 A 
HETATM   14  C7  UNL     1     -12.883  13.828 -14.854  1.00  0.00     0.007 A 
HETATM   15  C8  UNL     1     -12.518  12.942 -13.884  1.00  0.00     0.001 A 
HETATM   16  C9  UNL     1     -11.413  12.123 -14.004  1.00  0.00     0.000 A 
HETATM   17  C10 UNL     1     -10.650  12.208 -15.156  1.00  0.00     0.001 A 
HETATM   18  C11 UNL     1     -11.035  13.103 -16.115  1.00  0.00     0.007 A 
ENDBRANCH   9  13
TORSDOF 1
ENDMDL
