MODEL 5
REMARK VINA RESULT: -7.298344107      3.608      6.017
REMARK  1 active torsions:
REMARK  status: ('A' for Active; 'I' for Inactive)
REMARK    1  A    between atoms: C5_9  and  C6_10 
ROOT
HETATM    1  O1  UNL     1     -13.525  17.955 -20.216  1.00  0.00    -0.273 OA
HETATM    2  C1  UNL     1     -12.873  16.891 -20.268  1.00  0.00     0.229 C 
HETATM    3  N1  UNL     1     -13.044  15.821 -21.164  1.00  0.00    -0.297 N 
ATOM      4  H1  UNL     1     -13.747  15.783 -21.902  1.00  0.00     0.171 HD
HETATM    5  C2  UNL     1     -12.090  14.798 -20.888  1.00  0.00     0.229 C 
HETATM    6  O2  UNL     1     -11.777  13.859 -21.654  1.00  0.00    -0.273 OA
HETATM    7  C3  UNL     1     -11.535  15.061 -19.511  1.00  0.00     0.092 C 
HETATM    8  C4  UNL     1     -12.255  14.218 -18.521  1.00  0.00     0.024 C 
HETATM    9  C5  UNL     1     -12.327  14.775 -17.135  1.00  0.00     0.019 C 
HETATM   10  C12 UNL     1     -11.307  15.924 -17.078  1.00  0.00     0.010 C 
HETATM   11  C13 UNL     1     -11.934  17.003 -17.972  1.00  0.00     0.015 C 
HETATM   12  C14 UNL     1     -11.761  16.536 -19.374  1.00  0.00     0.091 C 
ENDROOT
BRANCH   9  13
HETATM   13  C6  UNL     1     -11.995  13.855 -16.064  1.00  0.00    -0.054 A 
HETATM   14  C7  UNL     1     -10.934  12.972 -16.083  1.00  0.00     0.007 A 
HETATM   15  C8  UNL     1     -10.715  12.149 -15.018  1.00  0.00     0.001 A 
HETATM   16  C9  UNL     1     -11.520  12.156 -13.897  1.00  0.00     0.000 A 
HETATM   17  C10 UNL     1     -12.589  13.033 -13.857  1.00  0.00     0.001 A 
HETATM   18  C11 UNL     1     -12.791  13.849 -14.936  1.00  0.00     0.007 A 
ENDBRANCH   9  13
TORSDOF 1
ENDMDL
