MODEL 18
REMARK VINA RESULT: -6.946781653      1.757      2.822
REMARK  1 active torsions:
REMARK  status: ('A' for Active; 'I' for Inactive)
REMARK    1  A    between atoms: C5_9  and  C6_10 
ROOT
HETATM    1  O1  UNL     1      -8.772   9.831 -16.885  1.00  0.00    -0.273 OA
HETATM    2  C1  UNL     1      -9.896  10.341 -16.689  1.00  0.00     0.229 C 
HETATM    3  N1  UNL     1     -11.153   9.724 -16.819  1.00  0.00    -0.297 N 
ATOM      4  H1  UNL     1     -11.303   8.756 -17.101  1.00  0.00     0.171 HD
HETATM    5  C2  UNL     1     -12.186  10.654 -16.498  1.00  0.00     0.229 C 
HETATM    6  O2  UNL     1     -13.375  10.368 -16.234  1.00  0.00    -0.273 OA
HETATM    7  C3  UNL     1     -11.577  12.033 -16.535  1.00  0.00     0.092 C 
HETATM    8  C4  UNL     1     -11.858  12.659 -17.854  1.00  0.00     0.024 C 
HETATM    9  C5  UNL     1     -10.850  13.663 -18.315  1.00  0.00     0.019 C 
HETATM   10  C12 UNL     1      -9.985  14.001 -17.090  1.00  0.00     0.010 C 
HETATM   11  C13 UNL     1      -9.182  12.714 -16.854  1.00  0.00     0.015 C 
HETATM   12  C14 UNL     1     -10.134  11.730 -16.269  1.00  0.00     0.091 C 
ENDROOT
BRANCH   9  13
HETATM   13  C6  UNL     1     -11.386  14.913 -18.818  1.00  0.00    -0.054 A 
HETATM   14  C7  UNL     1     -12.002  15.071 -20.043  1.00  0.00     0.007 A 
HETATM   15  C8  UNL     1     -12.471  16.297 -20.416  1.00  0.00     0.001 A 
HETATM   16  C9  UNL     1     -12.356  17.412 -19.610  1.00  0.00     0.000 A 
HETATM   17  C10 UNL     1     -11.742  17.276 -18.378  1.00  0.00     0.001 A 
HETATM   18  C11 UNL     1     -11.279  16.039 -18.025  1.00  0.00     0.007 A 
ENDBRANCH   9  13
TORSDOF 1
ENDMDL
