MODEL 12
REMARK VINA RESULT: -7.138460438      1.192      2.499
REMARK  1 active torsions:
REMARK  status: ('A' for Active; 'I' for Inactive)
REMARK    1  A    between atoms: C5_9  and  C6_10 
ROOT
HETATM    1  O1  UNL     1     -10.023  10.045 -16.020  1.00  0.00    -0.273 OA
HETATM    2  C1  UNL     1     -10.516  11.109 -15.589  1.00  0.00     0.229 C 
HETATM    3  N1  UNL     1     -11.618  11.259 -14.729  1.00  0.00    -0.297 N 
ATOM      4  H1  UNL     1     -12.167  10.492 -14.342  1.00  0.00     0.171 HD
HETATM    5  C2  UNL     1     -11.854  12.643 -14.477  1.00  0.00     0.229 C 
HETATM    6  O2  UNL     1     -12.553  13.112 -13.551  1.00  0.00    -0.273 OA
HETATM    7  C3  UNL     1     -11.107  13.425 -15.528  1.00  0.00     0.092 C 
HETATM    8  C4  UNL     1     -12.040  13.789 -16.626  1.00  0.00     0.024 C 
HETATM    9  C5  UNL     1     -11.413  13.957 -17.973  1.00  0.00     0.019 C 
HETATM   10  C12 UNL     1      -9.896  14.037 -17.736  1.00  0.00     0.010 C 
HETATM   11  C13 UNL     1      -9.526  12.613 -17.300  1.00  0.00     0.015 C 
HETATM   12  C14 UNL     1     -10.026  12.458 -15.907  1.00  0.00     0.091 C 
ENDROOT
BRANCH   9  13
HETATM   13  C6  UNL     1     -11.796  15.148 -18.706  1.00  0.00    -0.054 A 
HETATM   14  C7  UNL     1     -11.810  16.425 -18.183  1.00  0.00     0.007 A 
HETATM   15  C8  UNL     1     -12.189  17.476 -18.966  1.00  0.00     0.001 A 
HETATM   16  C9  UNL     1     -12.567  17.321 -20.285  1.00  0.00     0.000 A 
HETATM   17  C10 UNL     1     -12.560  16.049 -20.829  1.00  0.00     0.001 A 
HETATM   18  C11 UNL     1     -12.177  15.010 -20.026  1.00  0.00     0.007 A 
ENDBRANCH   9  13
TORSDOF 1
ENDMDL
