MODEL 7
REMARK VINA RESULT: -7.276521804      1.157      2.634
REMARK  1 active torsions:
REMARK  status: ('A' for Active; 'I' for Inactive)
REMARK    1  A    between atoms: C5_9  and  C6_10 
ROOT
HETATM    1  O1  UNL     1     -10.208   9.476 -15.511  1.00  0.00    -0.273 OA
HETATM    2  C1  UNL     1     -10.619  10.560 -15.045  1.00  0.00     0.229 C 
HETATM    3  N1  UNL     1     -11.711  10.765 -14.184  1.00  0.00    -0.297 N 
ATOM      4  H1  UNL     1     -12.320  10.030 -13.825  1.00  0.00     0.171 HD
HETATM    5  C2  UNL     1     -11.841  12.154 -13.885  1.00  0.00     0.229 C 
HETATM    6  O2  UNL     1     -12.506  12.644 -12.945  1.00  0.00    -0.273 OA
HETATM    7  C3  UNL     1     -11.029  12.911 -14.906  1.00  0.00     0.092 C 
HETATM    8  C4  UNL     1     -11.925  13.384 -15.994  1.00  0.00     0.024 C 
HETATM    9  C5  UNL     1     -11.279  13.548 -17.332  1.00  0.00     0.019 C 
HETATM   10  C12 UNL     1      -9.762  13.502 -17.087  1.00  0.00     0.010 C 
HETATM   11  C13 UNL     1      -9.506  12.040 -16.700  1.00  0.00     0.015 C 
HETATM   12  C14 UNL     1     -10.024  11.877 -15.315  1.00  0.00     0.091 C 
ENDROOT
BRANCH   9  13
HETATM   13  C6  UNL     1     -11.563  14.790 -18.025  1.00  0.00    -0.054 A 
HETATM   14  C7  UNL     1     -11.881  14.891 -19.364  1.00  0.00     0.007 A 
HETATM   15  C8  UNL     1     -12.131  16.114 -19.914  1.00  0.00     0.001 A 
HETATM   16  C9  UNL     1     -12.080  17.282 -19.180  1.00  0.00     0.000 A 
HETATM   17  C10 UNL     1     -11.763  17.203 -17.835  1.00  0.00     0.001 A 
HETATM   18  C11 UNL     1     -11.517  15.968 -17.305  1.00  0.00     0.007 A 
ENDBRANCH   9  13
TORSDOF 1
ENDMDL
