MODEL 8
REMARK VINA RESULT: -7.256834170      2.828      6.462
REMARK  1 active torsions:
REMARK  status: ('A' for Active; 'I' for Inactive)
REMARK    1  A    between atoms: C5_9  and  C6_10 
ROOT
HETATM    1  O1  UNL     1      -8.791  14.536 -17.584  1.00  0.00    -0.273 OA
HETATM    2  C1  UNL     1      -9.929  14.213 -17.183  1.00  0.00     0.229 C 
HETATM    3  N1  UNL     1     -10.940  15.059 -16.695  1.00  0.00    -0.297 N 
ATOM      4  H1  UNL     1     -10.863  16.072 -16.605  1.00  0.00     0.171 HD
HETATM    5  C2  UNL     1     -12.090  14.292 -16.345  1.00  0.00     0.229 C 
HETATM    6  O2  UNL     1     -13.244  14.740 -16.158  1.00  0.00    -0.273 OA
HETATM    7  C3  UNL     1     -11.656  12.851 -16.246  1.00  0.00     0.092 C 
HETATM    8  C4  UNL     1     -11.389  12.514 -14.823  1.00  0.00     0.024 C 
HETATM    9  C5  UNL     1     -10.378  11.436 -14.598  1.00  0.00     0.019 C 
HETATM   10  C12 UNL     1     -10.170  10.748 -15.957  1.00  0.00     0.010 C 
HETATM   11  C13 UNL     1      -9.437  11.811 -16.787  1.00  0.00     0.015 C 
HETATM   12  C14 UNL     1     -10.453  12.840 -17.139  1.00  0.00     0.091 C 
ENDROOT
BRANCH   9  13
HETATM   13  C6  UNL     1     -10.752  10.405 -13.650  1.00  0.00    -0.054 A 
HETATM   14  C7  UNL     1     -11.570  10.600 -12.554  1.00  0.00     0.007 A 
HETATM   15  C8  UNL     1     -11.857   9.555 -11.726  1.00  0.00     0.001 A 
HETATM   16  C9  UNL     1     -11.359   8.285 -11.933  1.00  0.00     0.000 A 
HETATM   17  C10 UNL     1     -10.538   8.067 -13.024  1.00  0.00     0.001 A 
HETATM   18  C11 UNL     1     -10.263   9.128 -13.842  1.00  0.00     0.007 A 
ENDBRANCH   9  13
TORSDOF 1
ENDMDL
