MODEL 1
REMARK VINA RESULT: -6.166487459      0.000      0.000
REMARK  4 active torsions:
REMARK  status: ('A' for Active; 'I' for Inactive)
REMARK    1  A    between atoms: O1_1  and  C1_3 
REMARK    2  A    between atoms: C4_6  and  S1_7 
REMARK    3  A    between atoms: S1_7  and  C5_8 
REMARK    4  A    between atoms: C8_11  and  O2_12 
ROOT
HETATM    1  S1  UNL     1     -11.222  14.554 -18.763  1.00  0.00    -0.091 SA
ENDROOT
BRANCH   1   2
HETATM    2  C4  UNL     1     -11.948  14.378 -17.136  1.00  0.00     0.005 A 
HETATM    3  C3  UNL     1     -11.282  13.783 -16.083  1.00  0.00     0.021 A 
HETATM    4  C2  UNL     1     -11.826  13.642 -14.834  1.00  0.00     0.038 A 
HETATM    5  C1  UNL     1     -13.107  14.112 -14.582  1.00  0.00     0.065 A 
HETATM    6  C12 UNL     1     -13.789  14.711 -15.621  1.00  0.00     0.038 A 
HETATM    7  C11 UNL     1     -13.230  14.845 -16.869  1.00  0.00     0.021 A 
BRANCH   5   8
HETATM    8  O1  UNL     1     -13.670  13.975 -13.316  1.00  0.00    -0.361 OA
ATOM      9  H1  UNL     1     -14.444  13.438 -13.191  1.00  0.00     0.217 HD
ENDBRANCH   5   8
ENDBRANCH   1   2
BRANCH   1  10
HETATM   10  C5  UNL     1     -12.114  15.840 -19.611  1.00  0.00     0.005 A 
HETATM   11  C6  UNL     1     -12.037  17.141 -19.166  1.00  0.00     0.021 A 
HETATM   12  C7  UNL     1     -12.733  18.140 -19.828  1.00  0.00     0.038 A 
HETATM   13  C8  UNL     1     -13.520  17.862 -20.951  1.00  0.00     0.065 A 
HETATM   14  C9  UNL     1     -13.589  16.559 -21.386  1.00  0.00     0.038 A 
HETATM   15  C10 UNL     1     -12.890  15.560 -20.720  1.00  0.00     0.021 A 
BRANCH  13  16
HETATM   16  O2  UNL     1     -14.170  18.914 -21.538  1.00  0.00    -0.361 OA
ATOM     17  H2  UNL     1     -14.930  18.713 -22.072  1.00  0.00     0.217 HD
ENDBRANCH  13  16
ENDBRANCH   1  10
TORSDOF 4
ENDMDL
