MODEL 4
REMARK VINA RESULT: -6.154443027      0.067      6.079
REMARK  4 active torsions:
REMARK  status: ('A' for Active; 'I' for Inactive)
REMARK    1  A    between atoms: O1_1  and  C1_3 
REMARK    2  A    between atoms: C4_6  and  S1_7 
REMARK    3  A    between atoms: S1_7  and  C5_8 
REMARK    4  A    between atoms: C8_11  and  O2_12 
ROOT
HETATM    1  S1  UNL     1     -11.261  14.472 -18.745  1.00  0.00    -0.091 SA
ENDROOT
BRANCH   1   2
HETATM    2  C4  UNL     1     -12.109  15.811 -19.579  1.00  0.00     0.005 A 
HETATM    3  C3  UNL     1     -12.016  17.124 -19.166  1.00  0.00     0.021 A 
HETATM    4  C2  UNL     1     -12.660  18.157 -19.794  1.00  0.00     0.038 A 
HETATM    5  C1  UNL     1     -13.451  17.902 -20.906  1.00  0.00     0.065 A 
HETATM    6  C12 UNL     1     -13.557  16.596 -21.335  1.00  0.00     0.038 A 
HETATM    7  C11 UNL     1     -12.905  15.570 -20.694  1.00  0.00     0.021 A 
BRANCH   5   8
HETATM    8  O1  UNL     1     -14.110  18.944 -21.553  1.00  0.00    -0.361 OA
ATOM      9  H1  UNL     1     -14.360  18.860 -22.466  1.00  0.00     0.217 HD
ENDBRANCH   5   8
ENDBRANCH   1   2
BRANCH   1  10
HETATM   10  C5  UNL     1     -11.966  14.322 -17.118  1.00  0.00     0.005 A 
HETATM   11  C6  UNL     1     -13.210  14.851 -16.855  1.00  0.00     0.021 A 
HETATM   12  C7  UNL     1     -13.756  14.733 -15.586  1.00  0.00     0.038 A 
HETATM   13  C8  UNL     1     -13.072  14.084 -14.553  1.00  0.00     0.065 A 
HETATM   14  C9  UNL     1     -11.830  13.560 -14.828  1.00  0.00     0.038 A 
HETATM   15  C10 UNL     1     -11.286  13.681 -16.100  1.00  0.00     0.021 A 
BRANCH  13  16
HETATM   16  O2  UNL     1     -13.691  14.017 -13.334  1.00  0.00    -0.361 OA
ATOM     17  H2  UNL     1     -13.797  13.157 -12.944  1.00  0.00     0.217 HD
ENDBRANCH  13  16
ENDBRANCH   1  10
TORSDOF 4
ENDMDL
