MODEL 5
REMARK VINA RESULT: -6.151707522      0.080      1.230
REMARK  4 active torsions:
REMARK  status: ('A' for Active; 'I' for Inactive)
REMARK    1  A    between atoms: O1_1  and  C1_3 
REMARK    2  A    between atoms: C4_6  and  S1_7 
REMARK    3  A    between atoms: S1_7  and  C5_8 
REMARK    4  A    between atoms: C8_11  and  O2_12 
ROOT
HETATM    1  S1  UNL     1     -11.320  14.434 -18.817  1.00  0.00    -0.091 SA
ENDROOT
BRANCH   1   2
HETATM    2  C4  UNL     1     -12.011  14.298 -17.171  1.00  0.00     0.005 A 
HETATM    3  C3  UNL     1     -11.325  13.721 -16.121  1.00  0.00     0.021 A 
HETATM    4  C2  UNL     1     -11.842  13.610 -14.857  1.00  0.00     0.038 A 
HETATM    5  C1  UNL     1     -13.114  14.094 -14.587  1.00  0.00     0.065 A 
HETATM    6  C12 UNL     1     -13.815  14.675 -15.623  1.00  0.00     0.038 A 
HETATM    7  C11 UNL     1     -13.284  14.779 -16.886  1.00  0.00     0.021 A 
BRANCH   5   8
HETATM    8  O1  UNL     1     -13.650  13.988 -13.306  1.00  0.00    -0.361 OA
ATOM      9  H1  UNL     1     -14.582  13.849 -13.186  1.00  0.00     0.217 HD
ENDBRANCH   5   8
ENDBRANCH   1   2
BRANCH   1  10
HETATM   10  C5  UNL     1     -12.144  15.784 -19.633  1.00  0.00     0.005 A 
HETATM   11  C6  UNL     1     -12.919  15.547 -20.747  1.00  0.00     0.021 A 
HETATM   12  C7  UNL     1     -13.559  16.601 -21.380  1.00  0.00     0.038 A 
HETATM   13  C8  UNL     1     -13.440  17.915 -20.915  1.00  0.00     0.065 A 
HETATM   14  C9  UNL     1     -12.663  18.139 -19.802  1.00  0.00     0.038 A 
HETATM   15  C10 UNL     1     -12.023  17.081 -19.170  1.00  0.00     0.021 A 
BRANCH  13  16
HETATM   16  O2  UNL     1     -14.108  18.889 -21.606  1.00  0.00    -0.361 OA
ATOM     17  H2  UNL     1     -14.163  19.749 -21.205  1.00  0.00     0.217 HD
ENDBRANCH  13  16
ENDBRANCH   1  10
TORSDOF 4
ENDMDL
