MODEL 3
REMARK VINA RESULT: -6.156211753      0.038      1.220
REMARK  4 active torsions:
REMARK  status: ('A' for Active; 'I' for Inactive)
REMARK    1  A    between atoms: O1_1  and  C1_3 
REMARK    2  A    between atoms: C4_6  and  S1_7 
REMARK    3  A    between atoms: S1_7  and  C5_8 
REMARK    4  A    between atoms: C8_11  and  O2_12 
ROOT
HETATM    1  S1  UNL     1     -11.238  14.534 -18.776  1.00  0.00    -0.091 SA
ENDROOT
BRANCH   1   2
HETATM    2  C4  UNL     1     -11.965  14.357 -17.149  1.00  0.00     0.005 A 
HETATM    3  C3  UNL     1     -13.221  14.837 -16.838  1.00  0.00     0.021 A 
HETATM    4  C2  UNL     1     -13.789  14.709 -15.598  1.00  0.00     0.038 A 
HETATM    5  C1  UNL     1     -13.091  14.069 -14.583  1.00  0.00     0.065 A 
HETATM    6  C12 UNL     1     -11.834  13.582 -14.874  1.00  0.00     0.038 A 
HETATM    7  C11 UNL     1     -11.278  13.718 -16.123  1.00  0.00     0.021 A 
BRANCH   5   8
HETATM    8  O1  UNL     1     -13.657  13.932 -13.318  1.00  0.00    -0.361 OA
ATOM      9  H1  UNL     1     -13.388  14.502 -12.608  1.00  0.00     0.217 HD
ENDBRANCH   5   8
ENDBRANCH   1   2
BRANCH   1  10
HETATM   10  C5  UNL     1     -12.116  15.833 -19.617  1.00  0.00     0.005 A 
HETATM   11  C6  UNL     1     -12.032  17.129 -19.160  1.00  0.00     0.021 A 
HETATM   12  C7  UNL     1     -12.718  18.139 -19.818  1.00  0.00     0.038 A 
HETATM   13  C8  UNL     1     -13.502  17.876 -20.945  1.00  0.00     0.065 A 
HETATM   14  C9  UNL     1     -13.578  16.578 -21.392  1.00  0.00     0.038 A 
HETATM   15  C10 UNL     1     -12.890  15.569 -20.731  1.00  0.00     0.021 A 
BRANCH  13  16
HETATM   16  O2  UNL     1     -14.142  18.938 -21.527  1.00  0.00    -0.361 OA
ATOM     17  H2  UNL     1     -14.829  18.742 -22.154  1.00  0.00     0.217 HD
ENDBRANCH  13  16
ENDBRANCH   1  10
TORSDOF 4
ENDMDL
