MODEL 2
REMARK VINA RESULT: -6.162740063      0.066      6.091
REMARK  4 active torsions:
REMARK  status: ('A' for Active; 'I' for Inactive)
REMARK    1  A    between atoms: O1_1  and  C1_3 
REMARK    2  A    between atoms: C4_6  and  S1_7 
REMARK    3  A    between atoms: S1_7  and  C5_8 
REMARK    4  A    between atoms: C8_11  and  O2_12 
ROOT
HETATM    1  S1  UNL     1     -11.230  14.491 -18.745  1.00  0.00    -0.091 SA
ENDROOT
BRANCH   1   2
HETATM    2  C4  UNL     1     -12.097  15.808 -19.593  1.00  0.00     0.005 A 
HETATM    3  C3  UNL     1     -12.871  15.589 -20.714  1.00  0.00     0.021 A 
HETATM    4  C2  UNL     1     -13.539  16.587 -21.373  1.00  0.00     0.038 A 
HETATM    5  C1  UNL     1     -13.454  17.895 -20.913  1.00  0.00     0.065 A 
HETATM    6  C12 UNL     1     -12.685  18.134 -19.793  1.00  0.00     0.038 A 
HETATM    7  C11 UNL     1     -12.021  17.122 -19.143  1.00  0.00     0.021 A 
BRANCH   5   8
HETATM    8  O1  UNL     1     -14.129  18.918 -21.573  1.00  0.00    -0.361 OA
ATOM      9  H1  UNL     1     -14.011  19.821 -21.305  1.00  0.00     0.217 HD
ENDBRANCH   5   8
ENDBRANCH   1   2
BRANCH   1  10
HETATM   10  C5  UNL     1     -11.962  14.320 -17.132  1.00  0.00     0.005 A 
HETATM   11  C6  UNL     1     -11.263  13.701 -16.120  1.00  0.00     0.021 A 
HETATM   12  C7  UNL     1     -11.837  13.569 -14.864  1.00  0.00     0.038 A 
HETATM   13  C8  UNL     1     -13.120  14.053 -14.592  1.00  0.00     0.065 A 
HETATM   14  C9  UNL     1     -13.809  14.670 -15.611  1.00  0.00     0.038 A 
HETATM   15  C10 UNL     1     -13.231  14.800 -16.868  1.00  0.00     0.021 A 
BRANCH  13  16
HETATM   16  O2  UNL     1     -13.603  13.877 -13.324  1.00  0.00    -0.361 OA
ATOM     17  H2  UNL     1     -14.541  13.967 -13.197  1.00  0.00     0.217 HD
ENDBRANCH  13  16
ENDBRANCH   1  10
TORSDOF 4
ENDMDL
