MODEL 8
REMARK VINA RESULT: -6.195618607      3.129      5.778
REMARK  4 active torsions:
REMARK  status: ('A' for Active; 'I' for Inactive)
REMARK    1  A    between atoms: C2_2  and  C4_4 
REMARK    2  A    between atoms: C9_9  and  C10_10 
REMARK    3  A    between atoms: C13_13  and  C14_14 
REMARK    4  A    between atoms: C14_14  and  N1_15 
ROOT
HETATM    1  C10 UNL     1      -5.547 167.275 398.915  1.00  0.00    -0.004 A 
HETATM    2  C11 UNL     1      -6.472 168.084 398.266  1.00  0.00     0.014 A 
HETATM    3  C12 UNL     1      -7.753 168.250 398.749  1.00  0.00     0.010 A 
HETATM    4  C13 UNL     1      -8.090 167.585 399.903  1.00  0.00    -0.031 A 
HETATM    5  C15 UNL     1      -7.185 166.788 400.549  1.00  0.00     0.033 A 
HETATM    6  C16 UNL     1      -5.880 166.612 400.067  1.00  0.00     0.045 A 
HETATM    7 CL1  UNL     1      -4.724 165.612 400.904  1.00  0.00    -0.083 Cl
ENDROOT
BRANCH   1   8
HETATM    8  C9  UNL     1      -4.199 167.185 398.366  1.00  0.00    -0.018 A 
HETATM    9  C4  UNL     1      -3.236 168.109 398.674  1.00  0.00    -0.044 A 
HETATM   10  C5  UNL     1      -1.919 167.918 398.184  1.00  0.00     0.008 A 
HETATM   11  C6  UNL     1      -1.618 166.827 397.415  1.00  0.00     0.001 A 
HETATM   12  C7  UNL     1      -2.591 165.895 397.102  1.00  0.00     0.001 A 
HETATM   13  C8  UNL     1      -3.874 166.067 397.570  1.00  0.00     0.013 A 
BRANCH   9  14
HETATM   14  C2  UNL     1      -3.540 169.338 399.407  1.00  0.00     0.011 C 
HETATM   15  C1  UNL     1      -2.356 169.914 400.167  1.00  0.00     0.015 C 
HETATM   16  C3  UNL     1      -3.794 170.408 398.291  1.00  0.00     0.015 C 
ENDBRANCH   9  14
ENDBRANCH   1   8
BRANCH   4  17
HETATM   17  C14 UNL     1      -9.458 167.751 400.423  1.00  0.00     0.268 C 
BRANCH  17  18
HETATM   18  N1  UNL     1      -9.610 166.894 401.589  1.00  0.00    -0.075 N 
ATOM     19  H13 UNL     1      -9.375 165.921 401.395  1.00  0.00     0.274 HD
ATOM     20  H12 UNL     1      -8.900 167.068 402.301  1.00  0.00     0.274 HD
ATOM     21  H11 UNL     1     -10.559 167.005 401.946  1.00  0.00     0.274 HD
ENDBRANCH  17  18
ENDBRANCH   4  17
TORSDOF 4
ENDMDL
