MODEL 5
REMARK VINA RESULT: -7.094343032      3.074      5.730
REMARK  4 active torsions:
REMARK  status: ('A' for Active; 'I' for Inactive)
REMARK    1  A    between atoms: C2_2  and  C4_4 
REMARK    2  A    between atoms: C9_9  and  C10_10 
REMARK    3  A    between atoms: C13_13  and  C14_14 
REMARK    4  A    between atoms: C14_14  and  N1_15 
ROOT
HETATM    1  C10 UNL     1      -5.172 166.825 399.060  1.00  0.00    -0.004 A 
HETATM    2  C11 UNL     1      -5.243 166.331 400.357  1.00  0.00     0.014 A 
HETATM    3  C12 UNL     1      -6.451 166.120 400.986  1.00  0.00     0.010 A 
HETATM    4  C13 UNL     1      -7.595 166.413 400.285  1.00  0.00    -0.031 A 
HETATM    5  C15 UNL     1      -7.535 166.898 399.006  1.00  0.00     0.033 A 
HETATM    6  C16 UNL     1      -6.312 167.117 398.358  1.00  0.00     0.045 A 
HETATM    7 CL1  UNL     1      -6.239 167.714 396.722  1.00  0.00    -0.083 Cl
ENDROOT
BRANCH   1   8
HETATM    8  C9  UNL     1      -3.858 166.981 398.448  1.00  0.00    -0.018 A 
HETATM    9  C4  UNL     1      -3.068 168.067 398.713  1.00  0.00    -0.044 A 
HETATM   10  C5  UNL     1      -1.763 168.118 398.160  1.00  0.00     0.008 A 
HETATM   11  C6  UNL     1      -1.303 167.096 397.375  1.00  0.00     0.001 A 
HETATM   12  C7  UNL     1      -2.102 166.000 397.106  1.00  0.00     0.001 A 
HETATM   13  C8  UNL     1      -3.371 165.936 397.634  1.00  0.00     0.013 A 
BRANCH   9  14
HETATM   14  C2  UNL     1      -3.557 169.224 399.463  1.00  0.00     0.011 C 
HETATM   15  C1  UNL     1      -2.466 170.002 400.181  1.00  0.00     0.015 C 
HETATM   16  C3  UNL     1      -4.039 170.230 398.363  1.00  0.00     0.015 C 
ENDBRANCH   9  14
ENDBRANCH   1   8
BRANCH   4  17
HETATM   17  C14 UNL     1      -8.891 166.196 400.950  1.00  0.00     0.268 C 
BRANCH  17  18
HETATM   18  N1  UNL     1      -9.583 167.474 401.029  1.00  0.00    -0.075 N 
ATOM     19  H13 UNL     1     -10.370 167.455 401.678  1.00  0.00     0.274 HD
ATOM     20  H12 UNL     1      -9.032 168.191 401.500  1.00  0.00     0.274 HD
ATOM     21  H11 UNL     1      -9.859 167.747 400.086  1.00  0.00     0.274 HD
ENDBRANCH  17  18
ENDBRANCH   4  17
TORSDOF 4
ENDMDL
