MODEL 6
REMARK VINA RESULT: -6.962733257      0.981      1.061
REMARK  4 active torsions:
REMARK  status: ('A' for Active; 'I' for Inactive)
REMARK    1  A    between atoms: C2_2  and  C4_4 
REMARK    2  A    between atoms: C9_9  and  C10_10 
REMARK    3  A    between atoms: C13_13  and  C14_14 
REMARK    4  A    between atoms: C14_14  and  N1_15 
ROOT
HETATM    1  C10 UNL     1      -4.041 167.113 398.967  1.00  0.00    -0.004 A 
HETATM    2  C11 UNL     1      -3.300 166.030 398.510  1.00  0.00     0.014 A 
HETATM    3  C12 UNL     1      -2.051 166.192 397.950  1.00  0.00     0.010 A 
HETATM    4  C13 UNL     1      -1.554 167.469 397.858  1.00  0.00    -0.031 A 
HETATM    5  C15 UNL     1      -2.275 168.542 398.307  1.00  0.00     0.033 A 
HETATM    6  C16 UNL     1      -3.546 168.389 398.878  1.00  0.00     0.045 A 
HETATM    7 CL1  UNL     1      -4.453 169.755 399.468  1.00  0.00    -0.083 Cl
ENDROOT
BRANCH   1   8
HETATM    8  C9  UNL     1      -5.335 166.857 399.587  1.00  0.00    -0.018 A 
HETATM    9  C4  UNL     1      -6.507 167.063 398.910  1.00  0.00    -0.044 A 
HETATM   10  C5  UNL     1      -7.731 166.708 399.532  1.00  0.00     0.008 A 
HETATM   11  C6  UNL     1      -7.738 166.169 400.789  1.00  0.00     0.001 A 
HETATM   12  C7  UNL     1      -6.554 165.963 401.474  1.00  0.00     0.001 A 
HETATM   13  C8  UNL     1      -5.358 166.303 400.884  1.00  0.00     0.013 A 
BRANCH   9  14
HETATM   14  C2  UNL     1      -6.550 167.729 397.608  1.00  0.00     0.011 C 
HETATM   15  C1  UNL     1      -6.116 166.848 396.447  1.00  0.00     0.015 C 
HETATM   16  C3  UNL     1      -8.076 167.949 397.329  1.00  0.00     0.015 C 
ENDBRANCH   9  14
ENDBRANCH   1   8
BRANCH   4  17
HETATM   17  C14 UNL     1      -0.223 167.652 397.256  1.00  0.00     0.268 C 
BRANCH  17  18
HETATM   18  N1  UNL     1      -0.365 167.597 395.808  1.00  0.00    -0.075 N 
ATOM     19  H13 UNL     1      -1.253 167.191 395.516  1.00  0.00     0.274 HD
ATOM     20  H12 UNL     1      -0.489 168.519 395.390  1.00  0.00     0.274 HD
ATOM     21  H11 UNL     1       0.440 167.098 395.427  1.00  0.00     0.274 HD
ENDBRANCH  17  18
ENDBRANCH   4  17
TORSDOF 4
ENDMDL
