MODEL 2
REMARK VINA RESULT: -8.324250892      1.298      1.714
REMARK  4 active torsions:
REMARK  status: ('A' for Active; 'I' for Inactive)
REMARK    1  A    between atoms: C2_2  and  C4_4 
REMARK    2  A    between atoms: C9_9  and  C10_10 
REMARK    3  A    between atoms: C13_13  and  C14_14 
REMARK    4  A    between atoms: C14_14  and  N1_15 
ROOT
HETATM    1  C10 UNL     1      -3.699 166.984 398.918  1.00  0.00    -0.004 A 
HETATM    2  C11 UNL     1      -2.823 167.998 399.287  1.00  0.00     0.014 A 
HETATM    3  C12 UNL     1      -1.630 168.200 398.625  1.00  0.00     0.010 A 
HETATM    4  C13 UNL     1      -1.331 167.362 397.579  1.00  0.00    -0.031 A 
HETATM    5  C15 UNL     1      -2.188 166.362 397.208  1.00  0.00     0.033 A 
HETATM    6  C16 UNL     1      -3.403 166.147 397.874  1.00  0.00     0.045 A 
HETATM    7 CL1  UNL     1      -4.502 164.886 397.385  1.00  0.00    -0.083 Cl
ENDROOT
BRANCH   1   8
HETATM    8  C9  UNL     1      -4.960 166.861 399.639  1.00  0.00    -0.018 A 
HETATM    9  C4  UNL     1      -6.125 167.377 399.138  1.00  0.00    -0.044 A 
HETATM   10  C5  UNL     1      -7.336 167.147 399.839  1.00  0.00     0.008 A 
HETATM   11  C6  UNL     1      -7.337 166.420 400.998  1.00  0.00     0.001 A 
HETATM   12  C7  UNL     1      -6.159 165.900 401.505  1.00  0.00     0.001 A 
HETATM   13  C8  UNL     1      -4.976 166.116 400.836  1.00  0.00     0.013 A 
BRANCH   9  14
HETATM   14  C2  UNL     1      -6.152 168.243 397.959  1.00  0.00     0.011 C 
HETATM   15  C1  UNL     1      -7.011 167.714 396.822  1.00  0.00     0.015 C 
HETATM   16  C3  UNL     1      -6.935 169.518 398.426  1.00  0.00     0.015 C 
ENDBRANCH   9  14
ENDBRANCH   1   8
BRANCH   4  17
HETATM   17  C14 UNL     1      -0.057 167.567 396.870  1.00  0.00     0.268 C 
BRANCH  17  18
HETATM   18  N1  UNL     1       0.598 166.275 396.726  1.00  0.00    -0.075 N 
ATOM     19  H13 UNL     1       1.377 166.155 397.373  1.00  0.00     0.274 HD
ATOM     20  H12 UNL     1       0.021 165.502 397.059  1.00  0.00     0.274 HD
ATOM     21  H11 UNL     1       0.877 166.165 395.751  1.00  0.00     0.274 HD
ENDBRANCH  17  18
ENDBRANCH   4  17
TORSDOF 4
ENDMDL
