MODEL 12
REMARK VINA RESULT: -4.705326771      3.068      5.708
REMARK  4 active torsions:
REMARK  status: ('A' for Active; 'I' for Inactive)
REMARK    1  A    between atoms: C2_2  and  C4_4 
REMARK    2  A    between atoms: C9_9  and  C10_10 
REMARK    3  A    between atoms: C13_13  and  C14_14 
REMARK    4  A    between atoms: C14_14  and  N1_15 
ROOT
HETATM    1  C10 UNL     1      -5.190 167.567 399.707  1.00  0.00    -0.004 A 
HETATM    2  C11 UNL     1      -5.367 166.534 400.620  1.00  0.00     0.014 A 
HETATM    3  C12 UNL     1      -6.622 166.099 400.987  1.00  0.00     0.010 A 
HETATM    4  C13 UNL     1      -7.705 166.723 400.418  1.00  0.00    -0.031 A 
HETATM    5  C15 UNL     1      -7.541 167.740 399.517  1.00  0.00     0.033 A 
HETATM    6  C16 UNL     1      -6.269 168.190 399.136  1.00  0.00     0.045 A 
HETATM    7 CL1  UNL     1      -6.064 169.471 397.973  1.00  0.00    -0.083 Cl
ENDROOT
BRANCH   1   8
HETATM    8  C9  UNL     1      -3.831 167.941 399.336  1.00  0.00    -0.018 A 
HETATM    9  C4  UNL     1      -3.133 167.251 398.381  1.00  0.00    -0.044 A 
HETATM   10  C5  UNL     1      -1.849 167.717 397.998  1.00  0.00     0.008 A 
HETATM   11  C6  UNL     1      -1.320 168.838 398.575  1.00  0.00     0.001 A 
HETATM   12  C7  UNL     1      -2.024 169.534 399.541  1.00  0.00     0.001 A 
HETATM   13  C8  UNL     1      -3.270 169.093 399.925  1.00  0.00     0.013 A 
BRANCH   9  14
HETATM   14  C2  UNL     1      -3.620 165.993 397.814  1.00  0.00     0.011 C 
HETATM   15  C1  UNL     1      -4.853 166.146 396.938  1.00  0.00     0.015 C 
HETATM   16  C3  UNL     1      -2.512 165.569 396.791  1.00  0.00     0.015 C 
ENDBRANCH   9  14
ENDBRANCH   1   8
BRANCH   4  17
HETATM   17  C14 UNL     1      -9.050 166.270 400.809  1.00  0.00     0.268 C 
BRANCH  17  18
HETATM   18  N1  UNL     1      -9.802 167.424 401.280  1.00  0.00    -0.075 N 
ATOM     19  H13 UNL     1      -9.748 167.541 402.292  1.00  0.00     0.274 HD
ATOM     20  H12 UNL     1      -9.370 168.309 401.015  1.00  0.00     0.274 HD
ATOM     21  H11 UNL     1     -10.762 167.339 400.945  1.00  0.00     0.274 HD
ENDBRANCH  17  18
ENDBRANCH   4  17
TORSDOF 4
ENDMDL
