MODEL 1
REMARK VINA RESULT: -8.987838458      0.000      0.000
REMARK  4 active torsions:
REMARK  status: ('A' for Active; 'I' for Inactive)
REMARK    1  A    between atoms: C2_2  and  C4_4 
REMARK    2  A    between atoms: C9_9  and  C10_10 
REMARK    3  A    between atoms: C13_13  and  C14_14 
REMARK    4  A    between atoms: C14_14  and  N1_15 
ROOT
HETATM    1  C10 UNL     1      -3.588 167.037 398.781  1.00  0.00    -0.004 A 
HETATM    2  C11 UNL     1      -3.209 166.037 397.893  1.00  0.00     0.014 A 
HETATM    3  C12 UNL     1      -2.032 166.110 397.179  1.00  0.00     0.010 A 
HETATM    4  C13 UNL     1      -1.236 167.213 397.373  1.00  0.00    -0.031 A 
HETATM    5  C15 UNL     1      -1.600 168.202 398.246  1.00  0.00     0.033 A 
HETATM    6  C16 UNL     1      -2.795 168.137 398.977  1.00  0.00     0.045 A 
HETATM    7 CL1  UNL     1      -3.245 169.389 400.104  1.00  0.00    -0.083 Cl
ENDROOT
BRANCH   1   8
HETATM    8  C9  UNL     1      -4.826 166.866 399.531  1.00  0.00    -0.018 A 
HETATM    9  C4  UNL     1      -6.025 167.315 399.048  1.00  0.00    -0.044 A 
HETATM   10  C5  UNL     1      -7.208 167.038 399.780  1.00  0.00     0.008 A 
HETATM   11  C6  UNL     1      -7.148 166.334 400.951  1.00  0.00     0.001 A 
HETATM   12  C7  UNL     1      -5.935 165.882 401.441  1.00  0.00     0.001 A 
HETATM   13  C8  UNL     1      -4.779 166.144 400.742  1.00  0.00     0.013 A 
BRANCH   9  14
HETATM   14  C2  UNL     1      -6.121 168.155 397.854  1.00  0.00     0.011 C 
HETATM   15  C1  UNL     1      -7.201 167.722 396.876  1.00  0.00     0.015 C 
HETATM   16  C3  UNL     1      -6.658 169.529 398.384  1.00  0.00     0.015 C 
ENDBRANCH   9  14
ENDBRANCH   1   8
BRANCH   4  17
HETATM   17  C14 UNL     1       0.020 167.303 396.611  1.00  0.00     0.268 C 
BRANCH  17  18
HETATM   18  N1  UNL     1       0.711 166.025 396.715  1.00  0.00    -0.075 N 
ATOM     19  H13 UNL     1       1.431 166.026 397.437  1.00  0.00     0.274 HD
ATOM     20  H12 UNL     1       0.121 165.291 397.108  1.00  0.00     0.274 HD
ATOM     21  H11 UNL     1       1.078 165.784 395.794  1.00  0.00     0.274 HD
ENDBRANCH  17  18
ENDBRANCH   4  17
TORSDOF 4
ENDMDL
