MODEL 4
REMARK VINA RESULT: -5.342872689      1.064      1.283
REMARK  3 active torsions:
REMARK  status: ('A' for Active; 'I' for Inactive)
REMARK    1  A    between atoms: C7_8  and  C8_9 
REMARK    2  A    between atoms: C11_12  and  C12_13 
REMARK    3  A    between atoms: C12_13  and  N1_14 
ROOT
HETATM    1  C8  UNL     1    -136.761-184.364 297.288  1.00  0.00    -0.004 A 
HETATM    2  C9  UNL     1    -138.095-184.082 297.167  1.00  0.00     0.014 A 
HETATM    3  C10 UNL     1    -138.831-183.651 298.284  1.00  0.00     0.010 A 
HETATM    4  C11 UNL     1    -138.256-183.499 299.516  1.00  0.00    -0.031 A 
HETATM    5  C13 UNL     1    -136.896-183.788 299.629  1.00  0.00     0.033 A 
HETATM    6  C14 UNL     1    -136.193-184.207 298.529  1.00  0.00     0.045 A 
HETATM    7 CL1  UNL     1    -134.479-184.560 298.696  1.00  0.00    -0.083 Cl
ENDROOT
BRANCH   1   8
HETATM    8  C7  UNL     1    -136.004-184.842 296.152  1.00  0.00    -0.018 A 
HETATM    9  C2  UNL     1    -135.335-184.060 295.246  1.00  0.00    -0.048 A 
HETATM   10  C1  UNL     1    -135.284-182.599 295.400  1.00  0.00     0.049 C 
HETATM   11  C3  UNL     1    -134.664-184.634 294.160  1.00  0.00     0.049 A 
HETATM   12  C4  UNL     1    -134.647-185.975 293.964  1.00  0.00     0.117 A 
HETATM   13  F1  UNL     1    -134.002-186.552 292.926  1.00  0.00    -0.206 F 
HETATM   14  C5  UNL     1    -135.312-186.780 294.863  1.00  0.00     0.043 A 
HETATM   15  C6  UNL     1    -135.967-186.224 295.920  1.00  0.00     0.016 A 
ENDBRANCH   1   8
BRANCH   4  16
HETATM   16  C12 UNL     1    -138.979-183.056 300.727  1.00  0.00     0.268 C 
BRANCH  16  17
HETATM   17  N1  UNL     1    -140.385-183.265 300.723  1.00  0.00    -0.075 N 
ATOM     18  H13 UNL     1    -140.842-182.536 300.174  1.00  0.00     0.274 HD
ATOM     19  H12 UNL     1    -140.611-184.086 300.161  1.00  0.00     0.274 HD
ATOM     20  H11 UNL     1    -140.827-183.338 301.638  1.00  0.00     0.274 HD
ENDBRANCH  16  17
ENDBRANCH   4  16
TORSDOF 3
ENDMDL
