MODEL 5
REMARK VINA RESULT: -5.315697343      3.916      6.239
REMARK  3 active torsions:
REMARK  status: ('A' for Active; 'I' for Inactive)
REMARK    1  A    between atoms: C7_8  and  C8_9 
REMARK    2  A    between atoms: C11_12  and  C12_13 
REMARK    3  A    between atoms: C12_13  and  N1_14 
ROOT
HETATM    1  C8  UNL     1    -136.363-184.807 296.457  1.00  0.00    -0.004 A 
HETATM    2  C9  UNL     1    -135.793-183.937 295.566  1.00  0.00     0.014 A 
HETATM    3  C10 UNL     1    -135.053-184.425 294.477  1.00  0.00     0.010 A 
HETATM    4  C11 UNL     1    -134.873-185.764 294.263  1.00  0.00    -0.031 A 
HETATM    5  C13 UNL     1    -135.458-186.643 295.176  1.00  0.00     0.033 A 
HETATM    6  C14 UNL     1    -136.178-186.150 296.233  1.00  0.00     0.045 A 
HETATM    7 CL1  UNL     1    -136.910-187.278 297.366  1.00  0.00    -0.083 Cl
ENDROOT
BRANCH   1   8
HETATM    8  C7  UNL     1    -137.098-184.313 297.601  1.00  0.00    -0.018 A 
HETATM    9  C2  UNL     1    -136.593-184.131 298.863  1.00  0.00    -0.048 A 
HETATM   10  C1  UNL     1    -135.175-184.385 299.154  1.00  0.00     0.049 C 
HETATM   11  C3  UNL     1    -137.411-183.681 299.905  1.00  0.00     0.049 A 
HETATM   12  C4  UNL     1    -138.724-183.404 299.708  1.00  0.00     0.117 A 
HETATM   13  F1  UNL     1    -139.531-182.963 300.698  1.00  0.00    -0.206 F 
HETATM   14  C5  UNL     1    -139.251-183.578 298.448  1.00  0.00     0.043 A 
HETATM   15  C6  UNL     1    -138.458-184.018 297.432  1.00  0.00     0.016 A 
ENDBRANCH   1   8
BRANCH   4  16
HETATM   16  C12 UNL     1    -134.100-186.336 293.140  1.00  0.00     0.268 C 
BRANCH  16  17
HETATM   17  N1  UNL     1    -133.497-187.600 293.381  1.00  0.00    -0.075 N 
ATOM     18  H13 UNL     1    -133.158-187.644 294.342  1.00  0.00     0.274 HD
ATOM     19  H12 UNL     1    -134.213-188.327 293.406  1.00  0.00     0.274 HD
ATOM     20  H11 UNL     1    -132.753-187.869 292.738  1.00  0.00     0.274 HD
ENDBRANCH  16  17
ENDBRANCH   4  16
TORSDOF 3
ENDMDL
