MODEL 9
REMARK VINA RESULT: -5.090962717      4.374      7.036
REMARK  3 active torsions:
REMARK  status: ('A' for Active; 'I' for Inactive)
REMARK    1  A    between atoms: C7_8  and  C8_9 
REMARK    2  A    between atoms: C11_12  and  C12_13 
REMARK    3  A    between atoms: C12_13  and  N1_14 
ROOT
HETATM    1  C8  UNL     1    -138.948-182.472 299.777  1.00  0.00    -0.004 A 
HETATM    2  C9  UNL     1    -137.827-182.958 300.394  1.00  0.00     0.014 A 
HETATM    3  C10 UNL     1    -136.966-183.833 299.711  1.00  0.00     0.010 A 
HETATM    4  C11 UNL     1    -137.207-184.230 298.424  1.00  0.00    -0.031 A 
HETATM    5  C13 UNL     1    -138.352-183.729 297.803  1.00  0.00     0.033 A 
HETATM    6  C14 UNL     1    -139.181-182.875 298.484  1.00  0.00     0.045 A 
HETATM    7 CL1  UNL     1    -140.613-182.253 297.678  1.00  0.00    -0.083 Cl
ENDROOT
BRANCH   1   8
HETATM    8  C7  UNL     1    -139.858-181.598 300.485  1.00  0.00    -0.018 A 
HETATM    9  C2  UNL     1    -139.908-180.232 300.376  1.00  0.00    -0.048 A 
HETATM   10  C1  UNL     1    -139.033-179.515 299.439  1.00  0.00     0.049 C 
HETATM   11  C3  UNL     1    -140.810-179.484 301.141  1.00  0.00     0.049 A 
HETATM   12  C4  UNL     1    -141.665-180.077 302.012  1.00  0.00     0.117 A 
HETATM   13  F1  UNL     1    -142.546-179.375 302.757  1.00  0.00    -0.206 F 
HETATM   14  C5  UNL     1    -141.632-181.448 302.136  1.00  0.00     0.043 A 
HETATM   15  C6  UNL     1    -140.754-182.178 301.393  1.00  0.00     0.016 A 
ENDBRANCH   1   8
BRANCH   4  16
HETATM   16  C12 UNL     1    -136.343-185.152 297.657  1.00  0.00     0.268 C 
BRANCH  16  17
HETATM   17  N1  UNL     1    -135.872-186.292 298.362  1.00  0.00    -0.075 N 
ATOM     18  H13 UNL     1    -134.972-186.084 298.796  1.00  0.00     0.274 HD
ATOM     19  H12 UNL     1    -136.443-186.447 299.193  1.00  0.00     0.274 HD
ATOM     20  H11 UNL     1    -135.805-187.154 297.822  1.00  0.00     0.274 HD
ENDBRANCH  16  17
ENDBRANCH   4  16
TORSDOF 3
ENDMDL
