MODEL 1
REMARK VINA RESULT: -5.454737763      0.000      0.000
REMARK  3 active torsions:
REMARK  status: ('A' for Active; 'I' for Inactive)
REMARK    1  A    between atoms: C7_8  and  C8_9 
REMARK    2  A    between atoms: C11_12  and  C12_13 
REMARK    3  A    between atoms: C12_13  and  N1_14 
ROOT
HETATM    1  C8  UNL     1    -137.680-184.165 297.913  1.00  0.00    -0.004 A 
HETATM    2  C9  UNL     1    -138.995-183.919 297.620  1.00  0.00     0.014 A 
HETATM    3  C10 UNL     1    -139.849-183.386 298.600  1.00  0.00     0.010 A 
HETATM    4  C11 UNL     1    -139.412-183.094 299.863  1.00  0.00    -0.031 A 
HETATM    5  C13 UNL     1    -138.071-183.348 300.151  1.00  0.00     0.033 A 
HETATM    6  C14 UNL     1    -137.251-183.868 299.184  1.00  0.00     0.045 A 
HETATM    7 CL1  UNL     1    -135.563-184.173 299.570  1.00  0.00    -0.083 Cl
ENDROOT
BRANCH   1   8
HETATM    8  C7  UNL     1    -136.802-184.747 296.922  1.00  0.00    -0.018 A 
HETATM    9  C2  UNL     1    -135.976-184.055 296.074  1.00  0.00    -0.048 A 
HETATM   10  C1  UNL     1    -135.869-182.591 296.150  1.00  0.00     0.049 C 
HETATM   11  C3  UNL     1    -135.195-184.726 295.126  1.00  0.00     0.049 A 
HETATM   12  C4  UNL     1    -135.222-186.077 295.012  1.00  0.00     0.117 A 
HETATM   13  F1  UNL     1    -134.474-186.746 294.107  1.00  0.00    -0.206 F 
HETATM   14  C5  UNL     1    -136.045-186.793 295.854  1.00  0.00     0.043 A 
HETATM   15  C6  UNL     1    -136.807-186.142 296.777  1.00  0.00     0.016 A 
ENDBRANCH   1   8
BRANCH   4  16
HETATM   16  C12 UNL     1    -140.264-182.538 300.935  1.00  0.00     0.268 C 
BRANCH  16  17
HETATM   17  N1  UNL     1    -139.842-181.297 301.483  1.00  0.00    -0.075 N 
ATOM     18  H13 UNL     1    -138.974-180.999 301.038  1.00  0.00     0.274 HD
ATOM     19  H12 UNL     1    -140.469-180.552 301.177  1.00  0.00     0.274 HD
ATOM     20  H11 UNL     1    -139.739-181.269 302.497  1.00  0.00     0.274 HD
ENDBRANCH  16  17
ENDBRANCH   4  16
TORSDOF 3
ENDMDL
