MODEL 6
REMARK VINA RESULT: -5.308719226      3.786      6.145
REMARK  3 active torsions:
REMARK  status: ('A' for Active; 'I' for Inactive)
REMARK    1  A    between atoms: C7_8  and  C8_9 
REMARK    2  A    between atoms: C11_12  and  C12_13 
REMARK    3  A    between atoms: C12_13  and  N1_14 
ROOT
HETATM    1  C8  UNL     1    -136.714-184.828 296.728  1.00  0.00    -0.004 A 
HETATM    2  C9  UNL     1    -136.640-186.179 296.523  1.00  0.00     0.014 A 
HETATM    3  C10 UNL     1    -135.836-186.694 295.492  1.00  0.00     0.010 A 
HETATM    4  C11 UNL     1    -135.108-185.883 294.666  1.00  0.00    -0.031 A 
HETATM    5  C13 UNL     1    -135.190-184.507 294.883  1.00  0.00     0.033 A 
HETATM    6  C14 UNL     1    -135.978-184.021 295.894  1.00  0.00     0.045 A 
HETATM    7 CL1  UNL     1    -136.061-182.284 296.151  1.00  0.00    -0.083 Cl
ENDROOT
BRANCH   1   8
HETATM    8  C7  UNL     1    -137.567-184.287 297.764  1.00  0.00    -0.018 A 
HETATM    9  C2  UNL     1    -137.181-183.976 299.042  1.00  0.00    -0.048 A 
HETATM   10  C1  UNL     1    -135.781-184.122 299.466  1.00  0.00     0.049 C 
HETATM   11  C3  UNL     1    -138.105-183.491 299.974  1.00  0.00     0.049 A 
HETATM   12  C4  UNL     1    -139.409-183.308 299.651  1.00  0.00     0.117 A 
HETATM   13  F1  UNL     1    -140.319-182.837 300.532  1.00  0.00    -0.206 F 
HETATM   14  C5  UNL     1    -139.819-183.613 298.372  1.00  0.00     0.043 A 
HETATM   15  C6  UNL     1    -138.921-184.087 297.463  1.00  0.00     0.016 A 
ENDBRANCH   1   8
BRANCH   4  16
HETATM   16  C12 UNL     1    -134.250-186.366 293.563  1.00  0.00     0.268 C 
BRANCH  16  17
HETATM   17  N1  UNL     1    -133.584-185.362 292.809  1.00  0.00    -0.075 N 
ATOM     18  H13 UNL     1    -133.077-184.737 293.436  1.00  0.00     0.274 HD
ATOM     19  H12 UNL     1    -132.805-185.774 292.295  1.00  0.00     0.274 HD
ATOM     20  H11 UNL     1    -134.168-184.818 292.176  1.00  0.00     0.274 HD
ENDBRANCH  16  17
ENDBRANCH   4  16
TORSDOF 3
ENDMDL
