MODEL 3
REMARK VINA RESULT: -3.947124580     11.593     12.936
REMARK  4 active torsions:
REMARK  status: ('A' for Active; 'I' for Inactive)
REMARK    1  A    between atoms: C2_2  and  S1_3 
REMARK    2  A    between atoms: S1_3  and  C3_4 
REMARK    3  A    between atoms: C4_9  and  N3_10 
REMARK       I    between atoms: N3_10  and  C5_12 
REMARK    4  A    between atoms: C5_12  and  O2_14 
ROOT
HETATM    1  C3  UNL     1       1.762  28.207 -22.515  1.00  0.00     0.130 A 
HETATM    2  N1  UNL     1       3.063  27.984 -22.380  1.00  0.00    -0.286 N 
ATOM      3  H1  UNL     1       3.451  27.774 -21.460  1.00  0.00     0.188 HD
HETATM    4  N2  UNL     1       3.819  28.031 -23.387  1.00  0.00    -0.278 N 
ATOM      5  H2  UNL     1       4.819  27.860 -23.281  1.00  0.00     0.189 HD
HETATM    6  C4  UNL     1       3.316  28.304 -24.587  1.00  0.00     0.170 A 
HETATM    7  S2  UNL     1       1.662  28.497 -24.208  1.00  0.00    -0.026 SA
ENDROOT
BRANCH   6   8
HETATM    8  N3  UNL     1       3.999  28.403 -25.849  1.00  0.00    -0.281 N 
HETATM    9  C5  UNL     1       5.080  27.552 -26.179  1.00  0.00     0.366 C 
HETATM   10  O1  UNL     1       5.425  26.696 -25.316  1.00  0.00    -0.238 OA
ATOM     11  H3  UNL     1       3.697  29.106 -26.523  1.00  0.00     0.173 HD
BRANCH   9  12
HETATM   12  O2  UNL     1       5.761  27.614 -27.379  1.00  0.00    -0.309 OA
HETATM   13  C6  UNL     1       6.182  26.462 -28.080  1.00  0.00     0.215 C 
ENDBRANCH   9  12
ENDBRANCH   6   8
BRANCH   1  14
HETATM   14  S1  UNL     1       0.475  28.201 -21.258  1.00  0.00    -0.104 SA
BRANCH  14  15
HETATM   15  C2  UNL     1      -1.098  28.649 -22.025  1.00  0.00     0.077 C 
HETATM   16  C1  UNL     1      -1.200  30.147 -22.170  1.00  0.00     0.016 C 
ENDBRANCH  14  15
ENDBRANCH   1  14
TORSDOF 4
ENDMDL
