MODEL 2
REMARK VINA RESULT: -4.003914838     12.181     13.540
REMARK  4 active torsions:
REMARK  status: ('A' for Active; 'I' for Inactive)
REMARK    1  A    between atoms: C2_2  and  S1_3 
REMARK    2  A    between atoms: S1_3  and  C3_4 
REMARK    3  A    between atoms: C4_9  and  N3_10 
REMARK       I    between atoms: N3_10  and  C5_12 
REMARK    4  A    between atoms: C5_12  and  O2_14 
ROOT
HETATM    1  C3  UNL     1       2.070  28.297 -22.925  1.00  0.00     0.130 A 
HETATM    2  N1  UNL     1       3.344  27.976 -22.739  1.00  0.00    -0.286 N 
ATOM      3  H1  UNL     1       3.698  27.821 -21.795  1.00  0.00     0.188 HD
HETATM    4  N2  UNL     1       4.116  27.862 -23.728  1.00  0.00    -0.278 N 
ATOM      5  H2  UNL     1       5.095  27.615 -23.584  1.00  0.00     0.189 HD
HETATM    6  C4  UNL     1       3.658  28.062 -24.960  1.00  0.00     0.170 A 
HETATM    7  S2  UNL     1       2.022  28.434 -24.639  1.00  0.00    -0.026 SA
ENDROOT
BRANCH   6   8
HETATM    8  N3  UNL     1       4.367  27.982 -26.209  1.00  0.00    -0.281 N 
HETATM    9  C5  UNL     1       5.435  27.075 -26.402  1.00  0.00     0.366 C 
HETATM   10  O1  UNL     1       5.746  26.334 -25.427  1.00  0.00    -0.238 OA
ATOM     11  H3  UNL     1       4.091  28.595 -26.976  1.00  0.00     0.173 HD
BRANCH   9  12
HETATM   12  O2  UNL     1       6.139  26.966 -27.584  1.00  0.00    -0.309 OA
HETATM   13  C6  UNL     1       6.481  25.721 -28.159  1.00  0.00     0.215 C 
ENDBRANCH   9  12
ENDBRANCH   6   8
BRANCH   1  14
HETATM   14  S1  UNL     1       0.769  28.522 -21.704  1.00  0.00    -0.104 SA
BRANCH  14  15
HETATM   15  C2  UNL     1      -0.225  27.015 -21.619  1.00  0.00     0.077 C 
HETATM   16  C1  UNL     1       0.466  25.982 -20.764  1.00  0.00     0.016 C 
ENDBRANCH  14  15
ENDBRANCH   1  14
TORSDOF 4
ENDMDL
