MODEL 1
REMARK VINA RESULT: -4.099689232      0.000      0.000
REMARK  4 active torsions:
REMARK  status: ('A' for Active; 'I' for Inactive)
REMARK    1  A    between atoms: C2_2  and  S1_3 
REMARK    2  A    between atoms: S1_3  and  C3_4 
REMARK    3  A    between atoms: C4_9  and  N3_10 
REMARK       I    between atoms: N3_10  and  C5_12 
REMARK    4  A    between atoms: C5_12  and  O2_14 
ROOT
HETATM    1  C3  UNL     1      -0.096  36.200 -15.709  1.00  0.00     0.130 A 
HETATM    2  N1  UNL     1      -1.137  35.408 -15.486  1.00  0.00    -0.286 N 
ATOM      3  H1  UNL     1      -1.026  34.568 -14.918  1.00  0.00     0.188 HD
HETATM    4  N2  UNL     1      -2.262  35.694 -15.975  1.00  0.00    -0.278 N 
ATOM      5  H2  UNL     1      -3.062  35.084 -15.803  1.00  0.00     0.189 HD
HETATM    6  C4  UNL     1      -2.410  36.788 -16.715  1.00  0.00     0.170 A 
HETATM    7  S2  UNL     1      -0.823  37.416 -16.684  1.00  0.00    -0.026 SA
ENDROOT
BRANCH   6   8
HETATM    8  N3  UNL     1      -3.596  37.288 -17.357  1.00  0.00    -0.281 N 
HETATM    9  C5  UNL     1      -4.034  36.788 -18.605  1.00  0.00     0.366 C 
HETATM   10  O1  UNL     1      -3.338  35.879 -19.139  1.00  0.00    -0.238 OA
ATOM     11  H3  UNL     1      -4.136  38.023 -16.899  1.00  0.00     0.173 HD
BRANCH   9  12
HETATM   12  O2  UNL     1      -5.167  37.240 -19.254  1.00  0.00    -0.309 OA
HETATM   13  C6  UNL     1      -5.973  36.403 -20.058  1.00  0.00     0.215 C 
ENDBRANCH   9  12
ENDBRANCH   6   8
BRANCH   1  14
HETATM   14  S1  UNL     1       1.601  36.028 -15.136  1.00  0.00    -0.104 SA
BRANCH  14  15
HETATM   15  C2  UNL     1       2.715  36.154 -16.553  1.00  0.00     0.077 C 
HETATM   16  C1  UNL     1       2.221  35.289 -17.685  1.00  0.00     0.016 C 
ENDBRANCH  14  15
ENDBRANCH   1  14
TORSDOF 4
ENDMDL
