MODEL 5
REMARK VINA RESULT: -4.791441024      4.026      5.506
REMARK  4 active torsions:
REMARK  status: ('A' for Active; 'I' for Inactive)
REMARK    1  A    between atoms: N1_1  and  C1_5 
REMARK    2  A    between atoms: C1_5  and  C2_6 
REMARK    3  A    between atoms: C5_9  and  C6_10 
REMARK    4  A    between atoms: C11_15  and  O1_16 
ROOT
HETATM    1  C2  UNL     1    -135.769-188.096 291.993  1.00  0.00    -0.031 A 
HETATM    2  C3  UNL     1    -136.374-187.616 293.139  1.00  0.00     0.010 A 
HETATM    3  C4  UNL     1    -135.679-186.851 294.053  1.00  0.00     0.014 A 
HETATM    4  C5  UNL     1    -134.358-186.538 293.859  1.00  0.00    -0.001 A 
HETATM    5  C12 UNL     1    -133.752-187.017 292.713  1.00  0.00     0.045 A 
HETATM    6 CL1  UNL     1    -132.061-186.698 292.315  1.00  0.00    -0.083 Cl
HETATM    7  C13 UNL     1    -134.442-187.785 291.791  1.00  0.00     0.033 A 
ENDROOT
BRANCH   4   8
HETATM    8  C6  UNL     1    -133.567-185.746 294.776  1.00  0.00     0.009 A 
HETATM    9  C7  UNL     1    -133.227-184.448 294.453  1.00  0.00     0.015 A 
HETATM   10  C8  UNL     1    -132.465-183.628 295.275  1.00  0.00     0.001 A 
HETATM   11  C9  UNL     1    -132.018-184.122 296.481  1.00  0.00     0.003 A 
HETATM   12  C10 UNL     1    -132.352-185.430 296.824  1.00  0.00     0.037 A 
HETATM   13  C11 UNL     1    -133.108-186.220 295.989  1.00  0.00     0.076 A 
BRANCH  13  14
HETATM   14  O1  UNL     1    -133.419-187.499 296.356  1.00  0.00    -0.360 OA
ATOM     15  H1  UNL     1    -134.321-187.709 296.568  1.00  0.00     0.217 HD
ENDBRANCH  13  14
ENDBRANCH   4   8
BRANCH   1  16
HETATM   16  C1  UNL     1    -136.476-188.924 290.986  1.00  0.00     0.268 C 
BRANCH  16  17
HETATM   17  N1  UNL     1    -136.453-190.336 291.362  1.00  0.00    -0.075 N 
ATOM     18  H13 UNL     1    -136.979-190.910 290.704  1.00  0.00     0.274 HD
ATOM     19  H12 UNL     1    -135.530-190.748 291.222  1.00  0.00     0.274 HD
ATOM     20  H11 UNL     1    -136.781-190.463 292.320  1.00  0.00     0.274 HD
ENDBRANCH  16  17
ENDBRANCH   1  16
TORSDOF 4
ENDMDL
