MODEL 6
REMARK VINA RESULT: -4.772465650      3.238      6.121
REMARK  4 active torsions:
REMARK  status: ('A' for Active; 'I' for Inactive)
REMARK    1  A    between atoms: N1_1  and  C1_5 
REMARK    2  A    between atoms: C1_5  and  C2_6 
REMARK    3  A    between atoms: C5_9  and  C6_10 
REMARK    4  A    between atoms: C11_15  and  O1_16 
ROOT
HETATM    1  C2  UNL     1    -133.736-185.404 294.899  1.00  0.00    -0.031 A 
HETATM    2  C3  UNL     1    -133.194-184.680 295.944  1.00  0.00     0.010 A 
HETATM    3  C4  UNL     1    -133.950-183.773 296.659  1.00  0.00     0.014 A 
HETATM    4  C5  UNL     1    -135.270-183.555 296.359  1.00  0.00    -0.001 A 
HETATM    5  C12 UNL     1    -135.813-184.278 295.313  1.00  0.00     0.045 A 
HETATM    6 CL1  UNL     1    -137.497-184.116 294.806  1.00  0.00    -0.083 Cl
HETATM    7  C13 UNL     1    -135.062-185.190 294.590  1.00  0.00     0.033 A 
ENDROOT
BRANCH   4   8
HETATM    8  C6  UNL     1    -136.119-182.618 297.061  1.00  0.00     0.009 A 
HETATM    9  C7  UNL     1    -136.709-182.981 298.256  1.00  0.00     0.015 A 
HETATM   10  C8  UNL     1    -137.541-182.143 298.985  1.00  0.00     0.001 A 
HETATM   11  C9  UNL     1    -137.802-180.878 298.505  1.00  0.00     0.003 A 
HETATM   12  C10 UNL     1    -137.216-180.495 297.301  1.00  0.00     0.037 A 
HETATM   13  C11 UNL     1    -136.395-181.348 296.599  1.00  0.00     0.076 A 
BRANCH  13  14
HETATM   14  O1  UNL     1    -135.835-180.940 295.421  1.00  0.00    -0.360 OA
ATOM     15  H1  UNL     1    -135.775-180.009 295.241  1.00  0.00     0.217 HD
ENDBRANCH  13  14
ENDBRANCH   4   8
BRANCH   1  16
HETATM   16  C1  UNL     1    -132.961-186.385 294.101  1.00  0.00     0.268 C 
BRANCH  16  17
HETATM   17  N1  UNL     1    -132.516-185.796 292.839  1.00  0.00    -0.075 N 
ATOM     18  H13 UNL     1    -133.206-185.147 292.462  1.00  0.00     0.274 HD
ATOM     19  H12 UNL     1    -131.748-185.141 292.979  1.00  0.00     0.274 HD
ATOM     20  H11 UNL     1    -132.274-186.522 292.164  1.00  0.00     0.274 HD
ENDBRANCH  16  17
ENDBRANCH   1  16
TORSDOF 4
ENDMDL
