MODEL 4
REMARK VINA RESULT: -4.847476617      3.613      4.789
REMARK  4 active torsions:
REMARK  status: ('A' for Active; 'I' for Inactive)
REMARK    1  A    between atoms: N1_1  and  C1_5 
REMARK    2  A    between atoms: C1_5  and  C2_6 
REMARK    3  A    between atoms: C5_9  and  C6_10 
REMARK    4  A    between atoms: C11_15  and  O1_16 
ROOT
HETATM    1  C2  UNL     1    -136.886-187.534 293.095  1.00  0.00    -0.031 A 
HETATM    2  C3  UNL     1    -135.614-188.075 293.082  1.00  0.00     0.010 A 
HETATM    3  C4  UNL     1    -134.555-187.438 293.694  1.00  0.00     0.014 A 
HETATM    4  C5  UNL     1    -134.723-186.240 294.341  1.00  0.00    -0.001 A 
HETATM    5  C12 UNL     1    -135.994-185.698 294.355  1.00  0.00     0.045 A 
HETATM    6 CL1  UNL     1    -136.377-184.167 295.148  1.00  0.00    -0.083 Cl
HETATM    7  C13 UNL     1    -137.063-186.330 293.743  1.00  0.00     0.033 A 
ENDROOT
BRANCH   4   8
HETATM    8  C6  UNL     1    -133.658-185.515 294.999  1.00  0.00     0.009 A 
HETATM    9  C7  UNL     1    -133.168-184.350 294.442  1.00  0.00     0.015 A 
HETATM   10  C8  UNL     1    -132.145-183.603 295.007  1.00  0.00     0.001 A 
HETATM   11  C9  UNL     1    -131.578-184.032 296.188  1.00  0.00     0.003 A 
HETATM   12  C10 UNL     1    -132.060-185.204 296.764  1.00  0.00     0.037 A 
HETATM   13  C11 UNL     1    -133.076-185.926 296.181  1.00  0.00     0.076 A 
BRANCH  13  14
HETATM   14  O1  UNL     1    -133.526-187.072 296.773  1.00  0.00    -0.360 OA
ATOM     15  H1  UNL     1    -133.018-187.452 297.480  1.00  0.00     0.217 HD
ENDBRANCH  13  14
ENDBRANCH   4   8
BRANCH   1  16
HETATM   16  C1  UNL     1    -138.052-188.181 292.448  1.00  0.00     0.268 C 
BRANCH  16  17
HETATM   17  N1  UNL     1    -138.966-188.730 293.448  1.00  0.00    -0.075 N 
ATOM     18  H13 UNL     1    -139.933-188.718 293.123  1.00  0.00     0.274 HD
ATOM     19  H12 UNL     1    -138.851-189.738 293.551  1.00  0.00     0.274 HD
ATOM     20  H11 UNL     1    -138.863-188.246 294.340  1.00  0.00     0.274 HD
ENDBRANCH  16  17
ENDBRANCH   1  16
TORSDOF 4
ENDMDL
