MODEL 1
REMARK VINA RESULT: -5.083900303      0.000      0.000
REMARK  4 active torsions:
REMARK  status: ('A' for Active; 'I' for Inactive)
REMARK    1  A    between atoms: N1_1  and  C1_5 
REMARK    2  A    between atoms: C1_5  and  C2_6 
REMARK    3  A    between atoms: C5_9  and  C6_10 
REMARK    4  A    between atoms: C11_15  and  O1_16 
ROOT
HETATM    1  C2  UNL     1    -135.945-183.162 297.266  1.00  0.00    -0.031 A 
HETATM    2  C3  UNL     1    -136.478-183.320 296.001  1.00  0.00     0.010 A 
HETATM    3  C4  UNL     1    -135.738-183.867 294.972  1.00  0.00     0.014 A 
HETATM    4  C5  UNL     1    -134.444-184.276 295.166  1.00  0.00    -0.001 A 
HETATM    5  C12 UNL     1    -133.910-184.118 296.431  1.00  0.00     0.045 A 
HETATM    6 CL1  UNL     1    -132.262-184.599 296.844  1.00  0.00    -0.083 Cl
HETATM    7  C13 UNL     1    -134.644-183.570 297.469  1.00  0.00     0.033 A 
ENDROOT
BRANCH   4   8
HETATM    8  C6  UNL     1    -133.610-184.852 294.134  1.00  0.00     0.009 A 
HETATM    9  C7  UNL     1    -132.841-184.035 293.329  1.00  0.00     0.015 A 
HETATM   10  C8  UNL     1    -132.023-184.510 292.315  1.00  0.00     0.001 A 
HETATM   11  C9  UNL     1    -131.962-185.867 292.085  1.00  0.00     0.003 A 
HETATM   12  C10 UNL     1    -132.731-186.707 292.888  1.00  0.00     0.037 A 
HETATM   13  C11 UNL     1    -133.535-186.208 293.887  1.00  0.00     0.076 A 
BRANCH  13  14
HETATM   14  O1  UNL     1    -134.276-187.060 294.656  1.00  0.00    -0.360 OA
ATOM     15  H1  UNL     1    -135.209-187.131 294.492  1.00  0.00     0.217 HD
ENDBRANCH  13  14
ENDBRANCH   4   8
BRANCH   1  16
HETATM   16  C1  UNL     1    -136.700-182.576 298.399  1.00  0.00     0.268 C 
BRANCH  16  17
HETATM   17  N1  UNL     1    -136.309-181.185 298.623  1.00  0.00    -0.075 N 
ATOM     18  H13 UNL     1    -135.308-181.048 298.486  1.00  0.00     0.274 HD
ATOM     19  H12 UNL     1    -136.651-180.574 297.882  1.00  0.00     0.274 HD
ATOM     20  H11 UNL     1    -136.611-180.866 299.544  1.00  0.00     0.274 HD
ENDBRANCH  16  17
ENDBRANCH   1  16
TORSDOF 4
ENDMDL
