MODEL 8
REMARK VINA RESULT: -5.979060934      6.174      7.564
REMARK  5 active torsions:
REMARK  status: ('A' for Active; 'I' for Inactive)
REMARK    1  A    between atoms: O1_1  and  C1_3 
REMARK    2  A    between atoms: C1_3  and  C2_4 
REMARK    3  A    between atoms: C6_12  and  O2_13 
REMARK    4  A    between atoms: C7_15  and  O3_16 
REMARK    5  A    between atoms: C8_18  and  O4_19 
ROOT
HETATM    1  C2  UNL     1     -21.047 -28.532   0.963  1.00  0.00     0.092 C 
HETATM    2  C3  UNL     1     -22.120 -29.145   0.171  1.00  0.00     0.044 A 
HETATM    3  N1  UNL     1     -22.241 -29.359  -1.174  1.00  0.00    -0.354 N 
ATOM      4  H1  UNL     1     -21.545 -29.100  -1.873  1.00  0.00     0.166 HD
HETATM    5  C4  UNL     1     -23.408 -29.958  -1.439  1.00  0.00     0.181 A 
HETATM    6  N2  UNL     1     -24.019 -30.118  -0.250  1.00  0.00    -0.352 N 
ATOM      7  H2  UNL     1     -24.935 -30.549  -0.125  1.00  0.00     0.166 HD
HETATM    8  C5  UNL     1     -23.272 -29.641   0.737  1.00  0.00     0.065 A 
HETATM    9  C6  UNL     1     -23.413 -29.538   2.206  1.00  0.00     0.201 C 
HETATM   10  C7  UNL     1     -22.919 -28.125   2.544  1.00  0.00     0.182 C 
HETATM   11  C8  UNL     1     -21.435 -28.145   2.341  1.00  0.00     0.161 C 
ENDROOT
BRANCH   1  12
HETATM   12  C1  UNL     1     -19.820 -29.438   1.055  1.00  0.00     0.177 C 
BRANCH  12  13
HETATM   13  O1  UNL     1     -18.871 -28.865   1.918  1.00  0.00    -0.400 OA
ATOM     14  H1  UNL     1     -19.176 -28.923   2.816  1.00  0.00     0.209 HD
ENDBRANCH  12  13
ENDBRANCH   1  12
BRANCH  11  15
HETATM   15  O4  UNL     1     -20.864 -26.905   2.713  1.00  0.00    -0.392 OA
ATOM     16  H4  UNL     1     -21.011 -26.715   3.632  1.00  0.00     0.210 HD
ENDBRANCH  11  15
BRANCH  10  17
HETATM   17  O3  UNL     1     -23.307 -27.712   3.783  1.00  0.00    -0.390 OA
ATOM     18  H3  UNL     1     -23.340 -26.766   3.863  1.00  0.00     0.210 HD
ENDBRANCH  10  17
BRANCH   9  19
HETATM   19  O2  UNL     1     -24.697 -29.752   2.651  1.00  0.00    -0.387 OA
ATOM     20  H2  UNL     1     -24.740 -30.098   3.535  1.00  0.00     0.210 HD
ENDBRANCH   9  19
TORSDOF 5
ENDMDL
