MODEL 7
REMARK VINA RESULT: -5.991662237      6.032      7.862
REMARK  5 active torsions:
REMARK  status: ('A' for Active; 'I' for Inactive)
REMARK    1  A    between atoms: O1_1  and  C1_3 
REMARK    2  A    between atoms: C1_3  and  C2_4 
REMARK    3  A    between atoms: C6_12  and  O2_13 
REMARK    4  A    between atoms: C7_15  and  O3_16 
REMARK    5  A    between atoms: C8_18  and  O4_19 
ROOT
HETATM    1  C2  UNL     1     -23.270 -28.708   2.197  1.00  0.00     0.092 C 
HETATM    2  C3  UNL     1     -23.052 -30.046   1.634  1.00  0.00     0.044 A 
HETATM    3  N1  UNL     1     -23.784 -31.197   1.732  1.00  0.00    -0.354 N 
ATOM      4  H1  UNL     1     -24.655 -31.294   2.252  1.00  0.00     0.166 HD
HETATM    5  C4  UNL     1     -23.188 -32.178   1.043  1.00  0.00     0.181 A 
HETATM    6  N2  UNL     1     -22.077 -31.634   0.514  1.00  0.00    -0.352 N 
ATOM      7  H2  UNL     1     -21.408 -32.139  -0.069  1.00  0.00     0.166 HD
HETATM    8  C5  UNL     1     -21.965 -30.356   0.849  1.00  0.00     0.065 A 
HETATM    9  C6  UNL     1     -20.989 -29.279   0.576  1.00  0.00     0.201 C 
HETATM   10  C7  UNL     1     -20.804 -28.572   1.926  1.00  0.00     0.182 C 
HETATM   11  C8  UNL     1     -22.078 -27.825   2.180  1.00  0.00     0.161 C 
ENDROOT
BRANCH   1  12
HETATM   12  C1  UNL     1     -24.410 -27.974   1.492  1.00  0.00     0.177 C 
BRANCH  12  13
HETATM   13  O1  UNL     1     -23.986 -26.689   1.116  1.00  0.00    -0.400 OA
ATOM     14  H1  UNL     1     -23.783 -26.676   0.187  1.00  0.00     0.209 HD
ENDBRANCH  12  13
ENDBRANCH   1  12
BRANCH  11  15
HETATM   15  O4  UNL     1     -21.980 -27.063   3.367  1.00  0.00    -0.392 OA
ATOM     16  H4  UNL     1     -21.078 -26.837   3.563  1.00  0.00     0.210 HD
ENDBRANCH  11  15
BRANCH  10  17
HETATM   17  O3  UNL     1     -19.685 -27.796   1.967  1.00  0.00    -0.390 OA
ATOM     18  H3  UNL     1     -19.685 -27.189   2.697  1.00  0.00     0.210 HD
ENDBRANCH  10  17
BRANCH   9  19
HETATM   19  O2  UNL     1     -19.794 -29.736   0.069  1.00  0.00    -0.387 OA
ATOM     20  H2  UNL     1     -19.036 -29.270   0.403  1.00  0.00     0.210 HD
ENDBRANCH   9  19
TORSDOF 5
ENDMDL
