MODEL 4
REMARK VINA RESULT: -6.086136813      5.932      7.886
REMARK  5 active torsions:
REMARK  status: ('A' for Active; 'I' for Inactive)
REMARK    1  A    between atoms: O1_1  and  C1_3 
REMARK    2  A    between atoms: C1_3  and  C2_4 
REMARK    3  A    between atoms: C6_12  and  O2_13 
REMARK    4  A    between atoms: C7_15  and  O3_16 
REMARK    5  A    between atoms: C8_18  and  O4_19 
ROOT
HETATM    1  C2  UNL     1     -21.651 -28.724   0.830  1.00  0.00     0.092 C 
HETATM    2  C3  UNL     1     -23.086 -28.553   1.084  1.00  0.00     0.044 A 
HETATM    3  N1  UNL     1     -23.959 -27.570   0.706  1.00  0.00    -0.354 N 
ATOM      4  H1  UNL     1     -23.714 -26.752   0.149  1.00  0.00     0.166 HD
HETATM    5  C4  UNL     1     -25.183 -27.841   1.174  1.00  0.00     0.181 A 
HETATM    6  N2  UNL     1     -25.071 -29.000   1.849  1.00  0.00    -0.352 N 
ATOM      7  H2  UNL     1     -25.843 -29.467   2.325  1.00  0.00     0.166 HD
HETATM    8  C5  UNL     1     -23.826 -29.454   1.814  1.00  0.00     0.065 A 
HETATM    9  C6  UNL     1     -23.122 -30.636   2.358  1.00  0.00     0.201 C 
HETATM   10  C7  UNL     1     -21.800 -30.082   2.905  1.00  0.00     0.182 C 
HETATM   11  C8  UNL     1     -20.978 -29.713   1.708  1.00  0.00     0.161 C 
ENDROOT
BRANCH   1  12
HETATM   12  C1  UNL     1     -21.372 -29.115  -0.621  1.00  0.00     0.177 C 
BRANCH  12  13
HETATM   13  O1  UNL     1     -20.232 -29.934  -0.681  1.00  0.00    -0.400 OA
ATOM     14  H1  UNL     1     -20.089 -30.220  -1.576  1.00  0.00     0.209 HD
ENDBRANCH  12  13
ENDBRANCH   1  12
BRANCH  11  15
HETATM   15  O4  UNL     1     -19.694 -29.269   2.102  1.00  0.00    -0.392 OA
ATOM     16  H4  UNL     1     -19.568 -29.357   3.039  1.00  0.00     0.210 HD
ENDBRANCH  11  15
BRANCH  10  17
HETATM   17  O3  UNL     1     -21.181 -30.942   3.762  1.00  0.00    -0.390 OA
ATOM     18  H3  UNL     1     -20.556 -31.509   3.327  1.00  0.00     0.210 HD
ENDBRANCH  10  17
BRANCH   9  19
HETATM   19  O2  UNL     1     -23.837 -31.304   3.325  1.00  0.00    -0.387 OA
ATOM     20  H2  UNL     1     -23.838 -30.865   4.168  1.00  0.00     0.210 HD
ENDBRANCH   9  19
TORSDOF 5
ENDMDL
