MODEL 5
REMARK VINA RESULT: -6.021421652      1.758      3.215
REMARK  5 active torsions:
REMARK  status: ('A' for Active; 'I' for Inactive)
REMARK    1  A    between atoms: O1_1  and  C1_3 
REMARK    2  A    between atoms: C1_3  and  C2_4 
REMARK    3  A    between atoms: C6_12  and  O2_13 
REMARK    4  A    between atoms: C7_15  and  O3_16 
REMARK    5  A    between atoms: C8_18  and  O4_19 
ROOT
HETATM    1  C2  UNL     1     -20.740 -29.504  -5.876  1.00  0.00     0.092 C 
HETATM    2  C3  UNL     1     -20.399 -29.491  -4.449  1.00  0.00     0.044 A 
HETATM    3  N1  UNL     1     -20.997 -28.877  -3.383  1.00  0.00    -0.354 N 
ATOM      4  H1  UNL     1     -21.831 -28.293  -3.437  1.00  0.00     0.166 HD
HETATM    5  C4  UNL     1     -20.325 -29.154  -2.259  1.00  0.00     0.181 A 
HETATM    6  N2  UNL     1     -19.302 -29.947  -2.628  1.00  0.00    -0.352 N 
ATOM      7  H2  UNL     1     -18.606 -30.326  -1.986  1.00  0.00     0.166 HD
HETATM    8  C5  UNL     1     -19.317 -30.169  -3.935  1.00  0.00     0.065 A 
HETATM    9  C6  UNL     1     -18.476 -30.933  -4.881  1.00  0.00     0.201 C 
HETATM   10  C7  UNL     1     -18.316 -30.006  -6.094  1.00  0.00     0.182 C 
HETATM   11  C8  UNL     1     -19.653 -29.974  -6.770  1.00  0.00     0.161 C 
ENDROOT
BRANCH   1  12
HETATM   12  C1  UNL     1     -21.980 -30.351  -6.157  1.00  0.00     0.177 C 
BRANCH  12  13
HETATM   13  O1  UNL     1     -23.037 -29.935  -5.329  1.00  0.00    -0.400 OA
ATOM     14  H1  UNL     1     -23.340 -30.666  -4.802  1.00  0.00     0.209 HD
ENDBRANCH  12  13
ENDBRANCH   1  12
BRANCH  11  15
HETATM   15  O4  UNL     1     -19.592 -29.211  -7.959  1.00  0.00    -0.392 OA
ATOM     16  H4  UNL     1     -19.046 -28.441  -7.852  1.00  0.00     0.210 HD
ENDBRANCH  11  15
BRANCH  10  17
HETATM   17  O3  UNL     1     -17.288 -30.374  -6.909  1.00  0.00    -0.390 OA
ATOM     18  H3  UNL     1     -16.607 -30.849  -6.450  1.00  0.00     0.210 HD
ENDBRANCH  10  17
BRANCH   9  19
HETATM   19  O2  UNL     1     -17.259 -31.306  -4.358  1.00  0.00    -0.387 OA
ATOM     20  H2  UNL     1     -16.635 -30.592  -4.302  1.00  0.00     0.210 HD
ENDBRANCH   9  19
TORSDOF 5
ENDMDL
