MODEL 9
REMARK VINA RESULT: -5.790843728      2.827      4.756
REMARK  5 active torsions:
REMARK  status: ('A' for Active; 'I' for Inactive)
REMARK    1  A    between atoms: O1_1  and  C1_3 
REMARK    2  A    between atoms: C1_3  and  C2_4 
REMARK    3  A    between atoms: C6_12  and  O2_13 
REMARK    4  A    between atoms: C7_15  and  O3_16 
REMARK    5  A    between atoms: C8_18  and  O4_19 
ROOT
HETATM    1  C2  UNL     1     -32.629 -16.086 -21.765  1.00  0.00     0.092 C 
HETATM    2  C3  UNL     1     -31.671 -15.346 -20.934  1.00  0.00     0.044 A 
HETATM    3  N1  UNL     1     -31.695 -14.067 -20.450  1.00  0.00    -0.354 N 
ATOM      4  H1  UNL     1     -32.442 -13.393 -20.613  1.00  0.00     0.166 HD
HETATM    5  C4  UNL     1     -30.591 -13.831 -19.730  1.00  0.00     0.181 A 
HETATM    6  N2  UNL     1     -29.875 -14.969 -19.767  1.00  0.00    -0.352 N 
ATOM      7  H2  UNL     1     -28.975 -15.100 -19.307  1.00  0.00     0.166 HD
HETATM    8  C5  UNL     1     -30.496 -15.900 -20.481  1.00  0.00     0.065 A 
HETATM    9  C6  UNL     1     -30.206 -17.299 -20.862  1.00  0.00     0.201 C 
HETATM   10  C7  UNL     1     -30.592 -17.384 -22.345  1.00  0.00     0.182 C 
HETATM   11  C8  UNL     1     -32.088 -17.318 -22.389  1.00  0.00     0.161 C 
ENDROOT
BRANCH   1  12
HETATM   12  C1  UNL     1     -33.885 -16.466 -20.982  1.00  0.00     0.177 C 
BRANCH  12  13
HETATM   13  O1  UNL     1     -34.840 -17.014 -21.856  1.00  0.00    -0.400 OA
ATOM     14  H1  UNL     1     -34.805 -17.963 -21.816  1.00  0.00     0.209 HD
ENDBRANCH  12  13
ENDBRANCH   1  12
BRANCH  11  15
HETATM   15  O4  UNL     1     -32.555 -17.477 -23.714  1.00  0.00    -0.392 OA
ATOM     16  H4  UNL     1     -33.390 -17.930 -23.738  1.00  0.00     0.210 HD
ENDBRANCH  11  15
BRANCH  10  17
HETATM   17  O3  UNL     1     -30.064 -18.475 -22.967  1.00  0.00    -0.390 OA
ATOM     18  H3  UNL     1     -30.715 -18.983 -23.436  1.00  0.00     0.210 HD
ENDBRANCH  10  17
BRANCH   9  19
HETATM   19  O2  UNL     1     -28.897 -17.666 -20.652  1.00  0.00    -0.387 OA
ATOM     20  H2  UNL     1     -28.676 -18.514 -21.019  1.00  0.00     0.210 HD
ENDBRANCH   9  19
TORSDOF 5
ENDMDL
