MODEL 11
REMARK VINA RESULT: -5.547062241      3.858      5.571
REMARK  5 active torsions:
REMARK  status: ('A' for Active; 'I' for Inactive)
REMARK    1  A    between atoms: O1_1  and  C1_3 
REMARK    2  A    between atoms: C1_3  and  C2_4 
REMARK    3  A    between atoms: C6_12  and  O2_13 
REMARK    4  A    between atoms: C7_15  and  O3_16 
REMARK    5  A    between atoms: C8_18  and  O4_19 
ROOT
HETATM    1  C2  UNL     1     -34.374 -15.657 -22.487  1.00  0.00     0.092 C 
HETATM    2  C3  UNL     1     -33.520 -14.956 -21.521  1.00  0.00     0.044 A 
HETATM    3  N1  UNL     1     -33.504 -13.652 -21.109  1.00  0.00    -0.354 N 
ATOM      4  H1  UNL     1     -34.135 -12.925 -21.444  1.00  0.00     0.166 HD
HETATM    5  C4  UNL     1     -32.537 -13.471 -20.201  1.00  0.00     0.181 A 
HETATM    6  N2  UNL     1     -31.947 -14.671 -20.047  1.00  0.00    -0.352 N 
ATOM      7  H2  UNL     1     -31.167 -14.853 -19.416  1.00  0.00     0.166 HD
HETATM    8  C5  UNL     1     -32.513 -15.584 -20.824  1.00  0.00     0.065 A 
HETATM    9  C6  UNL     1     -32.300 -17.026 -21.079  1.00  0.00     0.201 C 
HETATM   10  C7  UNL     1     -32.407 -17.169 -22.603  1.00  0.00     0.182 C 
HETATM   11  C8  UNL     1     -33.854 -16.971 -22.938  1.00  0.00     0.161 C 
ENDROOT
BRANCH   1  12
HETATM   12  C1  UNL     1     -35.788 -15.871 -21.946  1.00  0.00     0.177 C 
BRANCH  12  13
HETATM   13  O1  UNL     1     -36.306 -14.652 -21.478  1.00  0.00    -0.400 OA
ATOM     14  H1  UNL     1     -36.176 -14.586 -20.539  1.00  0.00     0.209 HD
ENDBRANCH  12  13
ENDBRANCH   1  12
BRANCH  11  15
HETATM   15  O4  UNL     1     -34.077 -17.171 -24.320  1.00  0.00    -0.392 OA
ATOM     16  H4  UNL     1     -33.312 -17.538 -24.748  1.00  0.00     0.210 HD
ENDBRANCH  11  15
BRANCH  10  17
HETATM   17  O3  UNL     1     -31.885 -18.342 -23.061  1.00  0.00    -0.390 OA
ATOM     18  H3  UNL     1     -31.529 -18.269 -23.939  1.00  0.00     0.210 HD
ENDBRANCH  10  17
BRANCH   9  19
HETATM   19  O2  UNL     1     -31.098 -17.496 -20.603  1.00  0.00    -0.387 OA
ATOM     20  H2  UNL     1     -30.837 -18.326 -20.984  1.00  0.00     0.210 HD
ENDBRANCH   9  19
TORSDOF 5
ENDMDL
