MODEL 10
REMARK VINA RESULT: -5.767811398      2.626      3.603
REMARK  5 active torsions:
REMARK  status: ('A' for Active; 'I' for Inactive)
REMARK    1  A    between atoms: O1_1  and  C1_3 
REMARK    2  A    between atoms: C1_3  and  C2_4 
REMARK    3  A    between atoms: C6_12  and  O2_13 
REMARK    4  A    between atoms: C7_15  and  O3_16 
REMARK    5  A    between atoms: C8_18  and  O4_19 
ROOT
HETATM    1  C2  UNL     1     -32.194 -17.073 -21.811  1.00  0.00     0.092 C 
HETATM    2  C3  UNL     1     -33.066 -15.894 -21.746  1.00  0.00     0.044 A 
HETATM    3  N1  UNL     1     -34.238 -15.601 -22.387  1.00  0.00    -0.354 N 
ATOM      4  H1  UNL     1     -34.708 -16.212 -23.055  1.00  0.00     0.166 HD
HETATM    5  C4  UNL     1     -34.677 -14.395 -22.008  1.00  0.00     0.181 A 
HETATM    6  N2  UNL     1     -33.771 -13.933 -21.127  1.00  0.00    -0.352 N 
ATOM      7  H2  UNL     1     -33.831 -13.029 -20.659  1.00  0.00     0.166 HD
HETATM    8  C5  UNL     1     -32.791 -14.809 -20.946  1.00  0.00     0.065 A 
HETATM    9  C6  UNL     1     -31.560 -14.854 -20.128  1.00  0.00     0.201 C 
HETATM   10  C7  UNL     1     -30.490 -15.424 -21.070  1.00  0.00     0.182 C 
HETATM   11  C8  UNL     1     -30.832 -16.870 -21.259  1.00  0.00     0.161 C 
ENDROOT
BRANCH   1  12
HETATM   12  C1  UNL     1     -32.814 -18.278 -21.105  1.00  0.00     0.177 C 
BRANCH  12  13
HETATM   13  O1  UNL     1     -32.007 -18.658 -20.019  1.00  0.00    -0.400 OA
ATOM     14  H1  UNL     1     -31.935 -17.937 -19.404  1.00  0.00     0.209 HD
ENDBRANCH  12  13
ENDBRANCH   1  12
BRANCH  11  15
HETATM   15  O4  UNL     1     -29.851 -17.515 -22.047  1.00  0.00    -0.392 OA
ATOM     16  H4  UNL     1     -29.889 -17.232 -22.953  1.00  0.00     0.210 HD
ENDBRANCH  11  15
BRANCH  10  17
HETATM   17  O3  UNL     1     -29.222 -15.204 -20.623  1.00  0.00    -0.390 OA
ATOM     18  H3  UNL     1     -28.663 -15.966 -20.714  1.00  0.00     0.210 HD
ENDBRANCH  10  17
BRANCH   9  19
HETATM   19  O2  UNL     1     -31.194 -13.631 -19.617  1.00  0.00    -0.387 OA
ATOM     20  H2  UNL     1     -30.854 -13.032 -20.272  1.00  0.00     0.210 HD
ENDBRANCH   9  19
TORSDOF 5
ENDMDL
