MODEL 5
REMARK VINA RESULT: -6.182205505      1.635      2.463
REMARK  5 active torsions:
REMARK  status: ('A' for Active; 'I' for Inactive)
REMARK    1  A    between atoms: O1_1  and  C1_3 
REMARK    2  A    between atoms: C1_3  and  C2_4 
REMARK    3  A    between atoms: C6_12  and  O2_13 
REMARK    4  A    between atoms: C7_15  and  O3_16 
REMARK    5  A    between atoms: C8_18  and  O4_19 
ROOT
HETATM    1  C2  UNL     1     -28.982 -14.170 -19.389  1.00  0.00     0.092 C 
HETATM    2  C3  UNL     1     -30.305 -14.514 -19.926  1.00  0.00     0.044 A 
HETATM    3  N1  UNL     1     -30.673 -15.235 -21.027  1.00  0.00    -0.354 N 
ATOM      4  H1  UNL     1     -30.027 -15.671 -21.684  1.00  0.00     0.166 HD
HETATM    5  C4  UNL     1     -32.008 -15.285 -21.116  1.00  0.00     0.181 A 
HETATM    6  N2  UNL     1     -32.474 -14.589 -20.063  1.00  0.00    -0.352 N 
ATOM      7  H2  UNL     1     -33.462 -14.446 -19.857  1.00  0.00     0.166 HD
HETATM    8  C5  UNL     1     -31.478 -14.112 -19.328  1.00  0.00     0.065 A 
HETATM    9  C6  UNL     1     -31.375 -13.301 -18.095  1.00  0.00     0.201 C 
HETATM   10  C7  UNL     1     -30.260 -12.289 -18.390  1.00  0.00     0.182 C 
HETATM   11  C8  UNL     1     -28.981 -13.070 -18.394  1.00  0.00     0.161 C 
ENDROOT
BRANCH   1  12
HETATM   12  C1  UNL     1     -28.294 -15.379 -18.756  1.00  0.00     0.177 C 
BRANCH  12  13
HETATM   13  O1  UNL     1     -28.229 -16.430 -19.687  1.00  0.00    -0.400 OA
ATOM     14  H1  UNL     1     -27.380 -16.428 -20.115  1.00  0.00     0.209 HD
ENDBRANCH  12  13
ENDBRANCH   1  12
BRANCH  11  15
HETATM   15  O4  UNL     1     -27.873 -12.210 -18.572  1.00  0.00    -0.392 OA
ATOM     16  H4  UNL     1     -28.132 -11.297 -18.550  1.00  0.00     0.210 HD
ENDBRANCH  11  15
BRANCH  10  17
HETATM   17  O3  UNL     1     -30.264 -11.232 -17.530  1.00  0.00    -0.390 OA
ATOM     18  H3  UNL     1     -31.035 -10.685 -17.622  1.00  0.00     0.210 HD
ENDBRANCH  10  17
BRANCH   9  19
HETATM   19  O2  UNL     1     -32.552 -12.679 -17.748  1.00  0.00    -0.387 OA
ATOM     20  H2  UNL     1     -32.890 -12.100 -18.421  1.00  0.00     0.210 HD
ENDBRANCH   9  19
TORSDOF 5
ENDMDL
