MODEL 7
REMARK VINA RESULT: -6.514965378      2.565      6.648
REMARK  8 active torsions:
REMARK  status: ('A' for Active; 'I' for Inactive)
REMARK    1  A    between atoms: C2_2  and  N1_3 
REMARK    2  A    between atoms: C2_2  and  C9_18 
REMARK    3  A    between atoms: N1_3  and  C3_6 
REMARK    4  A    between atoms: C3_6  and  C4_7 
REMARK    5  A    between atoms: C3_6  and  C8_15 
REMARK    6  A    between atoms: C4_7  and  C5_8 
REMARK    7  A    between atoms: C5_8  and  C6_9 
REMARK    8  A    between atoms: C6_9  and  N2_10 
ROOT
HETATM    1  C3  UNL     1       4.346  20.542 -11.033  1.00  0.00     0.286 C 
ENDROOT
BRANCH   1   2
HETATM    2  N1  UNL     1       4.449  20.482  -9.603  1.00  0.00    -0.047 N 
ATOM      3  H12 UNL     1       4.503  21.422  -9.209  1.00  0.00     0.279 HD
ATOM      4  H11 UNL     1       5.364  20.126  -9.326  1.00  0.00     0.279 HD
BRANCH   2   5
HETATM    5  C2  UNL     1       3.408  19.734  -8.974  1.00  0.00     0.282 C 
HETATM    6  C1  UNL     1       3.579  19.575  -7.476  1.00  0.00     0.052 C 
BRANCH   5   7
HETATM    7  C9  UNL     1       3.170  18.396  -9.585  1.00  0.00     0.204 C 
HETATM    8  O3  UNL     1       3.964  17.451  -9.586  1.00  0.00    -0.646 OA
HETATM    9  O4  UNL     1       1.938  18.214 -10.205  1.00  0.00    -0.646 OA
ENDBRANCH   5   7
ENDBRANCH   2   5
ENDBRANCH   1   2
BRANCH   1  10
HETATM   10  C4  UNL     1       4.257  21.977 -11.473  1.00  0.00     0.046 C 
BRANCH  10  11
HETATM   11  C5  UNL     1       4.192  22.205 -12.941  1.00  0.00     0.022 C 
BRANCH  11  12
HETATM   12  C6  UNL     1       3.041  21.337 -13.463  1.00  0.00     0.122 C 
BRANCH  12  13
HETATM   13  N2  UNL     1       3.552  20.315 -14.340  1.00  0.00    -0.367 N 
HETATM   14  C7  UNL     1       2.919  19.902 -15.374  1.00  0.00     0.196 C 
HETATM   15  N3  UNL     1       3.446  18.893 -16.222  1.00  0.00    -0.067 NA
HETATM   16  N4  UNL     1       1.641  20.469 -15.694  1.00  0.00    -0.067 NA
ATOM     17  H2  UNL     1       4.461  19.902 -14.128  1.00  0.00     0.161 HD
ENDBRANCH  12  13
ENDBRANCH  11  12
ENDBRANCH  10  11
ENDBRANCH   1  10
BRANCH   1  18
HETATM   18  C8  UNL     1       5.569  19.980 -11.646  1.00  0.00     0.204 C 
HETATM   19  O1  UNL     1       5.489  18.980 -12.380  1.00  0.00    -0.646 OA
HETATM   20  O2  UNL     1       6.798  20.554 -11.412  1.00  0.00    -0.646 OA
ENDBRANCH   1  18
TORSDOF 8
ENDMDL
