MODEL 5
REMARK VINA RESULT: -7.211313212      2.986      7.263
REMARK  8 active torsions:
REMARK  status: ('A' for Active; 'I' for Inactive)
REMARK    1  A    between atoms: C2_2  and  N1_3 
REMARK    2  A    between atoms: C2_2  and  C9_18 
REMARK    3  A    between atoms: N1_3  and  C3_6 
REMARK    4  A    between atoms: C3_6  and  C4_7 
REMARK    5  A    between atoms: C3_6  and  C8_15 
REMARK    6  A    between atoms: C4_7  and  C5_8 
REMARK    7  A    between atoms: C5_8  and  C6_9 
REMARK    8  A    between atoms: C6_9  and  N2_10 
ROOT
HETATM    1  C3  UNL     1       4.549  19.696 -11.465  1.00  0.00     0.286 C 
ENDROOT
BRANCH   1   2
HETATM    2  N1  UNL     1       3.350  20.132 -10.808  1.00  0.00    -0.047 N 
ATOM      3  H12 UNL     1       2.562  20.118 -11.455  1.00  0.00     0.279 HD
ATOM      4  H11 UNL     1       3.394  21.131 -10.610  1.00  0.00     0.279 HD
BRANCH   2   5
HETATM    5  C2  UNL     1       3.036  19.400  -9.621  1.00  0.00     0.282 C 
HETATM    6  C1  UNL     1       4.048  19.567  -8.506  1.00  0.00     0.052 C 
BRANCH   5   7
HETATM    7  C9  UNL     1       2.796  17.948  -9.853  1.00  0.00     0.204 C 
HETATM    8  O3  UNL     1       1.756  17.448 -10.291  1.00  0.00    -0.646 OA
HETATM    9  O4  UNL     1       3.849  17.093  -9.541  1.00  0.00    -0.646 OA
ENDBRANCH   5   7
ENDBRANCH   2   5
ENDBRANCH   1   2
BRANCH   1  10
HETATM   10  C4  UNL     1       4.255  19.410 -12.912  1.00  0.00     0.046 C 
BRANCH  10  11
HETATM   11  C5  UNL     1       3.625  20.517 -13.678  1.00  0.00     0.022 C 
BRANCH  11  12
HETATM   12  C6  UNL     1       3.805  20.174 -15.162  1.00  0.00     0.122 C 
BRANCH  12  13
HETATM   13  N2  UNL     1       2.519  20.056 -15.800  1.00  0.00    -0.367 N 
HETATM   14  C7  UNL     1       2.152  19.012 -16.444  1.00  0.00     0.196 C 
HETATM   15  N3  UNL     1       0.879  18.921 -17.064  1.00  0.00    -0.067 NA
HETATM   16  N4  UNL     1       3.046  17.895 -16.546  1.00  0.00    -0.067 NA
ATOM     17  H2  UNL     1       1.870  20.841 -15.736  1.00  0.00     0.161 HD
ENDBRANCH  12  13
ENDBRANCH  11  12
ENDBRANCH  10  11
ENDBRANCH   1  10
BRANCH   1  18
HETATM   18  C8  UNL     1       5.555  20.779 -11.438  1.00  0.00     0.204 C 
HETATM   19  O1  UNL     1       6.766  20.498 -11.447  1.00  0.00    -0.646 OA
HETATM   20  O2  UNL     1       5.164  22.099 -11.402  1.00  0.00    -0.646 OA
ENDBRANCH   1  18
TORSDOF 8
ENDMDL
