MODEL 6
REMARK VINA RESULT: -6.688274042      3.442      7.392
REMARK  8 active torsions:
REMARK  status: ('A' for Active; 'I' for Inactive)
REMARK    1  A    between atoms: C2_2  and  N1_3 
REMARK    2  A    between atoms: C2_2  and  C9_18 
REMARK    3  A    between atoms: N1_3  and  C3_6 
REMARK    4  A    between atoms: C3_6  and  C4_7 
REMARK    5  A    between atoms: C3_6  and  C8_15 
REMARK    6  A    between atoms: C4_7  and  C5_8 
REMARK    7  A    between atoms: C5_8  and  C6_9 
REMARK    8  A    between atoms: C6_9  and  N2_10 
ROOT
HETATM    1  C3  UNL     1       4.230  20.042 -11.634  1.00  0.00     0.286 C 
ENDROOT
BRANCH   1   2
HETATM    2  N1  UNL     1       3.435  20.115 -10.442  1.00  0.00    -0.047 N 
ATOM      3  H12 UNL     1       2.444  20.014 -10.665  1.00  0.00     0.279 HD
ATOM      4  H11 UNL     1       3.433  21.065 -10.071  1.00  0.00     0.279 HD
BRANCH   2   5
HETATM    5  C2  UNL     1       3.816  19.182  -9.429  1.00  0.00     0.282 C 
HETATM    6  C1  UNL     1       2.712  18.229  -9.019  1.00  0.00     0.052 C 
BRANCH   5   7
HETATM    7  C9  UNL     1       4.395  19.816  -8.211  1.00  0.00     0.204 C 
HETATM    8  O3  UNL     1       5.380  19.413  -7.586  1.00  0.00    -0.646 OA
HETATM    9  O4  UNL     1       3.754  20.962  -7.752  1.00  0.00    -0.646 OA
ENDBRANCH   5   7
ENDBRANCH   2   5
ENDBRANCH   1   2
BRANCH   1  10
HETATM   10  C4  UNL     1       3.448  20.592 -12.796  1.00  0.00     0.046 C 
BRANCH  10  11
HETATM   11  C5  UNL     1       4.060  20.404 -14.138  1.00  0.00     0.022 C 
BRANCH  11  12
HETATM   12  C6  UNL     1       2.899  20.340 -15.137  1.00  0.00     0.122 C 
BRANCH  12  13
HETATM   13  N2  UNL     1       3.164  19.338 -16.138  1.00  0.00    -0.367 N 
HETATM   14  C7  UNL     1       2.238  18.728 -16.777  1.00  0.00     0.196 C 
HETATM   15  N3  UNL     1       2.526  17.744 -17.759  1.00  0.00    -0.067 NA
HETATM   16  N4  UNL     1       0.865  19.040 -16.503  1.00  0.00    -0.067 NA
ATOM     17  H2  UNL     1       4.135  19.105 -16.347  1.00  0.00     0.161 HD
ENDBRANCH  12  13
ENDBRANCH  11  12
ENDBRANCH  10  11
ENDBRANCH   1  10
BRANCH   1  18
HETATM   18  C8  UNL     1       5.431  20.891 -11.485  1.00  0.00     0.204 C 
HETATM   19  O1  UNL     1       6.554  20.364 -11.402  1.00  0.00    -0.646 OA
HETATM   20  O2  UNL     1       5.319  22.263 -11.437  1.00  0.00    -0.646 OA
ENDBRANCH   1  18
TORSDOF 8
ENDMDL
