MODEL 4
REMARK VINA RESULT: -7.377385104      1.314      1.557
REMARK  8 active torsions:
REMARK  status: ('A' for Active; 'I' for Inactive)
REMARK    1  A    between atoms: C2_2  and  N1_3 
REMARK    2  A    between atoms: C2_2  and  C9_18 
REMARK    3  A    between atoms: N1_3  and  C3_6 
REMARK    4  A    between atoms: C3_6  and  C4_7 
REMARK    5  A    between atoms: C3_6  and  C8_15 
REMARK    6  A    between atoms: C4_7  and  C5_8 
REMARK    7  A    between atoms: C5_8  and  C6_9 
REMARK    8  A    between atoms: C6_9  and  N2_10 
ROOT
HETATM    1  C3  UNL     1       3.630  18.897 -10.039  1.00  0.00     0.286 C 
ENDROOT
BRANCH   1   2
HETATM    2  N1  UNL     1       3.374  20.159 -10.673  1.00  0.00    -0.047 N 
ATOM      3  H12 UNL     1       3.370  20.911  -9.984  1.00  0.00     0.279 HD
ATOM      4  H11 UNL     1       2.406  20.210 -10.990  1.00  0.00     0.279 HD
BRANCH   2   5
HETATM    5  C2  UNL     1       4.269  20.465 -11.744  1.00  0.00     0.282 C 
HETATM    6  C1  UNL     1       4.438  21.949 -12.002  1.00  0.00     0.052 C 
BRANCH   5   7
HETATM    7  C9  UNL     1       3.938  19.778 -13.024  1.00  0.00     0.204 C 
HETATM    8  O3  UNL     1       3.693  20.332 -14.099  1.00  0.00    -0.646 OA
HETATM    9  O4  UNL     1       3.906  18.388 -12.984  1.00  0.00    -0.646 OA
ENDBRANCH   5   7
ENDBRANCH   2   5
ENDBRANCH   1   2
BRANCH   1  10
HETATM   10  C4  UNL     1       4.272  19.127  -8.698  1.00  0.00     0.046 C 
BRANCH  10  11
HETATM   11  C5  UNL     1       4.187  20.514  -8.167  1.00  0.00     0.022 C 
BRANCH  11  12
HETATM   12  C6  UNL     1       3.606  20.401  -6.753  1.00  0.00     0.122 C 
BRANCH  12  13
HETATM   13  N2  UNL     1       3.236  21.706  -6.266  1.00  0.00    -0.367 N 
HETATM   14  C7  UNL     1       3.515  22.114  -5.085  1.00  0.00     0.196 C 
HETATM   15  N3  UNL     1       3.139  23.405  -4.629  1.00  0.00    -0.067 NA
HETATM   16  N4  UNL     1       4.228  21.252  -4.188  1.00  0.00    -0.067 NA
ATOM     17  H2  UNL     1       2.730  22.333  -6.891  1.00  0.00     0.161 HD
ENDBRANCH  12  13
ENDBRANCH  11  12
ENDBRANCH  10  11
ENDBRANCH   1  10
BRANCH   1  18
HETATM   18  C8  UNL     1       2.352  18.197  -9.788  1.00  0.00     0.204 C 
HETATM   19  O1  UNL     1       1.276  18.770 -10.031  1.00  0.00    -0.646 OA
HETATM   20  O2  UNL     1       2.341  16.914  -9.288  1.00  0.00    -0.646 OA
ENDBRANCH   1  18
TORSDOF 8
ENDMDL
