MODEL 1
REMARK VINA RESULT: -7.946688472      0.000      0.000
REMARK  8 active torsions:
REMARK  status: ('A' for Active; 'I' for Inactive)
REMARK    1  A    between atoms: C2_2  and  N1_3 
REMARK    2  A    between atoms: C2_2  and  C9_18 
REMARK    3  A    between atoms: N1_3  and  C3_6 
REMARK    4  A    between atoms: C3_6  and  C4_7 
REMARK    5  A    between atoms: C3_6  and  C8_15 
REMARK    6  A    between atoms: C4_7  and  C5_8 
REMARK    7  A    between atoms: C5_8  and  C6_9 
REMARK    8  A    between atoms: C6_9  and  N2_10 
ROOT
HETATM    1  C3  UNL     1       3.616  18.841 -10.063  1.00  0.00     0.286 C 
ENDROOT
BRANCH   1   2
HETATM    2  N1  UNL     1       3.303  20.093 -10.692  1.00  0.00    -0.047 N 
ATOM      3  H12 UNL     1       3.390  20.860 -10.024  1.00  0.00     0.279 HD
ATOM      4  H11 UNL     1       2.305  20.152 -10.894  1.00  0.00     0.279 HD
BRANCH   2   5
HETATM    5  C2  UNL     1       4.069  20.363 -11.867  1.00  0.00     0.282 C 
HETATM    6  C1  UNL     1       4.453  19.125 -12.652  1.00  0.00     0.052 C 
BRANCH   5   7
HETATM    7  C9  UNL     1       5.286  21.185 -11.620  1.00  0.00     0.204 C 
HETATM    8  O3  UNL     1       5.319  22.415 -11.518  1.00  0.00    -0.646 OA
HETATM    9  O4  UNL     1       6.484  20.488 -11.495  1.00  0.00    -0.646 OA
ENDBRANCH   5   7
ENDBRANCH   2   5
ENDBRANCH   1   2
BRANCH   1  10
HETATM   10  C4  UNL     1       4.292  19.094  -8.744  1.00  0.00     0.046 C 
BRANCH  10  11
HETATM   11  C5  UNL     1       4.188  20.481  -8.216  1.00  0.00     0.022 C 
BRANCH  11  12
HETATM   12  C6  UNL     1       3.594  20.363  -6.808  1.00  0.00     0.122 C 
BRANCH  12  13
HETATM   13  N2  UNL     1       3.230  21.668  -6.316  1.00  0.00    -0.367 N 
HETATM   14  C7  UNL     1       3.504  22.069  -5.132  1.00  0.00     0.196 C 
HETATM   15  N3  UNL     1       3.134  23.360  -4.671  1.00  0.00    -0.067 NA
HETATM   16  N4  UNL     1       4.207  21.197  -4.235  1.00  0.00    -0.067 NA
ATOM     17  H2  UNL     1       2.731  22.302  -6.941  1.00  0.00     0.161 HD
ENDBRANCH  12  13
ENDBRANCH  11  12
ENDBRANCH  10  11
ENDBRANCH   1  10
BRANCH   1  18
HETATM   18  C8  UNL     1       2.368  18.105  -9.771  1.00  0.00     0.204 C 
HETATM   19  O1  UNL     1       1.269  18.614 -10.053  1.00  0.00    -0.646 OA
HETATM   20  O2  UNL     1       2.408  16.858  -9.188  1.00  0.00    -0.646 OA
ENDBRANCH   1  18
TORSDOF 8
ENDMDL
