MODEL 2
REMARK VINA RESULT: -7.751718451      1.064      1.406
REMARK  8 active torsions:
REMARK  status: ('A' for Active; 'I' for Inactive)
REMARK    1  A    between atoms: C2_2  and  N1_3 
REMARK    2  A    between atoms: C2_2  and  C9_18 
REMARK    3  A    between atoms: N1_3  and  C3_6 
REMARK    4  A    between atoms: C3_6  and  C4_7 
REMARK    5  A    between atoms: C3_6  and  C8_15 
REMARK    6  A    between atoms: C4_7  and  C5_8 
REMARK    7  A    between atoms: C5_8  and  C6_9 
REMARK    8  A    between atoms: C6_9  and  N2_10 
ROOT
HETATM    1  C3  UNL     1       3.633  18.815 -10.135  1.00  0.00     0.286 C 
ENDROOT
BRANCH   1   2
HETATM    2  N1  UNL     1       3.471  20.052 -10.844  1.00  0.00    -0.047 N 
ATOM      3  H12 UNL     1       3.560  20.844 -10.206  1.00  0.00     0.279 HD
ATOM      4  H11 UNL     1       2.502  20.173 -11.136  1.00  0.00     0.279 HD
BRANCH   2   5
HETATM    5  C2  UNL     1       4.353  20.206 -11.957  1.00  0.00     0.282 C 
HETATM    6  C1  UNL     1       5.766  20.600 -11.577  1.00  0.00     0.052 C 
BRANCH   5   7
HETATM    7  C9  UNL     1       3.848  21.137 -13.005  1.00  0.00     0.204 C 
HETATM    8  O3  UNL     1       3.125  20.830 -13.957  1.00  0.00    -0.646 OA
HETATM    9  O4  UNL     1       4.236  22.467 -12.883  1.00  0.00    -0.646 OA
ENDBRANCH   5   7
ENDBRANCH   2   5
ENDBRANCH   1   2
BRANCH   1  10
HETATM   10  C4  UNL     1       4.248  19.081  -8.789  1.00  0.00     0.046 C 
BRANCH  10  11
HETATM   11  C5  UNL     1       4.118  20.472  -8.278  1.00  0.00     0.022 C 
BRANCH  11  12
HETATM   12  C6  UNL     1       3.649  20.356  -6.823  1.00  0.00     0.122 C 
BRANCH  12  13
HETATM   13  N2  UNL     1       3.285  21.655  -6.318  1.00  0.00    -0.367 N 
HETATM   14  C7  UNL     1       3.549  22.039  -5.125  1.00  0.00     0.196 C 
HETATM   15  N3  UNL     1       3.179  23.325  -4.651  1.00  0.00    -0.067 NA
HETATM   16  N4  UNL     1       4.238  21.152  -4.233  1.00  0.00    -0.067 NA
ATOM     17  H2  UNL     1       2.796  22.299  -6.939  1.00  0.00     0.161 HD
ENDBRANCH  12  13
ENDBRANCH  11  12
ENDBRANCH  10  11
ENDBRANCH   1  10
BRANCH   1  18
HETATM   18  C8  UNL     1       2.308  18.206  -9.888  1.00  0.00     0.204 C 
HETATM   19  O1  UNL     1       1.276  18.870 -10.087  1.00  0.00    -0.646 OA
HETATM   20  O2  UNL     1       2.204  16.909  -9.439  1.00  0.00    -0.646 OA
ENDBRANCH   1  18
TORSDOF 8
ENDMDL
