MODEL 3
REMARK VINA RESULT: -7.739218428      0.945      1.241
REMARK  8 active torsions:
REMARK  status: ('A' for Active; 'I' for Inactive)
REMARK    1  A    between atoms: C2_2  and  N1_3 
REMARK    2  A    between atoms: C2_2  and  C9_18 
REMARK    3  A    between atoms: N1_3  and  C3_6 
REMARK    4  A    between atoms: C3_6  and  C4_7 
REMARK    5  A    between atoms: C3_6  and  C8_15 
REMARK    6  A    between atoms: C4_7  and  C5_8 
REMARK    7  A    between atoms: C5_8  and  C6_9 
REMARK    8  A    between atoms: C6_9  and  N2_10 
ROOT
HETATM    1  C3  UNL     1       3.653  18.969 -10.094  1.00  0.00     0.286 C 
ENDROOT
BRANCH   1   2
HETATM    2  N1  UNL     1       3.410  20.210 -10.774  1.00  0.00    -0.047 N 
ATOM      3  H12 UNL     1       2.687  20.746 -10.292  1.00  0.00     0.279 HD
ATOM      4  H11 UNL     1       2.939  20.044 -11.663  1.00  0.00     0.279 HD
BRANCH   2   5
HETATM    5  C2  UNL     1       4.579  21.007 -10.967  1.00  0.00     0.282 C 
HETATM    6  C1  UNL     1       4.320  22.322 -11.676  1.00  0.00     0.052 C 
BRANCH   5   7
HETATM    7  C9  UNL     1       5.693  20.292 -11.651  1.00  0.00     0.204 C 
HETATM    8  O3  UNL     1       6.896  20.431 -11.413  1.00  0.00    -0.646 OA
HETATM    9  O4  UNL     1       5.325  19.391 -12.645  1.00  0.00    -0.646 OA
ENDBRANCH   5   7
ENDBRANCH   2   5
ENDBRANCH   1   2
BRANCH   1  10
HETATM   10  C4  UNL     1       4.207  19.245  -8.724  1.00  0.00     0.046 C 
BRANCH  10  11
HETATM   11  C5  UNL     1       3.275  19.896  -7.764  1.00  0.00     0.022 C 
BRANCH  11  12
HETATM   12  C6  UNL     1       4.148  20.519  -6.668  1.00  0.00     0.122 C 
BRANCH  12  13
HETATM   13  N2  UNL     1       3.578  21.769  -6.235  1.00  0.00    -0.367 N 
HETATM   14  C7  UNL     1       3.589  22.155  -5.015  1.00  0.00     0.196 C 
HETATM   15  N3  UNL     1       3.019  23.392  -4.614  1.00  0.00    -0.067 NA
HETATM   16  N4  UNL     1       4.192  21.322  -4.015  1.00  0.00    -0.067 NA
ATOM     17  H2  UNL     1       3.145  22.374  -6.933  1.00  0.00     0.161 HD
ENDBRANCH  12  13
ENDBRANCH  11  12
ENDBRANCH  10  11
ENDBRANCH   1  10
BRANCH   1  18
HETATM   18  C8  UNL     1       2.377  18.247  -9.903  1.00  0.00     0.204 C 
HETATM   19  O1  UNL     1       1.302  18.813 -10.167  1.00  0.00    -0.646 OA
HETATM   20  O2  UNL     1       2.366  16.953  -9.435  1.00  0.00    -0.646 OA
ENDBRANCH   1  18
TORSDOF 8
ENDMDL
