MODEL 4
REMARK VINA RESULT: -7.605014099      1.395      1.879
REMARK  6 active torsions:
REMARK  status: ('A' for Active; 'I' for Inactive)
REMARK    1  A    between atoms: C2_2  and  N1_3 
REMARK    2  A    between atoms: C2_2  and  C9_18 
REMARK    3  A    between atoms: N1_3  and  C3_6 
REMARK    4  A    between atoms: C3_6  and  C4_7 
REMARK    5  A    between atoms: C3_6  and  C8_15 
REMARK    6  A    between atoms: C4_7  and  C5_8 
ROOT
HETATM    1  C3  UNL     1      18.100  -5.927  -2.203  1.00  0.00     0.292 C 
ENDROOT
BRANCH   1   2
HETATM    2  N1  UNL     1      19.099  -6.841  -1.713  1.00  0.00    -0.047 N 
ATOM      3  H12 UNL     1      19.805  -7.059  -2.416  1.00  0.00     0.279 HD
ATOM      4  H11 UNL     1      18.733  -7.784  -1.583  1.00  0.00     0.279 HD
BRANCH   2   5
HETATM    5  C2  UNL     1      19.676  -6.300  -0.498  1.00  0.00     0.282 C 
HETATM    6  C1  UNL     1      21.190  -6.247  -0.561  1.00  0.00     0.052 C 
BRANCH   5   7
HETATM    7  C9  UNL     1      19.241  -7.117   0.658  1.00  0.00     0.204 C 
HETATM    8  O3  UNL     1      18.159  -7.761   0.658  1.00  0.00    -0.646 OA
HETATM    9  O4  UNL     1      20.026  -7.200   1.801  1.00  0.00    -0.646 OA
ENDBRANCH   5   7
ENDBRANCH   2   5
ENDBRANCH   1   2
BRANCH   1  10
HETATM   10  C4  UNL     1      18.651  -5.193  -3.402  1.00  0.00     0.102 C 
BRANCH  10  11
HETATM   11  C5  UNL     1      19.260  -6.083  -4.395  1.00  0.00     0.028 A 
HETATM   12  C6  UNL     1      20.046  -7.185  -4.195  1.00  0.00     0.114 A 
HETATM   13  N2  UNL     1      20.389  -7.708  -5.393  1.00  0.00    -0.360 N 
HETATM   14  C7  UNL     1      19.820  -6.940  -6.329  1.00  0.00     0.180 A 
ATOM     15  H2  UNL     1      20.970  -8.530  -5.552  1.00  0.00     0.166 HD
HETATM   16  N3  UNL     1      19.138  -5.959  -5.731  1.00  0.00    -0.355 N 
ATOM     17  H3  UNL     1      18.609  -5.231  -6.210  1.00  0.00     0.166 HD
ENDBRANCH  10  11
ENDBRANCH   1  10
BRANCH   1  18
HETATM   18  C8  UNL     1      16.874  -6.666  -2.529  1.00  0.00     0.205 C 
HETATM   19  O1  UNL     1      15.755  -6.094  -2.687  1.00  0.00    -0.646 OA
HETATM   20  O2  UNL     1      16.909  -8.037  -2.673  1.00  0.00    -0.646 OA
ENDBRANCH   1  18
TORSDOF 6
ENDMDL
