MODEL 2
REMARK VINA RESULT: -7.929306795      1.222      1.614
REMARK  6 active torsions:
REMARK  status: ('A' for Active; 'I' for Inactive)
REMARK    1  A    between atoms: C2_2  and  N1_3 
REMARK    2  A    between atoms: C2_2  and  C9_18 
REMARK    3  A    between atoms: N1_3  and  C3_6 
REMARK    4  A    between atoms: C3_6  and  C4_7 
REMARK    5  A    between atoms: C3_6  and  C8_15 
REMARK    6  A    between atoms: C4_7  and  C5_8 
ROOT
HETATM    1  C3  UNL     1      18.108  -5.955  -2.171  1.00  0.00     0.292 C 
ENDROOT
BRANCH   1   2
HETATM    2  N1  UNL     1      19.092  -6.871  -1.655  1.00  0.00    -0.047 N 
ATOM      3  H12 UNL     1      19.782  -7.137  -2.358  1.00  0.00     0.279 HD
ATOM      4  H11 UNL     1      18.705  -7.798  -1.478  1.00  0.00     0.279 HD
BRANCH   2   5
HETATM    5  C2  UNL     1      19.701  -6.292  -0.474  1.00  0.00     0.282 C 
HETATM    6  C1  UNL     1      21.212  -6.231  -0.583  1.00  0.00     0.052 C 
BRANCH   5   7
HETATM    7  C9  UNL     1      19.305  -7.077   0.717  1.00  0.00     0.204 C 
HETATM    8  O3  UNL     1      20.040  -7.175   1.734  1.00  0.00    -0.646 OA
HETATM    9  O4  UNL     1      18.087  -7.746   0.751  1.00  0.00    -0.646 OA
ENDBRANCH   5   7
ENDBRANCH   2   5
ENDBRANCH   1   2
BRANCH   1  10
HETATM   10  C4  UNL     1      18.685  -5.235  -3.367  1.00  0.00     0.102 C 
BRANCH  10  11
HETATM   11  C5  UNL     1      19.288  -6.140  -4.351  1.00  0.00     0.028 A 
HETATM   12  C6  UNL     1      19.159  -6.137  -5.713  1.00  0.00     0.114 A 
HETATM   13  N2  UNL     1      19.889  -7.150  -6.229  1.00  0.00    -0.360 N 
HETATM   14  C7  UNL     1      20.469  -7.776  -5.197  1.00  0.00     0.180 A 
ATOM     15  H2  UNL     1      19.982  -7.392  -7.215  1.00  0.00     0.166 HD
HETATM   16  N3  UNL     1      20.108  -7.169  -4.063  1.00  0.00    -0.355 N 
ATOM     17  H3  UNL     1      20.406  -7.442  -3.127  1.00  0.00     0.166 HD
ENDBRANCH  10  11
ENDBRANCH   1  10
BRANCH   1  18
HETATM   18  C8  UNL     1      16.883  -6.688  -2.512  1.00  0.00     0.205 C 
HETATM   19  O1  UNL     1      15.764  -6.114  -2.662  1.00  0.00    -0.646 OA
HETATM   20  O2  UNL     1      16.920  -8.057  -2.681  1.00  0.00    -0.646 OA
ENDBRANCH   1  18
TORSDOF 6
ENDMDL
