MODEL 5
REMARK VINA RESULT: -7.554054201      2.443      5.984
REMARK  6 active torsions:
REMARK  status: ('A' for Active; 'I' for Inactive)
REMARK    1  A    between atoms: C2_2  and  N1_3 
REMARK    2  A    between atoms: C2_2  and  C9_18 
REMARK    3  A    between atoms: N1_3  and  C3_6 
REMARK    4  A    between atoms: C3_6  and  C4_7 
REMARK    5  A    between atoms: C3_6  and  C8_15 
REMARK    6  A    between atoms: C4_7  and  C5_8 
ROOT
HETATM    1  C3  UNL     1      18.953  -5.911   0.173  1.00  0.00     0.292 C 
ENDROOT
BRANCH   1   2
HETATM    2  N1  UNL     1      18.121  -5.495  -0.926  1.00  0.00    -0.047 N 
ATOM      3  H12 UNL     1      18.289  -4.526  -1.195  1.00  0.00     0.279 HD
ATOM      4  H11 UNL     1      17.141  -5.402  -0.659  1.00  0.00     0.279 HD
BRANCH   2   5
HETATM    5  C2  UNL     1      18.308  -6.415  -2.031  1.00  0.00     0.282 C 
HETATM    6  C1  UNL     1      18.953  -5.746  -3.228  1.00  0.00     0.052 C 
BRANCH   5   7
HETATM    7  C9  UNL     1      16.999  -6.995  -2.412  1.00  0.00     0.204 C 
HETATM    8  O3  UNL     1      16.859  -8.212  -2.698  1.00  0.00    -0.646 OA
HETATM    9  O4  UNL     1      15.862  -6.198  -2.468  1.00  0.00    -0.646 OA
ENDBRANCH   5   7
ENDBRANCH   2   5
ENDBRANCH   1   2
BRANCH   1  10
HETATM   10  C4  UNL     1      18.720  -7.380   0.438  1.00  0.00     0.102 C 
BRANCH  10  11
HETATM   11  C5  UNL     1      18.013  -7.635   1.697  1.00  0.00     0.028 A 
HETATM   12  C6  UNL     1      16.704  -7.395   2.012  1.00  0.00     0.114 A 
HETATM   13  N2  UNL     1      16.475  -7.785   3.285  1.00  0.00    -0.360 N 
HETATM   14  C7  UNL     1      17.631  -8.266   3.757  1.00  0.00     0.180 A 
ATOM     15  H2  UNL     1      15.591  -7.725   3.789  1.00  0.00     0.166 HD
HETATM   16  N3  UNL     1      18.561  -8.177   2.802  1.00  0.00    -0.355 N 
ATOM     17  H3  UNL     1      19.532  -8.473   2.895  1.00  0.00     0.166 HD
ENDBRANCH  10  11
ENDBRANCH   1  10
BRANCH   1  18
HETATM   18  C8  UNL     1      20.359  -5.627  -0.137  1.00  0.00     0.205 C 
HETATM   19  O1  UNL     1      21.247  -6.530  -0.166  1.00  0.00    -0.646 OA
HETATM   20  O2  UNL     1      20.761  -4.336  -0.410  1.00  0.00    -0.646 OA
ENDBRANCH   1  18
TORSDOF 6
ENDMDL
