MODEL 3
REMARK VINA RESULT: -7.242900260      1.497      1.918
REMARK  8 active torsions:
REMARK  status: ('A' for Active; 'I' for Inactive)
REMARK    1  A    between atoms: C2_2  and  N1_3 
REMARK    2  A    between atoms: C2_2  and  C8_17 
REMARK    3  A    between atoms: N1_3  and  C3_6 
REMARK    4  A    between atoms: C3_6  and  C4_7 
REMARK    5  A    between atoms: C3_6  and  C7_14 
REMARK    6  A    between atoms: C4_7  and  C5_8 
REMARK    7  A    between atoms: C5_8  and  C6_9 
REMARK    8  A    between atoms: C6_9  and  N2_10 
ROOT
HETATM    1  C3  UNL     1       3.739  19.108  -9.722  1.00  0.00     0.286 C 
ENDROOT
BRANCH   1   2
HETATM    2  N1  UNL     1       3.478  20.190 -10.675  1.00  0.00    -0.047 N 
ATOM      3  H12 UNL     1       3.395  21.091 -10.204  1.00  0.00     0.279 HD
ATOM      4  H11 UNL     1       2.537  20.127 -11.063  1.00  0.00     0.279 HD
BRANCH   2   5
HETATM    5  C2  UNL     1       4.480  20.229 -11.718  1.00  0.00     0.282 C 
HETATM    6  C1  UNL     1       5.086  21.604 -11.883  1.00  0.00     0.052 C 
BRANCH   5   7
HETATM    7  C8  UNL     1       3.928  19.710 -12.996  1.00  0.00     0.204 C 
HETATM    8  O3  UNL     1       3.785  20.460 -13.981  1.00  0.00    -0.646 OA
HETATM    9  O4  UNL     1       3.575  18.382 -13.077  1.00  0.00    -0.646 OA
ENDBRANCH   5   7
ENDBRANCH   2   5
ENDBRANCH   1   2
BRANCH   1  10
HETATM   10  C4  UNL     1       4.243  19.684  -8.427  1.00  0.00     0.046 C 
BRANCH  10  11
HETATM   11  C5  UNL     1       3.518  20.905  -7.972  1.00  0.00     0.030 C 
BRANCH  11  12
HETATM   12  C6  UNL     1       3.838  21.229  -6.514  1.00  0.00     0.230 C 
BRANCH  12  13
HETATM   13  N2  UNL     1       4.270  20.067  -5.796  1.00  0.00    -0.079 N 
ATOM     14  H23 UNL     1       3.496  19.630  -5.296  1.00  0.00     0.274 HD
ATOM     15  H22 UNL     1       4.501  19.302  -6.431  1.00  0.00     0.274 HD
ATOM     16  H21 UNL     1       5.048  20.277  -5.170  1.00  0.00     0.274 HD
ENDBRANCH  12  13
ENDBRANCH  11  12
ENDBRANCH  10  11
ENDBRANCH   1  10
BRANCH   1  17
HETATM   17  C7  UNL     1       2.545  18.269  -9.597  1.00  0.00     0.204 C 
HETATM   18  O1  UNL     1       2.576  17.028  -9.401  1.00  0.00    -0.646 OA
HETATM   19  O2  UNL     1       1.244  18.805  -9.687  1.00  0.00    -0.646 OA
ENDBRANCH   1  17
TORSDOF 8
ENDMDL
