MODEL 4
REMARK VINA RESULT: -7.165689551      1.861      5.581
REMARK  8 active torsions:
REMARK  status: ('A' for Active; 'I' for Inactive)
REMARK    1  A    between atoms: C2_2  and  N1_3 
REMARK    2  A    between atoms: C2_2  and  C8_17 
REMARK    3  A    between atoms: N1_3  and  C3_6 
REMARK    4  A    between atoms: C3_6  and  C4_7 
REMARK    5  A    between atoms: C3_6  and  C7_14 
REMARK    6  A    between atoms: C4_7  and  C5_8 
REMARK    7  A    between atoms: C5_8  and  C6_9 
REMARK    8  A    between atoms: C6_9  and  N2_10 
ROOT
HETATM    1  C3  UNL     1       4.357  19.383 -12.406  1.00  0.00     0.286 C 
ENDROOT
BRANCH   1   2
HETATM    2  N1  UNL     1       4.174  18.565 -11.205  1.00  0.00    -0.047 N 
ATOM      3  H12 UNL     1       5.067  18.254 -10.824  1.00  0.00     0.279 HD
ATOM      4  H11 UNL     1       3.774  17.654 -11.432  1.00  0.00     0.279 HD
BRANCH   2   5
HETATM    5  C2  UNL     1       3.385  19.257 -10.209  1.00  0.00     0.282 C 
HETATM    6  C1  UNL     1       4.220  19.731  -9.042  1.00  0.00     0.052 C 
BRANCH   5   7
HETATM    7  C8  UNL     1       2.242  18.417  -9.767  1.00  0.00     0.204 C 
HETATM    8  O3  UNL     1       1.127  18.925  -9.535  1.00  0.00    -0.646 OA
HETATM    9  O4  UNL     1       2.433  17.062  -9.615  1.00  0.00    -0.646 OA
ENDBRANCH   5   7
ENDBRANCH   2   5
ENDBRANCH   1   2
BRANCH   1  10
HETATM   10  C4  UNL     1       3.020  19.853 -12.910  1.00  0.00     0.046 C 
BRANCH  10  11
HETATM   11  C5  UNL     1       2.721  19.463 -14.318  1.00  0.00     0.030 C 
BRANCH  11  12
HETATM   12  C6  UNL     1       2.467  17.962 -14.435  1.00  0.00     0.230 C 
BRANCH  12  13
HETATM   13  N2  UNL     1       1.673  17.648 -15.586  1.00  0.00    -0.079 N 
ATOM     14  H23 UNL     1       1.618  18.439 -16.227  1.00  0.00     0.274 HD
ATOM     15  H22 UNL     1       2.148  16.982 -16.195  1.00  0.00     0.274 HD
ATOM     16  H21 UNL     1       0.744  17.314 -15.324  1.00  0.00     0.274 HD
ENDBRANCH  12  13
ENDBRANCH  11  12
ENDBRANCH  10  11
ENDBRANCH   1  10
BRANCH   1  17
HETATM   17  C7  UNL     1       5.317  20.454 -12.125  1.00  0.00     0.204 C 
HETATM   18  O1  UNL     1       6.533  20.258 -11.874  1.00  0.00    -0.646 OA
HETATM   19  O2  UNL     1       4.939  21.811 -12.117  1.00  0.00    -0.646 OA
ENDBRANCH   1  17
TORSDOF 8
ENDMDL
