MODEL 6
REMARK VINA RESULT: -6.939495917      3.318      5.890
REMARK  8 active torsions:
REMARK  status: ('A' for Active; 'I' for Inactive)
REMARK    1  A    between atoms: C2_2  and  N1_3 
REMARK    2  A    between atoms: C2_2  and  C8_17 
REMARK    3  A    between atoms: N1_3  and  C3_6 
REMARK    4  A    between atoms: C3_6  and  C4_7 
REMARK    5  A    between atoms: C3_6  and  C7_14 
REMARK    6  A    between atoms: C4_7  and  C5_8 
REMARK    7  A    between atoms: C5_8  and  C6_9 
REMARK    8  A    between atoms: C6_9  and  N2_10 
ROOT
HETATM    1  C3  UNL     1       2.873  19.458 -14.282  1.00  0.00     0.286 C 
ENDROOT
BRANCH   1   2
HETATM    2  N1  UNL     1       4.158  19.681 -13.615  1.00  0.00    -0.047 N 
ATOM      3  H12 UNL     1       4.869  20.005 -14.270  1.00  0.00     0.279 HD
ATOM      4  H11 UNL     1       4.591  18.800 -13.336  1.00  0.00     0.279 HD
BRANCH   2   5
HETATM    5  C2  UNL     1       4.022  20.583 -12.492  1.00  0.00     0.282 C 
HETATM    6  C1  UNL     1       3.949  22.031 -12.924  1.00  0.00     0.052 C 
BRANCH   5   7
HETATM    7  C8  UNL     1       5.104  20.355 -11.500  1.00  0.00     0.204 C 
HETATM    8  O3  UNL     1       4.836  20.099 -10.310  1.00  0.00    -0.646 OA
HETATM    9  O4  UNL     1       6.414  20.432 -11.916  1.00  0.00    -0.646 OA
ENDBRANCH   5   7
ENDBRANCH   2   5
ENDBRANCH   1   2
BRANCH   1  10
HETATM   10  C4  UNL     1       3.028  19.668 -15.764  1.00  0.00     0.046 C 
BRANCH  10  11
HETATM   11  C5  UNL     1       1.775  20.078 -16.461  1.00  0.00     0.030 C 
BRANCH  11  12
HETATM   12  C6  UNL     1       1.444  19.128 -17.610  1.00  0.00     0.230 C 
BRANCH  12  13
HETATM   13  N2  UNL     1       0.432  18.184 -17.242  1.00  0.00    -0.079 N 
ATOM     14  H23 UNL     1      -0.236  18.592 -16.587  1.00  0.00     0.274 HD
ATOM     15  H22 UNL     1      -0.202  17.997 -18.019  1.00  0.00     0.274 HD
ATOM     16  H21 UNL     1       0.835  17.322 -16.874  1.00  0.00     0.274 HD
ENDBRANCH  12  13
ENDBRANCH  11  12
ENDBRANCH  10  11
ENDBRANCH   1  10
BRANCH   1  17
HETATM   17  C7  UNL     1       2.345  18.146 -13.900  1.00  0.00     0.204 C 
HETATM   18  O1  UNL     1       2.201  17.188 -14.700  1.00  0.00    -0.646 OA
HETATM   19  O2  UNL     1       1.954  17.856 -12.577  1.00  0.00    -0.646 OA
ENDBRANCH   1  17
TORSDOF 8
ENDMDL
