MODEL 2
REMARK VINA RESULT: -7.389363721      1.374      1.760
REMARK  8 active torsions:
REMARK  status: ('A' for Active; 'I' for Inactive)
REMARK    1  A    between atoms: C2_2  and  N1_3 
REMARK    2  A    between atoms: C2_2  and  C8_17 
REMARK    3  A    between atoms: N1_3  and  C3_6 
REMARK    4  A    between atoms: C3_6  and  C4_7 
REMARK    5  A    between atoms: C3_6  and  C7_14 
REMARK    6  A    between atoms: C4_7  and  C5_8 
REMARK    7  A    between atoms: C5_8  and  C6_9 
REMARK    8  A    between atoms: C6_9  and  N2_10 
ROOT
HETATM    1  C3  UNL     1       3.889  19.287  -9.796  1.00  0.00     0.286 C 
ENDROOT
BRANCH   1   2
HETATM    2  N1  UNL     1       3.596  20.488 -10.582  1.00  0.00    -0.047 N 
ATOM      3  H12 UNL     1       3.240  21.242  -9.994  1.00  0.00     0.279 HD
ATOM      4  H11 UNL     1       2.780  20.355 -11.178  1.00  0.00     0.279 HD
BRANCH   2   5
HETATM    5  C2  UNL     1       4.748  20.913 -11.347  1.00  0.00     0.282 C 
HETATM    6  C1  UNL     1       4.557  22.281 -11.963  1.00  0.00     0.052 C 
BRANCH   5   7
HETATM    7  C8  UNL     1       5.108  19.893 -12.365  1.00  0.00     0.204 C 
HETATM    8  O3  UNL     1       6.277  19.471 -12.461  1.00  0.00    -0.646 OA
HETATM    9  O4  UNL     1       4.127  19.419 -13.206  1.00  0.00    -0.646 OA
ENDBRANCH   5   7
ENDBRANCH   2   5
ENDBRANCH   1   2
BRANCH   1  10
HETATM   10  C4  UNL     1       4.172  19.670  -8.370  1.00  0.00     0.046 C 
BRANCH  10  11
HETATM   11  C5  UNL     1       3.466  20.901  -7.910  1.00  0.00     0.030 C 
BRANCH  11  12
HETATM   12  C6  UNL     1       3.819  21.234  -6.463  1.00  0.00     0.230 C 
BRANCH  12  13
HETATM   13  N2  UNL     1       4.334  20.093  -5.767  1.00  0.00    -0.079 N 
ATOM     14  H23 UNL     1       4.205  19.238  -6.309  1.00  0.00     0.274 HD
ATOM     15  H22 UNL     1       5.353  20.107  -5.732  1.00  0.00     0.274 HD
ATOM     16  H21 UNL     1       3.931  20.006  -4.833  1.00  0.00     0.274 HD
ENDBRANCH  12  13
ENDBRANCH  11  12
ENDBRANCH  10  11
ENDBRANCH   1  10
BRANCH   1  17
HETATM   17  C7  UNL     1       2.805  18.316  -9.967  1.00  0.00     0.204 C 
HETATM   18  O1  UNL     1       2.781  17.187  -9.416  1.00  0.00    -0.646 OA
HETATM   19  O2  UNL     1       1.685  18.584 -10.779  1.00  0.00    -0.646 OA
ENDBRANCH   1  17
TORSDOF 8
ENDMDL
