MODEL 1
REMARK VINA RESULT: -7.585358116      0.000      0.000
REMARK  8 active torsions:
REMARK  status: ('A' for Active; 'I' for Inactive)
REMARK    1  A    between atoms: C2_2  and  N1_3 
REMARK    2  A    between atoms: C2_2  and  C8_17 
REMARK    3  A    between atoms: N1_3  and  C3_6 
REMARK    4  A    between atoms: C3_6  and  C4_7 
REMARK    5  A    between atoms: C3_6  and  C7_14 
REMARK    6  A    between atoms: C4_7  and  C5_8 
REMARK    7  A    between atoms: C5_8  and  C6_9 
REMARK    8  A    between atoms: C6_9  and  N2_10 
ROOT
HETATM    1  C3  UNL     1       3.560  18.713 -10.105  1.00  0.00     0.286 C 
ENDROOT
BRANCH   1   2
HETATM    2  N1  UNL     1       4.202  18.843 -11.415  1.00  0.00    -0.047 N 
ATOM      3  H12 UNL     1       3.914  18.098 -12.048  1.00  0.00     0.279 HD
ATOM      4  H11 UNL     1       5.198  18.631 -11.365  1.00  0.00     0.279 HD
BRANCH   2   5
HETATM    5  C2  UNL     1       3.967  20.149 -11.992  1.00  0.00     0.282 C 
HETATM    6  C1  UNL     1       3.360  20.066 -13.374  1.00  0.00     0.052 C 
BRANCH   5   7
HETATM    7  C8  UNL     1       5.211  20.961 -11.981  1.00  0.00     0.204 C 
HETATM    8  O3  UNL     1       5.163  22.205 -12.031  1.00  0.00    -0.646 OA
HETATM    9  O4  UNL     1       6.425  20.315 -11.916  1.00  0.00    -0.646 OA
ENDBRANCH   5   7
ENDBRANCH   2   5
ENDBRANCH   1   2
BRANCH   1  10
HETATM   10  C4  UNL     1       3.874  19.920  -9.264  1.00  0.00     0.046 C 
BRANCH  10  11
HETATM   11  C5  UNL     1       4.433  19.604  -7.917  1.00  0.00     0.030 C 
BRANCH  11  12
HETATM   12  C6  UNL     1       3.950  20.603  -6.869  1.00  0.00     0.230 C 
BRANCH  12  13
HETATM   13  N2  UNL     1       4.337  20.211  -5.546  1.00  0.00    -0.079 N 
ATOM     14  H23 UNL     1       3.531  20.159  -4.923  1.00  0.00     0.274 HD
ATOM     15  H22 UNL     1       4.624  19.232  -5.517  1.00  0.00     0.274 HD
ATOM     16  H21 UNL     1       5.062  20.822  -5.168  1.00  0.00     0.274 HD
ENDBRANCH  12  13
ENDBRANCH  11  12
ENDBRANCH  10  11
ENDBRANCH   1  10
BRANCH   1  17
HETATM   17  C7  UNL     1       2.130  18.447 -10.286  1.00  0.00     0.204 C 
HETATM   18  O1  UNL     1       1.235  18.864  -9.510  1.00  0.00    -0.646 OA
HETATM   19  O2  UNL     1       1.645  17.688 -11.370  1.00  0.00    -0.646 OA
ENDBRANCH   1  17
TORSDOF 8
ENDMDL
