MODEL 5
REMARK VINA RESULT: -7.155460890      1.870      5.666
REMARK  8 active torsions:
REMARK  status: ('A' for Active; 'I' for Inactive)
REMARK    1  A    between atoms: C2_2  and  N1_3 
REMARK    2  A    between atoms: C2_2  and  C8_17 
REMARK    3  A    between atoms: N1_3  and  C3_6 
REMARK    4  A    between atoms: C3_6  and  C4_7 
REMARK    5  A    between atoms: C3_6  and  C7_14 
REMARK    6  A    between atoms: C4_7  and  C5_8 
REMARK    7  A    between atoms: C5_8  and  C6_9 
REMARK    8  A    between atoms: C6_9  and  N2_10 
ROOT
HETATM    1  C3  UNL     1       4.332  19.327 -12.424  1.00  0.00     0.286 C 
ENDROOT
BRANCH   1   2
HETATM    2  N1  UNL     1       4.225  18.533 -11.198  1.00  0.00    -0.047 N 
ATOM      3  H12 UNL     1       5.144  18.286 -10.832  1.00  0.00     0.279 HD
ATOM      4  H11 UNL     1       3.875  17.595 -11.390  1.00  0.00     0.279 HD
BRANCH   2   5
HETATM    5  C2  UNL     1       3.421  19.206 -10.201  1.00  0.00     0.282 C 
HETATM    6  C1  UNL     1       4.245  19.689  -9.028  1.00  0.00     0.052 C 
BRANCH   5   7
HETATM    7  C8  UNL     1       2.293  18.343  -9.766  1.00  0.00     0.204 C 
HETATM    8  O3  UNL     1       2.448  17.116  -9.613  1.00  0.00    -0.646 OA
HETATM    9  O4  UNL     1       1.066  18.922  -9.533  1.00  0.00    -0.646 OA
ENDBRANCH   5   7
ENDBRANCH   2   5
ENDBRANCH   1   2
BRANCH   1  10
HETATM   10  C4  UNL     1       2.957  19.699 -12.908  1.00  0.00     0.046 C 
BRANCH  10  11
HETATM   11  C5  UNL     1       2.716  19.420 -14.354  1.00  0.00     0.030 C 
BRANCH  11  12
HETATM   12  C6  UNL     1       2.413  17.943 -14.589  1.00  0.00     0.230 C 
BRANCH  12  13
HETATM   13  N2  UNL     1       1.632  17.744 -15.774  1.00  0.00    -0.079 N 
ATOM     14  H23 UNL     1       1.961  18.334 -16.539  1.00  0.00     0.274 HD
ATOM     15  H22 UNL     1       1.812  16.830 -16.189  1.00  0.00     0.274 HD
ATOM     16  H21 UNL     1       0.636  17.884 -15.598  1.00  0.00     0.274 HD
ENDBRANCH  12  13
ENDBRANCH  11  12
ENDBRANCH  10  11
ENDBRANCH   1  10
BRANCH   1  17
HETATM   17  C7  UNL     1       5.230  20.461 -12.195  1.00  0.00     0.204 C 
HETATM   18  O1  UNL     1       4.867  21.664 -12.241  1.00  0.00    -0.646 OA
HETATM   19  O2  UNL     1       6.596  20.283 -11.897  1.00  0.00    -0.646 OA
ENDBRANCH   1  17
TORSDOF 8
ENDMDL
