MODEL 13
REMARK VINA RESULT: -5.800117790      3.325      4.745
REMARK  8 active torsions:
REMARK  status: ('A' for Active; 'I' for Inactive)
REMARK    1  A    between atoms: N1_1  and  C1_5 
REMARK    2  A    between atoms: C1_5  and  C2_6 
REMARK    3  A    between atoms: C2_6  and  C3_7 
REMARK    4  A    between atoms: C3_7  and  C4_8 
REMARK    5  A    between atoms: C4_8  and  N2_9 
REMARK    6  A    between atoms: C4_8  and  C7_16 
REMARK    7  A    between atoms: N2_9  and  C5_12 
REMARK    8  A    between atoms: C5_12  and  C6_13 
ROOT
HETATM    1  C4  UNL     1     -41.698 -20.621  -0.171  1.00  0.00     0.286 C 
ENDROOT
BRANCH   1   2
HETATM    2  C3  UNL     1     -41.329 -19.298   0.450  1.00  0.00     0.046 C 
BRANCH   2   3
HETATM    3  C2  UNL     1     -40.098 -18.708  -0.139  1.00  0.00     0.030 C 
BRANCH   3   4
HETATM    4  C1  UNL     1     -40.402 -17.660  -1.194  1.00  0.00     0.230 C 
BRANCH   4   5
HETATM    5  N1  UNL     1     -41.744 -17.153  -1.084  1.00  0.00    -0.079 N 
ATOM      6  H13 UNL     1     -41.770 -16.293  -0.535  1.00  0.00     0.274 HD
ATOM      7  H12 UNL     1     -42.074 -16.785  -1.976  1.00  0.00     0.274 HD
ATOM      8  H11 UNL     1     -42.389 -17.850  -0.710  1.00  0.00     0.274 HD
ENDBRANCH   4   5
ENDBRANCH   3   4
ENDBRANCH   2   3
ENDBRANCH   1   2
BRANCH   1   9
HETATM    9  N2  UNL     1     -42.842 -20.427  -1.057  1.00  0.00    -0.052 N 
ATOM     10  H22 UNL     1     -43.590 -21.080  -0.828  1.00  0.00     0.278 HD
ATOM     11  H21 UNL     1     -43.314 -19.548  -0.847  1.00  0.00     0.278 HD
BRANCH   9  12
HETATM   12  C5  UNL     1     -42.511 -20.504  -2.436  1.00  0.00     0.345 C 
BRANCH  12  13
HETATM   13  C6  UNL     1     -42.588 -21.922  -2.938  1.00  0.00     0.199 C 
HETATM   14  O1  UNL     1     -43.676 -22.488  -3.148  1.00  0.00    -0.647 OA
HETATM   15  O2  UNL     1     -41.417 -22.643  -3.181  1.00  0.00    -0.647 OA
ENDBRANCH  12  13
ENDBRANCH   9  12
ENDBRANCH   1   9
BRANCH   1  16
HETATM   16  C7  UNL     1     -41.931 -21.714   0.782  1.00  0.00     0.204 C 
HETATM   17  O3  UNL     1     -41.315 -21.859   1.857  1.00  0.00    -0.646 OA
HETATM   18  O4  UNL     1     -42.900 -22.679   0.499  1.00  0.00    -0.646 OA
ENDBRANCH   1  16
TORSDOF 8
ENDMDL
