MODEL 6
REMARK VINA RESULT: -6.401072899      2.591      6.136
REMARK  8 active torsions:
REMARK  status: ('A' for Active; 'I' for Inactive)
REMARK    1  A    between atoms: N1_1  and  C1_5 
REMARK    2  A    between atoms: C1_5  and  C2_6 
REMARK    3  A    between atoms: C2_6  and  C3_7 
REMARK    4  A    between atoms: C3_7  and  C4_8 
REMARK    5  A    between atoms: C4_8  and  N2_9 
REMARK    6  A    between atoms: C4_8  and  C7_16 
REMARK    7  A    between atoms: N2_9  and  C5_12 
REMARK    8  A    between atoms: C5_12  and  C6_13 
ROOT
HETATM    1  C4  UNL     1     -41.746 -19.461  -0.269  1.00  0.00     0.286 C 
ENDROOT
BRANCH   1   2
HETATM    2  C3  UNL     1     -40.959 -19.761   0.982  1.00  0.00     0.046 C 
BRANCH   2   3
HETATM    3  C2  UNL     1     -41.011 -21.197   1.365  1.00  0.00     0.030 C 
BRANCH   3   4
HETATM    4  C1  UNL     1     -40.832 -21.409   2.857  1.00  0.00     0.230 C 
BRANCH   4   5
HETATM    5  N1  UNL     1     -41.292 -22.705   3.279  1.00  0.00    -0.079 N 
ATOM      6  H13 UNL     1     -41.347 -22.763   4.297  1.00  0.00     0.274 HD
ATOM      7  H12 UNL     1     -42.279 -22.837   3.056  1.00  0.00     0.274 HD
ATOM      8  H11 UNL     1     -40.722 -23.459   2.896  1.00  0.00     0.274 HD
ENDBRANCH   4   5
ENDBRANCH   3   4
ENDBRANCH   2   3
ENDBRANCH   1   2
BRANCH   1   9
HETATM    9  N2  UNL     1     -41.552 -20.549  -1.223  1.00  0.00    -0.052 N 
ATOM     10  H22 UNL     1     -40.603 -20.536  -1.596  1.00  0.00     0.278 HD
ATOM     11  H21 UNL     1     -41.533 -21.449  -0.744  1.00  0.00     0.278 HD
BRANCH   9  12
HETATM   12  C5  UNL     1     -42.506 -20.559  -2.275  1.00  0.00     0.345 C 
BRANCH  12  13
HETATM   13  C6  UNL     1     -42.598 -21.918  -2.917  1.00  0.00     0.199 C 
HETATM   14  O1  UNL     1     -43.693 -22.461  -3.155  1.00  0.00    -0.647 OA
HETATM   15  O2  UNL     1     -41.436 -22.610  -3.264  1.00  0.00    -0.647 OA
ENDBRANCH  12  13
ENDBRANCH   9  12
ENDBRANCH   1   9
BRANCH   1  16
HETATM   16  C7  UNL     1     -41.474 -18.153  -0.877  1.00  0.00     0.204 C 
HETATM   17  O3  UNL     1     -40.366 -17.799  -1.329  1.00  0.00    -0.646 OA
HETATM   18  O4  UNL     1     -42.502 -17.212  -0.974  1.00  0.00    -0.646 OA
ENDBRANCH   1  16
TORSDOF 8
ENDMDL
