MODEL 7
REMARK VINA RESULT: -6.368888852      2.561      6.135
REMARK  8 active torsions:
REMARK  status: ('A' for Active; 'I' for Inactive)
REMARK    1  A    between atoms: N1_1  and  C1_5 
REMARK    2  A    between atoms: C1_5  and  C2_6 
REMARK    3  A    between atoms: C2_6  and  C3_7 
REMARK    4  A    between atoms: C3_7  and  C4_8 
REMARK    5  A    between atoms: C4_8  and  N2_9 
REMARK    6  A    between atoms: C4_8  and  C7_16 
REMARK    7  A    between atoms: N2_9  and  C5_12 
REMARK    8  A    between atoms: C5_12  and  C6_13 
ROOT
HETATM    1  C4  UNL     1     -41.760 -19.438  -0.281  1.00  0.00     0.286 C 
ENDROOT
BRANCH   1   2
HETATM    2  C3  UNL     1     -40.972 -19.766   0.962  1.00  0.00     0.046 C 
BRANCH   2   3
HETATM    3  C2  UNL     1     -41.059 -21.202   1.337  1.00  0.00     0.030 C 
BRANCH   3   4
HETATM    4  C1  UNL     1     -40.864 -21.428   2.825  1.00  0.00     0.230 C 
BRANCH   4   5
HETATM    5  N1  UNL     1     -41.316 -22.729   3.240  1.00  0.00    -0.079 N 
ATOM      6  H13 UNL     1     -40.942 -22.975   4.156  1.00  0.00     0.274 HD
ATOM      7  H12 UNL     1     -42.310 -22.719   3.469  1.00  0.00     0.274 HD
ATOM      8  H11 UNL     1     -41.104 -23.448   2.548  1.00  0.00     0.274 HD
ENDBRANCH   4   5
ENDBRANCH   3   4
ENDBRANCH   2   3
ENDBRANCH   1   2
BRANCH   1   9
HETATM    9  N2  UNL     1     -41.437 -20.413  -1.318  1.00  0.00    -0.052 N 
ATOM     10  H22 UNL     1     -40.520 -20.220  -1.721  1.00  0.00     0.278 HD
ATOM     11  H21 UNL     1     -41.252 -21.328  -0.908  1.00  0.00     0.278 HD
BRANCH   9  12
HETATM   12  C5  UNL     1     -42.423 -20.508  -2.336  1.00  0.00     0.345 C 
BRANCH  12  13
HETATM   13  C6  UNL     1     -42.484 -21.900  -2.910  1.00  0.00     0.199 C 
HETATM   14  O1  UNL     1     -41.457 -22.528  -3.225  1.00  0.00    -0.647 OA
HETATM   15  O2  UNL     1     -43.718 -22.524  -3.104  1.00  0.00    -0.647 OA
ENDBRANCH  12  13
ENDBRANCH   9  12
ENDBRANCH   1   9
BRANCH   1  16
HETATM   16  C7  UNL     1     -41.612 -18.061  -0.768  1.00  0.00     0.204 C 
HETATM   17  O3  UNL     1     -42.562 -17.282  -0.988  1.00  0.00    -0.646 OA
HETATM   18  O4  UNL     1     -40.335 -17.551  -1.014  1.00  0.00    -0.646 OA
ENDBRANCH   1  16
TORSDOF 8
ENDMDL
