MODEL 1
REMARK VINA RESULT: -8.296317102      0.000      0.000
REMARK  3 active torsions:
REMARK  status: ('A' for Active; 'I' for Inactive)
REMARK    1  A    between atoms: N1_1  and  C1_5 
REMARK    2  A    between atoms: C1_5  and  C2_6 
REMARK    3  A    between atoms: C5_10  and  C6_11 
ROOT
HETATM    1  C2  UNL     1    -113.055-175.097 308.032  1.00  0.00    -0.030 A 
HETATM    2  C3  UNL     1    -112.632-176.352 308.491  1.00  0.00     0.033 A 
HETATM    3  C4  UNL     1    -111.334-176.584 308.869  1.00  0.00     0.047 A 
HETATM    4 CL1  UNL     1    -110.839-178.163 309.450  1.00  0.00    -0.083 Cl
HETATM    5  C5  UNL     1    -110.398-175.563 308.803  1.00  0.00     0.018 A 
HETATM    6  C12 UNL     1    -110.791-174.319 308.354  1.00  0.00     0.047 A 
HETATM    7 CL2  UNL     1    -109.602-173.058 308.276  1.00  0.00    -0.083 Cl
HETATM    8  C13 UNL     1    -112.118-174.094 307.972  1.00  0.00     0.033 A 
ENDROOT
BRANCH   5   9
HETATM    9  C6  UNL     1    -109.039-175.860 309.216  1.00  0.00    -0.023 A 
HETATM   10  C7  UNL     1    -108.707-175.697 310.565  1.00  0.00     0.012 A 
HETATM   11  C8  UNL     1    -107.442-175.948 311.055  1.00  0.00     0.001 A 
HETATM   12  C9  UNL     1    -106.460-176.381 310.170  1.00  0.00     0.000 A 
HETATM   13  C10 UNL     1    -106.774-176.545 308.849  1.00  0.00     0.001 A 
HETATM   14  C11 UNL     1    -108.045-176.287 308.385  1.00  0.00     0.012 A 
ENDBRANCH   5   9
BRANCH   1  15
HETATM   15  C1  UNL     1    -114.460-174.863 307.649  1.00  0.00     0.268 C 
BRANCH  15  16
HETATM   16  N1  UNL     1    -115.337-174.912 308.798  1.00  0.00    -0.075 N 
ATOM     17  H13 UNL     1    -115.585-175.872 309.039  1.00  0.00     0.274 HD
ATOM     18  H12 UNL     1    -114.846-174.657 309.655  1.00  0.00     0.274 HD
ATOM     19  H11 UNL     1    -116.168-174.336 308.659  1.00  0.00     0.274 HD
ENDBRANCH  15  16
ENDBRANCH   1  15
TORSDOF 3
ENDMDL
