MODEL 14
REMARK VINA RESULT: -6.711702822      2.603      5.321
REMARK  3 active torsions:
REMARK  status: ('A' for Active; 'I' for Inactive)
REMARK    1  A    between atoms: N1_1  and  C1_5 
REMARK    2  A    between atoms: C1_5  and  C2_6 
REMARK    3  A    between atoms: C5_10  and  C6_11 
ROOT
HETATM    1  C2  UNL     1    -107.769-176.161 309.665  1.00  0.00    -0.030 A 
HETATM    2  C3  UNL     1    -108.787-177.112 309.509  1.00  0.00     0.033 A 
HETATM    3  C4  UNL     1    -110.008-176.786 308.976  1.00  0.00     0.047 A 
HETATM    4 CL1  UNL     1    -111.256-178.003 308.784  1.00  0.00    -0.083 Cl
HETATM    5  C5  UNL     1    -110.264-175.484 308.574  1.00  0.00     0.018 A 
HETATM    6  C12 UNL     1    -109.279-174.530 308.718  1.00  0.00     0.047 A 
HETATM    7 CL2  UNL     1    -109.623-172.907 308.211  1.00  0.00    -0.083 Cl
HETATM    8  C13 UNL     1    -108.037-174.875 309.262  1.00  0.00     0.033 A 
ENDROOT
BRANCH   5   9
HETATM    9  C6  UNL     1    -111.571-175.191 308.015  1.00  0.00    -0.023 A 
HETATM   10  C7  UNL     1    -112.674-175.191 308.874  1.00  0.00     0.012 A 
HETATM   11  C8  UNL     1    -113.957-174.929 308.439  1.00  0.00     0.001 A 
HETATM   12  C9  UNL     1    -114.157-174.654 307.091  1.00  0.00     0.000 A 
HETATM   13  C10 UNL     1    -113.087-174.650 306.240  1.00  0.00     0.001 A 
HETATM   14  C11 UNL     1    -111.815-174.915 306.701  1.00  0.00     0.012 A 
ENDBRANCH   5   9
BRANCH   1  15
HETATM   15  C1  UNL     1    -106.457-176.537 310.222  1.00  0.00     0.268 C 
BRANCH  15  16
HETATM   16  N1  UNL     1    -106.543-176.807 311.641  1.00  0.00    -0.075 N 
ATOM     17  H13 UNL     1    -106.834-175.980 312.162  1.00  0.00     0.274 HD
ATOM     18  H12 UNL     1    -107.332-177.415 311.859  1.00  0.00     0.274 HD
ATOM     19  H11 UNL     1    -105.667-177.187 312.002  1.00  0.00     0.274 HD
ENDBRANCH  15  16
ENDBRANCH   1  15
TORSDOF 3
ENDMDL
