MODEL 16
REMARK VINA RESULT: -6.640257836      2.776      5.950
REMARK  3 active torsions:
REMARK  status: ('A' for Active; 'I' for Inactive)
REMARK    1  A    between atoms: N1_1  and  C1_5 
REMARK    2  A    between atoms: C1_5  and  C2_6 
REMARK    3  A    between atoms: C5_10  and  C6_11 
ROOT
HETATM    1  C2  UNL     1    -107.509-176.250 309.505  1.00  0.00    -0.030 A 
HETATM    2  C3  UNL     1    -107.866-174.946 309.135  1.00  0.00     0.033 A 
HETATM    3  C4  UNL     1    -109.135-174.633 308.718  1.00  0.00     0.047 A 
HETATM    4 CL1  UNL     1    -109.552-172.989 308.274  1.00  0.00    -0.083 Cl
HETATM    5  C5  UNL     1    -110.106-175.619 308.653  1.00  0.00     0.018 A 
HETATM    6  C12 UNL     1    -109.779-176.911 309.010  1.00  0.00     0.047 A 
HETATM    7 CL2  UNL     1    -111.011-178.129 308.916  1.00  0.00    -0.083 Cl
HETATM    8  C13 UNL     1    -108.482-177.218 309.435  1.00  0.00     0.033 A 
ENDROOT
BRANCH   5   9
HETATM    9  C6  UNL     1    -111.433-175.237 308.207  1.00  0.00    -0.023 A 
HETATM   10  C7  UNL     1    -111.593-174.827 306.879  1.00  0.00     0.012 A 
HETATM   11  C8  UNL     1    -112.811-174.440 306.361  1.00  0.00     0.001 A 
HETATM   12  C9  UNL     1    -113.924-174.459 307.195  1.00  0.00     0.000 A 
HETATM   13  C10 UNL     1    -113.781-174.858 308.495  1.00  0.00     0.001 A 
HETATM   14  C11 UNL     1    -112.552-175.240 308.988  1.00  0.00     0.012 A 
ENDBRANCH   5   9
BRANCH   1  15
HETATM   15  C1  UNL     1    -106.144-176.562 309.969  1.00  0.00     0.268 C 
BRANCH  15  16
HETATM   16  N1  UNL     1    -105.373-177.224 308.939  1.00  0.00    -0.075 N 
ATOM     17  H13 UNL     1    -104.784-177.960 309.329  1.00  0.00     0.274 HD
ATOM     18  H12 UNL     1    -105.966-177.799 308.340  1.00  0.00     0.274 HD
ATOM     19  H11 UNL     1    -104.826-176.557 308.395  1.00  0.00     0.274 HD
ENDBRANCH  15  16
ENDBRANCH   1  15
TORSDOF 3
ENDMDL
