MODEL 4
REMARK VINA RESULT: -8.190260382      0.273      2.546
REMARK  3 active torsions:
REMARK  status: ('A' for Active; 'I' for Inactive)
REMARK    1  A    between atoms: N1_1  and  C1_5 
REMARK    2  A    between atoms: C1_5  and  C2_6 
REMARK    3  A    between atoms: C5_10  and  C6_11 
ROOT
HETATM    1  C2  UNL     1    -113.016-175.029 308.129  1.00  0.00    -0.030 A 
HETATM    2  C3  UNL     1    -111.996-174.068 308.062  1.00  0.00     0.033 A 
HETATM    3  C4  UNL     1    -110.699-174.364 308.397  1.00  0.00     0.047 A 
HETATM    4 CL1  UNL     1    -109.446-173.143 308.291  1.00  0.00    -0.083 Cl
HETATM    5  C5  UNL     1    -110.365-175.642 308.816  1.00  0.00     0.018 A 
HETATM    6  C12 UNL     1    -111.351-176.605 308.891  1.00  0.00     0.047 A 
HETATM    7 CL2  UNL     1    -110.910-178.196 309.422  1.00  0.00    -0.083 Cl
HETATM    8  C13 UNL     1    -112.670-176.291 308.546  1.00  0.00     0.033 A 
ENDROOT
BRANCH   5   9
HETATM    9  C6  UNL     1    -108.980-175.904 309.157  1.00  0.00    -0.023 A 
HETATM   10  C7  UNL     1    -108.143-176.430 308.168  1.00  0.00     0.012 A 
HETATM   11  C8  UNL     1    -106.812-176.718 308.394  1.00  0.00     0.001 A 
HETATM   12  C9  UNL     1    -106.286-176.474 309.658  1.00  0.00     0.000 A 
HETATM   13  C10 UNL     1    -107.094-175.959 310.633  1.00  0.00     0.001 A 
HETATM   14  C11 UNL     1    -108.420-175.680 310.381  1.00  0.00     0.012 A 
ENDBRANCH   5   9
BRANCH   1  15
HETATM   15  C1  UNL     1    -114.400-174.695 307.746  1.00  0.00     0.268 C 
BRANCH  15  16
HETATM   16  N1  UNL     1    -115.329-174.978 308.819  1.00  0.00    -0.075 N 
ATOM     17  H13 UNL     1    -115.240-175.940 309.146  1.00  0.00     0.274 HD
ATOM     18  H12 UNL     1    -115.066-174.495 309.677  1.00  0.00     0.274 HD
ATOM     19  H11 UNL     1    -116.289-174.763 308.548  1.00  0.00     0.274 HD
ENDBRANCH  15  16
ENDBRANCH   1  15
TORSDOF 3
ENDMDL
