MODEL 2
REMARK VINA RESULT: -8.272276178      0.165      1.191
REMARK  3 active torsions:
REMARK  status: ('A' for Active; 'I' for Inactive)
REMARK    1  A    between atoms: N1_1  and  C1_5 
REMARK    2  A    between atoms: C1_5  and  C2_6 
REMARK    3  A    between atoms: C5_10  and  C6_11 
ROOT
HETATM    1  C2  UNL     1    -113.058-175.089 308.043  1.00  0.00    -0.030 A 
HETATM    2  C3  UNL     1    -112.633-176.341 308.510  1.00  0.00     0.033 A 
HETATM    3  C4  UNL     1    -111.333-176.572 308.882  1.00  0.00     0.047 A 
HETATM    4 CL1  UNL     1    -110.837-178.146 309.472  1.00  0.00    -0.083 Cl
HETATM    5  C5  UNL     1    -110.397-175.552 308.803  1.00  0.00     0.018 A 
HETATM    6  C12 UNL     1    -110.791-174.312 308.346  1.00  0.00     0.047 A 
HETATM    7 CL2  UNL     1    -109.601-173.053 308.252  1.00  0.00    -0.083 Cl
HETATM    8  C13 UNL     1    -112.120-174.087 307.970  1.00  0.00     0.033 A 
ENDROOT
BRANCH   5   9
HETATM    9  C6  UNL     1    -109.036-175.848 309.210  1.00  0.00    -0.023 A 
HETATM   10  C7  UNL     1    -108.153-176.352 308.250  1.00  0.00     0.012 A 
HETATM   11  C8  UNL     1    -106.841-176.668 308.539  1.00  0.00     0.001 A 
HETATM   12  C9  UNL     1    -106.382-176.475 309.838  1.00  0.00     0.000 A 
HETATM   13  C10 UNL     1    -107.236-175.982 310.785  1.00  0.00     0.001 A 
HETATM   14  C11 UNL     1    -108.542-175.674 310.470  1.00  0.00     0.012 A 
ENDBRANCH   5   9
BRANCH   1  15
HETATM   15  C1  UNL     1    -114.465-174.856 307.667  1.00  0.00     0.268 C 
BRANCH  15  16
HETATM   16  N1  UNL     1    -115.343-174.958 308.812  1.00  0.00    -0.075 N 
ATOM     17  H13 UNL     1    -115.859-174.092 308.965  1.00  0.00     0.274 HD
ATOM     18  H12 UNL     1    -116.131-175.579 308.625  1.00  0.00     0.274 HD
ATOM     19  H11 UNL     1    -114.834-175.243 309.649  1.00  0.00     0.274 HD
ENDBRANCH  15  16
ENDBRANCH   1  15
TORSDOF 3
ENDMDL
