MODEL 15
REMARK VINA RESULT: -6.672614357      2.604      5.768
REMARK  3 active torsions:
REMARK  status: ('A' for Active; 'I' for Inactive)
REMARK    1  A    between atoms: N1_1  and  C1_5 
REMARK    2  A    between atoms: C1_5  and  C2_6 
REMARK    3  A    between atoms: C5_10  and  C6_11 
ROOT
HETATM    1  C2  UNL     1    -107.769-176.182 309.708  1.00  0.00    -0.030 A 
HETATM    2  C3  UNL     1    -108.092-174.889 309.271  1.00  0.00     0.033 A 
HETATM    3  C4  UNL     1    -109.317-174.594 308.728  1.00  0.00     0.047 A 
HETATM    4 CL1  UNL     1    -109.693-172.964 308.201  1.00  0.00    -0.083 Cl
HETATM    5  C5  UNL     1    -110.276-175.585 308.599  1.00  0.00     0.018 A 
HETATM    6  C12 UNL     1    -109.982-176.865 309.022  1.00  0.00     0.047 A 
HETATM    7 CL2  UNL     1    -111.197-178.091 308.847  1.00  0.00    -0.083 Cl
HETATM    8  C13 UNL     1    -108.730-177.155 309.575  1.00  0.00     0.033 A 
ENDROOT
BRANCH   5   9
HETATM    9  C6  UNL     1    -111.556-175.221 308.020  1.00  0.00    -0.023 A 
HETATM   10  C7  UNL     1    -112.682-175.223 308.850  1.00  0.00     0.012 A 
HETATM   11  C8  UNL     1    -113.943-174.896 308.394  1.00  0.00     0.001 A 
HETATM   12  C9  UNL     1    -114.096-174.551 307.055  1.00  0.00     0.000 A 
HETATM   13  C10 UNL     1    -113.002-174.544 306.235  1.00  0.00     0.001 A 
HETATM   14  C11 UNL     1    -111.753-174.875 306.715  1.00  0.00     0.012 A 
ENDBRANCH   5   9
BRANCH   1  15
HETATM   15  C1  UNL     1    -106.454-176.474 310.307  1.00  0.00     0.268 C 
BRANCH  15  16
HETATM   16  N1  UNL     1    -106.570-176.785 311.715  1.00  0.00    -0.075 N 
ATOM     17  H13 UNL     1    -106.864-175.971 312.255  1.00  0.00     0.274 HD
ATOM     18  H12 UNL     1    -107.369-177.392 311.899  1.00  0.00     0.274 HD
ATOM     19  H11 UNL     1    -105.706-177.185 312.082  1.00  0.00     0.274 HD
ENDBRANCH  15  16
ENDBRANCH   1  15
TORSDOF 3
ENDMDL
