MODEL 3
REMARK VINA RESULT: -8.244038516      0.133      2.247
REMARK  3 active torsions:
REMARK  status: ('A' for Active; 'I' for Inactive)
REMARK    1  A    between atoms: N1_1  and  C1_5 
REMARK    2  A    between atoms: C1_5  and  C2_6 
REMARK    3  A    between atoms: C5_10  and  C6_11 
ROOT
HETATM    1  C2  UNL     1    -113.033-175.030 308.129  1.00  0.00    -0.030 A 
HETATM    2  C3  UNL     1    -112.017-174.066 308.067  1.00  0.00     0.033 A 
HETATM    3  C4  UNL     1    -110.720-174.358 308.407  1.00  0.00     0.047 A 
HETATM    4 CL1  UNL     1    -109.471-173.132 308.308  1.00  0.00    -0.083 Cl
HETATM    5  C5  UNL     1    -110.383-175.636 308.824  1.00  0.00     0.018 A 
HETATM    6  C12 UNL     1    -111.366-176.602 308.893  1.00  0.00     0.047 A 
HETATM    7 CL2  UNL     1    -110.921-178.193 309.423  1.00  0.00    -0.083 Cl
HETATM    8  C13 UNL     1    -112.685-176.293 308.544  1.00  0.00     0.033 A 
ENDROOT
BRANCH   5   9
HETATM    9  C6  UNL     1    -108.998-175.894 309.170  1.00  0.00    -0.023 A 
HETATM   10  C7  UNL     1    -108.590-175.661 310.487  1.00  0.00     0.012 A 
HETATM   11  C8  UNL     1    -107.294-175.871 310.914  1.00  0.00     0.001 A 
HETATM   12  C9  UNL     1    -106.359-176.333 309.994  1.00  0.00     0.000 A 
HETATM   13  C10 UNL     1    -106.746-176.566 308.703  1.00  0.00     0.001 A 
HETATM   14  C11 UNL     1    -108.047-176.348 308.303  1.00  0.00     0.012 A 
ENDBRANCH   5   9
BRANCH   1  15
HETATM   15  C1  UNL     1    -114.417-174.701 307.741  1.00  0.00     0.268 C 
BRANCH  15  16
HETATM   16  N1  UNL     1    -115.347-174.979 308.814  1.00  0.00    -0.075 N 
ATOM     17  H13 UNL     1    -115.905-174.157 309.047  1.00  0.00     0.274 HD
ATOM     18  H12 UNL     1    -116.098-175.596 308.506  1.00  0.00     0.274 HD
ATOM     19  H11 UNL     1    -114.870-175.352 309.635  1.00  0.00     0.274 HD
ENDBRANCH  15  16
ENDBRANCH   1  15
TORSDOF 3
ENDMDL
