MODEL 10
REMARK VINA RESULT: -7.109544669      0.929      1.022
REMARK  3 active torsions:
REMARK  status: ('A' for Active; 'I' for Inactive)
REMARK    1  A    between atoms: N1_1  and  C1_5 
REMARK    2  A    between atoms: C1_5  and  C2_6 
REMARK    3  A    between atoms: C5_10  and  C6_11 
ROOT
HETATM    1  C2  UNL     1    -112.853-175.004 307.644  1.00  0.00    -0.030 A 
HETATM    2  C3  UNL     1    -112.514-176.261 308.164  1.00  0.00     0.033 A 
HETATM    3  C4  UNL     1    -111.211-176.624 308.390  1.00  0.00     0.047 A 
HETATM    4 CL1  UNL     1    -110.822-178.200 309.053  1.00  0.00    -0.083 Cl
HETATM    5  C5  UNL     1    -110.184-175.739 308.101  1.00  0.00     0.018 A 
HETATM    6  C12 UNL     1    -110.492-174.496 307.587  1.00  0.00     0.047 A 
HETATM    7 CL2  UNL     1    -109.189-173.407 307.231  1.00  0.00    -0.083 Cl
HETATM    8  C13 UNL     1    -111.825-174.136 307.363  1.00  0.00     0.033 A 
ENDROOT
BRANCH   5   9
HETATM    9  C6  UNL     1    -108.823-176.171 308.360  1.00  0.00    -0.023 A 
HETATM   10  C7  UNL     1    -108.326-176.052 309.661  1.00  0.00     0.012 A 
HETATM   11  C8  UNL     1    -107.045-176.430 310.007  1.00  0.00     0.001 A 
HETATM   12  C9  UNL     1    -106.217-176.950 309.018  1.00  0.00     0.000 A 
HETATM   13  C10 UNL     1    -106.691-177.072 307.742  1.00  0.00     0.001 A 
HETATM   14  C11 UNL     1    -107.975-176.687 307.423  1.00  0.00     0.012 A 
ENDBRANCH   5   9
BRANCH   1  15
HETATM   15  C1  UNL     1    -114.261-174.626 307.427  1.00  0.00     0.268 C 
BRANCH  15  16
HETATM   16  N1  UNL     1    -114.988-175.668 306.734  1.00  0.00    -0.075 N 
ATOM     17  H13 UNL     1    -114.474-176.548 306.739  1.00  0.00     0.274 HD
ATOM     18  H12 UNL     1    -115.810-175.963 307.260  1.00  0.00     0.274 HD
ATOM     19  H11 UNL     1    -115.234-175.384 305.785  1.00  0.00     0.274 HD
ENDBRANCH  15  16
ENDBRANCH   1  15
TORSDOF 3
ENDMDL
