MODEL 1
REMARK VINA RESULT: -8.759420899      0.000      0.000
REMARK  4 active torsions:
REMARK  status: ('A' for Active; 'I' for Inactive)
REMARK    1  A    between atoms: C2_2  and  C3_3 
REMARK    2  A    between atoms: C8_8  and  C9_9 
REMARK    3  A    between atoms: C12_13  and  C13_14 
REMARK    4  A    between atoms: C13_14  and  N1_15 
ROOT
HETATM    1  C9  UNL     1    -113.221-175.400 309.538  1.00  0.00     0.018 A 
HETATM    2  C10 UNL     1    -114.198-176.380 309.545  1.00  0.00     0.047 A 
HETATM    3 CL1  UNL     1    -113.733-177.989 310.062  1.00  0.00    -0.083 Cl
HETATM    4  C11 UNL     1    -115.496-176.115 309.162  1.00  0.00     0.033 A 
HETATM    5  C12 UNL     1    -115.876-174.842 308.750  1.00  0.00    -0.030 A 
HETATM    6  C14 UNL     1    -114.879-173.895 308.755  1.00  0.00     0.033 A 
HETATM    7  C15 UNL     1    -113.585-174.138 309.132  1.00  0.00     0.047 A 
HETATM    8 CL2  UNL     1    -112.381-172.830 309.065  1.00  0.00    -0.083 Cl
ENDROOT
BRANCH   1   9
HETATM    9  C8  UNL     1    -111.847-175.662 309.912  1.00  0.00    -0.016 A 
HETATM   10  C3  UNL     1    -110.909-176.138 309.037  1.00  0.00    -0.047 A 
HETATM   11  C4  UNL     1    -109.597-176.398 309.436  1.00  0.00     0.008 A 
HETATM   12  C5  UNL     1    -109.198-176.182 310.725  1.00  0.00     0.001 A 
HETATM   13  C6  UNL     1    -110.134-175.694 311.641  1.00  0.00     0.001 A 
HETATM   14  C7  UNL     1    -111.429-175.443 311.230  1.00  0.00     0.013 A 
BRANCH  10  15
HETATM   15  C2  UNL     1    -111.270-176.372 307.629  1.00  0.00     0.035 C 
HETATM   16  C1  UNL     1    -110.732-175.314 306.734  1.00  0.00     0.010 C 
ENDBRANCH  10  15
ENDBRANCH   1   9
BRANCH   5  17
HETATM   17  C13 UNL     1    -117.260-174.512 308.330  1.00  0.00     0.268 C 
BRANCH  17  18
HETATM   18  N1  UNL     1    -117.904-175.607 307.636  1.00  0.00    -0.075 N 
ATOM     19  H13 UNL     1    -117.303-175.979 306.900  1.00  0.00     0.274 HD
ATOM     20  H12 UNL     1    -117.965-176.433 308.230  1.00  0.00     0.274 HD
ATOM     21  H11 UNL     1    -118.820-175.350 307.268  1.00  0.00     0.274 HD
ENDBRANCH  17  18
ENDBRANCH   5  17
TORSDOF 4
ENDMDL
