MODEL 8
REMARK VINA RESULT: -6.822031381      3.101      4.543
REMARK  4 active torsions:
REMARK  status: ('A' for Active; 'I' for Inactive)
REMARK    1  A    between atoms: C2_2  and  C3_3 
REMARK    2  A    between atoms: C8_8  and  C9_9 
REMARK    3  A    between atoms: C12_13  and  C13_14 
REMARK    4  A    between atoms: C13_14  and  N1_15 
ROOT
HETATM    1  C9  UNL     1    -111.692-176.179 308.298  1.00  0.00     0.018 A 
HETATM    2  C10 UNL     1    -110.510-176.629 307.734  1.00  0.00     0.047 A 
HETATM    3 CL1  UNL     1    -109.498-177.684 308.702  1.00  0.00    -0.083 Cl
HETATM    4  C11 UNL     1    -110.130-176.270 306.459  1.00  0.00     0.033 A 
HETATM    5  C12 UNL     1    -110.925-175.434 305.682  1.00  0.00    -0.030 A 
HETATM    6  C14 UNL     1    -112.090-175.005 306.274  1.00  0.00     0.033 A 
HETATM    7  C15 UNL     1    -112.486-175.351 307.540  1.00  0.00     0.047 A 
HETATM    8 CL2  UNL     1    -114.004-174.703 308.202  1.00  0.00    -0.083 Cl
ENDROOT
BRANCH   1   9
HETATM    9  C8  UNL     1    -112.098-176.522 309.644  1.00  0.00    -0.016 A 
HETATM   10  C3  UNL     1    -111.611-175.895 310.758  1.00  0.00    -0.047 A 
HETATM   11  C4  UNL     1    -112.010-176.265 312.043  1.00  0.00     0.008 A 
HETATM   12  C5  UNL     1    -112.911-177.273 312.236  1.00  0.00     0.001 A 
HETATM   13  C6  UNL     1    -113.428-177.932 311.117  1.00  0.00     0.001 A 
HETATM   14  C7  UNL     1    -113.021-177.554 309.852  1.00  0.00     0.013 A 
BRANCH  10  15
HETATM   15  C2  UNL     1    -110.652-174.787 310.617  1.00  0.00     0.035 C 
HETATM   16  C1  UNL     1    -109.664-174.761 311.728  1.00  0.00     0.010 C 
ENDBRANCH  10  15
ENDBRANCH   1   9
BRANCH   5  17
HETATM   17  C13 UNL     1    -110.556-175.022 304.305  1.00  0.00     0.268 C 
BRANCH  17  18
HETATM   18  N1  UNL     1    -110.469-176.146 303.397  1.00  0.00    -0.075 N 
ATOM     19  H13 UNL     1    -109.537-176.560 303.413  1.00  0.00     0.274 HD
ATOM     20  H12 UNL     1    -111.007-176.940 303.743  1.00  0.00     0.274 HD
ATOM     21  H11 UNL     1    -110.747-175.901 302.447  1.00  0.00     0.274 HD
ENDBRANCH  17  18
ENDBRANCH   5  17
TORSDOF 4
ENDMDL
