MODEL 7
REMARK VINA RESULT: -6.870703366      3.074      4.699
REMARK  4 active torsions:
REMARK  status: ('A' for Active; 'I' for Inactive)
REMARK    1  A    between atoms: C2_2  and  C3_3 
REMARK    2  A    between atoms: C8_8  and  C9_9 
REMARK    3  A    between atoms: C12_13  and  C13_14 
REMARK    4  A    between atoms: C13_14  and  N1_15 
ROOT
HETATM    1  C9  UNL     1    -111.714-176.091 308.320  1.00  0.00     0.018 A 
HETATM    2  C10 UNL     1    -112.457-175.229 307.532  1.00  0.00     0.047 A 
HETATM    3 CL1  UNL     1    -113.930-174.567 308.215  1.00  0.00    -0.083 Cl
HETATM    4  C11 UNL     1    -112.064-174.891 306.255  1.00  0.00     0.033 A 
HETATM    5  C12 UNL     1    -110.897-175.410 305.703  1.00  0.00    -0.030 A 
HETATM    6  C14 UNL     1    -110.186-176.263 306.514  1.00  0.00     0.033 A 
HETATM    7  C15 UNL     1    -110.559-176.610 307.786  1.00  0.00     0.047 A 
HETATM    8 CL2  UNL     1    -109.565-177.751 308.722  1.00  0.00    -0.083 Cl
ENDROOT
BRANCH   1   9
HETATM    9  C8  UNL     1    -112.121-176.479 309.655  1.00  0.00    -0.016 A 
HETATM   10  C3  UNL     1    -111.621-175.900 310.789  1.00  0.00    -0.047 A 
HETATM   11  C4  UNL     1    -112.021-176.312 312.061  1.00  0.00     0.008 A 
HETATM   12  C5  UNL     1    -112.935-177.315 312.221  1.00  0.00     0.001 A 
HETATM   13  C6  UNL     1    -113.464-177.925 311.080  1.00  0.00     0.001 A 
HETATM   14  C7  UNL     1    -113.056-177.505 309.828  1.00  0.00     0.013 A 
BRANCH  10  15
HETATM   15  C2  UNL     1    -110.649-174.799 310.685  1.00  0.00     0.035 C 
HETATM   16  C1  UNL     1    -109.356-175.136 311.338  1.00  0.00     0.010 C 
ENDBRANCH  10  15
ENDBRANCH   1   9
BRANCH   5  17
HETATM   17  C13 UNL     1    -110.435-175.075 304.333  1.00  0.00     0.268 C 
BRANCH  17  18
HETATM   18  N1  UNL     1    -110.454-176.220 303.448  1.00  0.00    -0.075 N 
ATOM     19  H13 UNL     1    -111.164-176.894 303.734  1.00  0.00     0.274 HD
ATOM     20  H12 UNL     1    -110.824-175.970 302.532  1.00  0.00     0.274 HD
ATOM     21  H11 UNL     1    -109.539-176.663 303.366  1.00  0.00     0.274 HD
ENDBRANCH  17  18
ENDBRANCH   5  17
TORSDOF 4
ENDMDL
