MODEL 2
REMARK VINA RESULT: -8.721312321      0.473      2.172
REMARK  4 active torsions:
REMARK  status: ('A' for Active; 'I' for Inactive)
REMARK    1  A    between atoms: C2_2  and  C3_3 
REMARK    2  A    between atoms: C8_8  and  C9_9 
REMARK    3  A    between atoms: C12_13  and  C13_14 
REMARK    4  A    between atoms: C13_14  and  N1_15 
ROOT
HETATM    1  C9  UNL     1    -113.149-175.374 309.536  1.00  0.00     0.018 A 
HETATM    2  C10 UNL     1    -113.569-174.135 309.084  1.00  0.00     0.047 A 
HETATM    3 CL1  UNL     1    -112.376-172.852 309.005  1.00  0.00    -0.083 Cl
HETATM    4  C11 UNL     1    -114.874-173.903 308.705  1.00  0.00     0.033 A 
HETATM    5  C12 UNL     1    -115.827-174.913 308.763  1.00  0.00    -0.030 A 
HETATM    6  C14 UNL     1    -115.376-176.130 309.218  1.00  0.00     0.033 A 
HETATM    7  C15 UNL     1    -114.084-176.381 309.599  1.00  0.00     0.047 A 
HETATM    8 CL2  UNL     1    -113.633-177.994 310.199  1.00  0.00    -0.083 Cl
ENDROOT
BRANCH   1   9
HETATM    9  C8  UNL     1    -111.790-175.634 309.963  1.00  0.00    -0.016 A 
HETATM   10  C3  UNL     1    -110.832-176.158 309.139  1.00  0.00    -0.047 A 
HETATM   11  C4  UNL     1    -109.536-176.414 309.590  1.00  0.00     0.008 A 
HETATM   12  C5  UNL     1    -109.175-176.147 310.879  1.00  0.00     0.001 A 
HETATM   13  C6  UNL     1    -110.132-175.610 311.745  1.00  0.00     0.001 A 
HETATM   14  C7  UNL     1    -111.411-175.364 311.283  1.00  0.00     0.013 A 
BRANCH  10  15
HETATM   15  C2  UNL     1    -111.153-176.449 307.732  1.00  0.00     0.035 C 
HETATM   16  C1  UNL     1    -110.618-175.408 306.813  1.00  0.00     0.010 C 
ENDBRANCH  10  15
ENDBRANCH   1   9
BRANCH   5  17
HETATM   17  C13 UNL     1    -117.242-174.709 308.365  1.00  0.00     0.268 C 
BRANCH  17  18
HETATM   18  N1  UNL     1    -118.165-174.982 309.446  1.00  0.00    -0.075 N 
ATOM     19  H13 UNL     1    -117.705-174.901 310.353  1.00  0.00     0.274 HD
ATOM     20  H12 UNL     1    -118.850-174.232 309.543  1.00  0.00     0.274 HD
ATOM     21  H11 UNL     1    -118.624-175.887 309.347  1.00  0.00     0.274 HD
ENDBRANCH  17  18
ENDBRANCH   5  17
TORSDOF 4
ENDMDL
