MODEL 9
REMARK VINA RESULT: -6.654458761      2.948      5.520
REMARK  4 active torsions:
REMARK  status: ('A' for Active; 'I' for Inactive)
REMARK    1  A    between atoms: C2_2  and  C3_3 
REMARK    2  A    between atoms: C8_8  and  C9_9 
REMARK    3  A    between atoms: C12_13  and  C13_14 
REMARK    4  A    between atoms: C13_14  and  N1_15 
ROOT
HETATM    1  C9  UNL     1    -112.416-176.400 309.180  1.00  0.00     0.018 A 
HETATM    2  C10 UNL     1    -112.005-177.082 310.312  1.00  0.00     0.047 A 
HETATM    3 CL1  UNL     1    -113.172-177.296 311.602  1.00  0.00    -0.083 Cl
HETATM    4  C11 UNL     1    -110.726-177.582 310.435  1.00  0.00     0.033 A 
HETATM    5  C12 UNL     1    -109.792-177.418 309.418  1.00  0.00    -0.030 A 
HETATM    6  C14 UNL     1    -110.235-176.735 308.310  1.00  0.00     0.033 A 
HETATM    7  C15 UNL     1    -111.501-176.231 308.168  1.00  0.00     0.047 A 
HETATM    8 CL2  UNL     1    -111.941-175.338 306.694  1.00  0.00    -0.083 Cl
ENDROOT
BRANCH   1   9
HETATM    9  C8  UNL     1    -113.746-175.844 309.041  1.00  0.00    -0.016 A 
HETATM   10  C3  UNL     1    -114.059-174.554 309.372  1.00  0.00    -0.047 A 
HETATM   11  C4  UNL     1    -115.356-174.057 309.243  1.00  0.00     0.008 A 
HETATM   12  C5  UNL     1    -116.369-174.846 308.776  1.00  0.00     0.001 A 
HETATM   13  C6  UNL     1    -116.079-176.169 308.428  1.00  0.00     0.001 A 
HETATM   14  C7  UNL     1    -114.789-176.645 308.563  1.00  0.00     0.013 A 
BRANCH  10  15
HETATM   15  C2  UNL     1    -113.008-173.646 309.861  1.00  0.00     0.035 C 
HETATM   16  C1  UNL     1    -112.504-172.749 308.787  1.00  0.00     0.010 C 
ENDBRANCH  10  15
ENDBRANCH   1   9
BRANCH   5  17
HETATM   17  C13 UNL     1    -108.405-177.939 309.506  1.00  0.00     0.268 C 
BRANCH  17  18
HETATM   18  N1  UNL     1    -107.475-176.952 310.011  1.00  0.00    -0.075 N 
ATOM     19  H13 UNL     1    -107.764-176.008 309.752  1.00  0.00     0.274 HD
ATOM     20  H12 UNL     1    -107.540-176.871 311.025  1.00  0.00     0.274 HD
ATOM     21  H11 UNL     1    -106.515-177.136 309.717  1.00  0.00     0.274 HD
ENDBRANCH  17  18
ENDBRANCH   5  17
TORSDOF 4
ENDMDL
