MODEL 7
REMARK VINA RESULT: -8.627052232      4.499      7.953
REMARK  7 active torsions:
REMARK  status: ('A' for Active; 'I' for Inactive)
REMARK    1  A    between atoms: C2_3  and  C3_4 
REMARK    2  A    between atoms: C3_4  and  C4_5 
REMARK    3  A    between atoms: C4_5  and  O1_6 
REMARK    4  A    between atoms: C4_5  and  C5_8 
REMARK    5  A    between atoms: C14_17  and  C15_18 
REMARK    6  A    between atoms: C15_18  and  C16_19 
REMARK    7  A    between atoms: C16_19  and  C17_21 
ROOT
HETATM    1  C1  UNL     1      31.846 -17.287  -0.384  1.00  0.00     0.310 C 
HETATM    2  N1  UNL     1      32.511 -18.067   0.629  1.00  0.00     0.094 N 
HETATM    3  C2  UNL     1      31.704 -18.081   1.828  1.00  0.00     0.226 C 
HETATM    4  C11 UNL     1      31.718 -16.802   2.594  1.00  0.00     0.036 C 
HETATM    5  C12 UNL     1      33.178 -16.489   2.948  1.00  0.00     0.004 C 
HETATM    6  C13 UNL     1      33.886 -16.298   1.627  1.00  0.00     0.036 C 
HETATM    7  C14 UNL     1      33.833 -17.651   0.923  1.00  0.00     0.230 C 
ENDROOT
BRANCH   3   8
HETATM    8  C3  UNL     1      30.308 -18.564   1.547  1.00  0.00     0.072 C 
BRANCH   8   9
HETATM    9  C4  UNL     1      29.667 -19.100   2.788  1.00  0.00     0.153 C 
BRANCH   9  10
HETATM   10  O1  UNL     1      29.218 -20.405   2.479  1.00  0.00    -0.391 OA
ATOM     11  H1  UNL     1      28.348 -20.488   2.851  1.00  0.00     0.210 HD
ENDBRANCH   9  10
BRANCH   9  12
HETATM   12  C5  UNL     1      28.437 -18.343   3.157  1.00  0.00    -0.030 A 
HETATM   13  C6  UNL     1      27.234 -18.876   2.702  1.00  0.00     0.010 A 
HETATM   14  C7  UNL     1      26.033 -18.247   2.990  1.00  0.00     0.001 A 
HETATM   15  C8  UNL     1      26.029 -17.081   3.737  1.00  0.00     0.000 A 
HETATM   16  C9  UNL     1      27.243 -16.589   4.167  1.00  0.00     0.001 A 
HETATM   17  C10 UNL     1      28.453 -17.193   3.895  1.00  0.00     0.010 A 
ENDBRANCH   9  12
ENDBRANCH   8   9
ENDBRANCH   3   8
BRANCH   7  18
HETATM   18  C15 UNL     1      34.787 -17.594  -0.207  1.00  0.00     0.119 C 
BRANCH  18  19
HETATM   19  C16 UNL     1      35.893 -18.565  -0.167  1.00  0.00     0.161 C 
HETATM   20  O2  UNL     1      35.774 -19.736   0.280  1.00  0.00    -0.292 OA
BRANCH  19  21
HETATM   21  C17 UNL     1      37.211 -18.192  -0.660  1.00  0.00     0.010 A 
HETATM   22  C18 UNL     1      38.286 -18.239   0.194  1.00  0.00     0.015 A 
HETATM   23  C19 UNL     1      39.577 -17.898  -0.199  1.00  0.00     0.001 A 
HETATM   24  C20 UNL     1      39.787 -17.497  -1.501  1.00  0.00     0.000 A 
HETATM   25  C21 UNL     1      38.714 -17.444  -2.375  1.00  0.00     0.001 A 
HETATM   26  C22 UNL     1      37.446 -17.788  -1.957  1.00  0.00     0.015 A 
ENDBRANCH  19  21
ENDBRANCH  18  19
ENDBRANCH   7  18
TORSDOF 7
ENDMDL
