MODEL 11
REMARK VINA RESULT: -8.466661498      4.556      8.039
REMARK  7 active torsions:
REMARK  status: ('A' for Active; 'I' for Inactive)
REMARK    1  A    between atoms: C2_3  and  C3_4 
REMARK    2  A    between atoms: C3_4  and  C4_5 
REMARK    3  A    between atoms: C4_5  and  O1_6 
REMARK    4  A    between atoms: C4_5  and  C5_8 
REMARK    5  A    between atoms: C14_17  and  C15_18 
REMARK    6  A    between atoms: C15_18  and  C16_19 
REMARK    7  A    between atoms: C16_19  and  C17_21 
ROOT
HETATM    1  C1  UNL     1      31.810 -17.736  -0.496  1.00  0.00     0.310 C 
HETATM    2  N1  UNL     1      32.510 -18.393   0.577  1.00  0.00     0.094 N 
HETATM    3  C2  UNL     1      31.633 -18.507   1.721  1.00  0.00     0.226 C 
HETATM    4  C11 UNL     1      31.407 -17.229   2.453  1.00  0.00     0.036 C 
HETATM    5  C12 UNL     1      32.779 -16.699   2.894  1.00  0.00     0.004 C 
HETATM    6  C13 UNL     1      33.540 -16.426   1.619  1.00  0.00     0.036 C 
HETATM    7  C14 UNL     1      33.734 -17.783   0.947  1.00  0.00     0.230 C 
ENDROOT
BRANCH   3   8
HETATM    8  C3  UNL     1      30.345 -19.195   1.361  1.00  0.00     0.072 C 
BRANCH   8   9
HETATM    9  C4  UNL     1      29.966 -20.201   2.402  1.00  0.00     0.153 C 
BRANCH   9  10
HETATM   10  O1  UNL     1      29.618 -21.385   1.713  1.00  0.00    -0.391 OA
ATOM     11  H1  UNL     1      29.031 -21.869   2.282  1.00  0.00     0.210 HD
ENDBRANCH   9  10
BRANCH   9  12
HETATM   12  C5  UNL     1      28.733 -19.805   3.142  1.00  0.00    -0.030 A 
HETATM   13  C6  UNL     1      27.896 -18.902   2.493  1.00  0.00     0.010 A 
HETATM   14  C7  UNL     1      26.726 -18.470   3.096  1.00  0.00     0.001 A 
HETATM   15  C8  UNL     1      26.385 -18.942   4.353  1.00  0.00     0.000 A 
HETATM   16  C9  UNL     1      27.243 -19.835   4.958  1.00  0.00     0.001 A 
HETATM   17  C10 UNL     1      28.414 -20.281   4.382  1.00  0.00     0.010 A 
ENDBRANCH   9  12
ENDBRANCH   8   9
ENDBRANCH   3   8
BRANCH   7  18
HETATM   18  C15 UNL     1      34.745 -17.604  -0.119  1.00  0.00     0.119 C 
BRANCH  18  19
HETATM   19  C16 UNL     1      35.827 -18.601  -0.156  1.00  0.00     0.161 C 
HETATM   20  O2  UNL     1      35.680 -19.799   0.202  1.00  0.00    -0.292 OA
BRANCH  19  21
HETATM   21  C17 UNL     1      37.154 -18.223  -0.622  1.00  0.00     0.010 A 
HETATM   22  C18 UNL     1      38.215 -18.282   0.249  1.00  0.00     0.015 A 
HETATM   23  C19 UNL     1      39.511 -17.937  -0.118  1.00  0.00     0.001 A 
HETATM   24  C20 UNL     1      39.743 -17.519  -1.411  1.00  0.00     0.000 A 
HETATM   25  C21 UNL     1      38.685 -17.453  -2.302  1.00  0.00     0.001 A 
HETATM   26  C22 UNL     1      37.410 -17.801  -1.909  1.00  0.00     0.015 A 
ENDBRANCH  19  21
ENDBRANCH  18  19
ENDBRANCH   7  18
TORSDOF 7
ENDMDL
