MODEL 6
REMARK VINA RESULT: -8.676695602      1.206      7.539
REMARK  7 active torsions:
REMARK  status: ('A' for Active; 'I' for Inactive)
REMARK    1  A    between atoms: C2_3  and  C3_4 
REMARK    2  A    between atoms: C3_4  and  C4_5 
REMARK    3  A    between atoms: C4_5  and  O1_6 
REMARK    4  A    between atoms: C4_5  and  C5_8 
REMARK    5  A    between atoms: C14_17  and  C15_18 
REMARK    6  A    between atoms: C15_18  and  C16_19 
REMARK    7  A    between atoms: C16_19  and  C17_21 
ROOT
HETATM    1  C1  UNL     1      38.572 -16.222  -3.422  1.00  0.00     0.310 C 
HETATM    2  N1  UNL     1      38.397 -15.917  -2.026  1.00  0.00     0.094 N 
HETATM    3  C2  UNL     1      39.639 -15.412  -1.487  1.00  0.00     0.226 C 
HETATM    4  C11 UNL     1      40.688 -16.451  -1.280  1.00  0.00     0.036 C 
HETATM    5  C12 UNL     1      40.105 -17.519  -0.344  1.00  0.00     0.004 C 
HETATM    6  C13 UNL     1      38.935 -18.118  -1.087  1.00  0.00     0.036 C 
HETATM    7  C14 UNL     1      37.914 -16.993  -1.241  1.00  0.00     0.230 C 
ENDROOT
BRANCH   3   8
HETATM    8  C3  UNL     1      40.146 -14.238  -2.278  1.00  0.00     0.072 C 
BRANCH   8   9
HETATM    9  C4  UNL     1      41.214 -13.508  -1.527  1.00  0.00     0.153 C 
BRANCH   9  10
HETATM   10  O1  UNL     1      41.262 -14.078  -0.234  1.00  0.00    -0.391 OA
ATOM     11  H1  UNL     1      42.168 -14.034   0.049  1.00  0.00     0.210 HD
ENDBRANCH   9  10
BRANCH   9  12
HETATM   12  C5  UNL     1      40.866 -12.075  -1.306  1.00  0.00    -0.030 A 
HETATM   13  C6  UNL     1      41.424 -11.166  -2.199  1.00  0.00     0.010 A 
HETATM   14  C7  UNL     1      41.163  -9.810  -2.080  1.00  0.00     0.001 A 
HETATM   15  C8  UNL     1      40.339  -9.356  -1.063  1.00  0.00     0.000 A 
HETATM   16  C9  UNL     1      39.807 -10.291  -0.201  1.00  0.00     0.001 A 
HETATM   17  C10 UNL     1      40.050 -11.645  -0.296  1.00  0.00     0.010 A 
ENDBRANCH   9  12
ENDBRANCH   8   9
ENDBRANCH   3   8
BRANCH   7  18
HETATM   18  C15 UNL     1      36.638 -17.614  -1.663  1.00  0.00     0.119 C 
BRANCH  18  19
HETATM   19  C16 UNL     1      35.785 -18.131  -0.581  1.00  0.00     0.161 C 
HETATM   20  O2  UNL     1      36.093 -19.118   0.136  1.00  0.00    -0.292 OA
BRANCH  19  21
HETATM   21  C17 UNL     1      34.506 -17.496  -0.292  1.00  0.00     0.010 A 
HETATM   22  C18 UNL     1      34.485 -16.314   0.408  1.00  0.00     0.015 A 
HETATM   23  C19 UNL     1      33.306 -15.647   0.724  1.00  0.00     0.001 A 
HETATM   24  C20 UNL     1      32.108 -16.193   0.318  1.00  0.00     0.000 A 
HETATM   25  C21 UNL     1      32.110 -17.384  -0.389  1.00  0.00     0.001 A 
HETATM   26  C22 UNL     1      33.295 -18.023  -0.688  1.00  0.00     0.015 A 
ENDBRANCH  19  21
ENDBRANCH  18  19
ENDBRANCH   7  18
TORSDOF 7
ENDMDL
