MODEL 1
REMARK VINA RESULT: -9.412972641      0.000      0.000
REMARK  7 active torsions:
REMARK  status: ('A' for Active; 'I' for Inactive)
REMARK    1  A    between atoms: C2_3  and  C3_4 
REMARK    2  A    between atoms: C3_4  and  C4_5 
REMARK    3  A    between atoms: C4_5  and  O1_6 
REMARK    4  A    between atoms: C4_5  and  C5_8 
REMARK    5  A    between atoms: C14_17  and  C15_18 
REMARK    6  A    between atoms: C15_18  and  C16_19 
REMARK    7  A    between atoms: C16_19  and  C17_21 
ROOT
HETATM    1  C1  UNL     1      38.651 -14.913  -0.730  1.00  0.00     0.310 C 
HETATM    2  N1  UNL     1      39.526 -15.698  -1.562  1.00  0.00     0.094 N 
HETATM    3  C2  UNL     1      39.002 -17.040  -1.675  1.00  0.00     0.226 C 
HETATM    4  C11 UNL     1      39.175 -17.873  -0.451  1.00  0.00     0.036 C 
HETATM    5  C12 UNL     1      40.676 -17.921  -0.131  1.00  0.00     0.004 C 
HETATM    6  C13 UNL     1      41.075 -16.495   0.164  1.00  0.00     0.036 C 
HETATM    7  C14 UNL     1      40.878 -15.724  -1.140  1.00  0.00     0.230 C 
ENDROOT
BRANCH   3   8
HETATM    8  C3  UNL     1      37.581 -17.037  -2.168  1.00  0.00     0.072 C 
BRANCH   8   9
HETATM    9  C4  UNL     1      36.812 -18.183  -1.590  1.00  0.00     0.153 C 
BRANCH   9  10
HETATM   10  O1  UNL     1      36.414 -18.993  -2.678  1.00  0.00    -0.391 OA
ATOM     11  H1  UNL     1      36.585 -19.892  -2.425  1.00  0.00     0.210 HD
ENDBRANCH   9  10
BRANCH   9  12
HETATM   12  C5  UNL     1      35.540 -17.740  -0.951  1.00  0.00    -0.030 A 
HETATM   13  C6  UNL     1      34.393 -18.429  -1.333  1.00  0.00     0.010 A 
HETATM   14  C7  UNL     1      33.159 -18.094  -0.797  1.00  0.00     0.001 A 
HETATM   15  C8  UNL     1      33.067 -17.065   0.126  1.00  0.00     0.000 A 
HETATM   16  C9  UNL     1      34.228 -16.410   0.476  1.00  0.00     0.001 A 
HETATM   17  C10 UNL     1      35.468 -16.722  -0.041  1.00  0.00     0.010 A 
ENDBRANCH   9  12
ENDBRANCH   8   9
ENDBRANCH   3   8
BRANCH   7  18
HETATM   18  C15 UNL     1      41.560 -14.420  -0.985  1.00  0.00     0.119 C 
BRANCH  18  19
HETATM   19  C16 UNL     1      41.259 -13.410  -2.013  1.00  0.00     0.161 C 
HETATM   20  O2  UNL     1      41.172 -13.672  -3.241  1.00  0.00    -0.292 OA
BRANCH  19  21
HETATM   21  C17 UNL     1      41.044 -12.021  -1.631  1.00  0.00     0.010 A 
HETATM   22  C18 UNL     1      40.470 -11.739  -0.416  1.00  0.00     0.015 A 
HETATM   23  C19 UNL     1      40.231 -10.440   0.022  1.00  0.00     0.001 A 
HETATM   24  C20 UNL     1      40.585  -9.391  -0.798  1.00  0.00     0.000 A 
HETATM   25  C21 UNL     1      41.166  -9.657  -2.028  1.00  0.00     0.001 A 
HETATM   26  C22 UNL     1      41.390 -10.955  -2.434  1.00  0.00     0.015 A 
ENDBRANCH  19  21
ENDBRANCH  18  19
ENDBRANCH   7  18
TORSDOF 7
ENDMDL
