MODEL 9
REMARK VINA RESULT: -8.601047781      4.006      9.668
REMARK  7 active torsions:
REMARK  status: ('A' for Active; 'I' for Inactive)
REMARK    1  A    between atoms: C2_3  and  C3_4 
REMARK    2  A    between atoms: C3_4  and  C4_5 
REMARK    3  A    between atoms: C4_5  and  O1_6 
REMARK    4  A    between atoms: C4_5  and  C5_8 
REMARK    5  A    between atoms: C14_17  and  C15_18 
REMARK    6  A    between atoms: C15_18  and  C16_19 
REMARK    7  A    between atoms: C16_19  and  C17_21 
ROOT
HETATM    1  C1  UNL     1      34.977 -19.949   0.490  1.00  0.00     0.310 C 
HETATM    2  N1  UNL     1      34.164 -19.253  -0.474  1.00  0.00     0.094 N 
HETATM    3  C2  UNL     1      34.940 -18.193  -1.078  1.00  0.00     0.226 C 
HETATM    4  C11 UNL     1      35.164 -17.014  -0.194  1.00  0.00     0.036 C 
HETATM    5  C12 UNL     1      33.787 -16.481   0.226  1.00  0.00     0.004 C 
HETATM    6  C13 UNL     1      33.144 -17.595   1.018  1.00  0.00     0.036 C 
HETATM    7  C14 UNL     1      32.943 -18.747   0.036  1.00  0.00     0.230 C 
ENDROOT
BRANCH   3   8
HETATM    8  C3  UNL     1      36.221 -18.716  -1.668  1.00  0.00     0.072 C 
BRANCH   8   9
HETATM    9  C4  UNL     1      37.179 -17.600  -1.942  1.00  0.00     0.153 C 
BRANCH   9  10
HETATM   10  O1  UNL     1      37.585 -17.738  -3.289  1.00  0.00    -0.391 OA
ATOM     11  H1  UNL     1      37.224 -16.996  -3.760  1.00  0.00     0.210 HD
ENDBRANCH   9  10
BRANCH   9  12
HETATM   12  C5  UNL     1      38.431 -17.728  -1.144  1.00  0.00    -0.030 A 
HETATM   13  C6  UNL     1      39.602 -17.322  -1.778  1.00  0.00     0.010 A 
HETATM   14  C7  UNL     1      40.821 -17.401  -1.123  1.00  0.00     0.001 A 
HETATM   15  C8  UNL     1      40.874 -17.886   0.173  1.00  0.00     0.000 A 
HETATM   16  C9  UNL     1      39.691 -18.277   0.762  1.00  0.00     0.001 A 
HETATM   17  C10 UNL     1      38.465 -18.210   0.134  1.00  0.00     0.010 A 
ENDBRANCH   9  12
ENDBRANCH   8   9
ENDBRANCH   3   8
BRANCH   7  18
HETATM   18  C15 UNL     1      32.030 -19.717   0.681  1.00  0.00     0.119 C 
BRANCH  18  19
HETATM   19  C16 UNL     1      30.623 -19.662   0.251  1.00  0.00     0.161 C 
HETATM   20  O2  UNL     1      30.243 -19.933  -0.918  1.00  0.00    -0.292 OA
BRANCH  19  21
HETATM   21  C17 UNL     1      29.585 -19.278   1.196  1.00  0.00     0.010 A 
HETATM   22  C18 UNL     1      29.928 -18.562   2.317  1.00  0.00     0.015 A 
HETATM   23  C19 UNL     1      28.995 -18.158   3.268  1.00  0.00     0.001 A 
HETATM   24  C20 UNL     1      27.672 -18.490   3.078  1.00  0.00     0.000 A 
HETATM   25  C21 UNL     1      27.308 -19.212   1.953  1.00  0.00     0.001 A 
HETATM   26  C22 UNL     1      28.255 -19.599   1.028  1.00  0.00     0.015 A 
ENDBRANCH  19  21
ENDBRANCH  18  19
ENDBRANCH   7  18
TORSDOF 7
ENDMDL
