MODEL 2
REMARK VINA RESULT: -9.003771757      1.216      7.622
REMARK  7 active torsions:
REMARK  status: ('A' for Active; 'I' for Inactive)
REMARK    1  A    between atoms: C2_3  and  C3_4 
REMARK    2  A    between atoms: C3_4  and  C4_5 
REMARK    3  A    between atoms: C4_5  and  O1_6 
REMARK    4  A    between atoms: C4_5  and  C5_8 
REMARK    5  A    between atoms: C14_17  and  C15_18 
REMARK    6  A    between atoms: C15_18  and  C16_19 
REMARK    7  A    between atoms: C16_19  and  C17_21 
ROOT
HETATM    1  C1  UNL     1      38.361 -14.991  -2.037  1.00  0.00     0.310 C 
HETATM    2  N1  UNL     1      38.531 -15.749  -0.824  1.00  0.00     0.094 N 
HETATM    3  C2  UNL     1      39.826 -15.454  -0.253  1.00  0.00     0.226 C 
HETATM    4  C11 UNL     1      40.973 -16.073  -0.977  1.00  0.00     0.036 C 
HETATM    5  C12 UNL     1      40.743 -17.591  -0.998  1.00  0.00     0.004 C 
HETATM    6  C13 UNL     1      39.472 -17.799  -1.788  1.00  0.00     0.036 C 
HETATM    7  C14 UNL     1      38.358 -17.147  -0.971  1.00  0.00     0.230 C 
ENDROOT
BRANCH   3   8
HETATM    8  C3  UNL     1      40.012 -13.976  -0.045  1.00  0.00     0.072 C 
BRANCH   8   9
HETATM    9  C4  UNL     1      41.091 -13.442  -0.933  1.00  0.00     0.153 C 
BRANCH   9  10
HETATM   10  O1  UNL     1      42.311 -13.624  -0.242  1.00  0.00    -0.391 OA
ATOM     11  H1  UNL     1      43.006 -13.450  -0.866  1.00  0.00     0.210 HD
ENDBRANCH   9  10
BRANCH   9  12
HETATM   12  C5  UNL     1      40.975 -11.970  -1.135  1.00  0.00    -0.030 A 
HETATM   13  C6  UNL     1      40.396 -11.255  -0.090  1.00  0.00     0.010 A 
HETATM   14  C7  UNL     1      40.241  -9.881  -0.178  1.00  0.00     0.001 A 
HETATM   15  C8  UNL     1      40.667  -9.213  -1.315  1.00  0.00     0.000 A 
HETATM   16  C9  UNL     1      41.234  -9.960  -2.325  1.00  0.00     0.001 A 
HETATM   17  C10 UNL     1      41.400 -11.327  -2.264  1.00  0.00     0.010 A 
ENDBRANCH   9  12
ENDBRANCH   8   9
ENDBRANCH   3   8
BRANCH   7  18
HETATM   18  C15 UNL     1      37.072 -17.610  -1.538  1.00  0.00     0.119 C 
BRANCH  18  19
HETATM   19  C16 UNL     1      36.139 -18.239  -0.588  1.00  0.00     0.161 C 
HETATM   20  O2  UNL     1      36.417 -19.270   0.079  1.00  0.00    -0.292 OA
BRANCH  19  21
HETATM   21  C17 UNL     1      34.814 -17.672  -0.381  1.00  0.00     0.010 A 
HETATM   22  C18 UNL     1      34.690 -16.487   0.303  1.00  0.00     0.015 A 
HETATM   23  C19 UNL     1      33.460 -15.881   0.543  1.00  0.00     0.001 A 
HETATM   24  C20 UNL     1      32.319 -16.494   0.075  1.00  0.00     0.000 A 
HETATM   25  C21 UNL     1      32.425 -17.689  -0.617  1.00  0.00     0.001 A 
HETATM   26  C22 UNL     1      33.658 -18.266  -0.840  1.00  0.00     0.015 A 
ENDBRANCH  19  21
ENDBRANCH  18  19
ENDBRANCH   7  18
TORSDOF 7
ENDMDL
