MODEL 5
REMARK VINA RESULT: -8.777892693      1.232      7.637
REMARK  7 active torsions:
REMARK  status: ('A' for Active; 'I' for Inactive)
REMARK    1  A    between atoms: C2_3  and  C3_4 
REMARK    2  A    between atoms: C3_4  and  C4_5 
REMARK    3  A    between atoms: C4_5  and  O1_6 
REMARK    4  A    between atoms: C4_5  and  C5_8 
REMARK    5  A    between atoms: C14_17  and  C15_18 
REMARK    6  A    between atoms: C15_18  and  C16_19 
REMARK    7  A    between atoms: C16_19  and  C17_21 
ROOT
HETATM    1  C1  UNL     1      38.325 -15.029  -2.029  1.00  0.00     0.310 C 
HETATM    2  N1  UNL     1      38.507 -15.781  -0.814  1.00  0.00     0.094 N 
HETATM    3  C2  UNL     1      39.794 -15.458  -0.240  1.00  0.00     0.226 C 
HETATM    4  C11 UNL     1      40.955 -16.055  -0.958  1.00  0.00     0.036 C 
HETATM    5  C12 UNL     1      40.756 -17.577  -0.977  1.00  0.00     0.004 C 
HETATM    6  C13 UNL     1      39.493 -17.813  -1.770  1.00  0.00     0.036 C 
HETATM    7  C14 UNL     1      38.363 -17.183  -0.958  1.00  0.00     0.230 C 
ENDROOT
BRANCH   3   8
HETATM    8  C3  UNL     1      39.949 -13.976  -0.034  1.00  0.00     0.072 C 
BRANCH   8   9
HETATM    9  C4  UNL     1      41.044 -13.429  -0.893  1.00  0.00     0.153 C 
BRANCH   9  10
HETATM   10  O1  UNL     1      42.260 -13.716  -0.231  1.00  0.00    -0.391 OA
ATOM     11  H1  UNL     1      42.911 -13.125  -0.589  1.00  0.00     0.210 HD
ENDBRANCH   9  10
BRANCH   9  12
HETATM   12  C5  UNL     1      40.996 -11.941  -0.985  1.00  0.00    -0.030 A 
HETATM   13  C6  UNL     1      41.329 -11.395  -2.222  1.00  0.00     0.010 A 
HETATM   14  C7  UNL     1      41.315 -10.023  -2.411  1.00  0.00     0.001 A 
HETATM   15  C8  UNL     1      40.967  -9.187  -1.363  1.00  0.00     0.000 A 
HETATM   16  C9  UNL     1      40.644  -9.770  -0.156  1.00  0.00     0.001 A 
HETATM   17  C10 UNL     1      40.650 -11.132   0.061  1.00  0.00     0.010 A 
ENDBRANCH   9  12
ENDBRANCH   8   9
ENDBRANCH   3   8
BRANCH   7  18
HETATM   18  C15 UNL     1      37.089 -17.673  -1.528  1.00  0.00     0.119 C 
BRANCH  18  19
HETATM   19  C16 UNL     1      36.141 -18.267  -0.570  1.00  0.00     0.161 C 
HETATM   20  O2  UNL     1      36.380 -19.316   0.084  1.00  0.00    -0.292 OA
BRANCH  19  21
HETATM   21  C17 UNL     1      34.847 -17.640  -0.338  1.00  0.00     0.010 A 
HETATM   22  C18 UNL     1      33.710 -18.252  -0.808  1.00  0.00     0.015 A 
HETATM   23  C19 UNL     1      32.438 -17.719  -0.628  1.00  0.00     0.001 A 
HETATM   24  C20 UNL     1      32.312 -16.525   0.050  1.00  0.00     0.000 A 
HETATM   25  C21 UNL     1      33.448 -15.894   0.530  1.00  0.00     0.001 A 
HETATM   26  C22 UNL     1      34.696 -16.448   0.336  1.00  0.00     0.015 A 
ENDBRANCH  19  21
ENDBRANCH  18  19
ENDBRANCH   7  18
TORSDOF 7
ENDMDL
