MODEL 8
REMARK VINA RESULT: -8.605017804      1.259      2.177
REMARK  7 active torsions:
REMARK  status: ('A' for Active; 'I' for Inactive)
REMARK    1  A    between atoms: C2_3  and  C3_4 
REMARK    2  A    between atoms: C3_4  and  C4_5 
REMARK    3  A    between atoms: C4_5  and  O1_6 
REMARK    4  A    between atoms: C4_5  and  C5_8 
REMARK    5  A    between atoms: C14_17  and  C15_18 
REMARK    6  A    between atoms: C15_18  and  C16_19 
REMARK    7  A    between atoms: C16_19  and  C17_21 
ROOT
HETATM    1  C1  UNL     1      39.350 -17.272  -0.543  1.00  0.00     0.310 C 
HETATM    2  N1  UNL     1      38.272 -16.356  -0.816  1.00  0.00     0.094 N 
HETATM    3  C2  UNL     1      37.410 -16.921  -1.831  1.00  0.00     0.226 C 
HETATM    4  C11 UNL     1      37.981 -16.891  -3.208  1.00  0.00     0.036 C 
HETATM    5  C12 UNL     1      38.302 -15.429  -3.546  1.00  0.00     0.004 C 
HETATM    6  C13 UNL     1      39.355 -15.002  -2.551  1.00  0.00     0.036 C 
HETATM    7  C14 UNL     1      38.682 -15.051  -1.181  1.00  0.00     0.230 C 
ENDROOT
BRANCH   3   8
HETATM    8  C3  UNL     1      36.925 -18.290  -1.442  1.00  0.00     0.072 C 
BRANCH   8   9
HETATM    9  C4  UNL     1      36.258 -18.260  -0.103  1.00  0.00     0.153 C 
BRANCH   9  10
HETATM   10  O1  UNL     1      36.175 -19.601   0.337  1.00  0.00    -0.391 OA
ATOM     11  H1  UNL     1      36.784 -19.688   1.060  1.00  0.00     0.210 HD
ENDBRANCH   9  10
BRANCH   9  12
HETATM   12  C5  UNL     1      34.845 -17.793  -0.191  1.00  0.00    -0.030 A 
HETATM   13  C6  UNL     1      34.553 -16.605   0.473  1.00  0.00     0.010 A 
HETATM   14  C7  UNL     1      33.269 -16.085   0.454  1.00  0.00     0.001 A 
HETATM   15  C8  UNL     1      32.267 -16.753  -0.232  1.00  0.00     0.000 A 
HETATM   16  C9  UNL     1      32.600 -17.925  -0.875  1.00  0.00     0.001 A 
HETATM   17  C10 UNL     1      33.869 -18.465  -0.872  1.00  0.00     0.010 A 
ENDBRANCH   9  12
ENDBRANCH   8   9
ENDBRANCH   3   8
BRANCH   7  18
HETATM   18  C15 UNL     1      39.565 -14.334  -0.234  1.00  0.00     0.119 C 
BRANCH  18  19
HETATM   19  C16 UNL     1      40.755 -13.695  -0.820  1.00  0.00     0.161 C 
HETATM   20  O2  UNL     1      41.797 -14.325  -1.138  1.00  0.00    -0.292 OA
BRANCH  19  21
HETATM   21  C17 UNL     1      40.769 -12.258  -1.060  1.00  0.00     0.010 A 
HETATM   22  C18 UNL     1      40.225 -11.414  -0.122  1.00  0.00     0.015 A 
HETATM   23  C19 UNL     1      40.199 -10.032  -0.277  1.00  0.00     0.001 A 
HETATM   24  C20 UNL     1      40.741  -9.485  -1.420  1.00  0.00     0.000 A 
HETATM   25  C21 UNL     1      41.293 -10.321  -2.376  1.00  0.00     0.001 A 
HETATM   26  C22 UNL     1      41.304 -11.688  -2.195  1.00  0.00     0.015 A 
ENDBRANCH  19  21
ENDBRANCH  18  19
ENDBRANCH   7  18
TORSDOF 7
ENDMDL
