MODEL 7
REMARK VINA RESULT: -7.188541155      2.860      6.491
REMARK  6 active torsions:
REMARK  status: ('A' for Active; 'I' for Inactive)
REMARK    1  A    between atoms: C2_2  and  C4_4 
REMARK    2  A    between atoms: C4_4  and  C5_5 
REMARK    3  A    between atoms: C8_8  and  S1_9 
REMARK    4  A    between atoms: S1_9  and  N1_12 
REMARK    5  A    between atoms: N1_12  and  C9_14 
REMARK    6  A    between atoms: C14_19  and  N2_20 
ROOT
HETATM    1  C9  UNL     1      23.055  -0.440  14.620  1.00  0.00     0.071 A 
HETATM    2  C10 UNL     1      23.390   0.349  15.689  1.00  0.00     0.064 A 
HETATM    3  C11 UNL     1      23.695   1.706  15.590  1.00  0.00     0.066 A 
HETATM    4  C12 UNL     1      23.653   2.277  14.335  1.00  0.00     0.066 A 
HETATM    5  C13 UNL     1      23.319   1.507  13.242  1.00  0.00     0.063 A 
HETATM    6  C14 UNL     1      23.020   0.166  13.354  1.00  0.00     0.060 A 
HETATM    7  N3  UNL     1      23.943   3.592  14.203  1.00  0.00    -0.312 N 
HETATM    8  C19 UNL     1      23.898   4.182  12.887  1.00  0.00     0.160 C 
HETATM    9  C20 UNL     1      24.261   4.290  15.295  1.00  0.00     0.316 A 
HETATM   10  O3  UNL     1      24.531   5.509  15.182  1.00  0.00    -0.262 OA
HETATM   11  C21 UNL     1      24.309   3.739  16.563  1.00  0.00     0.316 A 
HETATM   12  O4  UNL     1      24.613   4.431  17.572  1.00  0.00    -0.262 OA
HETATM   13  N4  UNL     1      24.018   2.434  16.674  1.00  0.00    -0.312 N 
HETATM   14  C22 UNL     1      24.046   1.783  17.964  1.00  0.00     0.160 C 
ENDROOT
BRANCH   1  15
HETATM   15  N1  UNL     1      22.768  -1.823  14.731  1.00  0.00    -0.278 N 
ATOM     16  H1  UNL     1      23.314  -2.443  14.133  1.00  0.00     0.179 HD
BRANCH  15  17
HETATM   17  S1  UNL     1      21.632  -2.574  15.735  1.00  0.00     0.263 S 
HETATM   18  O1  UNL     1      22.126  -2.471  17.175  1.00  0.00    -0.200 OA
HETATM   19  O2  UNL     1      21.623  -4.046  15.388  1.00  0.00    -0.200 OA
BRANCH  17  20
HETATM   20  C8  UNL     1      20.000  -1.975  15.609  1.00  0.00     0.079 A 
HETATM   21  C7  UNL     1      19.115  -2.077  16.688  1.00  0.00     0.026 A 
HETATM   22  C6  UNL     1      17.812  -1.633  16.595  1.00  0.00     0.009 A 
HETATM   23  C5  UNL     1      17.318  -1.069  15.439  1.00  0.00    -0.058 A 
HETATM   24  C24 UNL     1      18.181  -0.964  14.368  1.00  0.00     0.009 A 
HETATM   25  C23 UNL     1      19.482  -1.408  14.463  1.00  0.00     0.026 A 
BRANCH  23  26
HETATM   26  C4  UNL     1      15.911  -0.595  15.354  1.00  0.00     0.042 C 
BRANCH  26  27
HETATM   27  C2  UNL     1      15.543  -0.186  13.945  1.00  0.00    -0.019 C 
HETATM   28  C1  UNL     1      15.731   1.328  13.868  1.00  0.00     0.010 C 
HETATM   29  C3  UNL     1      14.083  -0.542  13.710  1.00  0.00     0.010 C 
ENDBRANCH  26  27
ENDBRANCH  23  26
ENDBRANCH  17  20
ENDBRANCH  15  17
ENDBRANCH   1  15
BRANCH   6  30
HETATM   30  N2  UNL     1      22.673  -0.572  12.181  1.00  0.00    -0.379 N 
HETATM   31  C15 UNL     1      21.399  -0.551  11.534  1.00  0.00     0.123 C 
HETATM   32  C16 UNL     1      21.517  -1.386  10.287  1.00  0.00     0.021 C 
HETATM   33  C17 UNL     1      23.028  -1.387  10.025  1.00  0.00     0.021 C 
HETATM   34  C18 UNL     1      23.553  -1.469  11.448  1.00  0.00     0.123 C 
ENDBRANCH   6  30
TORSDOF 6
ENDMDL
