MODEL 6
REMARK VINA RESULT: -7.303784273      3.859      7.170
REMARK  6 active torsions:
REMARK  status: ('A' for Active; 'I' for Inactive)
REMARK    1  A    between atoms: C2_2  and  C4_4 
REMARK    2  A    between atoms: C4_4  and  C5_5 
REMARK    3  A    between atoms: C8_8  and  S1_9 
REMARK    4  A    between atoms: S1_9  and  N1_12 
REMARK    5  A    between atoms: N1_12  and  C9_14 
REMARK    6  A    between atoms: C14_19  and  N2_20 
ROOT
HETATM    1  C9  UNL     1      22.126  -1.258  17.999  1.00  0.00     0.071 A 
HETATM    2  C10 UNL     1      21.249  -1.231  19.052  1.00  0.00     0.064 A 
HETATM    3  C11 UNL     1      21.137  -0.165  19.944  1.00  0.00     0.066 A 
HETATM    4  C12 UNL     1      21.965   0.921  19.745  1.00  0.00     0.066 A 
HETATM    5  C13 UNL     1      22.857   0.920  18.694  1.00  0.00     0.063 A 
HETATM    6  C14 UNL     1      22.956  -0.142  17.819  1.00  0.00     0.060 A 
HETATM    7  N3  UNL     1      21.882   1.971  20.592  1.00  0.00    -0.312 N 
HETATM    8  C19 UNL     1      22.751   3.103  20.378  1.00  0.00     0.160 C 
HETATM    9  C20 UNL     1      21.001   1.919  21.593  1.00  0.00     0.316 A 
HETATM   10  O3  UNL     1      20.918   2.889  22.384  1.00  0.00    -0.262 OA
HETATM   11  C21 UNL     1      20.161   0.842  21.812  1.00  0.00     0.316 A 
HETATM   12  O4  UNL     1      19.341   0.829  22.769  1.00  0.00    -0.262 OA
HETATM   13  N4  UNL     1      20.258  -0.191  20.961  1.00  0.00    -0.312 N 
HETATM   14  C22 UNL     1      19.416  -1.355  21.121  1.00  0.00     0.160 C 
ENDROOT
BRANCH   1  15
HETATM   15  N1  UNL     1      22.244  -2.357  17.111  1.00  0.00    -0.278 N 
ATOM     16  H1  UNL     1      22.923  -3.071  17.372  1.00  0.00     0.179 HD
BRANCH  15  17
HETATM   17  S1  UNL     1      21.398  -2.630  15.672  1.00  0.00     0.263 S 
HETATM   18  O1  UNL     1      21.400  -4.130  15.395  1.00  0.00    -0.200 OA
HETATM   19  O2  UNL     1      22.186  -1.985  14.553  1.00  0.00    -0.200 OA
BRANCH  17  20
HETATM   20  C8  UNL     1      19.772  -2.006  15.622  1.00  0.00     0.079 A 
HETATM   21  C7  UNL     1      19.300  -1.324  14.494  1.00  0.00     0.026 A 
HETATM   22  C6  UNL     1      18.025  -0.801  14.450  1.00  0.00     0.009 A 
HETATM   23  C5  UNL     1      17.153  -0.921  15.511  1.00  0.00    -0.058 A 
HETATM   24  C24 UNL     1      17.607  -1.590  16.628  1.00  0.00     0.009 A 
HETATM   25  C23 UNL     1      18.881  -2.113  16.671  1.00  0.00     0.026 A 
BRANCH  23  26
HETATM   26  C4  UNL     1      15.781  -0.351  15.448  1.00  0.00     0.042 C 
BRANCH  26  27
HETATM   27  C2  UNL     1      14.768  -1.382  15.002  1.00  0.00    -0.019 C 
HETATM   28  C1  UNL     1      13.893  -0.705  13.950  1.00  0.00     0.010 C 
HETATM   29  C3  UNL     1      13.925  -1.775  16.206  1.00  0.00     0.010 C 
ENDBRANCH  26  27
ENDBRANCH  23  26
ENDBRANCH  17  20
ENDBRANCH  15  17
ENDBRANCH   1  15
BRANCH   6  30
HETATM   30  N2  UNL     1      23.896  -0.074  16.745  1.00  0.00    -0.379 N 
HETATM   31  C15 UNL     1      23.812   0.807  15.623  1.00  0.00     0.123 C 
HETATM   32  C16 UNL     1      25.061   0.610  14.805  1.00  0.00     0.021 C 
HETATM   33  C17 UNL     1      26.037   0.008  15.824  1.00  0.00     0.021 C 
HETATM   34  C18 UNL     1      25.095  -0.887  16.610  1.00  0.00     0.123 C 
ENDBRANCH   6  30
TORSDOF 6
ENDMDL
