MODEL 1
REMARK VINA RESULT: -7.881651215      0.000      0.000
REMARK  6 active torsions:
REMARK  status: ('A' for Active; 'I' for Inactive)
REMARK    1  A    between atoms: C2_2  and  C4_4 
REMARK    2  A    between atoms: C4_4  and  C5_5 
REMARK    3  A    between atoms: C8_8  and  S1_9 
REMARK    4  A    between atoms: S1_9  and  N1_12 
REMARK    5  A    between atoms: N1_12  and  C9_14 
REMARK    6  A    between atoms: C14_19  and  N2_20 
ROOT
HETATM    1  C9  UNL     1      20.741  -0.963  12.918  1.00  0.00     0.071 A 
HETATM    2  C10 UNL     1      20.241  -1.418  14.111  1.00  0.00     0.064 A 
HETATM    3  C11 UNL     1      18.957  -1.135  14.575  1.00  0.00     0.066 A 
HETATM    4  C12 UNL     1      18.151  -0.349  13.778  1.00  0.00     0.066 A 
HETATM    5  C13 UNL     1      18.628   0.123  12.574  1.00  0.00     0.063 A 
HETATM    6  C14 UNL     1      19.901  -0.165  12.127  1.00  0.00     0.060 A 
HETATM    7  N3  UNL     1      16.900  -0.056  14.198  1.00  0.00    -0.312 N 
HETATM    8  C19 UNL     1      16.063   0.768  13.360  1.00  0.00     0.160 C 
HETATM    9  C20 UNL     1      16.489  -0.538  15.373  1.00  0.00     0.316 A 
HETATM   10  O3  UNL     1      15.330  -0.271  15.771  1.00  0.00    -0.262 OA
HETATM   11  C21 UNL     1      17.279  -1.328  16.188  1.00  0.00     0.316 A 
HETATM   12  O4  UNL     1      16.856  -1.767  17.292  1.00  0.00    -0.262 OA
HETATM   13  N4  UNL     1      18.517  -1.609  15.755  1.00  0.00    -0.312 N 
HETATM   14  C22 UNL     1      19.405  -2.428  16.548  1.00  0.00     0.160 C 
ENDROOT
BRANCH   1  15
HETATM   15  N1  UNL     1      22.056  -1.240  12.468  1.00  0.00    -0.278 N 
ATOM     16  H1  UNL     1      22.129  -1.738  11.581  1.00  0.00     0.179 HD
BRANCH  15  17
HETATM   17  S1  UNL     1      23.520  -0.846  13.219  1.00  0.00     0.263 S 
HETATM   18  O1  UNL     1      24.602  -0.772  12.146  1.00  0.00    -0.200 OA
HETATM   19  O2  UNL     1      23.890  -2.001  14.124  1.00  0.00    -0.200 OA
BRANCH  17  20
HETATM   20  C8  UNL     1      23.510   0.611  14.174  1.00  0.00     0.079 A 
HETATM   21  C7  UNL     1      23.676   0.558  15.563  1.00  0.00     0.026 A 
HETATM   22  C6  UNL     1      23.643   1.701  16.335  1.00  0.00     0.009 A 
HETATM   23  C5  UNL     1      23.447   2.947  15.782  1.00  0.00    -0.058 A 
HETATM   24  C24 UNL     1      23.282   3.011  14.414  1.00  0.00     0.009 A 
HETATM   25  C23 UNL     1      23.314   1.869  13.643  1.00  0.00     0.026 A 
BRANCH  23  26
HETATM   26  C4  UNL     1      23.415   4.169  16.628  1.00  0.00     0.042 C 
BRANCH  26  27
HETATM   27  C2  UNL     1      22.123   4.938  16.451  1.00  0.00    -0.019 C 
HETATM   28  C1  UNL     1      22.516   6.370  16.097  1.00  0.00     0.010 C 
HETATM   29  C3  UNL     1      21.369   4.915  17.772  1.00  0.00     0.010 C 
ENDBRANCH  26  27
ENDBRANCH  23  26
ENDBRANCH  17  20
ENDBRANCH  15  17
ENDBRANCH   1  15
BRANCH   6  30
HETATM   30  N2  UNL     1      20.330   0.349  10.864  1.00  0.00    -0.379 N 
HETATM   31  C15 UNL     1      20.961   1.613  10.654  1.00  0.00     0.123 C 
HETATM   32  C16 UNL     1      21.331   1.691   9.197  1.00  0.00     0.021 C 
HETATM   33  C17 UNL     1      21.368   0.215   8.780  1.00  0.00     0.021 C 
HETATM   34  C18 UNL     1      20.196  -0.325   9.582  1.00  0.00     0.123 C 
ENDBRANCH   6  30
TORSDOF 6
ENDMDL
