MODEL 8
REMARK VINA RESULT: -7.140011569      1.050      1.523
REMARK  6 active torsions:
REMARK  status: ('A' for Active; 'I' for Inactive)
REMARK    1  A    between atoms: C2_2  and  C4_4 
REMARK    2  A    between atoms: C4_4  and  C5_5 
REMARK    3  A    between atoms: C8_8  and  S1_9 
REMARK    4  A    between atoms: S1_9  and  N1_12 
REMARK    5  A    between atoms: N1_12  and  C9_14 
REMARK    6  A    between atoms: C14_19  and  N2_20 
ROOT
HETATM    1  C9  UNL     1      20.738  -1.138  13.560  1.00  0.00     0.071 A 
HETATM    2  C10 UNL     1      20.072  -1.541  14.688  1.00  0.00     0.064 A 
HETATM    3  C11 UNL     1      18.723  -1.286  14.929  1.00  0.00     0.066 A 
HETATM    4  C12 UNL     1      18.026  -0.585  13.966  1.00  0.00     0.066 A 
HETATM    5  C13 UNL     1      18.670  -0.168  12.821  1.00  0.00     0.063 A 
HETATM    6  C14 UNL     1      20.006  -0.427  12.596  1.00  0.00     0.060 A 
HETATM    7  N3  UNL     1      16.715  -0.321  14.167  1.00  0.00    -0.312 N 
HETATM    8  C19 UNL     1      15.994   0.413  13.156  1.00  0.00     0.160 C 
HETATM    9  C20 UNL     1      16.142  -0.748  15.294  1.00  0.00     0.316 A 
HETATM   10  O3  UNL     1      14.927  -0.507  15.489  1.00  0.00    -0.262 OA
HETATM   11  C21 UNL     1      16.820  -1.452  16.273  1.00  0.00     0.316 A 
HETATM   12  O4  UNL     1      16.243  -1.839  17.325  1.00  0.00    -0.262 OA
HETATM   13  N4  UNL     1      18.119  -1.705  16.055  1.00  0.00    -0.312 N 
HETATM   14  C22 UNL     1      18.898  -2.434  17.030  1.00  0.00     0.160 C 
ENDROOT
BRANCH   1  15
HETATM   15  N1  UNL     1      22.115  -1.385  13.337  1.00  0.00    -0.278 N 
ATOM     16  H1  UNL     1      22.335  -2.069  12.613  1.00  0.00     0.179 HD
BRANCH  15  17
HETATM   17  S1  UNL     1      23.440  -0.686  14.124  1.00  0.00     0.263 S 
HETATM   18  O1  UNL     1      24.715  -1.215  13.473  1.00  0.00    -0.200 OA
HETATM   19  O2  UNL     1      23.441  -1.196  15.549  1.00  0.00    -0.200 OA
BRANCH  17  20
HETATM   20  C8  UNL     1      23.459   1.055  14.169  1.00  0.00     0.079 A 
HETATM   21  C7  UNL     1      23.388   1.803  12.987  1.00  0.00     0.026 A 
HETATM   22  C6  UNL     1      23.429   3.181  13.004  1.00  0.00     0.009 A 
HETATM   23  C5  UNL     1      23.542   3.891  14.181  1.00  0.00    -0.058 A 
HETATM   24  C24 UNL     1      23.614   3.165  15.351  1.00  0.00     0.009 A 
HETATM   25  C23 UNL     1      23.572   1.787  15.333  1.00  0.00     0.026 A 
BRANCH  23  26
HETATM   26  C4  UNL     1      23.586   5.377  14.182  1.00  0.00     0.042 C 
BRANCH  26  27
HETATM   27  C2  UNL     1      22.420   5.969  14.944  1.00  0.00    -0.019 C 
HETATM   28  C1  UNL     1      21.194   5.820  14.045  1.00  0.00     0.010 C 
HETATM   29  C3  UNL     1      22.709   7.442  15.190  1.00  0.00     0.010 C 
ENDBRANCH  26  27
ENDBRANCH  23  26
ENDBRANCH  17  20
ENDBRANCH  15  17
ENDBRANCH   1  15
BRANCH   6  30
HETATM   30  N2  UNL     1      20.610   0.026  11.383  1.00  0.00    -0.379 N 
HETATM   31  C15 UNL     1      20.617   1.376  10.914  1.00  0.00     0.123 C 
HETATM   32  C16 UNL     1      21.451   1.409   9.661  1.00  0.00     0.021 C 
HETATM   33  C17 UNL     1      22.320   0.153   9.802  1.00  0.00     0.021 C 
HETATM   34  C18 UNL     1      21.317  -0.806  10.422  1.00  0.00     0.123 C 
ENDBRANCH   6  30
TORSDOF 6
ENDMDL
