MODEL 3
REMARK VINA RESULT: -7.679519200      3.060      6.720
REMARK  6 active torsions:
REMARK  status: ('A' for Active; 'I' for Inactive)
REMARK    1  A    between atoms: C2_2  and  C4_4 
REMARK    2  A    between atoms: C4_4  and  C5_5 
REMARK    3  A    between atoms: C8_8  and  S1_9 
REMARK    4  A    between atoms: S1_9  and  N1_12 
REMARK    5  A    between atoms: N1_12  and  C9_14 
REMARK    6  A    between atoms: C14_19  and  N2_20 
ROOT
HETATM    1  C9  UNL     1      22.671  -1.015  13.653  1.00  0.00     0.071 A 
HETATM    2  C10 UNL     1      22.049  -1.012  12.432  1.00  0.00     0.064 A 
HETATM    3  C11 UNL     1      21.913   0.120  11.629  1.00  0.00     0.066 A 
HETATM    4  C12 UNL     1      22.441   1.303  12.105  1.00  0.00     0.066 A 
HETATM    5  C13 UNL     1      23.071   1.330  13.330  1.00  0.00     0.063 A 
HETATM    6  C14 UNL     1      23.198   0.201  14.113  1.00  0.00     0.060 A 
HETATM    7  N3  UNL     1      22.326   2.421  11.352  1.00  0.00    -0.312 N 
HETATM    8  C19 UNL     1      22.880   3.654  11.857  1.00  0.00     0.160 C 
HETATM    9  C20 UNL     1      21.705   2.339  10.174  1.00  0.00     0.316 A 
HETATM   10  O3  UNL     1      21.595   3.371   9.470  1.00  0.00    -0.262 OA
HETATM   11  C21 UNL     1      21.169   1.164   9.677  1.00  0.00     0.316 A 
HETATM   12  O4  UNL     1      20.589   1.126   8.558  1.00  0.00    -0.262 OA
HETATM   13  N4  UNL     1      21.292   0.067  10.438  1.00  0.00    -0.312 N 
HETATM   14  C22 UNL     1      20.759  -1.200   9.990  1.00  0.00     0.160 C 
ENDROOT
BRANCH   1  15
HETATM   15  N1  UNL     1      22.783  -2.169  14.468  1.00  0.00    -0.278 N 
ATOM     16  H1  UNL     1      23.637  -2.715  14.354  1.00  0.00     0.179 HD
BRANCH  15  17
HETATM   17  S1  UNL     1      21.676  -2.753  15.605  1.00  0.00     0.263 S 
HETATM   18  O1  UNL     1      22.270  -2.550  16.997  1.00  0.00    -0.200 OA
HETATM   19  O2  UNL     1      21.561  -4.248  15.401  1.00  0.00    -0.200 OA
BRANCH  17  20
HETATM   20  C8  UNL     1      20.076  -2.068  15.523  1.00  0.00     0.079 A 
HETATM   21  C7  UNL     1      19.209  -2.139  16.620  1.00  0.00     0.026 A 
HETATM   22  C6  UNL     1      17.930  -1.626  16.560  1.00  0.00     0.009 A 
HETATM   23  C5  UNL     1      17.442  -1.020  15.422  1.00  0.00    -0.058 A 
HETATM   24  C24 UNL     1      18.287  -0.945  14.335  1.00  0.00     0.009 A 
HETATM   25  C23 UNL     1      19.565  -1.458  14.395  1.00  0.00     0.026 A 
BRANCH  23  26
HETATM   26  C4  UNL     1      16.061  -0.472  15.375  1.00  0.00     0.042 C 
BRANCH  26  27
HETATM   27  C2  UNL     1      15.657  -0.097  13.966  1.00  0.00    -0.019 C 
HETATM   28  C1  UNL     1      15.830   1.416  13.853  1.00  0.00     0.010 C 
HETATM   29  C3  UNL     1      14.195  -0.469  13.772  1.00  0.00     0.010 C 
ENDBRANCH  26  27
ENDBRANCH  23  26
ENDBRANCH  17  20
ENDBRANCH  15  17
ENDBRANCH   1  15
BRANCH   6  30
HETATM   30  N2  UNL     1      23.872   0.296  15.370  1.00  0.00    -0.379 N 
HETATM   31  C15 UNL     1      23.309   0.813  16.576  1.00  0.00     0.123 C 
HETATM   32  C16 UNL     1      24.332   0.623  17.664  1.00  0.00     0.021 C 
HETATM   33  C17 UNL     1      25.215  -0.498  17.103  1.00  0.00     0.021 C 
HETATM   34  C18 UNL     1      25.242  -0.115  15.634  1.00  0.00     0.123 C 
ENDBRANCH   6  30
TORSDOF 6
ENDMDL
