MODEL 2
REMARK VINA RESULT: -7.706215255      0.852      1.219
REMARK  6 active torsions:
REMARK  status: ('A' for Active; 'I' for Inactive)
REMARK    1  A    between atoms: C2_2  and  C4_4 
REMARK    2  A    between atoms: C4_4  and  C5_5 
REMARK    3  A    between atoms: C8_8  and  S1_9 
REMARK    4  A    between atoms: S1_9  and  N1_12 
REMARK    5  A    between atoms: N1_12  and  C9_14 
REMARK    6  A    between atoms: C14_19  and  N2_20 
ROOT
HETATM    1  C9  UNL     1      20.767  -1.157  13.555  1.00  0.00     0.071 A 
HETATM    2  C10 UNL     1      20.091  -1.563  14.677  1.00  0.00     0.064 A 
HETATM    3  C11 UNL     1      18.746  -1.286  14.918  1.00  0.00     0.066 A 
HETATM    4  C12 UNL     1      18.065  -0.559  13.962  1.00  0.00     0.066 A 
HETATM    5  C13 UNL     1      18.720  -0.138  12.825  1.00  0.00     0.063 A 
HETATM    6  C14 UNL     1      20.051  -0.420  12.599  1.00  0.00     0.060 A 
HETATM    7  N3  UNL     1      16.759  -0.273  14.164  1.00  0.00    -0.312 N 
HETATM    8  C19 UNL     1      16.054   0.488  13.162  1.00  0.00     0.160 C 
HETATM    9  C20 UNL     1      16.174  -0.705  15.284  1.00  0.00     0.316 A 
HETATM   10  O3  UNL     1      14.964  -0.443  15.480  1.00  0.00    -0.262 OA
HETATM   11  C21 UNL     1      16.837  -1.435  16.255  1.00  0.00     0.316 A 
HETATM   12  O4  UNL     1      16.250  -1.826  17.300  1.00  0.00    -0.262 OA
HETATM   13  N4  UNL     1      18.131  -1.709  16.036  1.00  0.00    -0.312 N 
HETATM   14  C22 UNL     1      18.894  -2.466  17.002  1.00  0.00     0.160 C 
ENDROOT
BRANCH   1  15
HETATM   15  N1  UNL     1      22.140  -1.428  13.332  1.00  0.00    -0.278 N 
ATOM     16  H1  UNL     1      22.385  -1.757  12.399  1.00  0.00     0.179 HD
BRANCH  15  17
HETATM   17  S1  UNL     1      23.423  -1.271  14.424  1.00  0.00     0.263 S 
HETATM   18  O1  UNL     1      24.727  -1.476  13.659  1.00  0.00    -0.200 OA
HETATM   19  O2  UNL     1      23.320  -2.412  15.411  1.00  0.00    -0.200 OA
BRANCH  17  20
HETATM   20  C8  UNL     1      23.473   0.222  15.321  1.00  0.00     0.079 A 
HETATM   21  C7  UNL     1      23.287   0.230  16.708  1.00  0.00     0.026 A 
HETATM   22  C6  UNL     1      23.297   1.406  17.429  1.00  0.00     0.009 A 
HETATM   23  C5  UNL     1      23.490   2.629  16.822  1.00  0.00    -0.058 A 
HETATM   24  C24 UNL     1      23.674   2.633  15.455  1.00  0.00     0.009 A 
HETATM   25  C23 UNL     1      23.664   1.457  14.736  1.00  0.00     0.026 A 
BRANCH  23  26
HETATM   26  C4  UNL     1      23.498   3.888  17.613  1.00  0.00     0.042 C 
BRANCH  26  27
HETATM   27  C2  UNL     1      22.125   4.212  18.160  1.00  0.00    -0.019 C 
HETATM   28  C1  UNL     1      21.429   5.071  17.107  1.00  0.00     0.010 C 
HETATM   29  C3  UNL     1      22.299   5.005  19.447  1.00  0.00     0.010 C 
ENDBRANCH  26  27
ENDBRANCH  23  26
ENDBRANCH  17  20
ENDBRANCH  15  17
ENDBRANCH   1  15
BRANCH   6  30
HETATM   30  N2  UNL     1      20.667   0.039  11.394  1.00  0.00    -0.379 N 
HETATM   31  C15 UNL     1      20.814  -0.724  10.195  1.00  0.00     0.123 C 
HETATM   32  C16 UNL     1      21.418   0.185   9.158  1.00  0.00     0.021 C 
HETATM   33  C17 UNL     1      21.068   1.581   9.691  1.00  0.00     0.021 C 
HETATM   34  C18 UNL     1      21.246   1.356  11.183  1.00  0.00     0.123 C 
ENDBRANCH   6  30
TORSDOF 6
ENDMDL
