MODEL 1
REMARK VINA RESULT: -7.516710744      0.000      0.000
REMARK  7 active torsions:
REMARK  status: ('A' for Active; 'I' for Inactive)
REMARK    1  A    between atoms: O1_1  and  C1_3 
REMARK    2  A    between atoms: C1_3  and  C2_4 
REMARK    3  A    between atoms: C1_3  and  P1_27 
REMARK    4  A    between atoms: C5_7  and  C6_8 
REMARK    5  A    between atoms: C10_12  and  C11_13 
REMARK    6  A    between atoms: C11_13  and  O2_14 
REMARK    7  A    between atoms: C11_13  and  C12_16 
ROOT
HETATM    1  C6  UNL     1       3.434 -15.324 -23.930  1.00  0.00    -0.025 A 
HETATM    2  C7  UNL     1       2.561 -15.117 -22.882  1.00  0.00     0.012 A 
HETATM    3  C8  UNL     1       1.289 -14.657 -23.150  1.00  0.00     0.002 A 
HETATM    4  C9  UNL     1       0.879 -14.401 -24.463  1.00  0.00     0.010 A 
HETATM    5  C10 UNL     1       1.741 -14.605 -25.507  1.00  0.00    -0.024 A 
HETATM    6  C18 UNL     1       3.019 -15.068 -25.240  1.00  0.00     0.022 A 
ENDROOT
BRANCH   1   7
HETATM    7  C5  UNL     1       4.762 -15.807 -23.632  1.00  0.00    -0.026 A 
HETATM    8  C4  UNL     1       4.918 -16.974 -22.932  1.00  0.00     0.013 A 
HETATM    9  C3  UNL     1       6.186 -17.435 -22.648  1.00  0.00     0.011 A 
HETATM   10  C2  UNL     1       7.328 -16.768 -23.040  1.00  0.00    -0.016 A 
HETATM   11  C20 UNL     1       7.144 -15.592 -23.746  1.00  0.00     0.011 A 
HETATM   12  C19 UNL     1       5.874 -15.116 -24.040  1.00  0.00     0.013 A 
BRANCH  10  13
HETATM   13  C1  UNL     1       8.703 -17.247 -22.748  1.00  0.00     0.281 C 
BRANCH  13  14
HETATM   14  O1  UNL     1       9.258 -17.575 -24.009  1.00  0.00    -0.377 OA
ATOM     15  H1  UNL     1       9.705 -18.403 -23.877  1.00  0.00     0.211 HD
ENDBRANCH  13  14
BRANCH  13  16
HETATM   16  P1  UNL     1       9.493 -16.071 -21.777  1.00  0.00     0.293 P 
HETATM   17  O3  UNL     1      10.627 -15.042 -22.485  1.00  0.00    -0.638 OA
HETATM   18  O4  UNL     1       9.013 -15.826 -20.208  1.00  0.00    -0.638 OA
HETATM   19  O5  UNL     1      10.678 -16.910 -21.266  1.00  0.00    -0.638 OA
ENDBRANCH  13  16
ENDBRANCH  10  13
ENDBRANCH   1   7
BRANCH   5  20
HETATM   20  C11 UNL     1       1.269 -14.324 -26.882  1.00  0.00     0.184 C 
BRANCH  20  21
HETATM   21  O2  UNL     1      -0.121 -14.196 -26.958  1.00  0.00    -0.386 OA
ATOM     22  H2  UNL     1      -0.457 -14.363 -27.831  1.00  0.00     0.210 HD
ENDBRANCH  20  21
BRANCH  20  23
HETATM   23  C12 UNL     1       1.922 -13.167 -27.500  1.00  0.00    -0.024 A 
HETATM   24  C13 UNL     1       1.669 -11.888 -27.079  1.00  0.00     0.012 A 
HETATM   25  C14 UNL     1       2.308 -10.807 -27.687  1.00  0.00     0.026 A 
HETATM   26  C15 UNL     1       3.206 -10.977 -28.722  1.00  0.00     0.055 A 
HETATM   27 CL1  UNL     1       3.999  -9.597 -29.474  1.00  0.00    -0.083 Cl
HETATM   28  C16 UNL     1       3.455 -12.266 -29.140  1.00  0.00     0.056 A 
HETATM   29 CL2  UNL     1       4.587 -12.519 -30.447  1.00  0.00    -0.083 Cl
HETATM   30  C17 UNL     1       2.824 -13.332 -28.538  1.00  0.00     0.035 A 
ENDBRANCH  20  23
ENDBRANCH   5  20
TORSDOF 7
ENDMDL
