MODEL 7
REMARK VINA RESULT: -6.614519891      7.887     10.166
REMARK  7 active torsions:
REMARK  status: ('A' for Active; 'I' for Inactive)
REMARK    1  A    between atoms: O1_1  and  C1_3 
REMARK    2  A    between atoms: C1_3  and  C2_4 
REMARK    3  A    between atoms: C1_3  and  P1_27 
REMARK    4  A    between atoms: C5_7  and  C6_8 
REMARK    5  A    between atoms: C10_12  and  C11_13 
REMARK    6  A    between atoms: C11_13  and  O2_14 
REMARK    7  A    between atoms: C11_13  and  C12_16 
ROOT
HETATM    1  C6  UNL     1      10.989 -21.352 -26.401  1.00  0.00    -0.025 A 
HETATM    2  C7  UNL     1      11.412 -22.604 -26.006  1.00  0.00     0.012 A 
HETATM    3  C8  UNL     1      11.626 -23.573 -26.964  1.00  0.00     0.002 A 
HETATM    4  C9  UNL     1      11.420 -23.299 -28.321  1.00  0.00     0.010 A 
HETATM    5  C10 UNL     1      11.001 -22.058 -28.719  1.00  0.00    -0.024 A 
HETATM    6  C18 UNL     1      10.785 -21.084 -27.758  1.00  0.00     0.022 A 
ENDROOT
BRANCH   1   7
HETATM    7  C5  UNL     1      10.771 -20.349 -25.385  1.00  0.00    -0.026 A 
HETATM    8  C4  UNL     1      11.842 -19.696 -24.835  1.00  0.00     0.013 A 
HETATM    9  C3  UNL     1      11.633 -18.739 -23.865  1.00  0.00     0.011 A 
HETATM   10  C2  UNL     1      10.376 -18.397 -23.411  1.00  0.00    -0.016 A 
HETATM   11  C20 UNL     1       9.310 -19.071 -23.982  1.00  0.00     0.011 A 
HETATM   12  C19 UNL     1       9.505 -20.037 -24.959  1.00  0.00     0.013 A 
BRANCH  10  13
HETATM   13  C1  UNL     1      10.127 -17.368 -22.370  1.00  0.00     0.281 C 
BRANCH  13  14
HETATM   14  O1  UNL     1      11.238 -16.492 -22.442  1.00  0.00    -0.377 OA
ATOM     15  H1  UNL     1      11.074 -15.944 -23.200  1.00  0.00     0.211 HD
ENDBRANCH  13  14
BRANCH  13  16
HETATM   16  P1  UNL     1       8.552 -16.728 -22.605  1.00  0.00     0.293 P 
HETATM   17  O3  UNL     1       8.135 -16.090 -24.111  1.00  0.00    -0.638 OA
HETATM   18  O4  UNL     1       7.396 -16.901 -21.428  1.00  0.00    -0.638 OA
HETATM   19  O5  UNL     1       8.787 -15.280 -22.136  1.00  0.00    -0.638 OA
ENDBRANCH  13  16
ENDBRANCH  10  13
ENDBRANCH   1   7
BRANCH   5  20
HETATM   20  C11 UNL     1      10.796 -21.808 -30.163  1.00  0.00     0.184 C 
BRANCH  20  21
HETATM   21  O2  UNL     1       9.478 -21.453 -30.466  1.00  0.00    -0.386 OA
ATOM     22  H2  UNL     1       8.941 -21.343 -29.690  1.00  0.00     0.210 HD
ENDBRANCH  20  21
BRANCH  20  23
HETATM   23  C12 UNL     1      11.729 -20.827 -30.725  1.00  0.00    -0.024 A 
HETATM   24  C13 UNL     1      11.305 -19.607 -31.180  1.00  0.00     0.012 A 
HETATM   25  C14 UNL     1      12.219 -18.694 -31.708  1.00  0.00     0.026 A 
HETATM   26  C15 UNL     1      13.567 -18.978 -31.795  1.00  0.00     0.055 A 
HETATM   27 CL1  UNL     1      14.701 -17.812 -32.466  1.00  0.00    -0.083 Cl
HETATM   28  C16 UNL     1      13.986 -20.208 -31.336  1.00  0.00     0.056 A 
HETATM   29 CL2  UNL     1      15.687 -20.602 -31.430  1.00  0.00    -0.083 Cl
HETATM   30  C17 UNL     1      13.083 -21.107 -30.814  1.00  0.00     0.035 A 
ENDBRANCH  20  23
ENDBRANCH   5  20
TORSDOF 7
ENDMDL
