MODEL 2
REMARK VINA RESULT: -7.174372673      0.809      1.414
REMARK  7 active torsions:
REMARK  status: ('A' for Active; 'I' for Inactive)
REMARK    1  A    between atoms: O1_1  and  C1_3 
REMARK    2  A    between atoms: C1_3  and  C2_4 
REMARK    3  A    between atoms: C1_3  and  P1_27 
REMARK    4  A    between atoms: C5_7  and  C6_8 
REMARK    5  A    between atoms: C10_12  and  C11_13 
REMARK    6  A    between atoms: C11_13  and  O2_14 
REMARK    7  A    between atoms: C11_13  and  C12_16 
ROOT
HETATM    1  C6  UNL     1       3.494 -15.351 -23.961  1.00  0.00    -0.025 A 
HETATM    2  C7  UNL     1       2.619 -15.068 -22.932  1.00  0.00     0.012 A 
HETATM    3  C8  UNL     1       1.354 -14.609 -23.235  1.00  0.00     0.002 A 
HETATM    4  C9  UNL     1       0.954 -14.429 -24.563  1.00  0.00     0.010 A 
HETATM    5  C10 UNL     1       1.817 -14.708 -25.588  1.00  0.00    -0.024 A 
HETATM    6  C18 UNL     1       3.088 -15.170 -25.287  1.00  0.00     0.022 A 
ENDROOT
BRANCH   1   7
HETATM    7  C5  UNL     1       4.813 -15.832 -23.627  1.00  0.00    -0.026 A 
HETATM    8  C4  UNL     1       4.950 -16.957 -22.858  1.00  0.00     0.013 A 
HETATM    9  C3  UNL     1       6.212 -17.416 -22.539  1.00  0.00     0.011 A 
HETATM   10  C2  UNL     1       7.364 -16.789 -22.964  1.00  0.00    -0.016 A 
HETATM   11  C20 UNL     1       7.199 -15.654 -23.739  1.00  0.00     0.011 A 
HETATM   12  C19 UNL     1       5.937 -15.181 -24.068  1.00  0.00     0.013 A 
BRANCH  10  13
HETATM   13  C1  UNL     1       8.731 -17.267 -22.635  1.00  0.00     0.281 C 
BRANCH  13  14
HETATM   14  O1  UNL     1       9.300 -17.647 -23.875  1.00  0.00    -0.377 OA
ATOM     15  H1  UNL     1       8.756 -18.360 -24.189  1.00  0.00     0.211 HD
ENDBRANCH  13  14
BRANCH  13  16
HETATM   16  P1  UNL     1       9.518 -16.060 -21.700  1.00  0.00     0.293 P 
HETATM   17  O3  UNL     1      10.635 -15.037 -22.442  1.00  0.00    -0.638 OA
HETATM   18  O4  UNL     1       9.050 -15.782 -20.133  1.00  0.00    -0.638 OA
HETATM   19  O5  UNL     1      10.716 -16.875 -21.180  1.00  0.00    -0.638 OA
ENDBRANCH  13  16
ENDBRANCH  10  13
ENDBRANCH   1   7
BRANCH   5  20
HETATM   20  C11 UNL     1       1.355 -14.507 -26.981  1.00  0.00     0.184 C 
BRANCH  20  21
HETATM   21  O2  UNL     1      -0.031 -14.624 -27.109  1.00  0.00    -0.386 OA
ATOM     22  H2  UNL     1      -0.287 -15.140 -27.865  1.00  0.00     0.210 HD
ENDBRANCH  20  21
BRANCH  20  23
HETATM   23  C12 UNL     1       1.818 -13.249 -27.574  1.00  0.00    -0.024 A 
HETATM   24  C13 UNL     1       3.006 -13.165 -28.248  1.00  0.00     0.012 A 
HETATM   25  C14 UNL     1       3.419 -11.952 -28.803  1.00  0.00     0.026 A 
HETATM   26  C15 UNL     1       2.659 -10.805 -28.696  1.00  0.00     0.055 A 
HETATM   27 CL1  UNL     1       3.200  -9.286 -29.402  1.00  0.00    -0.083 Cl
HETATM   28  C16 UNL     1       1.464 -10.897 -28.015  1.00  0.00     0.056 A 
HETATM   29 CL2  UNL     1       0.475  -9.463 -27.860  1.00  0.00    -0.083 Cl
HETATM   30  C17 UNL     1       1.059 -12.094 -27.469  1.00  0.00     0.035 A 
ENDBRANCH  20  23
ENDBRANCH   5  20
TORSDOF 7
ENDMDL
