MODEL 9
REMARK VINA RESULT: -6.526173656      5.347      7.285
REMARK  7 active torsions:
REMARK  status: ('A' for Active; 'I' for Inactive)
REMARK    1  A    between atoms: O1_1  and  C1_3 
REMARK    2  A    between atoms: C1_3  and  C2_4 
REMARK    3  A    between atoms: C1_3  and  P1_27 
REMARK    4  A    between atoms: C5_7  and  C6_8 
REMARK    5  A    between atoms: C10_12  and  C11_13 
REMARK    6  A    between atoms: C11_13  and  O2_14 
REMARK    7  A    between atoms: C11_13  and  C12_16 
ROOT
HETATM    1  C6  UNL     1       3.074 -16.147 -22.634  1.00  0.00    -0.025 A 
HETATM    2  C7  UNL     1       2.663 -14.994 -23.271  1.00  0.00     0.012 A 
HETATM    3  C8  UNL     1       1.319 -14.685 -23.295  1.00  0.00     0.002 A 
HETATM    4  C9  UNL     1       0.378 -15.522 -22.685  1.00  0.00     0.010 A 
HETATM    5  C10 UNL     1       0.780 -16.667 -22.052  1.00  0.00    -0.024 A 
HETATM    6  C18 UNL     1       2.129 -16.979 -22.026  1.00  0.00     0.022 A 
ENDROOT
BRANCH   1   7
HETATM    7  C5  UNL     1       4.484 -16.456 -22.617  1.00  0.00    -0.026 A 
HETATM    8  C4  UNL     1       5.300 -15.953 -23.595  1.00  0.00     0.013 A 
HETATM    9  C3  UNL     1       6.648 -16.248 -23.578  1.00  0.00     0.011 A 
HETATM   10  C2  UNL     1       7.227 -17.038 -22.607  1.00  0.00    -0.016 A 
HETATM   11  C20 UNL     1       6.382 -17.533 -21.630  1.00  0.00     0.011 A 
HETATM   12  C19 UNL     1       5.025 -17.246 -21.634  1.00  0.00     0.013 A 
BRANCH  10  13
HETATM   13  C1  UNL     1       8.675 -17.366 -22.568  1.00  0.00     0.281 C 
BRANCH  13  14
HETATM   14  O1  UNL     1       9.035 -17.617 -23.914  1.00  0.00    -0.377 OA
ATOM     15  H1  UNL     1       9.647 -18.343 -23.877  1.00  0.00     0.211 HD
ENDBRANCH  13  14
BRANCH  13  16
HETATM   16  P1  UNL     1       9.490 -16.120 -21.712  1.00  0.00     0.293 P 
HETATM   17  O3  UNL     1      10.615 -15.159 -22.524  1.00  0.00    -0.638 OA
HETATM   18  O4  UNL     1       9.045 -15.745 -20.159  1.00  0.00    -0.638 OA
HETATM   19  O5  UNL     1      10.682 -16.923 -21.159  1.00  0.00    -0.638 OA
ENDBRANCH  13  16
ENDBRANCH  10  13
ENDBRANCH   1   7
BRANCH   5  20
HETATM   20  C11 UNL     1      -0.246 -17.525 -21.417  1.00  0.00     0.184 C 
BRANCH  20  21
HETATM   21  O2  UNL     1      -0.349 -18.779 -22.024  1.00  0.00    -0.386 OA
ATOM     22  H2  UNL     1      -0.788 -18.744 -22.867  1.00  0.00     0.210 HD
ENDBRANCH  20  21
BRANCH  20  23
HETATM   23  C12 UNL     1      -0.072 -17.672 -19.969  1.00  0.00    -0.024 A 
HETATM   24  C13 UNL     1      -0.235 -16.616 -19.113  1.00  0.00     0.012 A 
HETATM   25  C14 UNL     1      -0.062 -16.789 -17.739  1.00  0.00     0.026 A 
HETATM   26  C15 UNL     1       0.275 -18.012 -17.194  1.00  0.00     0.055 A 
HETATM   27 CL1  UNL     1       0.489 -18.206 -15.458  1.00  0.00    -0.083 Cl
HETATM   28  C16 UNL     1       0.439 -19.069 -18.062  1.00  0.00     0.056 A 
HETATM   29 CL2  UNL     1       0.867 -20.633 -17.406  1.00  0.00    -0.083 Cl
HETATM   30  C17 UNL     1       0.267 -18.897 -19.417  1.00  0.00     0.035 A 
ENDBRANCH  20  23
ENDBRANCH   5  20
TORSDOF 7
ENDMDL
