MODEL 11
REMARK VINA RESULT: -6.495315732      5.133      6.976
REMARK  7 active torsions:
REMARK  status: ('A' for Active; 'I' for Inactive)
REMARK    1  A    between atoms: O1_1  and  C1_3 
REMARK    2  A    between atoms: C1_3  and  C2_4 
REMARK    3  A    between atoms: C1_3  and  P1_27 
REMARK    4  A    between atoms: C5_7  and  C6_8 
REMARK    5  A    between atoms: C10_12  and  C11_13 
REMARK    6  A    between atoms: C11_13  and  O2_14 
REMARK    7  A    between atoms: C11_13  and  C12_16 
ROOT
HETATM    1  C6  UNL     1       3.086 -16.202 -22.694  1.00  0.00    -0.025 A 
HETATM    2  C7  UNL     1       2.671 -14.947 -23.091  1.00  0.00     0.012 A 
HETATM    3  C8  UNL     1       1.322 -14.663 -23.116  1.00  0.00     0.002 A 
HETATM    4  C9  UNL     1       0.378 -15.628 -22.746  1.00  0.00     0.010 A 
HETATM    5  C10 UNL     1       0.783 -16.875 -22.352  1.00  0.00    -0.024 A 
HETATM    6  C18 UNL     1       2.138 -17.161 -22.325  1.00  0.00     0.022 A 
ENDROOT
BRANCH   1   7
HETATM    7  C5  UNL     1       4.502 -16.481 -22.673  1.00  0.00    -0.026 A 
HETATM    8  C4  UNL     1       5.321 -15.905 -23.606  1.00  0.00     0.013 A 
HETATM    9  C3  UNL     1       6.674 -16.172 -23.585  1.00  0.00     0.011 A 
HETATM   10  C2  UNL     1       7.256 -17.006 -22.653  1.00  0.00    -0.016 A 
HETATM   11  C20 UNL     1       6.408 -17.576 -21.720  1.00  0.00     0.011 A 
HETATM   12  C19 UNL     1       5.044 -17.316 -21.729  1.00  0.00     0.013 A 
BRANCH  10  13
HETATM   13  C1  UNL     1       8.710 -17.305 -22.609  1.00  0.00     0.281 C 
BRANCH  13  14
HETATM   14  O1  UNL     1       9.088 -17.506 -23.959  1.00  0.00    -0.377 OA
ATOM     15  H1  UNL     1      10.036 -17.562 -23.947  1.00  0.00     0.211 HD
ENDBRANCH  13  14
BRANCH  13  16
HETATM   16  P1  UNL     1       9.491 -16.072 -21.706  1.00  0.00     0.293 P 
HETATM   17  O3  UNL     1      10.594 -15.055 -22.478  1.00  0.00    -0.638 OA
HETATM   18  O4  UNL     1       9.032 -15.765 -20.142  1.00  0.00    -0.638 OA
HETATM   19  O5  UNL     1      10.701 -16.864 -21.177  1.00  0.00    -0.638 OA
ENDBRANCH  13  16
ENDBRANCH  10  13
ENDBRANCH   1   7
BRANCH   5  20
HETATM   20  C11 UNL     1      -0.246 -17.867 -21.967  1.00  0.00     0.184 C 
BRANCH  20  21
HETATM   21  O2  UNL     1       0.249 -19.173 -21.942  1.00  0.00    -0.386 OA
ATOM     22  H2  UNL     1      -0.345 -19.797 -22.345  1.00  0.00     0.210 HD
ENDBRANCH  20  21
BRANCH  20  23
HETATM   23  C12 UNL     1      -0.917 -17.552 -20.702  1.00  0.00    -0.024 A 
HETATM   24  C13 UNL     1      -2.279 -17.611 -20.575  1.00  0.00     0.012 A 
HETATM   25  C14 UNL     1      -2.888 -17.306 -19.356  1.00  0.00     0.026 A 
HETATM   26  C15 UNL     1      -2.154 -16.939 -18.246  1.00  0.00     0.055 A 
HETATM   27 CL1  UNL     1      -2.944 -16.558 -16.720  1.00  0.00    -0.083 Cl
HETATM   28  C16 UNL     1      -0.784 -16.882 -18.381  1.00  0.00     0.056 A 
HETATM   29 CL2  UNL     1       0.176 -16.421 -16.995  1.00  0.00    -0.083 Cl
HETATM   30  C17 UNL     1      -0.186 -17.183 -19.584  1.00  0.00     0.035 A 
ENDBRANCH  20  23
ENDBRANCH   5  20
TORSDOF 7
ENDMDL
