MODEL 4
REMARK VINA RESULT: -6.699561448      1.013      1.181
REMARK  7 active torsions:
REMARK  status: ('A' for Active; 'I' for Inactive)
REMARK    1  A    between atoms: O1_1  and  C1_3 
REMARK    2  A    between atoms: C1_3  and  C2_4 
REMARK    3  A    between atoms: C1_3  and  P1_27 
REMARK    4  A    between atoms: C5_7  and  C6_8 
REMARK    5  A    between atoms: C10_12  and  C11_13 
REMARK    6  A    between atoms: C11_13  and  O2_14 
REMARK    7  A    between atoms: C11_13  and  C12_16 
ROOT
HETATM    1  C6  UNL     1       3.474 -15.604 -23.903  1.00  0.00    -0.025 A 
HETATM    2  C7  UNL     1       2.678 -15.108 -22.892  1.00  0.00     0.012 A 
HETATM    3  C8  UNL     1       1.395 -14.696 -23.190  1.00  0.00     0.002 A 
HETATM    4  C9  UNL     1       0.900 -14.778 -24.496  1.00  0.00     0.010 A 
HETATM    5  C10 UNL     1       1.686 -15.270 -25.503  1.00  0.00    -0.024 A 
HETATM    6  C18 UNL     1       2.974 -15.684 -25.206  1.00  0.00     0.022 A 
ENDROOT
BRANCH   1   7
HETATM    7  C5  UNL     1       4.814 -16.031 -23.574  1.00  0.00    -0.026 A 
HETATM    8  C4  UNL     1       5.000 -17.156 -22.815  1.00  0.00     0.013 A 
HETATM    9  C3  UNL     1       6.280 -17.564 -22.502  1.00  0.00     0.011 A 
HETATM   10  C2  UNL     1       7.404 -16.883 -22.921  1.00  0.00    -0.016 A 
HETATM   11  C20 UNL     1       7.190 -15.751 -23.687  1.00  0.00     0.011 A 
HETATM   12  C19 UNL     1       5.908 -15.328 -24.010  1.00  0.00     0.013 A 
BRANCH  10  13
HETATM   13  C1  UNL     1       8.791 -17.305 -22.598  1.00  0.00     0.281 C 
BRANCH  13  14
HETATM   14  O1  UNL     1       9.366 -17.674 -23.838  1.00  0.00    -0.377 OA
ATOM     15  H1  UNL     1      10.057 -17.040 -23.990  1.00  0.00     0.211 HD
ENDBRANCH  13  14
BRANCH  13  16
HETATM   16  P1  UNL     1       9.536 -16.062 -21.677  1.00  0.00     0.293 P 
HETATM   17  O3  UNL     1      10.640 -15.029 -22.426  1.00  0.00    -0.638 OA
HETATM   18  O4  UNL     1       9.039 -15.762 -20.123  1.00  0.00    -0.638 OA
HETATM   19  O5  UNL     1      10.745 -16.838 -21.124  1.00  0.00    -0.638 OA
ENDBRANCH  13  16
ENDBRANCH  10  13
ENDBRANCH   1   7
BRANCH   5  20
HETATM   20  C11 UNL     1       1.124 -15.342 -26.871  1.00  0.00     0.184 C 
BRANCH  20  21
HETATM   21  O2  UNL     1      -0.273 -15.293 -26.882  1.00  0.00    -0.386 OA
ATOM     22  H2  UNL     1      -0.610 -14.605 -27.446  1.00  0.00     0.210 HD
ENDBRANCH  20  21
BRANCH  20  23
HETATM   23  C12 UNL     1       1.676 -14.336 -27.784  1.00  0.00    -0.024 A 
HETATM   24  C13 UNL     1       2.478 -13.321 -27.336  1.00  0.00     0.012 A 
HETATM   25  C14 UNL     1       2.990 -12.379 -28.230  1.00  0.00     0.026 A 
HETATM   26  C15 UNL     1       2.713 -12.431 -29.582  1.00  0.00     0.055 A 
HETATM   27 CL1  UNL     1       3.368 -11.231 -30.691  1.00  0.00    -0.083 Cl
HETATM   28  C16 UNL     1       1.904 -13.455 -30.025  1.00  0.00     0.056 A 
HETATM   29 CL2  UNL     1       1.533 -13.551 -31.730  1.00  0.00    -0.083 Cl
HETATM   30  C17 UNL     1       1.401 -14.383 -29.141  1.00  0.00     0.035 A 
ENDBRANCH  20  23
ENDBRANCH   5  20
TORSDOF 7
ENDMDL
