MODEL 10
REMARK VINA RESULT: -6.943518332      8.075     10.051
REMARK  7 active torsions:
REMARK  status: ('A' for Active; 'I' for Inactive)
REMARK    1  A    between atoms: O1_1  and  C1_3 
REMARK    2  A    between atoms: C1_3  and  C2_4 
REMARK    3  A    between atoms: C1_3  and  C15_23 
REMARK    4  A    between atoms: C6_8  and  C7_9 
REMARK    5  A    between atoms: C10_12  and  C11_13 
REMARK    6  A    between atoms: C11_13  and  O2_14 
REMARK    7  A    between atoms: C11_13  and  P1_16 
ROOT
HETATM    1  C2  UNL     1       1.017 -14.887 -24.982  1.00  0.00    -0.024 A 
HETATM    2  C3  UNL     1       0.069 -14.994 -23.989  1.00  0.00     0.010 A 
HETATM    3  C4  UNL     1       0.493 -15.348 -22.725  1.00  0.00     0.002 A 
HETATM    4  C5  UNL     1       1.815 -15.597 -22.423  1.00  0.00     0.012 A 
HETATM    5  C6  UNL     1       2.775 -15.492 -23.412  1.00  0.00    -0.025 A 
HETATM    6  C14 UNL     1       2.334 -15.137 -24.669  1.00  0.00     0.022 A 
ENDROOT
BRANCH   5   7
HETATM    7  C7  UNL     1       4.192 -15.748 -23.133  1.00  0.00    -0.026 A 
HETATM    8  C8  UNL     1       4.623 -16.632 -22.168  1.00  0.00     0.013 A 
HETATM    9  C9  UNL     1       5.991 -16.823 -21.963  1.00  0.00     0.011 A 
HETATM   10  C10 UNL     1       6.942 -16.148 -22.701  1.00  0.00    -0.016 A 
HETATM   11  C12 UNL     1       6.505 -15.269 -23.660  1.00  0.00     0.011 A 
HETATM   12  C13 UNL     1       5.148 -15.079 -23.865  1.00  0.00     0.013 A 
BRANCH  10  13
HETATM   13  C11 UNL     1       8.414 -16.373 -22.458  1.00  0.00     0.281 C 
BRANCH  13  14
HETATM   14  O2  UNL     1       9.041 -15.272 -23.050  1.00  0.00    -0.377 OA
ATOM     15  H2  UNL     1       8.372 -14.884 -23.601  1.00  0.00     0.211 HD
ENDBRANCH  13  14
BRANCH  13  16
HETATM   16  P1  UNL     1       8.657 -16.694 -20.783  1.00  0.00     0.293 P 
HETATM   17  O3  UNL     1      10.098 -16.172 -20.647  1.00  0.00    -0.638 OA
HETATM   18  O4  UNL     1       9.018 -18.172 -20.179  1.00  0.00    -0.638 OA
HETATM   19  O5  UNL     1       8.273 -15.470 -19.645  1.00  0.00    -0.638 OA
ENDBRANCH  13  16
ENDBRANCH  10  13
ENDBRANCH   5   7
BRANCH   1  20
HETATM   20  C1  UNL     1       0.697 -14.520 -26.356  1.00  0.00     0.184 C 
BRANCH  20  21
HETATM   21  O1  UNL     1       1.350 -15.325 -27.295  1.00  0.00    -0.386 OA
ATOM     22  H1  UNL     1       0.844 -16.092 -27.535  1.00  0.00     0.210 HD
ENDBRANCH  20  21
BRANCH  20  23
HETATM   23  C15 UNL     1       0.963 -13.109 -26.692  1.00  0.00    -0.024 A 
HETATM   24  C16 UNL     1       0.371 -12.033 -26.103  1.00  0.00     0.012 A 
HETATM   25  C17 UNL     1       0.724 -10.764 -26.525  1.00  0.00     0.026 A 
HETATM   26  C18 UNL     1       1.652 -10.547 -27.520  1.00  0.00     0.055 A 
HETATM   27 CL1  UNL     1       2.112  -8.961 -28.067  1.00  0.00    -0.083 Cl
HETATM   28  C19 UNL     1       2.243 -11.636 -28.108  1.00  0.00     0.056 A 
HETATM   29 CL2  UNL     1       3.442 -11.420 -29.390  1.00  0.00    -0.083 Cl
HETATM   30  C20 UNL     1       1.906 -12.902 -27.702  1.00  0.00     0.035 A 
ENDBRANCH  20  23
ENDBRANCH   1  20
TORSDOF 7
ENDMDL
