MODEL 7
REMARK VINA RESULT: -7.307309667      1.362      2.071
REMARK  7 active torsions:
REMARK  status: ('A' for Active; 'I' for Inactive)
REMARK    1  A    between atoms: O1_1  and  C1_3 
REMARK    2  A    between atoms: C1_3  and  C2_4 
REMARK    3  A    between atoms: C1_3  and  C15_23 
REMARK    4  A    between atoms: C6_8  and  C7_9 
REMARK    5  A    between atoms: C10_12  and  C11_13 
REMARK    6  A    between atoms: C11_13  and  O2_14 
REMARK    7  A    between atoms: C11_13  and  P1_16 
ROOT
HETATM    1  C2  UNL     1      10.265 -20.321 -28.158  1.00  0.00    -0.024 A 
HETATM    2  C3  UNL     1      10.672 -21.618 -27.941  1.00  0.00     0.010 A 
HETATM    3  C4  UNL     1      10.953 -21.999 -26.644  1.00  0.00     0.002 A 
HETATM    4  C5  UNL     1      10.843 -21.138 -25.573  1.00  0.00     0.012 A 
HETATM    5  C6  UNL     1      10.435 -19.834 -25.781  1.00  0.00    -0.025 A 
HETATM    6  C14 UNL     1      10.158 -19.470 -27.081  1.00  0.00     0.022 A 
ENDROOT
BRANCH   5   7
HETATM    7  C7  UNL     1      10.305 -18.886 -24.668  1.00  0.00    -0.026 A 
HETATM    8  C8  UNL     1      11.386 -18.325 -24.027  1.00  0.00     0.013 A 
HETATM    9  C9  UNL     1      11.181 -17.429 -22.976  1.00  0.00     0.011 A 
HETATM   10  C10 UNL     1       9.916 -17.079 -22.549  1.00  0.00    -0.016 A 
HETATM   11  C12 UNL     1       8.843 -17.643 -23.193  1.00  0.00     0.011 A 
HETATM   12  C13 UNL     1       9.046 -18.533 -24.236  1.00  0.00     0.013 A 
BRANCH  10  13
HETATM   13  C11 UNL     1       9.723 -16.108 -21.411  1.00  0.00     0.281 C 
BRANCH  13  14
HETATM   14  O2  UNL     1       9.616 -14.858 -22.028  1.00  0.00    -0.377 OA
ATOM     15  H2  UNL     1      10.433 -14.419 -21.823  1.00  0.00     0.211 HD
ENDBRANCH  13  14
BRANCH  13  16
HETATM   16  P1  UNL     1       8.442 -16.676 -20.409  1.00  0.00     0.293 P 
HETATM   17  O3  UNL     1       8.299 -15.453 -19.488  1.00  0.00    -0.638 OA
HETATM   18  O4  UNL     1       8.649 -17.723 -19.168  1.00  0.00    -0.638 OA
HETATM   19  O5  UNL     1       6.825 -16.330 -20.861  1.00  0.00    -0.638 OA
ENDBRANCH  13  16
ENDBRANCH  10  13
ENDBRANCH   5   7
BRANCH   1  20
HETATM   20  C1  UNL     1       9.939 -19.798 -29.480  1.00  0.00     0.184 C 
BRANCH  20  21
HETATM   21  O1  UNL     1       8.919 -20.522 -30.109  1.00  0.00    -0.386 OA
ATOM     22  H1  UNL     1       8.263 -19.961 -30.506  1.00  0.00     0.210 HD
ENDBRANCH  20  21
BRANCH  20  23
HETATM   23  C15 UNL     1      11.083 -19.712 -30.405  1.00  0.00    -0.024 A 
HETATM   24  C16 UNL     1      11.334 -20.572 -31.431  1.00  0.00     0.012 A 
HETATM   25  C17 UNL     1      12.452 -20.364 -32.218  1.00  0.00     0.026 A 
HETATM   26  C18 UNL     1      13.322 -19.317 -32.004  1.00  0.00     0.055 A 
HETATM   27 CL1  UNL     1      14.733 -19.034 -32.981  1.00  0.00    -0.083 Cl
HETATM   28  C19 UNL     1      13.062 -18.455 -30.970  1.00  0.00     0.056 A 
HETATM   29 CL2  UNL     1      14.142 -17.093 -30.647  1.00  0.00    -0.083 Cl
HETATM   30  C20 UNL     1      11.958 -18.646 -30.178  1.00  0.00     0.035 A 
ENDBRANCH  20  23
ENDBRANCH   1  20
TORSDOF 7
ENDMDL
