MODEL 3
REMARK VINA RESULT: -7.751841286      7.896      9.680
REMARK  7 active torsions:
REMARK  status: ('A' for Active; 'I' for Inactive)
REMARK    1  A    between atoms: O1_1  and  C1_3 
REMARK    2  A    between atoms: C1_3  and  C2_4 
REMARK    3  A    between atoms: C1_3  and  C15_23 
REMARK    4  A    between atoms: C6_8  and  C7_9 
REMARK    5  A    between atoms: C10_12  and  C11_13 
REMARK    6  A    between atoms: C11_13  and  O2_14 
REMARK    7  A    between atoms: C11_13  and  P1_16 
ROOT
HETATM    1  C2  UNL     1       1.274 -14.099 -25.327  1.00  0.00    -0.024 A 
HETATM    2  C3  UNL     1       0.388 -13.852 -24.302  1.00  0.00     0.010 A 
HETATM    3  C4  UNL     1       0.794 -14.137 -23.014  1.00  0.00     0.002 A 
HETATM    4  C5  UNL     1       2.037 -14.654 -22.720  1.00  0.00     0.012 A 
HETATM    5  C6  UNL     1       2.934 -14.904 -23.741  1.00  0.00    -0.025 A 
HETATM    6  C14 UNL     1       2.513 -14.614 -25.022  1.00  0.00     0.022 A 
ENDROOT
BRANCH   5   7
HETATM    7  C7  UNL     1       4.268 -15.453 -23.472  1.00  0.00    -0.026 A 
HETATM    8  C8  UNL     1       4.477 -16.595 -22.730  1.00  0.00     0.013 A 
HETATM    9  C9  UNL     1       5.777 -17.055 -22.518  1.00  0.00     0.011 A 
HETATM   10  C10 UNL     1       6.878 -16.401 -23.031  1.00  0.00    -0.016 A 
HETATM   11  C12 UNL     1       6.662 -15.264 -23.769  1.00  0.00     0.011 A 
HETATM   12  C13 UNL     1       5.371 -14.805 -23.980  1.00  0.00     0.013 A 
BRANCH  10  13
HETATM   13  C11 UNL     1       8.273 -16.921 -22.786  1.00  0.00     0.281 C 
BRANCH  13  14
HETATM   14  O2  UNL     1       8.752 -17.256 -24.056  1.00  0.00    -0.377 OA
ATOM     15  H2  UNL     1       9.571 -17.708 -23.892  1.00  0.00     0.211 HD
ENDBRANCH  13  14
BRANCH  13  16
HETATM   16  P1  UNL     1       9.131 -15.777 -21.826  1.00  0.00     0.293 P 
HETATM   17  O3  UNL     1      10.316 -16.662 -21.402  1.00  0.00    -0.638 OA
HETATM   18  O4  UNL     1       8.727 -15.390 -20.288  1.00  0.00    -0.638 OA
HETATM   19  O5  UNL     1      10.328 -14.804 -22.575  1.00  0.00    -0.638 OA
ENDBRANCH  13  16
ENDBRANCH  10  13
ENDBRANCH   5   7
BRANCH   1  20
HETATM   20  C1  UNL     1       0.965 -13.840 -26.729  1.00  0.00     0.184 C 
BRANCH  20  21
HETATM   21  O1  UNL     1       1.305 -14.912 -27.561  1.00  0.00    -0.386 OA
ATOM     22  H1  UNL     1       2.017 -14.703 -28.155  1.00  0.00     0.210 HD
ENDBRANCH  20  21
BRANCH  20  23
HETATM   23  C15 UNL     1       1.579 -12.617 -27.276  1.00  0.00    -0.024 A 
HETATM   24  C16 UNL     1       1.387 -11.356 -26.797  1.00  0.00     0.012 A 
HETATM   25  C17 UNL     1       2.033 -10.301 -27.417  1.00  0.00     0.026 A 
HETATM   26  C18 UNL     1       2.863 -10.478 -28.502  1.00  0.00     0.055 A 
HETATM   27 CL1  UNL     1       3.687  -9.168 -29.296  1.00  0.00    -0.083 Cl
HETATM   28  C19 UNL     1       3.052 -11.751 -28.977  1.00  0.00     0.056 A 
HETATM   29 CL2  UNL     1       4.108 -12.039 -30.366  1.00  0.00    -0.083 Cl
HETATM   30  C20 UNL     1       2.419 -12.809 -28.375  1.00  0.00     0.035 A 
ENDBRANCH  20  23
ENDBRANCH   1  20
TORSDOF 7
ENDMDL
