MODEL 1
REMARK VINA RESULT: -7.846523206      0.000      0.000
REMARK  7 active torsions:
REMARK  status: ('A' for Active; 'I' for Inactive)
REMARK    1  A    between atoms: O1_1  and  C1_3 
REMARK    2  A    between atoms: C1_3  and  C2_4 
REMARK    3  A    between atoms: C1_3  and  C15_23 
REMARK    4  A    between atoms: C6_8  and  C7_9 
REMARK    5  A    between atoms: C10_12  and  C11_13 
REMARK    6  A    between atoms: C11_13  and  O2_14 
REMARK    7  A    between atoms: C11_13  and  P1_16 
ROOT
HETATM    1  C2  UNL     1      10.357 -20.298 -29.037  1.00  0.00    -0.024 A 
HETATM    2  C3  UNL     1      10.718 -21.627 -29.033  1.00  0.00     0.010 A 
HETATM    3  C4  UNL     1      10.962 -22.227 -27.815  1.00  0.00     0.002 A 
HETATM    4  C5  UNL     1      10.862 -21.553 -26.617  1.00  0.00     0.012 A 
HETATM    5  C6  UNL     1      10.499 -20.219 -26.610  1.00  0.00    -0.025 A 
HETATM    6  C14 UNL     1      10.258 -19.635 -27.835  1.00  0.00     0.022 A 
ENDROOT
BRANCH   5   7
HETATM    7  C7  UNL     1      10.380 -19.465 -25.357  1.00  0.00    -0.026 A 
HETATM    8  C8  UNL     1      11.463 -18.939 -24.688  1.00  0.00     0.013 A 
HETATM    9  C9  UNL     1      11.268 -18.232 -23.500  1.00  0.00     0.011 A 
HETATM   10  C10 UNL     1      10.012 -18.036 -22.963  1.00  0.00    -0.016 A 
HETATM   11  C12 UNL     1       8.938 -18.563 -23.635  1.00  0.00     0.011 A 
HETATM   12  C13 UNL     1       9.130 -19.266 -24.814  1.00  0.00     0.013 A 
BRANCH  10  13
HETATM   13  C11 UNL     1       9.830 -17.268 -21.677  1.00  0.00     0.281 C 
BRANCH  13  14
HETATM   14  O2  UNL     1      11.079 -17.326 -21.052  1.00  0.00    -0.377 OA
ATOM     15  H2  UNL     1      11.015 -18.064 -20.457  1.00  0.00     0.211 HD
ENDBRANCH  13  14
BRANCH  13  16
HETATM   16  P1  UNL     1       9.130 -15.737 -22.041  1.00  0.00     0.293 P 
HETATM   17  O3  UNL     1       8.679 -15.338 -20.625  1.00  0.00    -0.638 OA
HETATM   18  O4  UNL     1       7.639 -15.545 -22.688  1.00  0.00    -0.638 OA
HETATM   19  O5  UNL     1      10.116 -14.337 -21.952  1.00  0.00    -0.638 OA
ENDBRANCH  13  16
ENDBRANCH  10  13
ENDBRANCH   5   7
BRANCH   1  20
HETATM   20  C1  UNL     1      10.071 -19.552 -30.257  1.00  0.00     0.184 C 
BRANCH  20  21
HETATM   21  O1  UNL     1       9.459 -20.339 -31.239  1.00  0.00    -0.386 OA
ATOM     22  H1  UNL     1       8.581 -20.609 -30.997  1.00  0.00     0.210 HD
ENDBRANCH  20  21
BRANCH  20  23
HETATM   23  C15 UNL     1      11.242 -18.890 -30.859  1.00  0.00    -0.024 A 
HETATM   24  C16 UNL     1      12.178 -18.170 -30.179  1.00  0.00     0.012 A 
HETATM   25  C17 UNL     1      13.226 -17.605 -30.882  1.00  0.00     0.026 A 
HETATM   26  C18 UNL     1      13.360 -17.743 -32.247  1.00  0.00     0.055 A 
HETATM   27 CL1  UNL     1      14.669 -17.042 -33.153  1.00  0.00    -0.083 Cl
HETATM   28  C19 UNL     1      12.414 -18.470 -32.924  1.00  0.00     0.056 A 
HETATM   29 CL2  UNL     1      12.534 -18.682 -34.676  1.00  0.00    -0.083 Cl
HETATM   30  C20 UNL     1      11.368 -19.038 -32.243  1.00  0.00     0.035 A 
ENDBRANCH  20  23
ENDBRANCH   1  20
TORSDOF 7
ENDMDL
