MODEL 6
REMARK VINA RESULT: -7.319491966      9.089     12.708
REMARK  7 active torsions:
REMARK  status: ('A' for Active; 'I' for Inactive)
REMARK    1  A    between atoms: O1_1  and  C1_3 
REMARK    2  A    between atoms: C1_3  and  C2_4 
REMARK    3  A    between atoms: C1_3  and  C15_23 
REMARK    4  A    between atoms: C6_8  and  C7_9 
REMARK    5  A    between atoms: C10_12  and  C11_13 
REMARK    6  A    between atoms: C11_13  and  O2_14 
REMARK    7  A    between atoms: C11_13  and  P1_16 
ROOT
HETATM    1  C2  UNL     1       0.575 -15.907 -21.647  1.00  0.00    -0.024 A 
HETATM    2  C3  UNL     1       0.159 -14.836 -22.405  1.00  0.00     0.010 A 
HETATM    3  C4  UNL     1       1.095 -14.201 -23.196  1.00  0.00     0.002 A 
HETATM    4  C5  UNL     1       2.415 -14.595 -23.253  1.00  0.00     0.012 A 
HETATM    5  C6  UNL     1       2.842 -15.670 -22.496  1.00  0.00    -0.025 A 
HETATM    6  C14 UNL     1       1.895 -16.293 -21.712  1.00  0.00     0.022 A 
ENDROOT
BRANCH   5   7
HETATM    7  C7  UNL     1       4.238 -16.122 -22.528  1.00  0.00    -0.026 A 
HETATM    8  C8  UNL     1       4.784 -16.948 -21.571  1.00  0.00     0.013 A 
HETATM    9  C9  UNL     1       6.122 -17.335 -21.671  1.00  0.00     0.011 A 
HETATM   10  C10 UNL     1       6.929 -16.916 -22.708  1.00  0.00    -0.016 A 
HETATM   11  C12 UNL     1       6.378 -16.093 -23.658  1.00  0.00     0.011 A 
HETATM   12  C13 UNL     1       5.050 -15.707 -23.560  1.00  0.00     0.013 A 
BRANCH  10  13
HETATM   13  C11 UNL     1       8.372 -17.350 -22.792  1.00  0.00     0.281 C 
BRANCH  13  14
HETATM   14  O2  UNL     1       8.641 -17.417 -24.162  1.00  0.00    -0.377 OA
ATOM     15  H2  UNL     1       9.392 -17.993 -24.231  1.00  0.00     0.211 HD
ENDBRANCH  13  14
BRANCH  13  16
HETATM   16  P1  UNL     1       9.320 -16.322 -21.787  1.00  0.00     0.293 P 
HETATM   17  O3  UNL     1      10.495 -16.067 -22.746  1.00  0.00    -0.638 OA
HETATM   18  O4  UNL     1      10.282 -16.861 -20.577  1.00  0.00    -0.638 OA
HETATM   19  O5  UNL     1       9.079 -14.626 -21.880  1.00  0.00    -0.638 OA
ENDBRANCH  13  16
ENDBRANCH  10  13
ENDBRANCH   5   7
BRANCH   1  20
HETATM   20  C1  UNL     1      -0.316 -16.660 -20.772  1.00  0.00     0.184 C 
BRANCH  20  21
HETATM   21  O1  UNL     1      -1.519 -15.989 -20.522  1.00  0.00    -0.386 OA
ATOM     22  H1  UNL     1      -1.538 -15.579 -19.666  1.00  0.00     0.210 HD
ENDBRANCH  20  21
BRANCH  20  23
HETATM   23  C15 UNL     1       0.275 -17.046 -19.478  1.00  0.00    -0.024 A 
HETATM   24  C16 UNL     1       1.147 -18.075 -19.285  1.00  0.00     0.012 A 
HETATM   25  C17 UNL     1       1.620 -18.318 -18.009  1.00  0.00     0.026 A 
HETATM   26  C18 UNL     1       1.241 -17.557 -16.923  1.00  0.00     0.055 A 
HETATM   27 CL1  UNL     1       1.823 -17.843 -15.309  1.00  0.00    -0.083 Cl
HETATM   28  C19 UNL     1       0.364 -16.523 -17.126  1.00  0.00     0.056 A 
HETATM   29 CL2  UNL     1      -0.157 -15.513 -15.772  1.00  0.00    -0.083 Cl
HETATM   30  C20 UNL     1      -0.115 -16.268 -18.386  1.00  0.00     0.035 A 
ENDBRANCH  20  23
ENDBRANCH   1  20
TORSDOF 7
ENDMDL
