MODEL 5
REMARK VINA RESULT: -7.559051706      8.613     10.367
REMARK  7 active torsions:
REMARK  status: ('A' for Active; 'I' for Inactive)
REMARK    1  A    between atoms: O1_1  and  C1_3 
REMARK    2  A    between atoms: C1_3  and  C2_4 
REMARK    3  A    between atoms: C1_3  and  C15_23 
REMARK    4  A    between atoms: C6_8  and  C7_9 
REMARK    5  A    between atoms: C10_12  and  C11_13 
REMARK    6  A    between atoms: C11_13  and  O2_14 
REMARK    7  A    between atoms: C11_13  and  P1_16 
ROOT
HETATM    1  C2  UNL     1       1.280 -14.075 -25.384  1.00  0.00    -0.024 A 
HETATM    2  C3  UNL     1       0.412 -13.774 -24.359  1.00  0.00     0.010 A 
HETATM    3  C4  UNL     1       0.830 -14.015 -23.065  1.00  0.00     0.002 A 
HETATM    4  C5  UNL     1       2.069 -14.541 -22.767  1.00  0.00     0.012 A 
HETATM    5  C6  UNL     1       2.948 -14.845 -23.789  1.00  0.00    -0.025 A 
HETATM    6  C14 UNL     1       2.515 -14.599 -25.075  1.00  0.00     0.022 A 
ENDROOT
BRANCH   5   7
HETATM    7  C7  UNL     1       4.276 -15.405 -23.515  1.00  0.00    -0.026 A 
HETATM    8  C8  UNL     1       4.473 -16.547 -22.770  1.00  0.00     0.013 A 
HETATM    9  C9  UNL     1       5.770 -17.019 -22.554  1.00  0.00     0.011 A 
HETATM   10  C10 UNL     1       6.877 -16.375 -23.066  1.00  0.00    -0.016 A 
HETATM   11  C12 UNL     1       6.673 -15.238 -23.807  1.00  0.00     0.011 A 
HETATM   12  C13 UNL     1       5.387 -14.768 -24.022  1.00  0.00     0.013 A 
BRANCH  10  13
HETATM   13  C11 UNL     1       8.267 -16.906 -22.817  1.00  0.00     0.281 C 
BRANCH  13  14
HETATM   14  O2  UNL     1       8.756 -17.225 -24.087  1.00  0.00    -0.377 OA
ATOM     15  H2  UNL     1       9.085 -18.112 -24.002  1.00  0.00     0.211 HD
ENDBRANCH  13  14
BRANCH  13  16
HETATM   16  P1  UNL     1       9.123 -15.782 -21.832  1.00  0.00     0.293 P 
HETATM   17  O3  UNL     1      10.285 -16.688 -21.390  1.00  0.00    -0.638 OA
HETATM   18  O4  UNL     1       8.694 -15.398 -20.300  1.00  0.00    -0.638 OA
HETATM   19  O5  UNL     1      10.350 -14.823 -22.551  1.00  0.00    -0.638 OA
ENDBRANCH  13  16
ENDBRANCH  10  13
ENDBRANCH   5   7
BRANCH   1  20
HETATM   20  C1  UNL     1       0.957 -13.866 -26.790  1.00  0.00     0.184 C 
BRANCH  20  21
HETATM   21  O1  UNL     1       1.539 -14.827 -27.625  1.00  0.00    -0.386 OA
ATOM     22  H1  UNL     1       2.203 -14.460 -28.197  1.00  0.00     0.210 HD
ENDBRANCH  20  21
BRANCH  20  23
HETATM   23  C15 UNL     1       1.306 -12.531 -27.308  1.00  0.00    -0.024 A 
HETATM   24  C16 UNL     1       2.433 -12.228 -28.012  1.00  0.00     0.012 A 
HETATM   25  C17 UNL     1       2.625 -10.926 -28.435  1.00  0.00     0.026 A 
HETATM   26  C18 UNL     1       1.720  -9.921 -28.170  1.00  0.00     0.055 A 
HETATM   27 CL1  UNL     1       1.941  -8.276 -28.691  1.00  0.00    -0.083 Cl
HETATM   28  C19 UNL     1       0.589 -10.234 -27.461  1.00  0.00     0.056 A 
HETATM   29 CL2  UNL     1      -0.609  -8.987 -27.091  1.00  0.00    -0.083 Cl
HETATM   30  C20 UNL     1       0.381 -11.521 -27.034  1.00  0.00     0.035 A 
ENDBRANCH  20  23
ENDBRANCH   1  20
TORSDOF 7
ENDMDL
