MODEL 2
REMARK VINA RESULT: -7.785525055      8.440     10.256
REMARK  7 active torsions:
REMARK  status: ('A' for Active; 'I' for Inactive)
REMARK    1  A    between atoms: O1_1  and  C1_3 
REMARK    2  A    between atoms: C1_3  and  C2_4 
REMARK    3  A    between atoms: C1_3  and  C15_23 
REMARK    4  A    between atoms: C6_8  and  C7_9 
REMARK    5  A    between atoms: C10_12  and  C11_13 
REMARK    6  A    between atoms: C11_13  and  O2_14 
REMARK    7  A    between atoms: C11_13  and  P1_16 
ROOT
HETATM    1  C2  UNL     1       1.256 -14.034 -25.381  1.00  0.00    -0.024 A 
HETATM    2  C3  UNL     1       0.380 -13.826 -24.339  1.00  0.00     0.010 A 
HETATM    3  C4  UNL     1       0.819 -14.103 -23.060  1.00  0.00     0.002 A 
HETATM    4  C5  UNL     1       2.086 -14.575 -22.791  1.00  0.00     0.012 A 
HETATM    5  C6  UNL     1       2.973 -14.786 -23.830  1.00  0.00    -0.025 A 
HETATM    6  C14 UNL     1       2.519 -14.505 -25.101  1.00  0.00     0.022 A 
ENDROOT
BRANCH   5   7
HETATM    7  C7  UNL     1       4.330 -15.288 -23.587  1.00  0.00    -0.026 A 
HETATM    8  C8  UNL     1       5.460 -14.672 -24.079  1.00  0.00     0.013 A 
HETATM    9  C9  UNL     1       6.719 -15.210 -23.803  1.00  0.00     0.011 A 
HETATM   10  C10 UNL     1       6.876 -16.353 -23.046  1.00  0.00    -0.016 A 
HETATM   11  C12 UNL     1       5.746 -16.961 -22.560  1.00  0.00     0.011 A 
HETATM   12  C13 UNL     1       4.496 -16.428 -22.833  1.00  0.00     0.013 A 
BRANCH  10  13
HETATM   13  C11 UNL     1       8.248 -16.913 -22.764  1.00  0.00     0.281 C 
BRANCH  13  14
HETATM   14  O2  UNL     1       8.744 -17.281 -24.018  1.00  0.00    -0.377 OA
ATOM     15  H2  UNL     1       9.629 -17.580 -23.848  1.00  0.00     0.211 HD
ENDBRANCH  13  14
BRANCH  13  16
HETATM   16  P1  UNL     1       9.122 -15.783 -21.801  1.00  0.00     0.293 P 
HETATM   17  O3  UNL     1      10.292 -16.686 -21.376  1.00  0.00    -0.638 OA
HETATM   18  O4  UNL     1       8.721 -15.391 -20.263  1.00  0.00    -0.638 OA
HETATM   19  O5  UNL     1      10.335 -14.827 -22.547  1.00  0.00    -0.638 OA
ENDBRANCH  13  16
ENDBRANCH  10  13
ENDBRANCH   5   7
BRANCH   1  20
HETATM   20  C1  UNL     1       0.914 -13.779 -26.775  1.00  0.00     0.184 C 
BRANCH  20  21
HETATM   21  O1  UNL     1       1.714 -14.502 -27.667  1.00  0.00    -0.386 OA
ATOM     22  H1  UNL     1       1.643 -15.441 -27.544  1.00  0.00     0.210 HD
ENDBRANCH  20  21
BRANCH  20  23
HETATM   23  C15 UNL     1       0.953 -12.358 -27.166  1.00  0.00    -0.024 A 
HETATM   24  C16 UNL     1      -0.063 -11.466 -27.000  1.00  0.00     0.012 A 
HETATM   25  C17 UNL     1       0.120 -10.161 -27.418  1.00  0.00     0.026 A 
HETATM   26  C18 UNL     1       1.293  -9.728 -27.997  1.00  0.00     0.055 A 
HETATM   27 CL1  UNL     1       1.547  -8.092 -28.530  1.00  0.00    -0.083 Cl
HETATM   28  C19 UNL     1       2.311 -10.632 -28.161  1.00  0.00     0.056 A 
HETATM   29 CL2  UNL     1       3.840 -10.135 -28.898  1.00  0.00    -0.083 Cl
HETATM   30  C20 UNL     1       2.147 -11.932 -27.752  1.00  0.00     0.035 A 
ENDBRANCH  20  23
ENDBRANCH   1  20
TORSDOF 7
ENDMDL
