MODEL 1
REMARK VINA RESULT: -6.944841616      0.000      0.000
REMARK  4 active torsions:
REMARK  status: ('A' for Active; 'I' for Inactive)
REMARK    1  A    between atoms: N1_1  and  C1_5 
REMARK    2  A    between atoms: C1_5  and  C2_6 
REMARK    3  A    between atoms: C2_6  and  C3_7 
REMARK    4  A    between atoms: C3_7  and  N2_8 
ROOT
HETATM    1  N2  UNL     1      -6.295 -45.249   3.838  1.00  0.00    -0.340 N 
HETATM    2  C4  UNL     1      -7.174 -44.238   4.102  1.00  0.00     0.183 A 
HETATM    3  N3  UNL     1      -7.201 -44.002   5.419  1.00  0.00    -0.349 N 
ATOM      4  H3  UNL     1      -7.763 -43.305   5.908  1.00  0.00     0.166 HD
HETATM    5  C5  UNL     1      -6.327 -44.881   5.971  1.00  0.00     0.080 A 
HETATM    6  C6  UNL     1      -5.946 -45.101   7.264  1.00  0.00     0.058 A 
HETATM    7 BR1  UNL     1      -6.742 -44.010   8.628  1.00  0.00    -0.047 Br
HETATM    8  C7  UNL     1      -5.011 -46.082   7.607  1.00  0.00     0.049 A 
HETATM    9 BR2  UNL     1      -4.568 -46.285   9.451  1.00  0.00    -0.048 Br
HETATM   10  C8  UNL     1      -4.444 -46.863   6.625  1.00  0.00     0.049 A 
HETATM   11 BR3  UNL     1      -3.173 -48.195   7.106  1.00  0.00    -0.048 Br
HETATM   12  C9  UNL     1      -4.829 -46.643   5.298  1.00  0.00     0.059 A 
HETATM   13 BR4  UNL     1      -4.022 -47.754   3.983  1.00  0.00    -0.047 Br
HETATM   14  C10 UNL     1      -5.750 -45.673   4.980  1.00  0.00     0.082 A 
ENDROOT
BRANCH   1  15
HETATM   15  C3  UNL     1      -6.022 -45.745   2.504  1.00  0.00     0.131 C 
BRANCH  15  16
HETATM   16  C2  UNL     1      -6.398 -44.652   1.517  1.00  0.00     0.047 C 
BRANCH  16  17
HETATM   17  C1  UNL     1      -7.121 -45.290   0.358  1.00  0.00     0.231 C 
BRANCH  17  18
HETATM   18  N1  UNL     1      -6.365 -46.402  -0.180  1.00  0.00    -0.079 N 
ATOM     19  H13 UNL     1      -5.433 -46.114  -0.478  1.00  0.00     0.274 HD
ATOM     20  H12 UNL     1      -6.099 -47.062   0.550  1.00  0.00     0.274 HD
ATOM     21  H11 UNL     1      -6.875 -46.862  -0.935  1.00  0.00     0.274 HD
ENDBRANCH  17  18
ENDBRANCH  16  17
ENDBRANCH  15  16
ENDBRANCH   1  15
TORSDOF 4
ENDMDL
