MODEL 4
REMARK VINA RESULT: -6.795407954      1.385      3.086
REMARK  4 active torsions:
REMARK  status: ('A' for Active; 'I' for Inactive)
REMARK    1  A    between atoms: N1_1  and  C1_5 
REMARK    2  A    between atoms: C1_5  and  C2_6 
REMARK    3  A    between atoms: C2_6  and  C3_7 
REMARK    4  A    between atoms: C3_7  and  N2_8 
ROOT
HETATM    1  N2  UNL     1      -5.477 -46.173   3.816  1.00  0.00    -0.340 N 
HETATM    2  C4  UNL     1      -4.696 -47.207   3.385  1.00  0.00     0.183 A 
HETATM    3  N3  UNL     1      -4.087 -47.773   4.433  1.00  0.00    -0.349 N 
ATOM      4  H3  UNL     1      -3.444 -48.565   4.416  1.00  0.00     0.166 HD
HETATM    5  C5  UNL     1      -4.499 -47.078   5.522  1.00  0.00     0.080 A 
HETATM    6  C6  UNL     1      -4.208 -47.203   6.851  1.00  0.00     0.058 A 
HETATM    7 BR1  UNL     1      -2.998 -48.599   7.373  1.00  0.00    -0.047 Br
HETATM    8  C7  UNL     1      -4.759 -46.356   7.816  1.00  0.00     0.049 A 
HETATM    9 BR2  UNL     1      -4.269 -46.640   9.637  1.00  0.00    -0.048 Br
HETATM   10  C8  UNL     1      -5.626 -45.356   7.437  1.00  0.00     0.049 A 
HETATM   11 BR3  UNL     1      -6.369 -44.209   8.760  1.00  0.00    -0.048 Br
HETATM   12  C9  UNL     1      -5.930 -45.221   6.077  1.00  0.00     0.059 A 
HETATM   13 BR4  UNL     1      -7.124 -43.819   5.607  1.00  0.00    -0.047 Br
HETATM   14  C10 UNL     1      -5.378 -46.064   5.142  1.00  0.00     0.082 A 
ENDROOT
BRANCH   1  15
HETATM   15  C3  UNL     1      -6.280 -45.353   2.932  1.00  0.00     0.131 C 
BRANCH  15  16
HETATM   16  C2  UNL     1      -5.671 -45.436   1.541  1.00  0.00     0.047 C 
BRANCH  16  17
HETATM   17  C1  UNL     1      -6.787 -45.344   0.531  1.00  0.00     0.231 C 
BRANCH  17  18
HETATM   18  N1  UNL     1      -6.747 -46.459  -0.393  1.00  0.00    -0.079 N 
ATOM     19  H13 UNL     1      -7.663 -46.895  -0.495  1.00  0.00     0.274 HD
ATOM     20  H12 UNL     1      -6.617 -46.144  -1.355  1.00  0.00     0.274 HD
ATOM     21  H11 UNL     1      -6.036 -47.138  -0.121  1.00  0.00     0.274 HD
ENDBRANCH  17  18
ENDBRANCH  16  17
ENDBRANCH  15  16
ENDBRANCH   1  15
TORSDOF 4
ENDMDL
