MODEL 3
REMARK VINA RESULT: -6.865363986      1.189      1.489
REMARK  4 active torsions:
REMARK  status: ('A' for Active; 'I' for Inactive)
REMARK    1  A    between atoms: N1_1  and  C1_5 
REMARK    2  A    between atoms: C1_5  and  C2_6 
REMARK    3  A    between atoms: C2_6  and  C3_7 
REMARK    4  A    between atoms: C3_7  and  N2_8 
ROOT
HETATM    1  N2  UNL     1      -6.755 -44.723   2.787  1.00  0.00    -0.340 N 
HETATM    2  C4  UNL     1      -7.528 -43.597   2.765  1.00  0.00     0.183 A 
HETATM    3  N3  UNL     1      -7.646 -43.112   4.007  1.00  0.00    -0.349 N 
ATOM      4  H3  UNL     1      -8.163 -42.282   4.296  1.00  0.00     0.166 HD
HETATM    5  C5  UNL     1      -6.936 -43.951   4.801  1.00  0.00     0.080 A 
HETATM    6  C6  UNL     1      -6.702 -43.957   6.147  1.00  0.00     0.058 A 
HETATM    7 BR1  UNL     1      -7.482 -42.550   7.195  1.00  0.00    -0.047 Br
HETATM    8  C7  UNL     1      -5.926 -44.942   6.764  1.00  0.00     0.049 A 
HETATM    9 BR2  UNL     1      -5.678 -44.831   8.651  1.00  0.00    -0.048 Br
HETATM   10  C8  UNL     1      -5.369 -45.949   6.008  1.00  0.00     0.049 A 
HETATM   11 BR3  UNL     1      -4.314 -47.284   6.859  1.00  0.00    -0.048 Br
HETATM   12  C9  UNL     1      -5.603 -45.951   4.628  1.00  0.00     0.059 A 
HETATM   13 BR4  UNL     1      -4.819 -47.368   3.633  1.00  0.00    -0.047 Br
HETATM   14  C10 UNL     1      -6.369 -44.972   4.040  1.00  0.00     0.082 A 
ENDROOT
BRANCH   1  15
HETATM   15  C3  UNL     1      -6.424 -45.490   1.603  1.00  0.00     0.131 C 
BRANCH  15  16
HETATM   16  C2  UNL     1      -7.271 -44.962   0.456  1.00  0.00     0.047 C 
BRANCH  16  17
HETATM   17  C1  UNL     1      -7.078 -45.872  -0.730  1.00  0.00     0.231 C 
BRANCH  17  18
HETATM   18  N1  UNL     1      -5.870 -46.659  -0.594  1.00  0.00    -0.079 N 
ATOM     19  H13 UNL     1      -5.406 -46.484   0.297  1.00  0.00     0.274 HD
ATOM     20  H12 UNL     1      -6.080 -47.649  -0.468  1.00  0.00     0.274 HD
ATOM     21  H11 UNL     1      -5.241 -46.506  -1.383  1.00  0.00     0.274 HD
ENDBRANCH  17  18
ENDBRANCH  16  17
ENDBRANCH  15  16
ENDBRANCH   1  15
TORSDOF 4
ENDMDL
