MODEL 14
REMARK VINA RESULT: -6.568371072      2.902      6.418
REMARK  4 active torsions:
REMARK  status: ('A' for Active; 'I' for Inactive)
REMARK    1  A    between atoms: N1_1  and  C1_5 
REMARK    2  A    between atoms: C1_5  and  C2_6 
REMARK    3  A    between atoms: C2_6  and  C3_7 
REMARK    4  A    between atoms: C3_7  and  N2_8 
ROOT
HETATM    1  N2  UNL     1      -4.805 -46.656   7.537  1.00  0.00    -0.340 N 
HETATM    2  C4  UNL     1      -4.043 -47.668   7.028  1.00  0.00     0.183 A 
HETATM    3  N3  UNL     1      -4.104 -47.645   5.692  1.00  0.00    -0.349 N 
ATOM      4  H3  UNL     1      -3.637 -48.280   5.044  1.00  0.00     0.166 HD
HETATM    5  C5  UNL     1      -4.916 -46.606   5.376  1.00  0.00     0.080 A 
HETATM    6  C6  UNL     1      -5.340 -46.109   4.176  1.00  0.00     0.058 A 
HETATM    7 BR1  UNL     1      -4.722 -46.978   2.580  1.00  0.00    -0.047 Br
HETATM    8  C7  UNL     1      -6.195 -45.006   4.088  1.00  0.00     0.049 A 
HETATM    9 BR2  UNL     1      -6.710 -44.414   2.350  1.00  0.00    -0.048 Br
HETATM   10  C8  UNL     1      -6.636 -44.387   5.235  1.00  0.00     0.049 A 
HETATM   11 BR3  UNL     1      -7.799 -42.887   5.102  1.00  0.00    -0.048 Br
HETATM   12  C9  UNL     1      -6.206 -44.889   6.469  1.00  0.00     0.059 A 
HETATM   13 BR4  UNL     1      -6.851 -44.003   8.022  1.00  0.00    -0.047 Br
HETATM   14  C10 UNL     1      -5.364 -45.975   6.535  1.00  0.00     0.082 A 
ENDROOT
BRANCH   1  15
HETATM   15  C3  UNL     1      -4.948 -46.396   8.955  1.00  0.00     0.131 C 
BRANCH  15  16
HETATM   16  C2  UNL     1      -3.790 -47.074   9.670  1.00  0.00     0.047 C 
BRANCH  16  17
HETATM   17  C1  UNL     1      -3.430 -46.245  10.877  1.00  0.00     0.231 C 
BRANCH  17  18
HETATM   18  N1  UNL     1      -4.099 -44.961  10.847  1.00  0.00    -0.079 N 
ATOM     19  H13 UNL     1      -5.110 -45.066  10.761  1.00  0.00     0.274 HD
ATOM     20  H12 UNL     1      -4.067 -44.500  11.756  1.00  0.00     0.274 HD
ATOM     21  H11 UNL     1      -3.719 -44.365  10.110  1.00  0.00     0.274 HD
ENDBRANCH  17  18
ENDBRANCH  16  17
ENDBRANCH  15  16
ENDBRANCH   1  15
TORSDOF 4
ENDMDL
