MODEL 5
REMARK VINA RESULT: -6.863641778      1.253      6.000
REMARK  3 active torsions:
REMARK  status: ('A' for Active; 'I' for Inactive)
REMARK    1  A    between atoms: C1_2  and  C2_4 
REMARK    2  A    between atoms: C6_8  and  C7_9 
REMARK    3  A    between atoms: C10_12  and  O3_13 
ROOT
HETATM    1  C2  UNL     1      29.982  -9.426 -24.542  1.00  0.00     0.041 A 
HETATM    2  C3  UNL     1      29.142  -9.967 -25.481  1.00  0.00     0.018 A 
HETATM    3  C4  UNL     1      28.014 -10.688 -25.159  1.00  0.00     0.002 A 
HETATM    4  C5  UNL     1      27.735 -10.860 -23.812  1.00  0.00     0.012 A 
HETATM    5  C6  UNL     1      28.545 -10.337 -22.826  1.00  0.00    -0.025 A 
HETATM    6  C13 UNL     1      29.675  -9.616 -23.212  1.00  0.00     0.030 A 
ENDROOT
BRANCH   5   7
HETATM    7  C7  UNL     1      28.214 -10.543 -21.425  1.00  0.00    -0.026 A 
HETATM    8  C8  UNL     1      27.679 -11.730 -20.958  1.00  0.00     0.015 A 
HETATM    9  C9  UNL     1      27.386 -11.866 -19.615  1.00  0.00     0.037 A 
HETATM   10  C10 UNL     1      27.603 -10.862 -18.695  1.00  0.00     0.065 A 
HETATM   11  C11 UNL     1      28.136  -9.677 -19.157  1.00  0.00     0.037 A 
HETATM   12  C12 UNL     1      28.429  -9.541 -20.500  1.00  0.00     0.015 A 
BRANCH  10  13
HETATM   13  O3  UNL     1      27.315 -10.986 -17.353  1.00  0.00    -0.361 OA
ATOM     14  H3  UNL     1      26.532 -11.411 -17.023  1.00  0.00     0.217 HD
ENDBRANCH  10  13
ENDBRANCH   5   7
BRANCH   1  15
HETATM   15  C1  UNL     1      31.176  -8.663 -24.950  1.00  0.00     0.209 C 
HETATM   16  O1  UNL     1      32.298  -8.985 -24.513  1.00  0.00    -0.644 OA
HETATM   17  O2  UNL     1      31.093  -7.592 -25.811  1.00  0.00    -0.644 OA
ENDBRANCH   1  15
TORSDOF 3
ENDMDL
