MODEL 6
REMARK VINA RESULT: -6.855335626      1.253      6.103
REMARK  3 active torsions:
REMARK  status: ('A' for Active; 'I' for Inactive)
REMARK    1  A    between atoms: C1_2  and  C2_4 
REMARK    2  A    between atoms: C6_8  and  C7_9 
REMARK    3  A    between atoms: C10_12  and  O3_13 
ROOT
HETATM    1  C2  UNL     1      29.978  -9.466 -24.543  1.00  0.00     0.041 A 
HETATM    2  C3  UNL     1      29.164 -10.081 -25.458  1.00  0.00     0.018 A 
HETATM    3  C4  UNL     1      28.062 -10.828 -25.107  1.00  0.00     0.002 A 
HETATM    4  C5  UNL     1      27.783 -10.948 -23.754  1.00  0.00     0.012 A 
HETATM    5  C6  UNL     1      28.568 -10.351 -22.791  1.00  0.00    -0.025 A 
HETATM    6  C13 UNL     1      29.672  -9.606 -23.207  1.00  0.00     0.030 A 
ENDROOT
BRANCH   5   7
HETATM    7  C7  UNL     1      28.239 -10.505 -21.382  1.00  0.00    -0.026 A 
HETATM    8  C8  UNL     1      28.432  -9.491 -20.463  1.00  0.00     0.015 A 
HETATM    9  C9  UNL     1      28.099  -9.696 -19.138  1.00  0.00     0.037 A 
HETATM   10  C10 UNL     1      27.572 -10.883 -18.673  1.00  0.00     0.065 A 
HETATM   11  C11 UNL     1      27.379 -11.897 -19.588  1.00  0.00     0.037 A 
HETATM   12  C12 UNL     1      27.712 -11.691 -20.912  1.00  0.00     0.015 A 
BRANCH  10  13
HETATM   13  O3  UNL     1      27.236 -11.101 -17.355  1.00  0.00    -0.361 OA
ATOM     14  H3  UNL     1      26.340 -11.131 -17.041  1.00  0.00     0.217 HD
ENDBRANCH  10  13
ENDBRANCH   5   7
BRANCH   1  15
HETATM   15  C1  UNL     1      31.145  -8.679 -24.982  1.00  0.00     0.209 C 
HETATM   16  O1  UNL     1      32.287  -8.986 -24.585  1.00  0.00    -0.644 OA
HETATM   17  O2  UNL     1      31.016  -7.601 -25.828  1.00  0.00    -0.644 OA
ENDBRANCH   1  15
TORSDOF 3
ENDMDL
