MODEL 3
REMARK VINA RESULT: -7.410046684      0.785      1.462
REMARK  3 active torsions:
REMARK  status: ('A' for Active; 'I' for Inactive)
REMARK    1  A    between atoms: C1_2  and  C2_4 
REMARK    2  A    between atoms: C6_8  and  C7_9 
REMARK    3  A    between atoms: C10_12  and  O3_13 
ROOT
HETATM    1  C2  UNL     1      27.629 -10.767 -19.540  1.00  0.00     0.041 A 
HETATM    2  C3  UNL     1      27.098 -11.970 -19.926  1.00  0.00     0.018 A 
HETATM    3  C4  UNL     1      27.206 -12.468 -21.205  1.00  0.00     0.002 A 
HETATM    4  C5  UNL     1      27.892 -11.695 -22.130  1.00  0.00     0.012 A 
HETATM    5  C6  UNL     1      28.446 -10.477 -21.796  1.00  0.00    -0.025 A 
HETATM    6  C13 UNL     1      28.304 -10.024 -20.485  1.00  0.00     0.030 A 
ENDROOT
BRANCH   5   7
HETATM    7  C7  UNL     1      29.156  -9.699 -22.800  1.00  0.00    -0.026 A 
HETATM    8  C8  UNL     1      29.084  -8.320 -22.853  1.00  0.00     0.015 A 
HETATM    9  C9  UNL     1      29.781  -7.636 -23.830  1.00  0.00     0.037 A 
HETATM   10  C10 UNL     1      30.563  -8.268 -24.775  1.00  0.00     0.065 A 
HETATM   11  C11 UNL     1      30.636  -9.644 -24.724  1.00  0.00     0.037 A 
HETATM   12  C12 UNL     1      29.939 -10.328 -23.748  1.00  0.00     0.015 A 
BRANCH  10  13
HETATM   13  O3  UNL     1      31.263  -7.598 -25.754  1.00  0.00    -0.361 OA
ATOM     14  H3  UNL     1      32.210  -7.610 -25.821  1.00  0.00     0.217 HD
ENDBRANCH  10  13
ENDBRANCH   5   7
BRANCH   1  15
HETATM   15  C1  UNL     1      27.480 -10.287 -18.154  1.00  0.00     0.209 C 
HETATM   16  O1  UNL     1      27.759  -9.105 -17.872  1.00  0.00    -0.644 OA
HETATM   17  O2  UNL     1      27.035 -11.111 -17.145  1.00  0.00    -0.644 OA
ENDBRANCH   1  15
TORSDOF 3
ENDMDL
