MODEL 2
REMARK VINA RESULT: -8.443990075      0.174      1.127
REMARK  3 active torsions:
REMARK  status: ('A' for Active; 'I' for Inactive)
REMARK    1  A    between atoms: C1_2  and  C2_4 
REMARK    2  A    between atoms: C5_7  and  C6_8 
REMARK    3  A    between atoms: C10_12  and  C11_13 
ROOT
HETATM    1  C2  UNL     1      -6.239 -27.034  31.072  1.00  0.00     0.029 A 
HETATM    2  C3  UNL     1      -7.317 -27.434  30.314  1.00  0.00     0.017 A 
HETATM    3  C4  UNL     1      -8.191 -26.517  29.777  1.00  0.00     0.013 A 
HETATM    4  C5  UNL     1      -8.001 -25.174  29.991  1.00  0.00    -0.026 A 
HETATM    5  C13 UNL     1      -6.921 -24.780  30.749  1.00  0.00     0.013 A 
HETATM    6  C14 UNL     1      -6.047 -25.686  31.286  1.00  0.00     0.017 A 
ENDROOT
BRANCH   4   7
HETATM    7  C6  UNL     1      -8.883 -24.152  29.457  1.00  0.00    -0.025 A 
HETATM    8  C7  UNL     1     -10.148 -24.545  29.043  1.00  0.00     0.012 A 
HETATM    9  C8  UNL     1     -11.037 -23.616  28.525  1.00  0.00     0.002 A 
HETATM   10  C9  UNL     1     -10.641 -22.298  28.427  1.00  0.00     0.018 A 
HETATM   11  C10 UNL     1      -9.393 -21.879  28.828  1.00  0.00     0.041 A 
HETATM   12  C12 UNL     1      -8.539 -22.831  29.338  1.00  0.00     0.030 A 
BRANCH  11  13
HETATM   13  C11 UNL     1      -8.988 -20.467  28.717  1.00  0.00     0.209 C 
HETATM   14  O2  UNL     1      -9.857 -19.629  28.418  1.00  0.00    -0.644 OA
HETATM   15  O3  UNL     1      -7.675 -20.075  28.939  1.00  0.00    -0.644 OA
ENDBRANCH  11  13
ENDBRANCH   4   7
BRANCH   1  16
HETATM   16  C1  UNL     1      -5.300 -28.005  31.650  1.00  0.00     0.264 C 
HETATM   17  N1  UNL     1      -4.567 -28.927  30.878  1.00  0.00    -0.057 NA
HETATM   18  O1  UNL     1      -5.162 -27.993  32.896  1.00  0.00    -0.271 OA
ENDBRANCH   1  16
TORSDOF 3
ENDMDL
