MODEL 3
REMARK VINA RESULT: -8.303715617      1.712      2.090
REMARK  3 active torsions:
REMARK  status: ('A' for Active; 'I' for Inactive)
REMARK    1  A    between atoms: C1_2  and  C2_4 
REMARK    2  A    between atoms: C5_7  and  C6_8 
REMARK    3  A    between atoms: C10_12  and  C11_13 
ROOT
HETATM    1  C2  UNL     1      -6.774 -26.321  32.518  1.00  0.00     0.029 A 
HETATM    2  C3  UNL     1      -8.142 -26.301  32.358  1.00  0.00     0.017 A 
HETATM    3  C4  UNL     1      -8.733 -25.553  31.365  1.00  0.00     0.013 A 
HETATM    4  C5  UNL     1      -7.960 -24.806  30.510  1.00  0.00    -0.026 A 
HETATM    5  C13 UNL     1      -6.593 -24.831  30.674  1.00  0.00     0.013 A 
HETATM    6  C14 UNL     1      -5.998 -25.573  31.659  1.00  0.00     0.017 A 
ENDROOT
BRANCH   4   7
HETATM    7  C6  UNL     1      -8.515 -23.994  29.442  1.00  0.00    -0.025 A 
HETATM    8  C7  UNL     1      -9.130 -24.651  28.385  1.00  0.00     0.012 A 
HETATM    9  C8  UNL     1      -9.679 -23.932  27.335  1.00  0.00     0.002 A 
HETATM   10  C9  UNL     1      -9.603 -22.554  27.360  1.00  0.00     0.018 A 
HETATM   11  C10 UNL     1      -9.000 -21.875  28.394  1.00  0.00     0.041 A 
HETATM   12  C12 UNL     1      -8.465 -22.624  29.419  1.00  0.00     0.030 A 
BRANCH  11  13
HETATM   13  C11 UNL     1      -8.929 -20.403  28.404  1.00  0.00     0.209 C 
HETATM   14  O2  UNL     1      -7.835 -19.870  28.661  1.00  0.00    -0.644 OA
HETATM   15  O3  UNL     1     -10.047 -19.627  28.137  1.00  0.00    -0.644 OA
ENDBRANCH  11  13
ENDBRANCH   4   7
BRANCH   1  16
HETATM   16  C1  UNL     1      -6.134 -27.115  33.574  1.00  0.00     0.264 C 
HETATM   17  N1  UNL     1      -6.305 -26.856  34.949  1.00  0.00    -0.057 NA
HETATM   18  O1  UNL     1      -5.402 -28.065  33.211  1.00  0.00    -0.271 OA
ENDBRANCH   1  16
TORSDOF 3
ENDMDL
