MODEL 1
REMARK VINA RESULT: -8.500548778      0.000      0.000
REMARK  3 active torsions:
REMARK  status: ('A' for Active; 'I' for Inactive)
REMARK    1  A    between atoms: C1_2  and  C2_4 
REMARK    2  A    between atoms: C5_7  and  C6_8 
REMARK    3  A    between atoms: C10_12  and  C11_13 
ROOT
HETATM    1  C2  UNL     1      -6.126 -27.129  31.008  1.00  0.00     0.029 A 
HETATM    2  C3  UNL     1      -5.840 -25.796  31.196  1.00  0.00     0.017 A 
HETATM    3  C4  UNL     1      -6.670 -24.812  30.709  1.00  0.00     0.013 A 
HETATM    4  C5  UNL     1      -7.809 -25.148  30.020  1.00  0.00    -0.026 A 
HETATM    5  C13 UNL     1      -8.090 -26.483  29.835  1.00  0.00     0.013 A 
HETATM    6  C14 UNL     1      -7.270 -27.467  30.316  1.00  0.00     0.017 A 
ENDROOT
BRANCH   4   7
HETATM    7  C6  UNL     1      -8.728 -24.164  29.478  1.00  0.00    -0.025 A 
HETATM    8  C7  UNL     1      -9.975 -24.609  29.057  1.00  0.00     0.012 A 
HETATM    9  C8  UNL     1     -10.897 -23.719  28.531  1.00  0.00     0.002 A 
HETATM   10  C9  UNL     1     -10.555 -22.386  28.431  1.00  0.00     0.018 A 
HETATM   11  C10 UNL     1      -9.327 -21.916  28.839  1.00  0.00     0.041 A 
HETATM   12  C12 UNL     1      -8.437 -22.830  29.356  1.00  0.00     0.030 A 
BRANCH  11  13
HETATM   13  C11 UNL     1      -8.979 -20.488  28.726  1.00  0.00     0.209 C 
HETATM   14  O2  UNL     1      -9.882 -19.685  28.432  1.00  0.00    -0.644 OA
HETATM   15  O3  UNL     1      -7.681 -20.045  28.940  1.00  0.00    -0.644 OA
ENDBRANCH  11  13
ENDBRANCH   4   7
BRANCH   1  16
HETATM   16  C1  UNL     1      -5.247 -28.187  31.522  1.00  0.00     0.264 C 
HETATM   17  N1  UNL     1      -4.573 -29.105  30.692  1.00  0.00    -0.057 NA
HETATM   18  O1  UNL     1      -5.105 -28.258  32.766  1.00  0.00    -0.271 OA
ENDBRANCH   1  16
TORSDOF 3
ENDMDL
