MODEL 7
REMARK VINA RESULT: -6.145936711      1.435      1.797
REMARK  2 active torsions:
REMARK  status: ('A' for Active; 'I' for Inactive)
REMARK    1  A    between atoms: C5_6  and  C6_7 
REMARK    2  A    between atoms: C10_11  and  C11_12 
ROOT
HETATM    1  C6  UNL     1       9.566 -89.848 152.994  1.00  0.00    -0.008 A 
HETATM    2  C7  UNL     1      10.311 -89.541 151.895  1.00  0.00     0.014 A 
HETATM    3  C8  UNL     1      10.767 -90.522 150.999  1.00  0.00     0.002 A 
HETATM    4  C9  UNL     1      10.484 -91.844 151.187  1.00  0.00     0.018 A 
HETATM    5  C10 UNL     1       9.735 -92.190 152.287  1.00  0.00     0.041 A 
HETATM    6  C12 UNL     1       9.297 -91.213 153.153  1.00  0.00     0.032 A 
ENDROOT
BRANCH   1   7
HETATM    7  C5  UNL     1       9.027 -88.895 153.971  1.00  0.00     0.044 A 
HETATM    8  N1  UNL     1       9.648 -87.965 154.699  1.00  0.00    -0.360 N 
HETATM    9  C1  UNL     1      11.070 -87.656 154.709  1.00  0.00     0.155 C 
HETATM   10  C2  UNL     1       8.710 -87.305 155.460  1.00  0.00     0.091 A 
HETATM   11  C3  UNL     1       7.475 -87.818 155.217  1.00  0.00     0.019 A 
HETATM   12  C4  UNL     1       7.652 -88.813 154.288  1.00  0.00     0.032 A 
ENDBRANCH   1   7
BRANCH   5  13
HETATM   13  C11 UNL     1       9.436 -93.600 152.482  1.00  0.00     0.209 C 
HETATM   14  O1  UNL     1       8.791 -93.935 153.508  1.00  0.00    -0.644 OA
HETATM   15  O2  UNL     1       9.826 -94.568 151.602  1.00  0.00    -0.644 OA
ENDBRANCH   5  13
TORSDOF 2
ENDMDL
