MODEL 6
REMARK VINA RESULT: -6.149351806      2.732      5.007
REMARK  2 active torsions:
REMARK  status: ('A' for Active; 'I' for Inactive)
REMARK    1  A    between atoms: C5_6  and  C6_7 
REMARK    2  A    between atoms: C10_11  and  C11_12 
ROOT
HETATM    1  C6  UNL     1      10.703 -90.645 151.018  1.00  0.00    -0.008 A 
HETATM    2  C7  UNL     1      10.837 -89.336 151.372  1.00  0.00     0.014 A 
HETATM    3  C8  UNL     1      10.188 -88.793 152.494  1.00  0.00     0.002 A 
HETATM    4  C9  UNL     1       9.385 -89.555 153.291  1.00  0.00     0.018 A 
HETATM    5  C10 UNL     1       9.227 -90.882 152.962  1.00  0.00     0.041 A 
HETATM    6  C12 UNL     1       9.872 -91.395 151.859  1.00  0.00     0.032 A 
ENDROOT
BRANCH   1   7
HETATM    7  C5  UNL     1      11.356 -91.307 149.882  1.00  0.00     0.044 A 
HETATM    8  N1  UNL     1      12.621 -91.707 149.731  1.00  0.00    -0.360 N 
HETATM    9  C1  UNL     1      13.708 -91.576 150.688  1.00  0.00     0.155 C 
HETATM   10  C2  UNL     1      12.749 -92.295 148.493  1.00  0.00     0.091 A 
HETATM   11  C3  UNL     1      11.553 -92.272 147.845  1.00  0.00     0.019 A 
HETATM   12  C4  UNL     1      10.670 -91.658 148.697  1.00  0.00     0.032 A 
ENDBRANCH   1   7
BRANCH   5  13
HETATM   13  C11 UNL     1       8.371 -91.691 153.815  1.00  0.00     0.209 C 
HETATM   14  O1  UNL     1       7.425 -91.122 154.418  1.00  0.00    -0.644 OA
HETATM   15  O2  UNL     1       8.552 -93.033 153.986  1.00  0.00    -0.644 OA
ENDBRANCH   5  13
TORSDOF 2
ENDMDL
