MODEL 9
REMARK VINA RESULT: -6.116342678      3.883      5.763
REMARK  2 active torsions:
REMARK  status: ('A' for Active; 'I' for Inactive)
REMARK    1  A    between atoms: C5_6  and  C6_7 
REMARK    2  A    between atoms: C10_11  and  C11_12 
ROOT
HETATM    1  C6  UNL     1       9.579 -89.783 152.470  1.00  0.00    -0.008 A 
HETATM    2  C7  UNL     1      10.527 -88.916 152.017  1.00  0.00     0.014 A 
HETATM    3  C8  UNL     1      10.459 -87.534 152.261  1.00  0.00     0.002 A 
HETATM    4  C9  UNL     1       9.430 -86.986 152.971  1.00  0.00     0.018 A 
HETATM    5  C10 UNL     1       8.454 -87.833 153.443  1.00  0.00     0.041 A 
HETATM    6  C12 UNL     1       8.539 -89.184 153.193  1.00  0.00     0.032 A 
ENDROOT
BRANCH   1   7
HETATM    7  C5  UNL     1       9.576 -91.239 152.286  1.00  0.00     0.044 A 
HETATM    8  N1  UNL     1       9.957 -91.975 151.241  1.00  0.00    -0.360 N 
HETATM    9  C1  UNL     1      10.488 -91.498 149.973  1.00  0.00     0.155 C 
HETATM   10  C2  UNL     1       9.781 -93.304 151.552  1.00  0.00     0.091 A 
HETATM   11  C3  UNL     1       9.282 -93.420 152.812  1.00  0.00     0.019 A 
HETATM   12  C4  UNL     1       9.146 -92.140 153.287  1.00  0.00     0.032 A 
ENDBRANCH   1   7
BRANCH   5  13
HETATM   13  C11 UNL     1       7.360 -87.244 154.200  1.00  0.00     0.209 C 
HETATM   14  O1  UNL     1       6.472 -86.615 153.570  1.00  0.00    -0.644 OA
HETATM   15  O2  UNL     1       7.259 -87.347 155.557  1.00  0.00    -0.644 OA
ENDBRANCH   5  13
TORSDOF 2
ENDMDL
