MODEL 6
REMARK VINA RESULT: -9.693773622      4.743      9.889
REMARK  5 active torsions:
REMARK  status: ('A' for Active; 'I' for Inactive)
REMARK    1  A    between atoms: C1_2  and  C2_3 
REMARK       I    between atoms: C1_2  and  N3_17 
REMARK    2  A    between atoms: C2_3  and  N1_4 
REMARK       I    between atoms: N2_7  and  C5_8 
REMARK    3  A    between atoms: C5_8  and  C6_10 
REMARK    4  A    between atoms: N3_17  and  C12_19 
REMARK    5  A    between atoms: C14_21  and  C15_22 
ROOT
HETATM    1  O1  UNL     1     -11.989 -10.586  -4.465  1.00  0.00    -0.267 OA
HETATM    2  C1  UNL     1     -11.767 -10.829  -3.287  1.00  0.00     0.256 C 
HETATM    3  N3  UNL     1     -10.419 -10.669  -2.824  1.00  0.00    -0.321 N 
ATOM      4  H3  UNL     1     -10.241 -10.881  -1.843  1.00  0.00     0.169 HD
ENDROOT
BRANCH   2   5
HETATM    5  C2  UNL     1     -12.741 -11.282  -2.246  1.00  0.00     0.134 C 
BRANCH   5   6
HETATM    6  N1  UNL     1     -13.382 -12.495  -2.403  1.00  0.00    -0.285 NA
HETATM    7  C3  UNL     1     -12.401 -13.591  -2.223  1.00  0.00     0.115 C 
HETATM    8  C4  UNL     1     -12.981 -14.690  -1.387  1.00  0.00     0.141 C 
HETATM    9  N2  UNL     1     -14.287 -15.108  -1.914  1.00  0.00    -0.344 N 
HETATM   10  C5  UNL     1     -14.604 -16.450  -2.067  1.00  0.00     0.277 C 
HETATM   11  C10 UNL     1     -15.182 -14.052  -2.277  1.00  0.00     0.141 C 
HETATM   12  O2  UNL     1     -13.695 -17.287  -1.719  1.00  0.00    -0.265 OA
HETATM   13  C11 UNL     1     -14.582 -12.738  -1.700  1.00  0.00     0.115 C 
BRANCH  10  14
HETATM   14  C6  UNL     1     -15.844 -16.968  -2.579  1.00  0.00     0.142 A 
HETATM   15  C7  UNL     1     -17.079 -16.889  -1.896  1.00  0.00     0.045 A 
HETATM   16  C8  UNL     1     -18.039 -17.477  -2.675  1.00  0.00     0.027 A 
HETATM   17  C9  UNL     1     -17.376 -17.902  -3.813  1.00  0.00     0.143 A 
HETATM   18  O3  UNL     1     -16.113 -17.582  -3.706  1.00  0.00    -0.317 OA
ENDBRANCH  10  14
ENDBRANCH   5   6
ENDBRANCH   2   5
BRANCH   3  19
HETATM   19  C12 UNL     1      -9.328 -10.250  -3.583  1.00  0.00     0.057 A 
HETATM   20  C13 UNL     1      -9.289  -9.220  -4.482  1.00  0.00     0.047 A 
HETATM   21  C14 UNL     1      -8.121  -8.849  -5.162  1.00  0.00     0.050 A 
HETATM   22  C16 UNL     1      -6.923  -9.519  -4.956  1.00  0.00     0.018 A 
HETATM   23  C17 UNL     1      -6.946 -10.558  -4.056  1.00  0.00     0.027 A 
HETATM   24  C18 UNL     1      -8.085 -10.912  -3.398  1.00  0.00     0.060 A 
HETATM   25 CL1  UNL     1      -8.059 -12.239  -2.268  1.00  0.00    -0.082 Cl
BRANCH  21  26
HETATM   26  C15 UNL     1      -8.138  -7.713  -6.120  1.00  0.00     0.417 C 
HETATM   27  F1  UNL     1      -9.156  -7.833  -7.013  1.00  0.00    -0.166 F 
HETATM   28  F2  UNL     1      -6.930  -7.739  -6.782  1.00  0.00    -0.166 F 
HETATM   29  F3  UNL     1      -8.261  -6.524  -5.397  1.00  0.00    -0.166 F 
ENDBRANCH  21  26
ENDBRANCH   3  19
TORSDOF 5
ENDMDL
