MODEL 5
REMARK VINA RESULT: -9.801206255      2.887      4.410
REMARK  5 active torsions:
REMARK  status: ('A' for Active; 'I' for Inactive)
REMARK    1  A    between atoms: C1_2  and  C2_3 
REMARK       I    between atoms: C1_2  and  N3_17 
REMARK    2  A    between atoms: C2_3  and  N1_4 
REMARK       I    between atoms: N2_7  and  C5_8 
REMARK    3  A    between atoms: C5_8  and  C6_10 
REMARK    4  A    between atoms: N3_17  and  C12_19 
REMARK    5  A    between atoms: C14_21  and  C15_22 
ROOT
HETATM    1  O1  UNL     1      -7.169 -10.007  -3.842  1.00  0.00    -0.267 OA
HETATM    2  C1  UNL     1      -8.016  -9.188  -3.510  1.00  0.00     0.256 C 
HETATM    3  N3  UNL     1      -9.210  -9.688  -2.893  1.00  0.00    -0.321 N 
ATOM      4  H3  UNL     1      -9.913  -9.000  -2.627  1.00  0.00     0.169 HD
ENDROOT
BRANCH   2   5
HETATM    5  C2  UNL     1      -7.963  -7.702  -3.668  1.00  0.00     0.134 C 
BRANCH   5   6
HETATM    6  N1  UNL     1      -7.487  -7.164  -4.847  1.00  0.00    -0.285 NA
HETATM    7  C3  UNL     1      -7.916  -8.019  -5.980  1.00  0.00     0.115 C 
HETATM    8  C4  UNL     1      -8.395  -7.182  -7.125  1.00  0.00     0.141 C 
HETATM    9  N2  UNL     1      -7.402  -6.154  -7.467  1.00  0.00    -0.344 N 
HETATM   10  C5  UNL     1      -7.035  -5.918  -8.784  1.00  0.00     0.277 C 
HETATM   11  C10 UNL     1      -6.831  -5.446  -6.362  1.00  0.00     0.141 C 
HETATM   12  O2  UNL     1      -7.616  -6.645  -9.668  1.00  0.00    -0.265 OA
HETATM   13  C11 UNL     1      -7.691  -5.793  -5.113  1.00  0.00     0.115 C 
BRANCH  10  14
HETATM   14  C6  UNL     1      -6.072  -4.948  -9.227  1.00  0.00     0.142 A 
HETATM   15  C7  UNL     1      -5.275  -5.093 -10.386  1.00  0.00     0.045 A 
HETATM   16  C8  UNL     1      -4.480  -3.985 -10.501  1.00  0.00     0.027 A 
HETATM   17  C9  UNL     1      -4.803  -3.188  -9.417  1.00  0.00     0.143 A 
HETATM   18  O3  UNL     1      -5.727  -3.791  -8.715  1.00  0.00    -0.317 OA
ENDBRANCH  10  14
ENDBRANCH   5   6
ENDBRANCH   2   5
BRANCH   3  19
HETATM   19  C12 UNL     1      -9.504 -11.023  -2.622  1.00  0.00     0.057 A 
HETATM   20  C13 UNL     1      -8.621 -12.022  -2.319  1.00  0.00     0.047 A 
HETATM   21  C14 UNL     1      -9.026 -13.329  -2.014  1.00  0.00     0.050 A 
HETATM   22  C16 UNL     1     -10.369 -13.683  -2.003  1.00  0.00     0.018 A 
HETATM   23  C17 UNL     1     -11.269 -12.689  -2.307  1.00  0.00     0.027 A 
HETATM   24  C18 UNL     1     -10.867 -11.422  -2.602  1.00  0.00     0.060 A 
HETATM   25 CL1  UNL     1     -12.051 -10.200  -2.982  1.00  0.00    -0.082 Cl
BRANCH  21  26
HETATM   26  C15 UNL     1      -8.020 -14.371  -1.682  1.00  0.00     0.417 C 
HETATM   27  F1  UNL     1      -8.400 -15.097  -0.596  1.00  0.00    -0.166 F 
HETATM   28  F2  UNL     1      -6.843 -13.709  -1.413  1.00  0.00    -0.166 F 
HETATM   29  F3  UNL     1      -7.859 -15.202  -2.793  1.00  0.00    -0.166 F 
ENDBRANCH  21  26
ENDBRANCH   3  19
TORSDOF 5
ENDMDL
