MODEL 2
REMARK VINA RESULT: -10.262943537      1.336      1.967
REMARK  5 active torsions:
REMARK  status: ('A' for Active; 'I' for Inactive)
REMARK    1  A    between atoms: C1_2  and  C2_3 
REMARK       I    between atoms: C1_2  and  N3_17 
REMARK    2  A    between atoms: C2_3  and  N1_4 
REMARK       I    between atoms: N2_7  and  C5_8 
REMARK    3  A    between atoms: C5_8  and  C6_10 
REMARK    4  A    between atoms: N3_17  and  C12_19 
REMARK    5  A    between atoms: C14_21  and  C15_22 
ROOT
HETATM    1  O1  UNL     1      -8.986 -12.738  -2.998  1.00  0.00    -0.267 OA
HETATM    2  C1  UNL     1      -9.071 -11.686  -2.378  1.00  0.00     0.256 C 
HETATM    3  N3  UNL     1     -10.363 -11.320  -1.875  1.00  0.00    -0.321 N 
ATOM      4  H3  UNL     1     -10.425 -10.438  -1.367  1.00  0.00     0.169 HD
ENDROOT
BRANCH   2   5
HETATM    5  C2  UNL     1      -7.976 -10.713  -2.073  1.00  0.00     0.134 C 
BRANCH   5   6
HETATM    6  N1  UNL     1      -7.751  -9.657  -2.933  1.00  0.00    -0.285 NA
HETATM    7  C3  UNL     1      -8.002 -10.101  -4.325  1.00  0.00     0.115 C 
HETATM    8  C4  UNL     1      -8.774  -9.065  -5.082  1.00  0.00     0.141 C 
HETATM    9  N2  UNL     1      -8.132  -7.748  -4.958  1.00  0.00    -0.344 N 
HETATM   10  C5  UNL     1      -7.937  -6.936  -6.066  1.00  0.00     0.277 C 
HETATM   11  C10 UNL     1      -7.706  -7.383  -3.641  1.00  0.00     0.141 C 
HETATM   12  O2  UNL     1      -8.352  -7.405  -7.187  1.00  0.00    -0.265 OA
HETATM   13  C11 UNL     1      -8.346  -8.406  -2.662  1.00  0.00     0.115 C 
BRANCH  10  14
HETATM   14  C6  UNL     1      -7.315  -5.640  -6.059  1.00  0.00     0.142 A 
HETATM   15  C7  UNL     1      -7.424  -4.714  -4.997  1.00  0.00     0.045 A 
HETATM   16  C8  UNL     1      -6.707  -3.595  -5.328  1.00  0.00     0.027 A 
HETATM   17  C9  UNL     1      -6.177  -3.858  -6.579  1.00  0.00     0.143 A 
HETATM   18  O3  UNL     1      -6.558  -5.051  -6.954  1.00  0.00    -0.317 OA
ENDBRANCH  10  14
ENDBRANCH   5   6
ENDBRANCH   2   5
BRANCH   3  19
HETATM   19  C12 UNL     1     -11.541 -12.051  -2.012  1.00  0.00     0.057 A 
HETATM   20  C13 UNL     1     -11.691 -13.407  -1.917  1.00  0.00     0.047 A 
HETATM   21  C14 UNL     1     -12.936 -14.043  -2.023  1.00  0.00     0.050 A 
HETATM   22  C16 UNL     1     -14.101 -13.317  -2.235  1.00  0.00     0.018 A 
HETATM   23  C17 UNL     1     -13.965 -11.952  -2.334  1.00  0.00     0.027 A 
HETATM   24  C18 UNL     1     -12.753 -11.342  -2.228  1.00  0.00     0.060 A 
HETATM   25 CL1  UNL     1     -12.637  -9.608  -2.363  1.00  0.00    -0.082 Cl
BRANCH  21  26
HETATM   26  C15 UNL     1     -13.040 -15.520  -1.901  1.00  0.00     0.417 C 
HETATM   27  F1  UNL     1     -11.903 -16.132  -2.328  1.00  0.00    -0.166 F 
HETATM   28  F2  UNL     1     -14.102 -15.907  -2.687  1.00  0.00    -0.166 F 
HETATM   29  F3  UNL     1     -13.293 -15.838  -0.565  1.00  0.00    -0.166 F 
ENDBRANCH  21  26
ENDBRANCH   3  19
TORSDOF 5
ENDMDL
