MODEL 1
REMARK VINA RESULT: -10.446668067      0.000      0.000
REMARK  5 active torsions:
REMARK  status: ('A' for Active; 'I' for Inactive)
REMARK    1  A    between atoms: C1_2  and  C2_3 
REMARK       I    between atoms: C1_2  and  N3_17 
REMARK    2  A    between atoms: C2_3  and  N1_4 
REMARK       I    between atoms: N2_7  and  C5_8 
REMARK    3  A    between atoms: C5_8  and  C6_10 
REMARK    4  A    between atoms: N3_17  and  C12_19 
REMARK    5  A    between atoms: C14_21  and  C15_22 
ROOT
HETATM    1  O1  UNL     1      -9.372 -13.850  -2.267  1.00  0.00    -0.267 OA
HETATM    2  C1  UNL     1      -9.413 -12.628  -2.243  1.00  0.00     0.256 C 
HETATM    3  N3  UNL     1     -10.708 -12.012  -2.215  1.00  0.00    -0.321 N 
ATOM      4  H3  UNL     1     -10.733 -10.993  -2.203  1.00  0.00     0.169 HD
ENDROOT
BRANCH   2   5
HETATM    5  C2  UNL     1      -8.261 -11.673  -2.239  1.00  0.00     0.134 C 
BRANCH   5   6
HETATM    6  N1  UNL     1      -8.231 -10.647  -3.162  1.00  0.00    -0.285 NA
HETATM    7  C3  UNL     1      -8.570  -9.373  -2.484  1.00  0.00     0.115 C 
HETATM    8  C4  UNL     1      -7.659  -8.273  -2.934  1.00  0.00     0.141 C 
HETATM    9  N2  UNL     1      -7.620  -8.202  -4.402  1.00  0.00    -0.344 N 
HETATM   10  C5  UNL     1      -7.733  -6.989  -5.067  1.00  0.00     0.277 C 
HETATM   11  C10 UNL     1      -7.485  -9.453  -5.084  1.00  0.00     0.141 C 
HETATM   12  O2  UNL     1      -7.869  -5.951  -4.324  1.00  0.00    -0.265 OA
HETATM   13  C11 UNL     1      -7.110 -10.513  -4.010  1.00  0.00     0.115 C 
BRANCH  10  14
HETATM   14  C6  UNL     1      -7.716  -6.807  -6.492  1.00  0.00     0.142 A 
HETATM   15  C7  UNL     1      -8.055  -5.599  -7.142  1.00  0.00     0.045 A 
HETATM   16  C8  UNL     1      -7.925  -5.786  -8.492  1.00  0.00     0.027 A 
HETATM   17  C9  UNL     1      -7.510  -7.098  -8.641  1.00  0.00     0.143 A 
HETATM   18  O3  UNL     1      -7.405  -7.641  -7.456  1.00  0.00    -0.317 OA
ENDBRANCH  10  14
ENDBRANCH   5   6
ENDBRANCH   2   5
BRANCH   3  19
HETATM   19  C12 UNL     1     -11.936 -12.670  -2.202  1.00  0.00     0.057 A 
HETATM   20  C13 UNL     1     -12.161 -14.002  -1.991  1.00  0.00     0.047 A 
HETATM   21  C14 UNL     1     -13.448 -14.558  -1.950  1.00  0.00     0.050 A 
HETATM   22  C16 UNL     1     -14.579 -13.773  -2.127  1.00  0.00     0.018 A 
HETATM   23  C17 UNL     1     -14.368 -12.431  -2.341  1.00  0.00     0.027 A 
HETATM   24  C18 UNL     1     -13.116 -11.898  -2.379  1.00  0.00     0.060 A 
HETATM   25 CL1  UNL     1     -12.905 -10.190  -2.657  1.00  0.00    -0.082 Cl
BRANCH  21  26
HETATM   26  C15 UNL     1     -13.631 -16.013  -1.706  1.00  0.00     0.417 C 
HETATM   27  F1  UNL     1     -13.311 -16.343  -0.426  1.00  0.00    -0.166 F 
HETATM   28  F2  UNL     1     -12.793 -16.667  -2.580  1.00  0.00    -0.166 F 
HETATM   29  F3  UNL     1     -14.960 -16.344  -1.978  1.00  0.00    -0.166 F 
ENDBRANCH  21  26
ENDBRANCH   3  19
TORSDOF 5
ENDMDL
