MODEL 3
REMARK VINA RESULT: -10.002284940      3.344      5.278
REMARK  5 active torsions:
REMARK  status: ('A' for Active; 'I' for Inactive)
REMARK    1  A    between atoms: C1_2  and  C2_3 
REMARK       I    between atoms: C1_2  and  N3_17 
REMARK    2  A    between atoms: C2_3  and  N1_4 
REMARK       I    between atoms: N2_7  and  C5_8 
REMARK    3  A    between atoms: C5_8  and  C6_10 
REMARK    4  A    between atoms: N3_17  and  C12_19 
REMARK    5  A    between atoms: C14_21  and  C15_22 
ROOT
HETATM    1  O1  UNL     1      -8.903  -8.712  -5.612  1.00  0.00    -0.267 OA
HETATM    2  C1  UNL     1      -8.454  -8.058  -4.680  1.00  0.00     0.256 C 
HETATM    3  N3  UNL     1      -8.567  -8.620  -3.366  1.00  0.00    -0.321 N 
ATOM      4  H3  UNL     1      -8.198  -8.065  -2.595  1.00  0.00     0.169 HD
ENDROOT
BRANCH   2   5
HETATM    5  C2  UNL     1      -7.790  -6.719  -4.738  1.00  0.00     0.134 C 
BRANCH   5   6
HETATM    6  N1  UNL     1      -7.169  -6.322  -5.906  1.00  0.00    -0.285 NA
HETATM    7  C3  UNL     1      -7.266  -7.414  -6.903  1.00  0.00     0.115 C 
HETATM    8  C4  UNL     1      -7.619  -6.871  -8.253  1.00  0.00     0.141 C 
HETATM    9  N2  UNL     1      -6.714  -5.773  -8.622  1.00  0.00    -0.344 N 
HETATM   10  C5  UNL     1      -6.135  -5.710  -9.882  1.00  0.00     0.277 C 
HETATM   11  C10 UNL     1      -6.456  -4.805  -7.599  1.00  0.00     0.141 C 
HETATM   12  O2  UNL     1      -6.443  -6.659 -10.690  1.00  0.00    -0.265 OA
HETATM   13  C11 UNL     1      -7.488  -5.065  -6.465  1.00  0.00     0.115 C 
BRANCH  10  14
HETATM   14  C6  UNL     1      -5.234  -4.690 -10.343  1.00  0.00     0.142 A 
HETATM   15  C7  UNL     1      -3.898  -4.931 -10.737  1.00  0.00     0.045 A 
HETATM   16  C8  UNL     1      -3.341  -3.740 -11.118  1.00  0.00     0.027 A 
HETATM   17  C9  UNL     1      -4.341  -2.798 -10.949  1.00  0.00     0.143 A 
HETATM   18  O3  UNL     1      -5.412  -3.400 -10.501  1.00  0.00    -0.317 OA
ENDBRANCH  10  14
ENDBRANCH   5   6
ENDBRANCH   2   5
BRANCH   3  19
HETATM   19  C12 UNL     1      -9.131  -9.852  -3.039  1.00  0.00     0.057 A 
HETATM   20  C13 UNL     1     -10.459 -10.180  -3.031  1.00  0.00     0.047 A 
HETATM   21  C14 UNL     1     -10.921 -11.469  -2.732  1.00  0.00     0.050 A 
HETATM   22  C16 UNL     1     -10.041 -12.496  -2.421  1.00  0.00     0.018 A 
HETATM   23  C17 UNL     1      -8.703 -12.182  -2.424  1.00  0.00     0.027 A 
HETATM   24  C18 UNL     1      -8.261 -10.928  -2.717  1.00  0.00     0.060 A 
HETATM   25 CL1  UNL     1      -6.553 -10.582  -2.704  1.00  0.00    -0.082 Cl
BRANCH  21  26
HETATM   26  C15 UNL     1     -12.377 -11.769  -2.749  1.00  0.00     0.417 C 
HETATM   27  F1  UNL     1     -12.608 -13.105  -2.651  1.00  0.00    -0.166 F 
HETATM   28  F2  UNL     1     -12.862 -11.297  -3.949  1.00  0.00    -0.166 F 
HETATM   29  F3  UNL     1     -12.982 -11.090  -1.689  1.00  0.00    -0.166 F 
ENDBRANCH  21  26
ENDBRANCH   3  19
TORSDOF 5
ENDMDL
