MODEL 1
REMARK VINA RESULT: -7.506466773      0.000      0.000
REMARK  3 active torsions:
REMARK  status: ('A' for Active; 'I' for Inactive)
REMARK    1  A    between atoms: N1_1  and  S1_4 
REMARK    2  A    between atoms: S1_4  and  C1_7 
REMARK    3  A    between atoms: C4_10  and  C5_11 
ROOT
HETATM    1  C1  UNL     1      -2.132   1.521  85.963  1.00  0.00     0.079 A 
HETATM    2  C2  UNL     1      -0.793   1.579  85.630  1.00  0.00     0.026 A 
HETATM    3  C3  UNL     1      -0.340   2.677  84.943  1.00  0.00     0.014 A 
HETATM    4  C4  UNL     1      -1.137   3.737  84.561  1.00  0.00    -0.026 A 
HETATM    5  C11 UNL     1      -2.471   3.677  84.894  1.00  0.00     0.014 A 
HETATM    6  C12 UNL     1      -2.959   2.585  85.585  1.00  0.00     0.026 A 
ENDROOT
BRANCH   1   7
HETATM    7  S1  UNL     1      -2.773   0.148  86.838  1.00  0.00     0.256 S 
HETATM    8  O1  UNL     1      -2.294  -1.158  86.233  1.00  0.00    -0.201 OA
HETATM    9  O2  UNL     1      -2.256   0.208  88.269  1.00  0.00    -0.201 OA
BRANCH   7  10
HETATM   10  N1  UNL     1      -4.500   0.197  86.826  1.00  0.00    -0.324 N 
ATOM     11  H12 UNL     1      -5.053   0.823  86.241  1.00  0.00     0.169 HD
ATOM     12  H11 UNL     1      -4.869  -0.487  87.486  1.00  0.00     0.169 HD
ENDBRANCH   7  10
ENDBRANCH   1   7
BRANCH   4  13
HETATM   13  C5  UNL     1      -0.560   4.872  83.825  1.00  0.00    -0.026 A 
HETATM   14  C6  UNL     1       0.462   5.638  84.348  1.00  0.00     0.012 A 
HETATM   15  C7  UNL     1       1.019   6.706  83.680  1.00  0.00     0.001 A 
HETATM   16  C8  UNL     1       0.547   7.042  82.430  1.00  0.00     0.000 A 
HETATM   17  C9  UNL     1      -0.474   6.290  81.891  1.00  0.00     0.001 A 
HETATM   18  C10 UNL     1      -1.031   5.219  82.561  1.00  0.00     0.012 A 
ENDBRANCH   4  13
TORSDOF 3
ENDMDL
