MODEL 2
REMARK VINA RESULT: -7.474137410      0.077      1.186
REMARK  3 active torsions:
REMARK  status: ('A' for Active; 'I' for Inactive)
REMARK    1  A    between atoms: N1_1  and  S1_4 
REMARK    2  A    between atoms: S1_4  and  C1_7 
REMARK    3  A    between atoms: C4_10  and  C5_11 
ROOT
HETATM    1  C1  UNL     1      -2.128   1.528  85.973  1.00  0.00     0.079 A 
HETATM    2  C2  UNL     1      -0.792   1.586  85.632  1.00  0.00     0.026 A 
HETATM    3  C3  UNL     1      -0.348   2.674  84.922  1.00  0.00     0.014 A 
HETATM    4  C4  UNL     1      -1.152   3.723  84.525  1.00  0.00    -0.026 A 
HETATM    5  C11 UNL     1      -2.484   3.663  84.868  1.00  0.00     0.014 A 
HETATM    6  C12 UNL     1      -2.962   2.581  85.580  1.00  0.00     0.026 A 
ENDROOT
BRANCH   1   7
HETATM    7  S1  UNL     1      -2.758   0.168  86.877  1.00  0.00     0.256 S 
HETATM    8  O1  UNL     1      -2.238  -1.145  86.322  1.00  0.00    -0.201 OA
HETATM    9  O2  UNL     1      -2.273   0.283  88.315  1.00  0.00    -0.201 OA
BRANCH   7  10
HETATM   10  N1  UNL     1      -4.485   0.179  86.828  1.00  0.00    -0.324 N 
ATOM     11  H12 UNL     1      -5.036   0.185  85.970  1.00  0.00     0.169 HD
ATOM     12  H11 UNL     1      -4.856   0.178  87.778  1.00  0.00     0.169 HD
ENDBRANCH   7  10
ENDBRANCH   1   7
BRANCH   4  13
HETATM   13  C5  UNL     1      -0.585   4.848  83.766  1.00  0.00    -0.026 A 
HETATM   14  C6  UNL     1      -1.046   5.188  82.511  1.00  0.00     0.012 A 
HETATM   15  C7  UNL     1      -0.531   6.235  81.779  1.00  0.00     0.001 A 
HETATM   16  C8  UNL     1       0.491   6.992  82.308  1.00  0.00     0.000 A 
HETATM   17  C9  UNL     1       0.966   6.668  83.561  1.00  0.00     0.001 A 
HETATM   18  C10 UNL     1       0.449   5.618  84.294  1.00  0.00     0.012 A 
ENDBRANCH   4  13
TORSDOF 3
ENDMDL
