MODEL 3
REMARK VINA RESULT: -7.424722109      0.115      1.191
REMARK  3 active torsions:
REMARK  status: ('A' for Active; 'I' for Inactive)
REMARK    1  A    between atoms: N1_1  and  S1_4 
REMARK    2  A    between atoms: S1_4  and  C1_7 
REMARK    3  A    between atoms: C4_10  and  C5_11 
ROOT
HETATM    1  C1  UNL     1      -2.092   1.546  85.894  1.00  0.00     0.079 A 
HETATM    2  C2  UNL     1      -2.912   2.571  85.468  1.00  0.00     0.026 A 
HETATM    3  C3  UNL     1      -2.345   3.615  84.779  1.00  0.00     0.014 A 
HETATM    4  C4  UNL     1      -1.001   3.709  84.480  1.00  0.00    -0.026 A 
HETATM    5  C11 UNL     1      -0.186   2.685  84.906  1.00  0.00     0.014 A 
HETATM    6  C12 UNL     1      -0.725   1.622  85.602  1.00  0.00     0.026 A 
ENDROOT
BRANCH   1   7
HETATM    7  S1  UNL     1      -2.751   0.186  86.777  1.00  0.00     0.256 S 
HETATM    8  O1  UNL     1      -2.279  -1.129  86.186  1.00  0.00    -0.201 OA
HETATM    9  O2  UNL     1      -2.244   0.256  88.210  1.00  0.00    -0.201 OA
BRANCH   7  10
HETATM   10  N1  UNL     1      -4.477   0.251  86.753  1.00  0.00    -0.324 N 
ATOM     11  H12 UNL     1      -5.085  -0.442  87.189  1.00  0.00     0.169 HD
ATOM     12  H11 UNL     1      -4.784   1.078  86.241  1.00  0.00     0.169 HD
ENDBRANCH   7  10
ENDBRANCH   1   7
BRANCH   4  13
HETATM   13  C5  UNL     1      -0.486   4.869  83.737  1.00  0.00    -0.026 A 
HETATM   14  C6  UNL     1       0.524   5.666  84.236  1.00  0.00     0.012 A 
HETATM   15  C7  UNL     1       1.023   6.758  83.560  1.00  0.00     0.001 A 
HETATM   16  C8  UNL     1       0.505   7.085  82.327  1.00  0.00     0.000 A 
HETATM   17  C9  UNL     1      -0.504   6.301  81.811  1.00  0.00     0.001 A 
HETATM   18  C10 UNL     1      -1.004   5.207  82.489  1.00  0.00     0.012 A 
ENDBRANCH   4  13
TORSDOF 3
ENDMDL
