MODEL 10
REMARK VINA RESULT: -6.875657134      4.884      6.538
REMARK  3 active torsions:
REMARK  status: ('A' for Active; 'I' for Inactive)
REMARK    1  A    between atoms: N1_1  and  S1_4 
REMARK    2  A    between atoms: S1_4  and  C1_7 
REMARK    3  A    between atoms: C4_10  and  C5_11 
ROOT
HETATM    1  C1  UNL     1       0.744   2.998  82.350  1.00  0.00     0.079 A 
HETATM    2  C2  UNL     1      -0.128   1.955  82.108  1.00  0.00     0.026 A 
HETATM    3  C3  UNL     1      -0.943   1.537  83.130  1.00  0.00     0.014 A 
HETATM    4  C4  UNL     1      -0.953   2.094  84.393  1.00  0.00    -0.026 A 
HETATM    5  C11 UNL     1      -0.084   3.134  84.631  1.00  0.00     0.014 A 
HETATM    6  C12 UNL     1       0.751   3.577  83.625  1.00  0.00     0.026 A 
ENDROOT
BRANCH   1   7
HETATM    7  S1  UNL     1       1.811   3.578  81.090  1.00  0.00     0.256 S 
HETATM    8  O1  UNL     1       3.051   2.710  80.983  1.00  0.00    -0.201 OA
HETATM    9  O2  UNL     1       1.073   3.492  79.762  1.00  0.00    -0.201 OA
BRANCH   7  10
HETATM   10  N1  UNL     1       2.268   5.212  81.414  1.00  0.00    -0.324 N 
ATOM     11  H12 UNL     1       2.927   5.492  82.140  1.00  0.00     0.169 HD
ATOM     12  H11 UNL     1       1.782   5.839  80.772  1.00  0.00     0.169 HD
ENDBRANCH   7  10
ENDBRANCH   1   7
BRANCH   4  13
HETATM   13  C5  UNL     1      -1.865   1.577  85.425  1.00  0.00    -0.026 A 
HETATM   14  C6  UNL     1      -1.717   0.316  85.965  1.00  0.00     0.012 A 
HETATM   15  C7  UNL     1      -2.557  -0.192  86.931  1.00  0.00     0.001 A 
HETATM   16  C8  UNL     1      -3.599   0.581  87.395  1.00  0.00     0.000 A 
HETATM   17  C9  UNL     1      -3.764   1.844  86.868  1.00  0.00     0.001 A 
HETATM   18  C10 UNL     1      -2.921   2.352  85.900  1.00  0.00     0.012 A 
ENDBRANCH   4  13
TORSDOF 3
ENDMDL
