MODEL 11
REMARK VINA RESULT: -6.872874957      4.929      6.538
REMARK  3 active torsions:
REMARK  status: ('A' for Active; 'I' for Inactive)
REMARK    1  A    between atoms: N1_1  and  S1_4 
REMARK    2  A    between atoms: S1_4  and  C1_7 
REMARK    3  A    between atoms: C4_10  and  C5_11 
ROOT
HETATM    1  C1  UNL     1       0.834   3.144  82.501  1.00  0.00     0.079 A 
HETATM    2  C2  UNL     1       0.796   3.664  83.779  1.00  0.00     0.026 A 
HETATM    3  C3  UNL     1      -0.089   3.121  84.677  1.00  0.00     0.014 A 
HETATM    4  C4  UNL     1      -0.950   2.082  84.387  1.00  0.00    -0.026 A 
HETATM    5  C11 UNL     1      -0.909   1.565  83.112  1.00  0.00     0.014 A 
HETATM    6  C12 UNL     1      -0.031   2.089  82.185  1.00  0.00     0.026 A 
ENDROOT
BRANCH   1   7
HETATM    7  S1  UNL     1       1.940   3.791  81.308  1.00  0.00     0.256 S 
HETATM    8  O1  UNL     1       1.446   3.516  79.900  1.00  0.00    -0.201 OA
HETATM    9  O2  UNL     1       2.005   5.301  81.486  1.00  0.00    -0.201 OA
BRANCH   7  10
HETATM   10  N1  UNL     1       3.507   3.098  81.523  1.00  0.00    -0.324 N 
ATOM     11  H12 UNL     1       3.741   2.128  81.309  1.00  0.00     0.169 HD
ATOM     12  H11 UNL     1       4.148   3.801  81.889  1.00  0.00     0.169 HD
ENDBRANCH   7  10
ENDBRANCH   1   7
BRANCH   4  13
HETATM   13  C5  UNL     1      -1.865   1.567  85.416  1.00  0.00    -0.026 A 
HETATM   14  C6  UNL     1      -1.725   0.303  85.952  1.00  0.00     0.012 A 
HETATM   15  C7  UNL     1      -2.569  -0.203  86.916  1.00  0.00     0.001 A 
HETATM   16  C8  UNL     1      -3.606   0.573  87.381  1.00  0.00     0.000 A 
HETATM   17  C9  UNL     1      -3.764   1.839  86.859  1.00  0.00     0.001 A 
HETATM   18  C10 UNL     1      -2.917   2.346  85.893  1.00  0.00     0.012 A 
ENDBRANCH   4  13
TORSDOF 3
ENDMDL
