MODEL 5
REMARK VINA RESULT: -7.292692895      1.024      1.972
REMARK  3 active torsions:
REMARK  status: ('A' for Active; 'I' for Inactive)
REMARK    1  A    between atoms: N1_1  and  S1_4 
REMARK    2  A    between atoms: S1_4  and  C1_7 
REMARK    3  A    between atoms: C4_10  and  C5_11 
ROOT
HETATM    1  C1  UNL     1      -2.341   1.776  86.105  1.00  0.00     0.079 A 
HETATM    2  C2  UNL     1      -3.149   2.832  85.734  1.00  0.00     0.026 A 
HETATM    3  C3  UNL     1      -2.631   3.783  84.889  1.00  0.00     0.014 A 
HETATM    4  C4  UNL     1      -1.349   3.752  84.380  1.00  0.00    -0.026 A 
HETATM    5  C11 UNL     1      -0.546   2.697  84.751  1.00  0.00     0.014 A 
HETATM    6  C12 UNL     1      -1.037   1.726  85.600  1.00  0.00     0.026 A 
ENDROOT
BRANCH   1   7
HETATM    7  S1  UNL     1      -2.941   0.532  87.180  1.00  0.00     0.256 S 
HETATM    8  O1  UNL     1      -4.264  -0.025  86.688  1.00  0.00    -0.201 OA
HETATM    9  O2  UNL     1      -1.937  -0.612  87.194  1.00  0.00    -0.201 OA
BRANCH   7  10
HETATM   10  N1  UNL     1      -3.134   1.174  88.772  1.00  0.00    -0.324 N 
ATOM     11  H12 UNL     1      -4.035   1.346  89.217  1.00  0.00     0.169 HD
ATOM     12  H11 UNL     1      -2.219   1.348  89.187  1.00  0.00     0.169 HD
ENDBRANCH   7  10
ENDBRANCH   1   7
BRANCH   4  13
HETATM   13  C5  UNL     1      -0.882   4.817  83.480  1.00  0.00    -0.026 A 
HETATM   14  C6  UNL     1      -1.547   5.130  82.312  1.00  0.00     0.012 A 
HETATM   15  C7  UNL     1      -1.130   6.122  81.452  1.00  0.00     0.001 A 
HETATM   16  C8  UNL     1       0.000   6.848  81.754  1.00  0.00     0.000 A 
HETATM   17  C9  UNL     1       0.679   6.551  82.916  1.00  0.00     0.001 A 
HETATM   18  C10 UNL     1       0.261   5.556  83.778  1.00  0.00     0.012 A 
ENDBRANCH   4  13
TORSDOF 3
ENDMDL
