MODEL 4
REMARK VINA RESULT: -7.412277761      0.102      1.677
REMARK  3 active torsions:
REMARK  status: ('A' for Active; 'I' for Inactive)
REMARK    1  A    between atoms: N1_1  and  S1_4 
REMARK    2  A    between atoms: S1_4  and  C1_7 
REMARK    3  A    between atoms: C4_10  and  C5_11 
ROOT
HETATM    1  C1  UNL     1      -2.103   1.519  85.920  1.00  0.00     0.079 A 
HETATM    2  C2  UNL     1      -2.927   2.546  85.507  1.00  0.00     0.026 A 
HETATM    3  C3  UNL     1      -2.367   3.593  84.816  1.00  0.00     0.014 A 
HETATM    4  C4  UNL     1      -1.026   3.687  84.503  1.00  0.00    -0.026 A 
HETATM    5  C11 UNL     1      -0.207   2.661  84.916  1.00  0.00     0.014 A 
HETATM    6  C12 UNL     1      -0.739   1.595  85.613  1.00  0.00     0.026 A 
ENDROOT
BRANCH   1   7
HETATM    7  S1  UNL     1      -2.754   0.157  86.805  1.00  0.00     0.256 S 
HETATM    8  O1  UNL     1      -2.308  -1.157  86.190  1.00  0.00    -0.201 OA
HETATM    9  O2  UNL     1      -2.212   0.206  88.226  1.00  0.00    -0.201 OA
BRANCH   7  10
HETATM   10  N1  UNL     1      -4.479   0.237  86.822  1.00  0.00    -0.324 N 
ATOM     11  H12 UNL     1      -5.094  -0.565  86.680  1.00  0.00     0.169 HD
ATOM     12  H11 UNL     1      -4.777   1.196  86.996  1.00  0.00     0.169 HD
ENDBRANCH   7  10
ENDBRANCH   1   7
BRANCH   4  13
HETATM   13  C5  UNL     1      -0.518   4.849  83.758  1.00  0.00    -0.026 A 
HETATM   14  C6  UNL     1      -1.051   5.228  82.543  1.00  0.00     0.012 A 
HETATM   15  C7  UNL     1      -0.592   6.311  81.826  1.00  0.00     0.001 A 
HETATM   16  C8  UNL     1       0.445   7.065  82.329  1.00  0.00     0.000 A 
HETATM   17  C9  UNL     1       0.991   6.702  83.541  1.00  0.00     0.001 A 
HETATM   18  C10 UNL     1       0.531   5.617  84.260  1.00  0.00     0.012 A 
ENDBRANCH   4  13
TORSDOF 3
ENDMDL
