MODEL 12
REMARK VINA RESULT: -6.855346764      4.932      6.560
REMARK  3 active torsions:
REMARK  status: ('A' for Active; 'I' for Inactive)
REMARK    1  A    between atoms: N1_1  and  S1_4 
REMARK    2  A    between atoms: S1_4  and  C1_7 
REMARK    3  A    between atoms: C4_10  and  C5_11 
ROOT
HETATM    1  C1  UNL     1       0.832   3.195  82.513  1.00  0.00     0.079 A 
HETATM    2  C2  UNL     1       0.803   3.700  83.797  1.00  0.00     0.026 A 
HETATM    3  C3  UNL     1      -0.075   3.145  84.696  1.00  0.00     0.014 A 
HETATM    4  C4  UNL     1      -0.935   2.108  84.401  1.00  0.00    -0.026 A 
HETATM    5  C11 UNL     1      -0.903   1.606  83.120  1.00  0.00     0.014 A 
HETATM    6  C12 UNL     1      -0.033   2.142  82.192  1.00  0.00     0.026 A 
ENDROOT
BRANCH   1   7
HETATM    7  S1  UNL     1       1.927   3.858  81.320  1.00  0.00     0.256 S 
HETATM    8  O1  UNL     1       1.489   3.493  79.914  1.00  0.00    -0.201 OA
HETATM    9  O2  UNL     1       1.895   5.376  81.432  1.00  0.00    -0.201 OA
BRANCH   7  10
HETATM   10  N1  UNL     1       3.528   3.274  81.602  1.00  0.00    -0.324 N 
ATOM     11  H12 UNL     1       4.009   3.327  82.499  1.00  0.00     0.169 HD
ATOM     12  H11 UNL     1       3.905   2.875  80.743  1.00  0.00     0.169 HD
ENDBRANCH   7  10
ENDBRANCH   1   7
BRANCH   4  13
HETATM   13  C5  UNL     1      -1.841   1.579  85.432  1.00  0.00    -0.026 A 
HETATM   14  C6  UNL     1      -2.891   2.321  85.932  1.00  0.00     0.012 A 
HETATM   15  C7  UNL     1      -3.753   1.849  86.898  1.00  0.00     0.001 A 
HETATM   16  C8  UNL     1      -3.575   0.579  87.400  1.00  0.00     0.000 A 
HETATM   17  C9  UNL     1      -2.532  -0.179  86.913  1.00  0.00     0.001 A 
HETATM   18  C10 UNL     1      -1.669   0.295  85.945  1.00  0.00     0.012 A 
ENDBRANCH   4  13
TORSDOF 3
ENDMDL
