MODEL 4
REMARK VINA RESULT: -7.303372283      4.802      6.322
REMARK  3 active torsions:
REMARK  status: ('A' for Active; 'I' for Inactive)
REMARK    1  A    between atoms: C7_7  and  C8_8 
REMARK    2  A    between atoms: C11_11  and  S1_12 
REMARK    3  A    between atoms: S1_12  and  N1_13 
ROOT
HETATM    1  C8  UNL     1      -0.874   3.645  83.939  1.00  0.00    -0.025 A 
HETATM    2  C9  UNL     1      -0.921   2.694  82.952  1.00  0.00     0.014 A 
HETATM    3  C10 UNL     1      -0.163   2.799  81.802  1.00  0.00     0.026 A 
HETATM    4  C11 UNL     1       0.680   3.883  81.611  1.00  0.00     0.079 A 
HETATM    5  C12 UNL     1       0.745   4.853  82.590  1.00  0.00     0.026 A 
HETATM    6  C13 UNL     1      -0.029   4.728  83.742  1.00  0.00     0.014 A 
ENDROOT
BRANCH   1   7
HETATM    7  C7  UNL     1      -1.661   3.568  85.171  1.00  0.00    -0.020 A 
HETATM    8  C2  UNL     1      -2.642   4.484  85.486  1.00  0.00    -0.051 A 
HETATM    9  C1  UNL     1      -2.945   5.615  84.549  1.00  0.00     0.049 C 
HETATM   10  C3  UNL     1      -3.359   4.373  86.663  1.00  0.00     0.007 A 
HETATM   11  C4  UNL     1      -3.114   3.350  87.547  1.00  0.00     0.001 A 
HETATM   12  C5  UNL     1      -2.141   2.429  87.246  1.00  0.00     0.001 A 
HETATM   13  C6  UNL     1      -1.432   2.535  86.088  1.00  0.00     0.013 A 
ENDBRANCH   1   7
BRANCH   4  14
HETATM   14  S1  UNL     1       1.639   4.010  80.153  1.00  0.00     0.256 S 
HETATM   15  O1  UNL     1       0.951   4.985  79.220  1.00  0.00    -0.201 OA
HETATM   16  O2  UNL     1       1.740   2.683  79.464  1.00  0.00    -0.201 OA
BRANCH  14  17
HETATM   17  N1  UNL     1       3.224   4.596  80.498  1.00  0.00    -0.324 N 
ATOM     18  H12 UNL     1       3.446   5.584  80.619  1.00  0.00     0.169 HD
ATOM     19  H11 UNL     1       3.894   3.829  80.562  1.00  0.00     0.169 HD
ENDBRANCH  14  17
ENDBRANCH   4  14
TORSDOF 3
ENDMDL
