MODEL 5
REMARK VINA RESULT: -7.173700839      4.810      6.448
REMARK  3 active torsions:
REMARK  status: ('A' for Active; 'I' for Inactive)
REMARK    1  A    between atoms: C7_7  and  C8_8 
REMARK    2  A    between atoms: C11_11  and  S1_12 
REMARK    3  A    between atoms: S1_12  and  N1_13 
ROOT
HETATM    1  C8  UNL     1      -0.442   4.351  84.391  1.00  0.00    -0.025 A 
HETATM    2  C9  UNL     1       0.513   5.248  84.794  1.00  0.00     0.014 A 
HETATM    3  C10 UNL     1       1.441   5.770  83.914  1.00  0.00     0.026 A 
HETATM    4  C11 UNL     1       1.432   5.395  82.579  1.00  0.00     0.079 A 
HETATM    5  C12 UNL     1       0.480   4.493  82.149  1.00  0.00     0.026 A 
HETATM    6  C13 UNL     1      -0.446   3.980  83.054  1.00  0.00     0.014 A 
ENDROOT
BRANCH   1   7
HETATM    7  C7  UNL     1      -1.443   3.778  85.294  1.00  0.00    -0.020 A 
HETATM    8  C2  UNL     1      -2.598   4.444  85.644  1.00  0.00    -0.051 A 
HETATM    9  C1  UNL     1      -2.876   5.811  85.093  1.00  0.00     0.049 C 
HETATM   10  C3  UNL     1      -3.514   3.864  86.503  1.00  0.00     0.007 A 
HETATM   11  C4  UNL     1      -3.298   2.613  87.027  1.00  0.00     0.001 A 
HETATM   12  C5  UNL     1      -2.152   1.937  86.686  1.00  0.00     0.001 A 
HETATM   13  C6  UNL     1      -1.248   2.504  85.841  1.00  0.00     0.013 A 
ENDBRANCH   1   7
BRANCH   4  14
HETATM   14  S1  UNL     1       2.610   6.060  81.468  1.00  0.00     0.256 S 
HETATM   15  O1  UNL     1       3.002   7.436  81.964  1.00  0.00    -0.201 OA
HETATM   16  O2  UNL     1       2.028   6.197  80.094  1.00  0.00    -0.201 OA
BRANCH  14  17
HETATM   17  N1  UNL     1       4.021   5.073  81.393  1.00  0.00    -0.324 N 
ATOM     18  H12 UNL     1       4.063   4.185  80.892  1.00  0.00     0.169 HD
ATOM     19  H11 UNL     1       4.793   5.495  81.910  1.00  0.00     0.169 HD
ENDBRANCH  14  17
ENDBRANCH   4  14
TORSDOF 3
ENDMDL
