MODEL 3
REMARK VINA RESULT: -7.342072060      4.804      6.350
REMARK  3 active torsions:
REMARK  status: ('A' for Active; 'I' for Inactive)
REMARK    1  A    between atoms: C7_7  and  C8_8 
REMARK    2  A    between atoms: C11_11  and  S1_12 
REMARK    3  A    between atoms: S1_12  and  N1_13 
ROOT
HETATM    1  C8  UNL     1      -0.820   3.696  83.964  1.00  0.00    -0.025 A 
HETATM    2  C9  UNL     1       0.012   4.763  83.739  1.00  0.00     0.014 A 
HETATM    3  C10 UNL     1       0.759   4.873  82.582  1.00  0.00     0.026 A 
HETATM    4  C11 UNL     1       0.686   3.895  81.602  1.00  0.00     0.079 A 
HETATM    5  C12 UNL     1      -0.144   2.812  81.806  1.00  0.00     0.026 A 
HETATM    6  C13 UNL     1      -0.888   2.721  82.980  1.00  0.00     0.014 A 
ENDROOT
BRANCH   1   7
HETATM    7  C7  UNL     1      -1.628   3.545  85.176  1.00  0.00    -0.020 A 
HETATM    8  C2  UNL     1      -2.623   4.433  85.523  1.00  0.00    -0.051 A 
HETATM    9  C1  UNL     1      -2.923   5.610  84.642  1.00  0.00     0.049 C 
HETATM   10  C3  UNL     1      -3.360   4.253  86.679  1.00  0.00     0.007 A 
HETATM   11  C4  UNL     1      -3.119   3.186  87.511  1.00  0.00     0.001 A 
HETATM   12  C5  UNL     1      -2.131   2.292  87.178  1.00  0.00     0.001 A 
HETATM   13  C6  UNL     1      -1.404   2.467  86.041  1.00  0.00     0.013 A 
ENDBRANCH   1   7
BRANCH   4  14
HETATM   14  S1  UNL     1       1.635   4.041  80.138  1.00  0.00     0.256 S 
HETATM   15  O1  UNL     1       0.924   5.004  79.210  1.00  0.00    -0.201 OA
HETATM   16  O2  UNL     1       1.756   2.717  79.448  1.00  0.00    -0.201 OA
BRANCH  14  17
HETATM   17  N1  UNL     1       3.210   4.654  80.475  1.00  0.00    -0.324 N 
ATOM     18  H12 UNL     1       3.396   5.388  81.159  1.00  0.00     0.169 HD
ATOM     19  H11 UNL     1       3.917   4.188  79.905  1.00  0.00     0.169 HD
ENDBRANCH  14  17
ENDBRANCH   4  14
TORSDOF 3
ENDMDL
