MODEL 1
REMARK VINA RESULT: -7.512907968      0.000      0.000
REMARK  3 active torsions:
REMARK  status: ('A' for Active; 'I' for Inactive)
REMARK    1  A    between atoms: C7_7  and  C8_8 
REMARK    2  A    between atoms: C11_11  and  S1_12 
REMARK    3  A    between atoms: S1_12  and  N1_13 
ROOT
HETATM    1  C8  UNL     1      -0.709   5.972  84.409  1.00  0.00    -0.025 A 
HETATM    2  C9  UNL     1      -2.043   5.903  84.720  1.00  0.00     0.014 A 
HETATM    3  C10 UNL     1      -2.585   4.810  85.366  1.00  0.00     0.026 A 
HETATM    4  C11 UNL     1      -1.785   3.737  85.726  1.00  0.00     0.079 A 
HETATM    5  C12 UNL     1      -0.439   3.782  85.423  1.00  0.00     0.026 A 
HETATM    6  C13 UNL     1       0.087   4.895  84.771  1.00  0.00     0.014 A 
ENDROOT
BRANCH   1   7
HETATM    7  C7  UNL     1      -0.098   7.114  83.726  1.00  0.00    -0.020 A 
HETATM    8  C2  UNL     1      -0.120   7.261  82.356  1.00  0.00    -0.051 A 
HETATM    9  C1  UNL     1      -0.793   6.230  81.499  1.00  0.00     0.049 C 
HETATM   10  C3  UNL     1       0.473   8.355  81.753  1.00  0.00     0.007 A 
HETATM   11  C4  UNL     1       1.097   9.323  82.503  1.00  0.00     0.001 A 
HETATM   12  C5  UNL     1       1.126   9.191  83.869  1.00  0.00     0.001 A 
HETATM   13  C6  UNL     1       0.544   8.115  84.466  1.00  0.00     0.013 A 
ENDBRANCH   1   7
BRANCH   4  14
HETATM   14  S1  UNL     1      -2.477   2.354  86.545  1.00  0.00     0.256 S 
HETATM   15  O1  UNL     1      -1.969   2.348  87.972  1.00  0.00    -0.201 OA
HETATM   16  O2  UNL     1      -2.055   1.077  85.885  1.00  0.00    -0.201 OA
BRANCH  14  17
HETATM   17  N1  UNL     1      -4.199   2.442  86.569  1.00  0.00    -0.324 N 
ATOM     18  H12 UNL     1      -4.737   3.113  86.020  1.00  0.00     0.169 HD
ATOM     19  H11 UNL     1      -4.595   1.741  87.196  1.00  0.00     0.169 HD
ENDBRANCH  14  17
ENDBRANCH   4  14
TORSDOF 3
ENDMDL
