MODEL 2
REMARK VINA RESULT: -7.458447814      0.092      1.152
REMARK  3 active torsions:
REMARK  status: ('A' for Active; 'I' for Inactive)
REMARK    1  A    between atoms: C7_7  and  C8_8 
REMARK    2  A    between atoms: C11_11  and  S1_12 
REMARK    3  A    between atoms: S1_12  and  N1_13 
ROOT
HETATM    1  C8  UNL     1      -0.616   5.874  84.400  1.00  0.00    -0.025 A 
HETATM    2  C9  UNL     1       0.126   4.782  84.772  1.00  0.00     0.014 A 
HETATM    3  C10 UNL     1      -0.438   3.710  85.435  1.00  0.00     0.026 A 
HETATM    4  C11 UNL     1      -1.789   3.707  85.747  1.00  0.00     0.079 A 
HETATM    5  C12 UNL     1      -2.556   4.795  85.383  1.00  0.00     0.026 A 
HETATM    6  C13 UNL     1      -1.967   5.866  84.715  1.00  0.00     0.014 A 
ENDROOT
BRANCH   1   7
HETATM    7  C7  UNL     1      -0.054   7.028  83.694  1.00  0.00    -0.020 A 
HETATM    8  C2  UNL     1      -0.099   7.156  82.323  1.00  0.00    -0.051 A 
HETATM    9  C1  UNL     1      -0.748   6.093  81.487  1.00  0.00     0.049 C 
HETATM   10  C3  UNL     1       0.447   8.263  81.699  1.00  0.00     0.007 A 
HETATM   11  C4  UNL     1       1.047   9.261  82.428  1.00  0.00     0.001 A 
HETATM   12  C5  UNL     1       1.099   9.147  83.795  1.00  0.00     0.001 A 
HETATM   13  C6  UNL     1       0.563   8.059  84.413  1.00  0.00     0.013 A 
ENDBRANCH   1   7
BRANCH   4  14
HETATM   14  S1  UNL     1      -2.498   2.346  86.588  1.00  0.00     0.256 S 
HETATM   15  O1  UNL     1      -1.989   2.355  88.014  1.00  0.00    -0.201 OA
HETATM   16  O2  UNL     1      -2.093   1.054  85.946  1.00  0.00    -0.201 OA
BRANCH  14  17
HETATM   17  N1  UNL     1      -4.219   2.456  86.611  1.00  0.00    -0.324 N 
ATOM     18  H12 UNL     1      -4.731   3.324  86.456  1.00  0.00     0.169 HD
ATOM     19  H11 UNL     1      -4.643   1.547  86.799  1.00  0.00     0.169 HD
ENDBRANCH  14  17
ENDBRANCH   4  14
TORSDOF 3
ENDMDL
