MODEL 13
REMARK VINA RESULT: -6.777394207      1.018      1.271
REMARK  3 active torsions:
REMARK  status: ('A' for Active; 'I' for Inactive)
REMARK    1  A    between atoms: C7_7  and  C8_8 
REMARK    2  A    between atoms: C11_11  and  S1_12 
REMARK    3  A    between atoms: S1_12  and  N1_13 
ROOT
HETATM    1  C8  UNL     1      -0.846   5.969  84.364  1.00  0.00    -0.025 A 
HETATM    2  C9  UNL     1      -2.154   6.079  84.761  1.00  0.00     0.014 A 
HETATM    3  C10 UNL     1      -2.767   5.108  85.529  1.00  0.00     0.026 A 
HETATM    4  C11 UNL     1      -2.066   3.980  85.927  1.00  0.00     0.079 A 
HETATM    5  C12 UNL     1      -0.748   3.847  85.540  1.00  0.00     0.026 A 
HETATM    6  C13 UNL     1      -0.150   4.838  84.766  1.00  0.00     0.014 A 
ENDROOT
BRANCH   1   7
HETATM    7  C7  UNL     1      -0.163   6.978  83.552  1.00  0.00    -0.020 A 
HETATM    8  C2  UNL     1      -0.128   6.925  82.174  1.00  0.00    -0.051 A 
HETATM    9  C1  UNL     1      -0.813   5.807  81.446  1.00  0.00     0.049 C 
HETATM   10  C3  UNL     1       0.532   7.899  81.447  1.00  0.00     0.007 A 
HETATM   11  C4  UNL     1       1.169   8.941  82.077  1.00  0.00     0.001 A 
HETATM   12  C5  UNL     1       1.142   9.007  83.448  1.00  0.00     0.001 A 
HETATM   13  C6  UNL     1       0.493   8.050  84.167  1.00  0.00     0.013 A 
ENDBRANCH   1   7
BRANCH   4  14
HETATM   14  S1  UNL     1      -2.847   2.753  86.901  1.00  0.00     0.256 S 
HETATM   15  O1  UNL     1      -4.264   2.582  86.395  1.00  0.00    -0.201 OA
HETATM   16  O2  UNL     1      -2.902   3.170  88.339  1.00  0.00    -0.201 OA
BRANCH  14  17
HETATM   17  N1  UNL     1      -2.026   1.243  86.777  1.00  0.00    -0.324 N 
ATOM     18  H12 UNL     1      -2.256   0.427  87.344  1.00  0.00     0.169 HD
ATOM     19  H11 UNL     1      -1.291   1.280  86.069  1.00  0.00     0.169 HD
ENDBRANCH  14  17
ENDBRANCH   4  14
TORSDOF 3
ENDMDL
