MODEL 6
REMARK VINA RESULT: -7.153554490      1.387      1.744
REMARK  3 active torsions:
REMARK  status: ('A' for Active; 'I' for Inactive)
REMARK    1  A    between atoms: C7_7  and  C8_8 
REMARK    2  A    between atoms: C11_11  and  S1_12 
REMARK    3  A    between atoms: S1_12  and  N1_13 
ROOT
HETATM    1  C8  UNL     1       0.256   6.960  84.216  1.00  0.00    -0.025 A 
HETATM    2  C9  UNL     1      -1.076   6.668  84.365  1.00  0.00     0.014 A 
HETATM    3  C10 UNL     1      -1.512   5.396  84.678  1.00  0.00     0.026 A 
HETATM    4  C11 UNL     1      -0.603   4.364  84.855  1.00  0.00     0.079 A 
HETATM    5  C12 UNL     1       0.742   4.633  84.710  1.00  0.00     0.026 A 
HETATM    6  C13 UNL     1       1.161   5.923  84.394  1.00  0.00     0.014 A 
ENDROOT
BRANCH   1   7
HETATM    7  C7  UNL     1       0.756   8.296  83.886  1.00  0.00    -0.020 A 
HETATM    8  C2  UNL     1       0.854   8.756  82.590  1.00  0.00    -0.051 A 
HETATM    9  C1  UNL     1       0.433   7.880  81.447  1.00  0.00     0.049 C 
HETATM   10  C3  UNL     1       1.335  10.025  82.325  1.00  0.00     0.007 A 
HETATM   11  C4  UNL     1       1.728  10.859  83.344  1.00  0.00     0.001 A 
HETATM   12  C5  UNL     1       1.636  10.415  84.640  1.00  0.00     0.001 A 
HETATM   13  C6  UNL     1       1.162   9.167  84.905  1.00  0.00     0.013 A 
ENDBRANCH   1   7
BRANCH   4  14
HETATM   14  S1  UNL     1      -1.162   2.753  85.252  1.00  0.00     0.256 S 
HETATM   15  O1  UNL     1      -0.142   2.114  86.171  1.00  0.00    -0.201 OA
HETATM   16  O2  UNL     1      -1.284   1.913  84.018  1.00  0.00    -0.201 OA
BRANCH  14  17
HETATM   17  N1  UNL     1      -2.684   2.804  86.060  1.00  0.00    -0.324 N 
ATOM     18  H12 UNL     1      -3.533   2.374  85.692  1.00  0.00     0.169 HD
ATOM     19  H11 UNL     1      -2.616   3.315  86.941  1.00  0.00     0.169 HD
ENDBRANCH  14  17
ENDBRANCH   4  14
TORSDOF 3
ENDMDL
