MODEL 1
REMARK VINA RESULT: -7.151313300      0.000      0.000
REMARK  4 active torsions:
REMARK  status: ('A' for Active; 'I' for Inactive)
REMARK    1  A    between atoms: N1_1  and  S1_4 
REMARK    2  A    between atoms: S1_4  and  C1_7 
REMARK    3  A    between atoms: C4_10  and  C5_11 
REMARK    4  A    between atoms: C9_15  and  C10_16 
ROOT
HETATM    1  C1  UNL     1       8.570  -3.625  75.399  1.00  0.00     0.079 A 
HETATM    2  C2  UNL     1       9.157  -4.579  74.597  1.00  0.00     0.026 A 
HETATM    3  C3  UNL     1       9.124  -5.900  75.018  1.00  0.00     0.014 A 
HETATM    4  C4  UNL     1       8.523  -6.279  76.207  1.00  0.00    -0.026 A 
HETATM    5  C12 UNL     1       7.935  -5.317  77.008  1.00  0.00     0.014 A 
HETATM    6  C13 UNL     1       7.971  -3.989  76.579  1.00  0.00     0.026 A 
ENDROOT
BRANCH   4   7
HETATM    7  C5  UNL     1       8.517  -7.697  76.604  1.00  0.00    -0.025 A 
HETATM    8  C6  UNL     1       9.393  -8.569  75.977  1.00  0.00     0.012 A 
HETATM    9  C7  UNL     1       9.443  -9.913  76.301  1.00  0.00     0.002 A 
HETATM   10  C8  UNL     1       8.592 -10.377  77.274  1.00  0.00     0.014 A 
HETATM   11  C9  UNL     1       7.713  -9.527  77.910  1.00  0.00     0.002 A 
HETATM   12  C11 UNL     1       7.684  -8.180  77.565  1.00  0.00     0.026 A 
BRANCH  11  13
HETATM   13  C10 UNL     1       6.813 -10.049  78.948  1.00  0.00     0.269 C 
HETATM   14  O3  UNL     1       7.027 -11.158  79.499  1.00  0.00    -0.301 OA
ENDBRANCH  11  13
ENDBRANCH   4   7
BRANCH   1  15
HETATM   15  S1  UNL     1       8.618  -1.966  74.858  1.00  0.00     0.256 S 
HETATM   16  O1  UNL     1       9.851  -1.693  74.037  1.00  0.00    -0.201 OA
HETATM   17  O2  UNL     1       8.672  -1.082  76.072  1.00  0.00    -0.201 OA
BRANCH  15  18
HETATM   18  N1  UNL     1       7.187  -1.650  73.930  1.00  0.00    -0.324 N 
ATOM     19  H12 UNL     1       6.695  -2.357  73.383  1.00  0.00     0.169 HD
ATOM     20  H11 UNL     1       6.917  -0.670  74.012  1.00  0.00     0.169 HD
ENDBRANCH  15  18
ENDBRANCH   1  15
TORSDOF 4
ENDMDL
