MODEL 3
REMARK VINA RESULT: -7.092655147      1.921      2.867
REMARK  4 active torsions:
REMARK  status: ('A' for Active; 'I' for Inactive)
REMARK    1  A    between atoms: N1_1  and  S1_4 
REMARK    2  A    between atoms: S1_4  and  C1_7 
REMARK    3  A    between atoms: C4_10  and  C5_11 
REMARK    4  A    between atoms: C9_15  and  C10_16 
ROOT
HETATM    1  C1  UNL     1       8.623  -2.420  75.308  1.00  0.00     0.079 A 
HETATM    2  C2  UNL     1       7.920  -2.860  76.407  1.00  0.00     0.026 A 
HETATM    3  C3  UNL     1       7.920  -4.219  76.685  1.00  0.00     0.014 A 
HETATM    4  C4  UNL     1       8.601  -5.131  75.895  1.00  0.00    -0.026 A 
HETATM    5  C12 UNL     1       9.305  -4.683  74.793  1.00  0.00     0.014 A 
HETATM    6  C13 UNL     1       9.302  -3.314  74.519  1.00  0.00     0.026 A 
ENDROOT
BRANCH   4   7
HETATM    7  C5  UNL     1       8.567  -6.563  76.237  1.00  0.00    -0.025 A 
HETATM    8  C6  UNL     1       7.870  -6.963  77.367  1.00  0.00     0.012 A 
HETATM    9  C7  UNL     1       7.794  -8.290  77.747  1.00  0.00     0.002 A 
HETATM   10  C8  UNL     1       8.434  -9.224  76.969  1.00  0.00     0.014 A 
HETATM   11  C9  UNL     1       9.133  -8.848  75.841  1.00  0.00     0.002 A 
HETATM   12  C11 UNL     1       9.192  -7.506  75.482  1.00  0.00     0.026 A 
BRANCH  11  13
HETATM   13  C10 UNL     1       9.808  -9.868  75.026  1.00  0.00     0.269 C 
HETATM   14  O3  UNL     1      10.614 -10.685  75.540  1.00  0.00    -0.301 OA
ENDBRANCH  11  13
ENDBRANCH   4   7
BRANCH   1  15
HETATM   15  S1  UNL     1       8.616  -0.707  74.969  1.00  0.00     0.256 S 
HETATM   16  O1  UNL     1       7.217  -0.148  74.998  1.00  0.00    -0.201 OA
HETATM   17  O2  UNL     1       9.160  -0.503  73.584  1.00  0.00    -0.201 OA
BRANCH  15  18
HETATM   18  N1  UNL     1       9.612   0.089  76.146  1.00  0.00    -0.324 N 
ATOM     19  H12 UNL     1       9.292   0.354  77.078  1.00  0.00     0.169 HD
ATOM     20  H11 UNL     1      10.548   0.248  75.772  1.00  0.00     0.169 HD
ENDBRANCH  15  18
ENDBRANCH   1  15
TORSDOF 4
ENDMDL
