MODEL 6
REMARK VINA RESULT: -8.115043613      4.667      7.695
REMARK  3 active torsions:
REMARK  status: ('A' for Active; 'I' for Inactive)
REMARK    1  A    between atoms: N1_1  and  S1_4 
REMARK    2  A    between atoms: S1_4  and  C1_7 
REMARK    3  A    between atoms: C4_10  and  C5_11 
ROOT
HETATM    1  C1  UNL     1      -0.473   7.796  82.916  1.00  0.00     0.079 A 
HETATM    2  C2  UNL     1      -0.696   6.706  82.079  1.00  0.00     0.026 A 
HETATM    3  C3  UNL     1      -0.905   5.464  82.665  1.00  0.00     0.014 A 
HETATM    4  C4  UNL     1      -0.898   5.288  84.022  1.00  0.00    -0.025 A 
HETATM    5  C14 UNL     1      -0.674   6.395  84.804  1.00  0.00     0.014 A 
HETATM    6  C15 UNL     1      -0.460   7.651  84.282  1.00  0.00     0.026 A 
ENDROOT
BRANCH   4   7
HETATM    7  C5  UNL     1      -1.117   3.975  84.617  1.00  0.00    -0.010 A 
HETATM    8  C6  UNL     1      -0.155   3.022  84.711  1.00  0.00     0.100 A 
HETATM    9  N2  UNL     1      -0.397   1.814  85.269  1.00  0.00    -0.364 N 
HETATM   10  C7  UNL     1      -1.623   1.502  85.765  1.00  0.00     0.042 A 
ATOM     11  H2  UNL     1       0.353   1.125  85.319  1.00  0.00     0.165 HD
HETATM   12  C8  UNL     1      -1.845   0.267  86.326  1.00  0.00     0.030 A 
HETATM   13  C12 UNL     1      -2.626   2.444  85.687  1.00  0.00    -0.009 A 
HETATM   14  C9  UNL     1      -3.103  -0.005  86.814  1.00  0.00     0.002 A 
HETATM   15  C10 UNL     1      -4.117   0.922  86.746  1.00  0.00     0.001 A 
HETATM   16  C11 UNL     1      -3.894   2.160  86.182  1.00  0.00     0.014 A 
HETATM   17  C13 UNL     1      -2.372   3.652  85.126  1.00  0.00     0.027 A 
ENDBRANCH   4   7
BRANCH   1  18
HETATM   18  S1  UNL     1      -0.206   9.409  82.251  1.00  0.00     0.256 S 
HETATM   19  O1  UNL     1      -1.028   9.619  81.006  1.00  0.00    -0.201 OA
HETATM   20  O2  UNL     1       1.263   9.545  81.997  1.00  0.00    -0.201 OA
BRANCH  18  21
HETATM   21  N1  UNL     1      -0.772  10.525  83.447  1.00  0.00    -0.324 N 
ATOM     22  H12 UNL     1      -1.431  10.306  84.194  1.00  0.00     0.169 HD
ATOM     23  H11 UNL     1      -0.329  11.425  83.263  1.00  0.00     0.169 HD
ENDBRANCH  18  21
ENDBRANCH   1  18
TORSDOF 3
ENDMDL
