MODEL 12
REMARK VINA RESULT: -7.485299866      4.829      7.614
REMARK  3 active torsions:
REMARK  status: ('A' for Active; 'I' for Inactive)
REMARK    1  A    between atoms: N1_1  and  S1_4 
REMARK    2  A    between atoms: S1_4  and  C1_7 
REMARK    3  A    between atoms: C4_10  and  C5_11 
ROOT
HETATM    1  C1  UNL     1       2.337   5.226  82.385  1.00  0.00     0.079 A 
HETATM    2  C2  UNL     1       1.709   5.957  83.390  1.00  0.00     0.026 A 
HETATM    3  C3  UNL     1       0.637   5.370  84.052  1.00  0.00     0.014 A 
HETATM    4  C4  UNL     1       0.191   4.113  83.747  1.00  0.00    -0.025 A 
HETATM    5  C14 UNL     1       0.844   3.434  82.748  1.00  0.00     0.014 A 
HETATM    6  C15 UNL     1       1.911   3.961  82.056  1.00  0.00     0.026 A 
ENDROOT
BRANCH   4   7
HETATM    7  C5  UNL     1      -0.937   3.517  84.453  1.00  0.00    -0.010 A 
HETATM    8  C6  UNL     1      -2.142   4.128  84.597  1.00  0.00     0.100 A 
HETATM    9  N2  UNL     1      -3.164   3.543  85.260  1.00  0.00    -0.364 N 
HETATM   10  C7  UNL     1      -3.029   2.309  85.813  1.00  0.00     0.042 A 
ATOM     11  H2  UNL     1      -4.053   4.036  85.346  1.00  0.00     0.165 HD
HETATM   12  C8  UNL     1      -4.084   1.735  86.484  1.00  0.00     0.030 A 
HETATM   13  C12 UNL     1      -1.822   1.658  85.688  1.00  0.00    -0.009 A 
HETATM   14  C9  UNL     1      -3.900   0.485  87.028  1.00  0.00     0.002 A 
HETATM   15  C10 UNL     1      -2.703  -0.181  86.914  1.00  0.00     0.001 A 
HETATM   16  C11 UNL     1      -1.645   0.394  86.242  1.00  0.00     0.014 A 
HETATM   17  C13 UNL     1      -0.802   2.253  85.021  1.00  0.00     0.027 A 
ENDBRANCH   4   7
BRANCH   1  18
HETATM   18  S1  UNL     1       3.710   5.896  81.501  1.00  0.00     0.256 S 
HETATM   19  O1  UNL     1       4.056   7.271  82.009  1.00  0.00    -0.201 OA
HETATM   20  O2  UNL     1       3.343   5.897  80.050  1.00  0.00    -0.201 OA
BRANCH  18  21
HETATM   21  N1  UNL     1       5.054   4.859  81.837  1.00  0.00    -0.324 N 
ATOM     22  H12 UNL     1       5.983   4.943  81.425  1.00  0.00     0.169 HD
ATOM     23  H11 UNL     1       4.743   4.161  82.514  1.00  0.00     0.169 HD
ENDBRANCH  18  21
ENDBRANCH   1  18
TORSDOF 3
ENDMDL
