MODEL 5
REMARK VINA RESULT: -8.156909951      0.921      1.559
REMARK  3 active torsions:
REMARK  status: ('A' for Active; 'I' for Inactive)
REMARK    1  A    between atoms: N1_1  and  S1_4 
REMARK    2  A    between atoms: S1_4  and  C1_7 
REMARK    3  A    between atoms: C4_10  and  C5_11 
ROOT
HETATM    1  C1  UNL     1      -2.155   1.990  85.552  1.00  0.00     0.079 A 
HETATM    2  C2  UNL     1      -3.148   2.948  85.367  1.00  0.00     0.026 A 
HETATM    3  C3  UNL     1      -2.818   4.107  84.674  1.00  0.00     0.014 A 
HETATM    4  C4  UNL     1      -1.561   4.326  84.178  1.00  0.00    -0.025 A 
HETATM    5  C14 UNL     1      -0.618   3.350  84.388  1.00  0.00     0.014 A 
HETATM    6  C15 UNL     1      -0.884   2.182  85.066  1.00  0.00     0.026 A 
ENDROOT
BRANCH   4   7
HETATM    7  C5  UNL     1      -1.234   5.550  83.456  1.00  0.00    -0.010 A 
HETATM    8  C6  UNL     1      -1.335   5.678  82.108  1.00  0.00     0.100 A 
HETATM    9  N2  UNL     1      -1.021   6.831  81.475  1.00  0.00    -0.364 N 
HETATM   10  C7  UNL     1      -0.589   7.918  82.166  1.00  0.00     0.042 A 
ATOM     11  H2  UNL     1      -1.109   6.885  80.460  1.00  0.00     0.165 HD
HETATM   12  C8  UNL     1      -0.275   9.078  81.499  1.00  0.00     0.030 A 
HETATM   13  C12 UNL     1      -0.474   7.826  83.536  1.00  0.00    -0.009 A 
HETATM   14  C9  UNL     1       0.159  10.153  82.241  1.00  0.00     0.002 A 
HETATM   15  C10 UNL     1       0.281  10.081  83.608  1.00  0.00     0.001 A 
HETATM   16  C11 UNL     1      -0.034   8.918  84.277  1.00  0.00     0.014 A 
HETATM   17  C13 UNL     1      -0.792   6.666  84.162  1.00  0.00     0.027 A 
ENDBRANCH   4   7
BRANCH   1  18
HETATM   18  S1  UNL     1      -2.495   0.488  86.414  1.00  0.00     0.256 S 
HETATM   19  O1  UNL     1      -3.898   0.015  86.136  1.00  0.00    -0.201 OA
HETATM   20  O2  UNL     1      -2.258   0.749  87.869  1.00  0.00    -0.201 OA
BRANCH  18  21
HETATM   21  N1  UNL     1      -1.407  -0.694  85.773  1.00  0.00    -0.324 N 
ATOM     22  H12 UNL     1      -1.146  -0.787  84.791  1.00  0.00     0.169 HD
ATOM     23  H11 UNL     1      -1.082  -1.269  86.551  1.00  0.00     0.169 HD
ENDBRANCH  18  21
ENDBRANCH   1  18
TORSDOF 3
ENDMDL
