MODEL 7
REMARK VINA RESULT: -8.037404033      4.593      7.694
REMARK  3 active torsions:
REMARK  status: ('A' for Active; 'I' for Inactive)
REMARK    1  A    between atoms: N1_1  and  S1_4 
REMARK    2  A    between atoms: S1_4  and  C1_7 
REMARK    3  A    between atoms: C4_10  and  C5_11 
ROOT
HETATM    1  C1  UNL     1      -0.478   7.921  83.025  1.00  0.00     0.079 A 
HETATM    2  C2  UNL     1      -0.679   6.858  82.150  1.00  0.00     0.026 A 
HETATM    3  C3  UNL     1      -0.882   5.594  82.691  1.00  0.00     0.014 A 
HETATM    4  C4  UNL     1      -0.890   5.372  84.042  1.00  0.00    -0.025 A 
HETATM    5  C14 UNL     1      -0.686   6.455  84.863  1.00  0.00     0.014 A 
HETATM    6  C15 UNL     1      -0.480   7.730  84.386  1.00  0.00     0.026 A 
ENDROOT
BRANCH   4   7
HETATM    7  C5  UNL     1      -1.102   4.038  84.590  1.00  0.00    -0.010 A 
HETATM    8  C6  UNL     1      -0.159   3.062  84.578  1.00  0.00     0.100 A 
HETATM    9  N2  UNL     1      -0.395   1.835  85.096  1.00  0.00    -0.364 N 
HETATM   10  C7  UNL     1      -1.594   1.526  85.654  1.00  0.00     0.042 A 
ATOM     11  H2  UNL     1       0.341   1.129  85.066  1.00  0.00     0.165 HD
HETATM   12  C8  UNL     1      -1.810   0.271  86.173  1.00  0.00     0.030 A 
HETATM   13  C12 UNL     1      -2.577   2.491  85.684  1.00  0.00    -0.009 A 
HETATM   14  C9  UNL     1      -3.040   0.003  86.727  1.00  0.00     0.002 A 
HETATM   15  C10 UNL     1      -4.034   0.953  86.767  1.00  0.00     0.001 A 
HETATM   16  C11 UNL     1      -3.818   2.212  86.246  1.00  0.00     0.014 A 
HETATM   17  C13 UNL     1      -2.330   3.719  85.163  1.00  0.00     0.027 A 
ENDBRANCH   4   7
BRANCH   1  18
HETATM   18  S1  UNL     1      -0.220   9.558  82.418  1.00  0.00     0.256 S 
HETATM   19  O1  UNL     1       1.250   9.848  82.263  1.00  0.00    -0.201 OA
HETATM   20  O2  UNL     1      -0.890  10.495  83.374  1.00  0.00    -0.201 OA
BRANCH  18  21
HETATM   21  N1  UNL     1      -0.933   9.607  80.842  1.00  0.00    -0.324 N 
ATOM     22  H12 UNL     1      -1.561   8.903  80.455  1.00  0.00     0.169 HD
ATOM     23  H11 UNL     1      -0.610  10.460  80.384  1.00  0.00     0.169 HD
ENDBRANCH  18  21
ENDBRANCH   1  18
TORSDOF 3
ENDMDL
