MODEL 3
REMARK VINA RESULT: -7.370970218      0.127      1.191
REMARK  3 active torsions:
REMARK  status: ('A' for Active; 'I' for Inactive)
REMARK    1  A    between atoms: N1_1  and  S1_4 
REMARK    2  A    between atoms: S1_4  and  C1_7 
REMARK    3  A    between atoms: C4_10  and  C5_11 
ROOT
HETATM    1  C1  UNL     1      15.926   4.652  16.199  1.00  0.00     0.079 A 
HETATM    2  C2  UNL     1      17.132   5.063  15.668  1.00  0.00     0.026 A 
HETATM    3  C3  UNL     1      17.245   6.360  15.234  1.00  0.00     0.014 A 
HETATM    4  C4  UNL     1      16.227   7.291  15.296  1.00  0.00    -0.026 A 
HETATM    5  C11 UNL     1      15.026   6.879  15.826  1.00  0.00     0.014 A 
HETATM    6  C12 UNL     1      14.879   5.580  16.270  1.00  0.00     0.026 A 
ENDROOT
BRANCH   1   7
HETATM    7  S1  UNL     1      15.716   3.011  16.769  1.00  0.00     0.256 S 
HETATM    8  O1  UNL     1      16.013   2.906  18.253  1.00  0.00    -0.201 OA
HETATM    9  O2  UNL     1      14.261   2.615  16.562  1.00  0.00    -0.201 OA
BRANCH   7  10
HETATM   10  N1  UNL     1      16.753   1.946  15.889  1.00  0.00    -0.324 N 
ATOM     11  H12 UNL     1      16.433   1.125  15.377  1.00  0.00     0.169 HD
ATOM     12  H11 UNL     1      17.719   2.266  15.964  1.00  0.00     0.169 HD
ENDBRANCH   7  10
ENDBRANCH   1   7
BRANCH   4  13
HETATM   13  C5  UNL     1      16.443   8.660  14.805  1.00  0.00    -0.026 A 
HETATM   14  C6  UNL     1      17.582   9.375  15.112  1.00  0.00     0.012 A 
HETATM   15  C7  UNL     1      17.807  10.659  14.667  1.00  0.00     0.001 A 
HETATM   16  C8  UNL     1      16.864  11.275  13.875  1.00  0.00     0.000 A 
HETATM   17  C9  UNL     1      15.718  10.578  13.557  1.00  0.00     0.001 A 
HETATM   18  C10 UNL     1      15.493   9.291  14.004  1.00  0.00     0.012 A 
ENDBRANCH   4  13
TORSDOF 3
ENDMDL
