MODEL 20
REMARK VINA RESULT: -6.493583849      4.970      6.452
REMARK  3 active torsions:
REMARK  status: ('A' for Active; 'I' for Inactive)
REMARK    1  A    between atoms: N1_1  and  S1_4 
REMARK    2  A    between atoms: S1_4  and  C1_7 
REMARK    3  A    between atoms: C4_10  and  C5_11 
ROOT
HETATM    1  C1  UNL     1      17.533   6.031  11.770  1.00  0.00     0.079 A 
HETATM    2  C2  UNL     1      17.505   6.829  12.896  1.00  0.00     0.026 A 
HETATM    3  C3  UNL     1      16.979   6.307  14.051  1.00  0.00     0.014 A 
HETATM    4  C4  UNL     1      16.473   5.028  14.165  1.00  0.00    -0.026 A 
HETATM    5  C11 UNL     1      16.502   4.235  13.041  1.00  0.00     0.014 A 
HETATM    6  C12 UNL     1      17.024   4.730  11.863  1.00  0.00     0.026 A 
ENDROOT
BRANCH   1   7
HETATM    7  S1  UNL     1      18.190   6.637  10.265  1.00  0.00     0.256 S 
HETATM    8  O1  UNL     1      19.676   6.346  10.162  1.00  0.00    -0.201 OA
HETATM    9  O2  UNL     1      17.499   5.915   9.117  1.00  0.00    -0.201 OA
BRANCH   7  10
HETATM   10  N1  UNL     1      17.919   8.338  10.148  1.00  0.00    -0.324 N 
ATOM     11  H12 UNL     1      18.435   8.962   9.528  1.00  0.00     0.169 HD
ATOM     12  H11 UNL     1      17.172   8.613  10.786  1.00  0.00     0.169 HD
ENDBRANCH   7  10
ENDBRANCH   1   7
BRANCH   4  13
HETATM   13  C5  UNL     1      15.928   4.556  15.448  1.00  0.00    -0.026 A 
HETATM   14  C6  UNL     1      15.052   5.318  16.193  1.00  0.00     0.012 A 
HETATM   15  C7  UNL     1      14.528   4.900  17.397  1.00  0.00     0.001 A 
HETATM   16  C8  UNL     1      14.884   3.666  17.896  1.00  0.00     0.000 A 
HETATM   17  C9  UNL     1      15.758   2.890  17.167  1.00  0.00     0.001 A 
HETATM   18  C10 UNL     1      16.282   3.310  15.960  1.00  0.00     0.012 A 
ENDBRANCH   4  13
TORSDOF 3
ENDMDL
