MODEL 1
REMARK VINA RESULT: -7.396484988      0.000      0.000
REMARK  3 active torsions:
REMARK  status: ('A' for Active; 'I' for Inactive)
REMARK    1  A    between atoms: N1_1  and  S1_4 
REMARK    2  A    between atoms: S1_4  and  C1_7 
REMARK    3  A    between atoms: C4_10  and  C5_11 
ROOT
HETATM    1  C1  UNL     1      15.990   4.687  16.145  1.00  0.00     0.079 A 
HETATM    2  C2  UNL     1      14.939   5.581  16.154  1.00  0.00     0.026 A 
HETATM    3  C3  UNL     1      15.162   6.853  15.688  1.00  0.00     0.014 A 
HETATM    4  C4  UNL     1      16.375   7.302  15.206  1.00  0.00    -0.026 A 
HETATM    5  C11 UNL     1      17.421   6.408  15.198  1.00  0.00     0.014 A 
HETATM    6  C12 UNL     1      17.230   5.121  15.661  1.00  0.00     0.026 A 
ENDROOT
BRANCH   1   7
HETATM    7  S1  UNL     1      15.773   3.050  16.726  1.00  0.00     0.256 S 
HETATM    8  O1  UNL     1      16.040   2.960  18.217  1.00  0.00    -0.201 OA
HETATM    9  O2  UNL     1      14.323   2.649  16.494  1.00  0.00    -0.201 OA
BRANCH   7  10
HETATM   10  N1  UNL     1      16.830   1.980  15.878  1.00  0.00    -0.324 N 
ATOM     11  H12 UNL     1      17.770   2.226  15.568  1.00  0.00     0.169 HD
ATOM     12  H11 UNL     1      16.372   1.080  15.741  1.00  0.00     0.169 HD
ENDBRANCH   7  10
ENDBRANCH   1   7
BRANCH   4  13
HETATM   13  C5  UNL     1      16.517   8.685  14.727  1.00  0.00    -0.026 A 
HETATM   14  C6  UNL     1      17.587   9.477  15.092  1.00  0.00     0.012 A 
HETATM   15  C7  UNL     1      17.743  10.776  14.658  1.00  0.00     0.001 A 
HETATM   16  C8  UNL     1      16.799  11.327  13.821  1.00  0.00     0.000 A 
HETATM   17  C9  UNL     1      15.723  10.552  13.445  1.00  0.00     0.001 A 
HETATM   18  C10 UNL     1      15.567   9.251  13.880  1.00  0.00     0.012 A 
ENDBRANCH   4  13
TORSDOF 3
ENDMDL
