MODEL 4
REMARK VINA RESULT: -7.368726473      0.114      1.677
REMARK  3 active torsions:
REMARK  status: ('A' for Active; 'I' for Inactive)
REMARK    1  A    between atoms: N1_1  and  S1_4 
REMARK    2  A    between atoms: S1_4  and  C1_7 
REMARK    3  A    between atoms: C4_10  and  C5_11 
ROOT
HETATM    1  C1  UNL     1      15.939   4.653  16.190  1.00  0.00     0.079 A 
HETATM    2  C2  UNL     1      17.145   5.068  15.663  1.00  0.00     0.026 A 
HETATM    3  C3  UNL     1      17.256   6.366  15.230  1.00  0.00     0.014 A 
HETATM    4  C4  UNL     1      16.235   7.293  15.289  1.00  0.00    -0.026 A 
HETATM    5  C11 UNL     1      15.033   6.877  15.815  1.00  0.00     0.014 A 
HETATM    6  C12 UNL     1      14.889   5.577  16.258  1.00  0.00     0.026 A 
ENDROOT
BRANCH   1   7
HETATM    7  S1  UNL     1      15.732   3.011  16.759  1.00  0.00     0.256 S 
HETATM    8  O1  UNL     1      16.030   2.906  18.242  1.00  0.00    -0.201 OA
HETATM    9  O2  UNL     1      14.277   2.613  16.553  1.00  0.00    -0.201 OA
BRANCH   7  10
HETATM   10  N1  UNL     1      16.771   1.949  15.878  1.00  0.00    -0.324 N 
ATOM     11  H12 UNL     1      17.511   1.388  16.299  1.00  0.00     0.169 HD
ATOM     12  H11 UNL     1      16.529   1.973  14.887  1.00  0.00     0.169 HD
ENDBRANCH   7  10
ENDBRANCH   1   7
BRANCH   4  13
HETATM   13  C5  UNL     1      16.448   8.664  14.799  1.00  0.00    -0.026 A 
HETATM   14  C6  UNL     1      15.528   9.303  13.993  1.00  0.00     0.012 A 
HETATM   15  C7  UNL     1      15.704  10.585  13.521  1.00  0.00     0.001 A 
HETATM   16  C8  UNL     1      16.845  11.279  13.859  1.00  0.00     0.000 A 
HETATM   17  C9  UNL     1      17.776  10.658  14.663  1.00  0.00     0.001 A 
HETATM   18  C10 UNL     1      17.599   9.373  15.136  1.00  0.00     0.012 A 
ENDBRANCH   4  13
TORSDOF 3
ENDMDL
