MODEL 2
REMARK VINA RESULT: -7.394648673      0.028      1.183
REMARK  3 active torsions:
REMARK  status: ('A' for Active; 'I' for Inactive)
REMARK    1  A    between atoms: N1_1  and  S1_4 
REMARK    2  A    between atoms: S1_4  and  C1_7 
REMARK    3  A    between atoms: C4_10  and  C5_11 
ROOT
HETATM    1  C1  UNL     1      15.996   4.687  16.135  1.00  0.00     0.079 A 
HETATM    2  C2  UNL     1      14.942   5.577  16.135  1.00  0.00     0.026 A 
HETATM    3  C3  UNL     1      15.164   6.849  15.667  1.00  0.00     0.014 A 
HETATM    4  C4  UNL     1      16.378   7.300  15.191  1.00  0.00    -0.026 A 
HETATM    5  C11 UNL     1      17.427   6.409  15.192  1.00  0.00     0.014 A 
HETATM    6  C12 UNL     1      17.238   5.124  15.657  1.00  0.00     0.026 A 
ENDROOT
BRANCH   1   7
HETATM    7  S1  UNL     1      15.781   3.051  16.718  1.00  0.00     0.256 S 
HETATM    8  O1  UNL     1      16.046   2.964  18.209  1.00  0.00    -0.201 OA
HETATM    9  O2  UNL     1      14.332   2.647  16.485  1.00  0.00    -0.201 OA
BRANCH   7  10
HETATM   10  N1  UNL     1      16.840   1.980  15.873  1.00  0.00    -0.324 N 
ATOM     11  H12 UNL     1      17.825   2.171  15.691  1.00  0.00     0.169 HD
ATOM     12  H11 UNL     1      16.331   1.143  15.592  1.00  0.00     0.169 HD
ENDBRANCH   7  10
ENDBRANCH   1   7
BRANCH   4  13
HETATM   13  C5  UNL     1      16.519   8.683  14.710  1.00  0.00    -0.026 A 
HETATM   14  C6  UNL     1      15.605   9.253  13.848  1.00  0.00     0.012 A 
HETATM   15  C7  UNL     1      15.715  10.545  13.382  1.00  0.00     0.001 A 
HETATM   16  C8  UNL     1      16.780  11.320  13.785  1.00  0.00     0.000 A 
HETATM   17  C9  UNL     1      17.705  10.769  14.645  1.00  0.00     0.001 A 
HETATM   18  C10 UNL     1      17.593   9.474  15.112  1.00  0.00     0.012 A 
ENDBRANCH   4  13
TORSDOF 3
ENDMDL
