MODEL 5
REMARK VINA RESULT: -7.122918959      1.071      1.301
REMARK  3 active torsions:
REMARK  status: ('A' for Active; 'I' for Inactive)
REMARK    1  A    between atoms: N1_1  and  S1_4 
REMARK    2  A    between atoms: S1_4  and  C1_7 
REMARK    3  A    between atoms: C4_10  and  C5_11 
ROOT
HETATM    1  C1  UNL     1      15.915   4.762  16.222  1.00  0.00     0.079 A 
HETATM    2  C2  UNL     1      14.961   5.754  16.121  1.00  0.00     0.026 A 
HETATM    3  C3  UNL     1      15.347   6.984  15.648  1.00  0.00     0.014 A 
HETATM    4  C4  UNL     1      16.634   7.298  15.262  1.00  0.00    -0.026 A 
HETATM    5  C11 UNL     1      17.584   6.307  15.364  1.00  0.00     0.014 A 
HETATM    6  C12 UNL     1      17.228   5.060  15.837  1.00  0.00     0.026 A 
ENDROOT
BRANCH   1   7
HETATM    7  S1  UNL     1      15.489   3.173  16.819  1.00  0.00     0.256 S 
HETATM    8  O1  UNL     1      16.033   2.085  15.912  1.00  0.00    -0.201 OA
HETATM    9  O2  UNL     1      16.124   2.990  18.190  1.00  0.00    -0.201 OA
BRANCH   7  10
HETATM   10  N1  UNL     1      13.771   3.030  16.934  1.00  0.00    -0.324 N 
ATOM     11  H12 UNL     1      13.251   2.176  16.737  1.00  0.00     0.169 HD
ATOM     12  H11 UNL     1      13.371   3.921  17.227  1.00  0.00     0.169 HD
ENDBRANCH   7  10
ENDBRANCH   1   7
BRANCH   4  13
HETATM   13  C5  UNL     1      16.953   8.646  14.767  1.00  0.00    -0.026 A 
HETATM   14  C6  UNL     1      18.217   9.186  14.882  1.00  0.00     0.012 A 
HETATM   15  C7  UNL     1      18.541  10.446  14.428  1.00  0.00     0.001 A 
HETATM   16  C8  UNL     1      17.571  11.217  13.827  1.00  0.00     0.000 A 
HETATM   17  C9  UNL     1      16.302  10.696  13.702  1.00  0.00     0.001 A 
HETATM   18  C10 UNL     1      15.978   9.433  14.158  1.00  0.00     0.012 A 
ENDBRANCH   4  13
TORSDOF 3
ENDMDL
