MODEL 2
REMARK VINA RESULT: -6.977646864      0.053      1.150
REMARK  3 active torsions:
REMARK  status: ('A' for Active; 'I' for Inactive)
REMARK    1  A    between atoms: C7_7  and  C8_8 
REMARK    2  A    between atoms: C11_11  and  S1_12 
REMARK    3  A    between atoms: S1_12  and  N1_13 
ROOT
HETATM    1  C8  UNL     1      16.495   5.428  14.882  1.00  0.00    -0.025 A 
HETATM    2  C9  UNL     1      15.246   4.962  15.204  1.00  0.00     0.014 A 
HETATM    3  C10 UNL     1      15.053   3.703  15.737  1.00  0.00     0.026 A 
HETATM    4  C11 UNL     1      16.133   2.863  15.967  1.00  0.00     0.079 A 
HETATM    5  C12 UNL     1      17.400   3.310  15.651  1.00  0.00     0.026 A 
HETATM    6  C13 UNL     1      17.571   4.583  15.114  1.00  0.00     0.014 A 
ENDROOT
BRANCH   1   7
HETATM    7  C7  UNL     1      16.739   6.757  14.317  1.00  0.00    -0.020 A 
HETATM    8  C2  UNL     1      16.939   6.967  12.969  1.00  0.00    -0.051 A 
HETATM    9  C1  UNL     1      16.906   5.811  12.013  1.00  0.00     0.049 C 
HETATM   10  C3  UNL     1      17.168   8.240  12.479  1.00  0.00     0.007 A 
HETATM   11  C4  UNL     1      17.203   9.325  13.321  1.00  0.00     0.001 A 
HETATM   12  C5  UNL     1      17.005   9.131  14.666  1.00  0.00     0.001 A 
HETATM   13  C6  UNL     1      16.779   7.880  15.152  1.00  0.00     0.013 A 
ENDBRANCH   1   7
BRANCH   4  14
HETATM   14  S1  UNL     1      15.882   1.269  16.643  1.00  0.00     0.256 S 
HETATM   15  O1  UNL     1      14.435   0.884  16.419  1.00  0.00    -0.201 OA
HETATM   16  O2  UNL     1      16.153   1.266  18.117  1.00  0.00    -0.201 OA
BRANCH  14  17
HETATM   17  N1  UNL     1      16.893   0.101  15.876  1.00  0.00    -0.324 N 
ATOM     18  H12 UNL     1      17.092   0.097  14.876  1.00  0.00     0.169 HD
ATOM     19  H11 UNL     1      17.256  -0.572  16.552  1.00  0.00     0.169 HD
ENDBRANCH  14  17
ENDBRANCH   4  14
TORSDOF 3
ENDMDL
