MODEL 3
REMARK VINA RESULT: -6.975367935      1.027      1.244
REMARK  3 active torsions:
REMARK  status: ('A' for Active; 'I' for Inactive)
REMARK    1  A    between atoms: C7_7  and  C8_8 
REMARK    2  A    between atoms: C11_11  and  S1_12 
REMARK    3  A    between atoms: S1_12  and  N1_13 
ROOT
HETATM    1  C8  UNL     1      16.757   5.303  14.878  1.00  0.00    -0.025 A 
HETATM    2  C9  UNL     1      17.675   4.330  15.179  1.00  0.00     0.014 A 
HETATM    3  C10 UNL     1      17.308   3.145  15.786  1.00  0.00     0.026 A 
HETATM    4  C11 UNL     1      15.983   2.903  16.113  1.00  0.00     0.079 A 
HETATM    5  C12 UNL     1      15.040   3.867  15.821  1.00  0.00     0.026 A 
HETATM    6  C13 UNL     1      15.432   5.055  15.208  1.00  0.00     0.014 A 
ENDROOT
BRANCH   1   7
HETATM    7  C7  UNL     1      17.108   6.571  14.234  1.00  0.00    -0.020 A 
HETATM    8  C2  UNL     1      17.285   6.690  12.872  1.00  0.00    -0.051 A 
HETATM    9  C1  UNL     1      17.113   5.494  11.983  1.00  0.00     0.049 C 
HETATM   10  C3  UNL     1      17.618   7.907  12.307  1.00  0.00     0.007 A 
HETATM   11  C4  UNL     1      17.781   9.027  13.086  1.00  0.00     0.001 A 
HETATM   12  C5  UNL     1      17.607   8.924  14.444  1.00  0.00     0.001 A 
HETATM   13  C6  UNL     1      17.279   7.727  15.004  1.00  0.00     0.013 A 
ENDBRANCH   1   7
BRANCH   4  14
HETATM   14  S1  UNL     1      15.524   1.399  16.882  1.00  0.00     0.256 S 
HETATM   15  O1  UNL     1      16.111   1.385  18.278  1.00  0.00    -0.201 OA
HETATM   16  O2  UNL     1      16.068   0.226  16.125  1.00  0.00    -0.201 OA
BRANCH  14  17
HETATM   17  N1  UNL     1      13.809   1.257  16.998  1.00  0.00    -0.324 N 
ATOM     18  H12 UNL     1      13.338   0.482  17.466  1.00  0.00     0.169 HD
ATOM     19  H11 UNL     1      13.343   2.041  16.542  1.00  0.00     0.169 HD
ENDBRANCH  14  17
ENDBRANCH   4  14
TORSDOF 3
ENDMDL
