MODEL 11
REMARK VINA RESULT: -6.761773221      4.895      6.334
REMARK  3 active torsions:
REMARK  status: ('A' for Active; 'I' for Inactive)
REMARK    1  A    between atoms: C7_7  and  C8_8 
REMARK    2  A    between atoms: C11_11  and  S1_12 
REMARK    3  A    between atoms: S1_12  and  N1_13 
ROOT
HETATM    1  C8  UNL     1      17.311   3.436  14.596  1.00  0.00    -0.025 A 
HETATM    2  C9  UNL     1      17.250   3.165  13.253  1.00  0.00     0.014 A 
HETATM    3  C10 UNL     1      18.147   3.714  12.357  1.00  0.00     0.026 A 
HETATM    4  C11 UNL     1      19.148   4.566  12.798  1.00  0.00     0.079 A 
HETATM    5  C12 UNL     1      19.229   4.855  14.144  1.00  0.00     0.026 A 
HETATM    6  C13 UNL     1      18.315   4.290  15.030  1.00  0.00     0.014 A 
ENDROOT
BRANCH   1   7
HETATM    7  C7  UNL     1      16.379   2.873  15.575  1.00  0.00    -0.020 A 
HETATM    8  C2  UNL     1      15.268   3.554  16.024  1.00  0.00    -0.051 A 
HETATM    9  C1  UNL     1      14.967   4.929  15.504  1.00  0.00     0.049 C 
HETATM   10  C3  UNL     1      14.417   2.983  16.952  1.00  0.00     0.007 A 
HETATM   11  C4  UNL     1      14.656   1.725  17.450  1.00  0.00     0.001 A 
HETATM   12  C5  UNL     1      15.758   1.034  17.012  1.00  0.00     0.001 A 
HETATM   13  C6  UNL     1      16.599   1.593  16.098  1.00  0.00     0.013 A 
ENDBRANCH   1   7
BRANCH   4  14
HETATM   14  S1  UNL     1      20.282   5.258  11.658  1.00  0.00     0.256 S 
HETATM   15  O1  UNL     1      19.513   6.169  10.723  1.00  0.00    -0.201 OA
HETATM   16  O2  UNL     1      20.941   4.187  10.845  1.00  0.00    -0.201 OA
BRANCH  14  17
HETATM   17  N1  UNL     1      21.490   6.185  12.466  1.00  0.00    -0.324 N 
ATOM     18  H12 UNL     1      21.703   6.091  13.460  1.00  0.00     0.169 HD
ATOM     19  H11 UNL     1      21.953   6.828  11.823  1.00  0.00     0.169 HD
ENDBRANCH  14  17
ENDBRANCH   4  14
TORSDOF 3
ENDMDL
