MODEL 1
REMARK VINA RESULT: -7.017497841      0.000      0.000
REMARK  3 active torsions:
REMARK  status: ('A' for Active; 'I' for Inactive)
REMARK    1  A    between atoms: C7_7  and  C8_8 
REMARK    2  A    between atoms: C11_11  and  S1_12 
REMARK    3  A    between atoms: S1_12  and  N1_13 
ROOT
HETATM    1  C8  UNL     1      16.578   5.401  14.869  1.00  0.00    -0.025 A 
HETATM    2  C9  UNL     1      17.615   4.538  15.116  1.00  0.00     0.014 A 
HETATM    3  C10 UNL     1      17.407   3.285  15.658  1.00  0.00     0.026 A 
HETATM    4  C11 UNL     1      16.126   2.858  15.972  1.00  0.00     0.079 A 
HETATM    5  C12 UNL     1      15.066   3.709  15.733  1.00  0.00     0.026 A 
HETATM    6  C13 UNL     1      15.298   4.968  15.186  1.00  0.00     0.014 A 
ENDROOT
BRANCH   1   7
HETATM    7  C7  UNL     1      16.759   6.736  14.295  1.00  0.00    -0.020 A 
HETATM    8  C2  UNL     1      16.911   6.949  12.941  1.00  0.00    -0.051 A 
HETATM    9  C1  UNL     1      16.890   5.790  11.989  1.00  0.00     0.049 C 
HETATM   10  C3  UNL     1      17.082   8.228  12.443  1.00  0.00     0.007 A 
HETATM   11  C4  UNL     1      17.103   9.316  13.282  1.00  0.00     0.001 A 
HETATM   12  C5  UNL     1      16.952   9.119  14.632  1.00  0.00     0.001 A 
HETATM   13  C6  UNL     1      16.784   7.862  15.126  1.00  0.00     0.013 A 
ENDBRANCH   1   7
BRANCH   4  14
HETATM   14  S1  UNL     1      15.869   1.269  16.659  1.00  0.00     0.256 S 
HETATM   15  O1  UNL     1      14.421   0.886  16.431  1.00  0.00    -0.201 OA
HETATM   16  O2  UNL     1      16.132   1.276  18.133  1.00  0.00    -0.201 OA
BRANCH  14  17
HETATM   17  N1  UNL     1      16.879   0.093  15.904  1.00  0.00    -0.324 N 
ATOM     18  H12 UNL     1      16.525  -0.660  15.315  1.00  0.00     0.169 HD
ATOM     19  H11 UNL     1      17.862   0.255  16.128  1.00  0.00     0.169 HD
ENDBRANCH  14  17
ENDBRANCH   4  14
TORSDOF 3
ENDMDL
