MODEL 6
REMARK VINA RESULT: -6.845259842      0.804      2.048
REMARK  3 active torsions:
REMARK  status: ('A' for Active; 'I' for Inactive)
REMARK    1  A    between atoms: C7_7  and  C8_8 
REMARK    2  A    between atoms: C11_11  and  S1_12 
REMARK    3  A    between atoms: S1_12  and  N1_13 
ROOT
HETATM    1  C8  UNL     1      16.054   5.411  14.438  1.00  0.00    -0.025 A 
HETATM    2  C9  UNL     1      15.005   5.014  15.226  1.00  0.00     0.014 A 
HETATM    3  C10 UNL     1      14.991   3.785  15.856  1.00  0.00     0.026 A 
HETATM    4  C11 UNL     1      16.054   2.907  15.709  1.00  0.00     0.079 A 
HETATM    5  C12 UNL     1      17.121   3.284  14.921  1.00  0.00     0.026 A 
HETATM    6  C13 UNL     1      17.115   4.527  14.294  1.00  0.00     0.014 A 
ENDROOT
BRANCH   1   7
HETATM    7  C7  UNL     1      16.105   6.705  13.755  1.00  0.00    -0.020 A 
HETATM    8  C2  UNL     1      16.487   7.868  14.390  1.00  0.00    -0.051 A 
HETATM    9  C1  UNL     1      16.877   7.842  15.838  1.00  0.00     0.049 C 
HETATM   10  C3  UNL     1      16.517   9.069  13.705  1.00  0.00     0.007 A 
HETATM   11  C4  UNL     1      16.170   9.135  12.378  1.00  0.00     0.001 A 
HETATM   12  C5  UNL     1      15.789   7.985  11.732  1.00  0.00     0.001 A 
HETATM   13  C6  UNL     1      15.757   6.801  12.402  1.00  0.00     0.013 A 
ENDBRANCH   1   7
BRANCH   4  14
HETATM   14  S1  UNL     1      16.031   1.351  16.511  1.00  0.00     0.256 S 
HETATM   15  O1  UNL     1      14.663   0.735  16.305  1.00  0.00    -0.201 OA
HETATM   16  O2  UNL     1      16.266   1.507  17.982  1.00  0.00    -0.201 OA
BRANCH  14  17
HETATM   17  N1  UNL     1      17.222   0.293  15.852  1.00  0.00    -0.324 N 
ATOM     18  H12 UNL     1      18.175   0.583  15.633  1.00  0.00     0.169 HD
ATOM     19  H11 UNL     1      16.845  -0.645  15.715  1.00  0.00     0.169 HD
ENDBRANCH  14  17
ENDBRANCH   4  14
TORSDOF 3
ENDMDL
