MODEL 10
REMARK VINA RESULT: -6.781930306      4.894      6.298
REMARK  3 active torsions:
REMARK  status: ('A' for Active; 'I' for Inactive)
REMARK    1  A    between atoms: C7_7  and  C8_8 
REMARK    2  A    between atoms: C11_11  and  S1_12 
REMARK    3  A    between atoms: S1_12  and  N1_13 
ROOT
HETATM    1  C8  UNL     1      17.361   3.486  14.683  1.00  0.00    -0.025 A 
HETATM    2  C9  UNL     1      18.368   4.335  15.067  1.00  0.00     0.014 A 
HETATM    3  C10 UNL     1      19.253   4.876  14.156  1.00  0.00     0.026 A 
HETATM    4  C11 UNL     1      19.146   4.573  12.807  1.00  0.00     0.079 A 
HETATM    5  C12 UNL     1      18.141   3.722  12.396  1.00  0.00     0.026 A 
HETATM    6  C13 UNL     1      17.260   3.187  13.332  1.00  0.00     0.014 A 
ENDROOT
BRANCH   1   7
HETATM    7  C7  UNL     1      16.404   2.894  15.620  1.00  0.00    -0.020 A 
HETATM    8  C2  UNL     1      15.263   3.550  16.032  1.00  0.00    -0.051 A 
HETATM    9  C1  UNL     1      14.957   4.925  15.517  1.00  0.00     0.049 C 
HETATM   10  C3  UNL     1      14.388   2.953  16.921  1.00  0.00     0.007 A 
HETATM   11  C4  UNL     1      14.632   1.694  17.414  1.00  0.00     0.001 A 
HETATM   12  C5  UNL     1      15.763   1.028  17.011  1.00  0.00     0.001 A 
HETATM   13  C6  UNL     1      16.627   1.613  16.137  1.00  0.00     0.013 A 
ENDBRANCH   1   7
BRANCH   4  14
HETATM   14  S1  UNL     1      20.270   5.262  11.656  1.00  0.00     0.256 S 
HETATM   15  O1  UNL     1      19.495   6.175  10.728  1.00  0.00    -0.201 OA
HETATM   16  O2  UNL     1      20.918   4.189  10.836  1.00  0.00    -0.201 OA
BRANCH  14  17
HETATM   17  N1  UNL     1      21.489   6.186  12.452  1.00  0.00    -0.324 N 
ATOM     18  H12 UNL     1      21.913   5.914  13.339  1.00  0.00     0.169 HD
ATOM     19  H11 UNL     1      21.722   7.025  11.920  1.00  0.00     0.169 HD
ENDBRANCH  14  17
ENDBRANCH   4  14
TORSDOF 3
ENDMDL
