MODEL 4
REMARK VINA RESULT: -6.953668668      1.068      1.713
REMARK  3 active torsions:
REMARK  status: ('A' for Active; 'I' for Inactive)
REMARK    1  A    between atoms: C7_7  and  C8_8 
REMARK    2  A    between atoms: C11_11  and  S1_12 
REMARK    3  A    between atoms: S1_12  and  N1_13 
ROOT
HETATM    1  C8  UNL     1      16.774   5.313  14.876  1.00  0.00    -0.025 A 
HETATM    2  C9  UNL     1      15.469   5.053  15.205  1.00  0.00     0.014 A 
HETATM    3  C10 UNL     1      15.089   3.866  15.801  1.00  0.00     0.026 A 
HETATM    4  C11 UNL     1      16.032   2.891  16.089  1.00  0.00     0.079 A 
HETATM    5  C12 UNL     1      17.352   3.129  15.767  1.00  0.00     0.026 A 
HETATM    6  C13 UNL     1      17.713   4.333  15.166  1.00  0.00     0.014 A 
ENDROOT
BRANCH   1   7
HETATM    7  C7  UNL     1      17.215   6.559  14.245  1.00  0.00    -0.020 A 
HETATM    8  C2  UNL     1      17.371   6.687  12.881  1.00  0.00    -0.051 A 
HETATM    9  C1  UNL     1      17.083   5.526  11.977  1.00  0.00     0.049 C 
HETATM   10  C3  UNL     1      17.792   7.883  12.329  1.00  0.00     0.007 A 
HETATM   11  C4  UNL     1      18.064   8.971  13.123  1.00  0.00     0.001 A 
HETATM   12  C5  UNL     1      17.911   8.858  14.482  1.00  0.00     0.001 A 
HETATM   13  C6  UNL     1      17.497   7.683  15.030  1.00  0.00     0.013 A 
ENDBRANCH   1   7
BRANCH   4  14
HETATM   14  S1  UNL     1      15.545   1.389  16.845  1.00  0.00     0.256 S 
HETATM   15  O1  UNL     1      16.098   1.371  18.255  1.00  0.00    -0.201 OA
HETATM   16  O2  UNL     1      16.101   0.214  16.101  1.00  0.00    -0.201 OA
BRANCH  14  17
HETATM   17  N1  UNL     1      13.828   1.257  16.919  1.00  0.00    -0.324 N 
ATOM     18  H12 UNL     1      13.332   0.367  16.957  1.00  0.00     0.169 HD
ATOM     19  H11 UNL     1      13.387   2.178  16.920  1.00  0.00     0.169 HD
ENDBRANCH  14  17
ENDBRANCH   4  14
TORSDOF 3
ENDMDL
