MODEL 14
REMARK VINA RESULT: -6.587304294      4.797      6.346
REMARK  3 active torsions:
REMARK  status: ('A' for Active; 'I' for Inactive)
REMARK    1  A    between atoms: C7_7  and  C8_8 
REMARK    2  A    between atoms: C11_11  and  S1_12 
REMARK    3  A    between atoms: S1_12  and  N1_13 
ROOT
HETATM    1  C8  UNL     1      16.984   3.388  14.699  1.00  0.00    -0.025 A 
HETATM    2  C9  UNL     1      16.878   3.185  13.347  1.00  0.00     0.014 A 
HETATM    3  C10 UNL     1      17.748   3.774  12.451  1.00  0.00     0.026 A 
HETATM    4  C11 UNL     1      18.769   4.597  12.900  1.00  0.00     0.079 A 
HETATM    5  C12 UNL     1      18.897   4.817  14.256  1.00  0.00     0.026 A 
HETATM    6  C13 UNL     1      18.008   4.213  15.142  1.00  0.00     0.014 A 
ENDROOT
BRANCH   1   7
HETATM    7  C7  UNL     1      16.082   2.780  15.679  1.00  0.00    -0.020 A 
HETATM    8  C2  UNL     1      16.174   1.457  16.056  1.00  0.00    -0.051 A 
HETATM    9  C1  UNL     1      17.233   0.577  15.461  1.00  0.00     0.049 C 
HETATM   10  C3  UNL     1      15.298   0.925  16.984  1.00  0.00     0.007 A 
HETATM   11  C4  UNL     1      14.316   1.699  17.554  1.00  0.00     0.001 A 
HETATM   12  C5  UNL     1      14.213   3.019  17.190  1.00  0.00     0.001 A 
HETATM   13  C6  UNL     1      15.074   3.546  16.276  1.00  0.00     0.013 A 
ENDBRANCH   1   7
BRANCH   4  14
HETATM   14  S1  UNL     1      19.869   5.341  11.759  1.00  0.00     0.256 S 
HETATM   15  O1  UNL     1      19.133   6.462  11.056  1.00  0.00    -0.201 OA
HETATM   16  O2  UNL     1      20.321   4.349  10.731  1.00  0.00    -0.201 OA
BRANCH  14  17
HETATM   17  N1  UNL     1      21.247   5.998  12.560  1.00  0.00    -0.324 N 
ATOM     18  H12 UNL     1      22.181   6.019  12.151  1.00  0.00     0.169 HD
ATOM     19  H11 UNL     1      21.000   6.356  13.484  1.00  0.00     0.169 HD
ENDBRANCH  14  17
ENDBRANCH   4  14
TORSDOF 3
ENDMDL
