MODEL 3
REMARK VINA RESULT: -7.244083371      0.984      1.650
REMARK  4 active torsions:
REMARK  status: ('A' for Active; 'I' for Inactive)
REMARK    1  A    between atoms: N1_1  and  S1_4 
REMARK    2  A    between atoms: S1_4  and  C1_7 
REMARK    3  A    between atoms: C4_10  and  C5_11 
REMARK    4  A    between atoms: C9_15  and  C10_16 
ROOT
HETATM    1  C1  UNL     1      15.872   2.956  16.224  1.00  0.00     0.079 A 
HETATM    2  C2  UNL     1      14.887   3.917  16.167  1.00  0.00     0.026 A 
HETATM    3  C3  UNL     1      15.214   5.161  15.650  1.00  0.00     0.014 A 
HETATM    4  C4  UNL     1      16.489   5.458  15.194  1.00  0.00    -0.026 A 
HETATM    5  C12 UNL     1      17.473   4.489  15.253  1.00  0.00     0.014 A 
HETATM    6  C13 UNL     1      17.138   3.238  15.775  1.00  0.00     0.026 A 
ENDROOT
BRANCH   4   7
HETATM    7  C5  UNL     1      16.779   6.796  14.654  1.00  0.00    -0.025 A 
HETATM    8  C6  UNL     1      15.758   7.503  14.039  1.00  0.00     0.012 A 
HETATM    9  C7  UNL     1      15.959   8.766  13.511  1.00  0.00     0.002 A 
HETATM   10  C8  UNL     1      17.213   9.317  13.610  1.00  0.00     0.014 A 
HETATM   11  C9  UNL     1      18.242   8.632  14.218  1.00  0.00     0.002 A 
HETATM   12  C11 UNL     1      18.012   7.363  14.741  1.00  0.00     0.026 A 
BRANCH  11  13
HETATM   13  C10 UNL     1      19.575   9.245  14.312  1.00  0.00     0.269 C 
HETATM   14  O3  UNL     1      20.149   9.392  15.421  1.00  0.00    -0.301 OA
ENDBRANCH  11  13
ENDBRANCH   4   7
BRANCH   1  15
HETATM   15  S1  UNL     1      15.448   1.393  16.877  1.00  0.00     0.256 S 
HETATM   16  O1  UNL     1      16.042   1.192  18.247  1.00  0.00    -0.201 OA
HETATM   17  O2  UNL     1      16.020   0.339  15.972  1.00  0.00    -0.201 OA
BRANCH  15  18
HETATM   18  N1  UNL     1      13.718   1.277  16.941  1.00  0.00    -0.324 N 
ATOM     19  H12 UNL     1      13.176   0.571  16.443  1.00  0.00     0.169 HD
ATOM     20  H11 UNL     1      13.334   2.007  17.540  1.00  0.00     0.169 HD
ENDBRANCH  15  18
ENDBRANCH   1  15
TORSDOF 4
ENDMDL
