MODEL 5
REMARK VINA RESULT: -7.124958208      0.949      1.561
REMARK  4 active torsions:
REMARK  status: ('A' for Active; 'I' for Inactive)
REMARK    1  A    between atoms: N1_1  and  S1_4 
REMARK    2  A    between atoms: S1_4  and  C1_7 
REMARK    3  A    between atoms: C4_10  and  C5_11 
REMARK    4  A    between atoms: C9_15  and  C10_16 
ROOT
HETATM    1  C1  UNL     1      15.786   2.827  16.180  1.00  0.00     0.079 A 
HETATM    2  C2  UNL     1      14.787   3.774  16.221  1.00  0.00     0.026 A 
HETATM    3  C3  UNL     1      15.065   5.043  15.736  1.00  0.00     0.014 A 
HETATM    4  C4  UNL     1      16.307   5.376  15.217  1.00  0.00    -0.026 A 
HETATM    5  C12 UNL     1      17.305   4.421  15.178  1.00  0.00     0.014 A 
HETATM    6  C13 UNL     1      17.018   3.146  15.668  1.00  0.00     0.026 A 
ENDROOT
BRANCH   4   7
HETATM    7  C5  UNL     1      16.547   6.739  14.715  1.00  0.00    -0.025 A 
HETATM    8  C6  UNL     1      15.537   7.380  14.014  1.00  0.00     0.012 A 
HETATM    9  C7  UNL     1      15.693   8.661  13.516  1.00  0.00     0.002 A 
HETATM   10  C8  UNL     1      16.890   9.299  13.732  1.00  0.00     0.014 A 
HETATM   11  C9  UNL     1      17.907   8.680  14.426  1.00  0.00     0.002 A 
HETATM   12  C11 UNL     1      17.723   7.392  14.916  1.00  0.00     0.026 A 
BRANCH  11  13
HETATM   13  C10 UNL     1      19.178   9.385  14.644  1.00  0.00     0.269 C 
HETATM   14  O3  UNL     1      20.029   8.957  15.464  1.00  0.00    -0.301 OA
ENDBRANCH  11  13
ENDBRANCH   4   7
BRANCH   1  15
HETATM   15  S1  UNL     1      15.422   1.233  16.794  1.00  0.00     0.256 S 
HETATM   16  O1  UNL     1      16.228   0.176  16.086  1.00  0.00    -0.201 OA
HETATM   17  O2  UNL     1      13.970   0.954  16.532  1.00  0.00    -0.201 OA
BRANCH  15  18
HETATM   18  N1  UNL     1      15.755   1.213  18.497  1.00  0.00    -0.324 N 
ATOM     19  H12 UNL     1      16.694   1.252  18.894  1.00  0.00     0.169 HD
ATOM     20  H11 UNL     1      14.888   1.157  19.030  1.00  0.00     0.169 HD
ENDBRANCH  15  18
ENDBRANCH   1  15
TORSDOF 4
ENDMDL
