MODEL 12
REMARK VINA RESULT: -6.791737604      4.374      6.764
REMARK  4 active torsions:
REMARK  status: ('A' for Active; 'I' for Inactive)
REMARK    1  A    between atoms: N1_1  and  S1_4 
REMARK    2  A    between atoms: S1_4  and  C1_7 
REMARK    3  A    between atoms: C4_10  and  C5_11 
REMARK    4  A    between atoms: C9_15  and  C10_16 
ROOT
HETATM    1  C1  UNL     1      17.602   4.550  11.319  1.00  0.00     0.079 A 
HETATM    2  C2  UNL     1      17.416   5.556  12.241  1.00  0.00     0.026 A 
HETATM    3  C3  UNL     1      16.830   5.233  13.455  1.00  0.00     0.014 A 
HETATM    4  C4  UNL     1      16.433   3.940  13.760  1.00  0.00    -0.026 A 
HETATM    5  C12 UNL     1      16.622   2.935  12.831  1.00  0.00     0.014 A 
HETATM    6  C13 UNL     1      17.213   3.266  11.610  1.00  0.00     0.026 A 
ENDROOT
BRANCH   4   7
HETATM    7  C5  UNL     1      15.815   3.655  15.065  1.00  0.00    -0.025 A 
HETATM    8  C6  UNL     1      15.070   4.647  15.683  1.00  0.00     0.012 A 
HETATM    9  C7  UNL     1      14.460   4.447  16.908  1.00  0.00     0.002 A 
HETATM   10  C8  UNL     1      14.610   3.224  17.514  1.00  0.00     0.014 A 
HETATM   11  C9  UNL     1      15.347   2.223  16.918  1.00  0.00     0.002 A 
HETATM   12  C11 UNL     1      15.949   2.451  15.685  1.00  0.00     0.026 A 
BRANCH  11  13
HETATM   13  C10 UNL     1      15.491   0.923  17.588  1.00  0.00     0.269 C 
HETATM   14  O3  UNL     1      15.679  -0.132  16.930  1.00  0.00    -0.301 OA
ENDBRANCH  11  13
ENDBRANCH   4   7
BRANCH   1  15
HETATM   15  S1  UNL     1      18.342   4.969   9.794  1.00  0.00     0.256 S 
HETATM   16  O1  UNL     1      17.830   4.097   8.678  1.00  0.00    -0.201 OA
HETATM   17  O2  UNL     1      19.821   4.737   9.914  1.00  0.00    -0.201 OA
BRANCH  15  18
HETATM   18  N1  UNL     1      18.006   6.639   9.463  1.00  0.00    -0.324 N 
ATOM     19  H12 UNL     1      18.272   7.114   8.600  1.00  0.00     0.169 HD
ATOM     20  H11 UNL     1      17.511   7.066  10.246  1.00  0.00     0.169 HD
ENDBRANCH  15  18
ENDBRANCH   1  15
TORSDOF 4
ENDMDL
