MODEL 2
REMARK VINA RESULT: -7.503160821      0.144      1.133
REMARK  4 active torsions:
REMARK  status: ('A' for Active; 'I' for Inactive)
REMARK    1  A    between atoms: N1_1  and  S1_4 
REMARK    2  A    between atoms: S1_4  and  C1_7 
REMARK    3  A    between atoms: C4_10  and  C5_11 
REMARK    4  A    between atoms: C9_15  and  C10_16 
ROOT
HETATM    1  C1  UNL     1      16.059   2.822  16.068  1.00  0.00     0.079 A 
HETATM    2  C2  UNL     1      14.985   3.684  16.028  1.00  0.00     0.026 A 
HETATM    3  C3  UNL     1      15.197   4.976  15.572  1.00  0.00     0.014 A 
HETATM    4  C4  UNL     1      16.446   5.415  15.160  1.00  0.00    -0.026 A 
HETATM    5  C12 UNL     1      17.520   4.545  15.202  1.00  0.00     0.014 A 
HETATM    6  C13 UNL     1      17.299   3.246  15.663  1.00  0.00     0.026 A 
ENDROOT
BRANCH   4   7
HETATM    7  C5  UNL     1      16.614   6.798  14.684  1.00  0.00    -0.025 A 
HETATM    8  C6  UNL     1      15.549   7.420  14.051  1.00  0.00     0.012 A 
HETATM    9  C7  UNL     1      15.636   8.718  13.581  1.00  0.00     0.002 A 
HETATM   10  C8  UNL     1      16.819   9.393  13.756  1.00  0.00     0.014 A 
HETATM   11  C9  UNL     1      17.890   8.793  14.383  1.00  0.00     0.002 A 
HETATM   12  C11 UNL     1      17.775   7.487  14.846  1.00  0.00     0.026 A 
BRANCH  11  13
HETATM   13  C10 UNL     1      19.145   9.538  14.558  1.00  0.00     0.269 C 
HETATM   14  O3  UNL     1      20.004   9.179  15.404  1.00  0.00    -0.301 OA
ENDBRANCH  11  13
ENDBRANCH   4   7
BRANCH   1  15
HETATM   15  S1  UNL     1      15.778   1.198  16.644  1.00  0.00     0.256 S 
HETATM   16  O1  UNL     1      14.336   0.797  16.472  1.00  0.00    -0.201 OA
HETATM   17  O2  UNL     1      16.089   1.165  18.113  1.00  0.00    -0.201 OA
BRANCH  15  18
HETATM   18  N1  UNL     1      16.817   0.118  15.770  1.00  0.00    -0.324 N 
ATOM     19  H12 UNL     1      16.761  -0.037  14.763  1.00  0.00     0.169 HD
ATOM     20  H11 UNL     1      17.481  -0.329  16.403  1.00  0.00     0.169 HD
ENDBRANCH  15  18
ENDBRANCH   1  15
TORSDOF 4
ENDMDL
