MODEL 1
REMARK VINA RESULT: -7.578517561      0.000      0.000
REMARK  4 active torsions:
REMARK  status: ('A' for Active; 'I' for Inactive)
REMARK    1  A    between atoms: N1_1  and  S1_4 
REMARK    2  A    between atoms: S1_4  and  C1_7 
REMARK    3  A    between atoms: C4_10  and  C5_11 
REMARK    4  A    between atoms: C9_15  and  C10_16 
ROOT
HETATM    1  C1  UNL     1      16.042   2.933  16.075  1.00  0.00     0.079 A 
HETATM    2  C2  UNL     1      17.276   3.322  15.602  1.00  0.00     0.026 A 
HETATM    3  C3  UNL     1      17.420   4.621  15.138  1.00  0.00     0.014 A 
HETATM    4  C4  UNL     1      16.369   5.525  15.141  1.00  0.00    -0.026 A 
HETATM    5  C12 UNL     1      15.134   5.129  15.618  1.00  0.00     0.014 A 
HETATM    6  C13 UNL     1      14.995   3.820  16.083  1.00  0.00     0.026 A 
ENDROOT
BRANCH   4   7
HETATM    7  C5  UNL     1      16.580   6.892  14.637  1.00  0.00    -0.025 A 
HETATM    8  C6  UNL     1      15.550   7.519  13.954  1.00  0.00     0.012 A 
HETATM    9  C7  UNL     1      15.677   8.802  13.456  1.00  0.00     0.002 A 
HETATM   10  C8  UNL     1      16.868   9.458  13.653  1.00  0.00     0.014 A 
HETATM   11  C9  UNL     1      17.906   8.854  14.330  1.00  0.00     0.002 A 
HETATM   12  C11 UNL     1      17.750   7.563  14.821  1.00  0.00     0.026 A 
BRANCH  11  13
HETATM   13  C10 UNL     1      19.169   9.579  14.528  1.00  0.00     0.269 C 
HETATM   14  O3  UNL     1      19.990   9.228  15.414  1.00  0.00    -0.301 OA
ENDBRANCH  11  13
ENDBRANCH   4   7
BRANCH   1  15
HETATM   15  S1  UNL     1      15.873   1.295  16.656  1.00  0.00     0.256 S 
HETATM   16  O1  UNL     1      14.486   0.765  16.405  1.00  0.00    -0.201 OA
HETATM   17  O2  UNL     1      16.099   1.302  18.141  1.00  0.00    -0.201 OA
BRANCH  15  18
HETATM   18  N1  UNL     1      17.055   0.306  15.858  1.00  0.00    -0.324 N 
ATOM     19  H12 UNL     1      16.939  -0.074  14.919  1.00  0.00     0.169 HD
ATOM     20  H11 UNL     1      17.867   0.166  16.459  1.00  0.00     0.169 HD
ENDBRANCH  15  18
ENDBRANCH   1  15
TORSDOF 4
ENDMDL
