MODEL 7
REMARK VINA RESULT: -7.013068831      4.066      6.726
REMARK  4 active torsions:
REMARK  status: ('A' for Active; 'I' for Inactive)
REMARK    1  A    between atoms: N1_1  and  S1_4 
REMARK    2  A    between atoms: S1_4  and  C1_7 
REMARK    3  A    between atoms: C4_10  and  C5_11 
REMARK    4  A    between atoms: C9_15  and  C10_16 
ROOT
HETATM    1  C1  UNL     1      19.509   4.777  12.545  1.00  0.00     0.079 A 
HETATM    2  C2  UNL     1      19.637   5.186  13.854  1.00  0.00     0.026 A 
HETATM    3  C3  UNL     1      18.648   4.822  14.755  1.00  0.00     0.014 A 
HETATM    4  C4  UNL     1      17.549   4.066  14.376  1.00  0.00    -0.026 A 
HETATM    5  C12 UNL     1      17.426   3.659  13.061  1.00  0.00     0.014 A 
HETATM    6  C13 UNL     1      18.425   4.029  12.159  1.00  0.00     0.026 A 
ENDROOT
BRANCH   4   7
HETATM    7  C5  UNL     1      16.530   3.708  15.375  1.00  0.00    -0.025 A 
HETATM    8  C6  UNL     1      15.464   4.570  15.581  1.00  0.00     0.012 A 
HETATM    9  C7  UNL     1      14.469   4.296  16.501  1.00  0.00     0.002 A 
HETATM   10  C8  UNL     1      14.558   3.132  17.224  1.00  0.00     0.014 A 
HETATM   11  C9  UNL     1      15.609   2.260  17.036  1.00  0.00     0.002 A 
HETATM   12  C11 UNL     1      16.595   2.560  16.102  1.00  0.00     0.026 A 
BRANCH  11  13
HETATM   13  C10 UNL     1      15.680   1.020  17.821  1.00  0.00     0.269 C 
HETATM   14  O3  UNL     1      15.394  -0.093  17.310  1.00  0.00    -0.301 OA
ENDBRANCH  11  13
ENDBRANCH   4   7
BRANCH   1  15
HETATM   15  S1  UNL     1      20.761   5.242  11.420  1.00  0.00     0.256 S 
HETATM   16  O1  UNL     1      20.198   6.035  10.270  1.00  0.00    -0.201 OA
HETATM   17  O2  UNL     1      21.371   3.990  10.858  1.00  0.00    -0.201 OA
BRANCH  15  18
HETATM   18  N1  UNL     1      21.948   6.174  12.276  1.00  0.00    -0.324 N 
ATOM     19  H12 UNL     1      21.908   6.366  13.278  1.00  0.00     0.169 HD
ATOM     20  H11 UNL     1      22.677   6.495  11.640  1.00  0.00     0.169 HD
ENDBRANCH  15  18
ENDBRANCH   1  15
TORSDOF 4
ENDMDL
