MODEL 4
REMARK VINA RESULT: -7.142236102      0.982      1.210
REMARK  4 active torsions:
REMARK  status: ('A' for Active; 'I' for Inactive)
REMARK    1  A    between atoms: N1_1  and  S1_4 
REMARK    2  A    between atoms: S1_4  and  C1_7 
REMARK    3  A    between atoms: C4_10  and  C5_11 
REMARK    4  A    between atoms: C9_15  and  C10_16 
ROOT
HETATM    1  C1  UNL     1      15.709   2.945  16.268  1.00  0.00     0.079 A 
HETATM    2  C2  UNL     1      16.944   3.195  15.710  1.00  0.00     0.026 A 
HETATM    3  C3  UNL     1      17.193   4.464  15.209  1.00  0.00     0.014 A 
HETATM    4  C4  UNL     1      16.245   5.474  15.258  1.00  0.00    -0.026 A 
HETATM    5  C12 UNL     1      15.008   5.217  15.820  1.00  0.00     0.014 A 
HETATM    6  C13 UNL     1      14.763   3.937  16.322  1.00  0.00     0.026 A 
ENDROOT
BRANCH   4   7
HETATM    7  C5  UNL     1      16.564   6.803  14.712  1.00  0.00    -0.025 A 
HETATM    8  C6  UNL     1      15.617   7.451  13.934  1.00  0.00     0.012 A 
HETATM    9  C7  UNL     1      15.849   8.701  13.392  1.00  0.00     0.002 A 
HETATM   10  C8  UNL     1      17.059   9.302  13.641  1.00  0.00     0.014 A 
HETATM   11  C9  UNL     1      18.015   8.675  14.412  1.00  0.00     0.002 A 
HETATM   12  C11 UNL     1      17.755   7.418  14.946  1.00  0.00     0.026 A 
BRANCH  11  13
HETATM   13  C10 UNL     1      19.301   9.340  14.664  1.00  0.00     0.269 C 
HETATM   14  O3  UNL     1      20.081   8.932  15.562  1.00  0.00    -0.301 OA
ENDBRANCH  11  13
ENDBRANCH   4   7
BRANCH   1  15
HETATM   15  S1  UNL     1      15.408   1.343  16.894  1.00  0.00     0.256 S 
HETATM   16  O1  UNL     1      16.068   1.145  18.234  1.00  0.00    -0.201 OA
HETATM   17  O2  UNL     1      16.005   0.350  15.939  1.00  0.00    -0.201 OA
BRANCH  15  18
HETATM   18  N1  UNL     1      13.692   1.119  17.023  1.00  0.00    -0.324 N 
ATOM     19  H12 UNL     1      13.245   0.535  17.730  1.00  0.00     0.169 HD
ATOM     20  H11 UNL     1      13.208   1.649  16.298  1.00  0.00     0.169 HD
ENDBRANCH  15  18
ENDBRANCH   1  15
TORSDOF 4
ENDMDL
