MODEL 9
REMARK VINA RESULT: -6.976581876      3.900      6.740
REMARK  4 active torsions:
REMARK  status: ('A' for Active; 'I' for Inactive)
REMARK    1  A    between atoms: N1_1  and  S1_4 
REMARK    2  A    between atoms: S1_4  and  C1_7 
REMARK    3  A    between atoms: C4_10  and  C5_11 
REMARK    4  A    between atoms: C9_15  and  C10_16 
ROOT
HETATM    1  C1  UNL     1      19.425   4.761  12.440  1.00  0.00     0.079 A 
HETATM    2  C2  UNL     1      18.328   4.008  12.084  1.00  0.00     0.026 A 
HETATM    3  C3  UNL     1      17.402   3.693  13.067  1.00  0.00     0.014 A 
HETATM    4  C4  UNL     1      17.550   4.113  14.380  1.00  0.00    -0.026 A 
HETATM    5  C12 UNL     1      18.653   4.869  14.731  1.00  0.00     0.014 A 
HETATM    6  C13 UNL     1      19.582   5.182  13.736  1.00  0.00     0.026 A 
ENDROOT
BRANCH   4   7
HETATM    7  C5  UNL     1      16.535   3.750  15.382  1.00  0.00    -0.025 A 
HETATM    8  C6  UNL     1      15.480   4.620  15.609  1.00  0.00     0.012 A 
HETATM    9  C7  UNL     1      14.489   4.342  16.534  1.00  0.00     0.002 A 
HETATM   10  C8  UNL     1      14.572   3.166  17.237  1.00  0.00     0.014 A 
HETATM   11  C9  UNL     1      15.612   2.286  17.027  1.00  0.00     0.002 A 
HETATM   12  C11 UNL     1      16.594   2.590  16.090  1.00  0.00     0.026 A 
BRANCH  11  13
HETATM   13  C10 UNL     1      15.676   1.033  17.792  1.00  0.00     0.269 C 
HETATM   14  O3  UNL     1      15.387  -0.070  17.263  1.00  0.00    -0.301 OA
ENDBRANCH  11  13
ENDBRANCH   4   7
BRANCH   1  15
HETATM   15  S1  UNL     1      20.584   5.150  11.193  1.00  0.00     0.256 S 
HETATM   16  O1  UNL     1      20.834   6.634  11.121  1.00  0.00    -0.201 OA
HETATM   17  O2  UNL     1      20.011   4.718   9.874  1.00  0.00    -0.201 OA
BRANCH  15  18
HETATM   18  N1  UNL     1      22.059   4.302  11.532  1.00  0.00    -0.324 N 
ATOM     19  H12 UNL     1      22.736   4.595  12.236  1.00  0.00     0.169 HD
ATOM     20  H11 UNL     1      22.145   3.481  10.932  1.00  0.00     0.169 HD
ENDBRANCH  15  18
ENDBRANCH   1  15
TORSDOF 4
ENDMDL
