MODEL 11
REMARK VINA RESULT: -7.245264253      4.524      7.789
REMARK  3 active torsions:
REMARK  status: ('A' for Active; 'I' for Inactive)
REMARK    1  A    between atoms: N1_1  and  S1_4 
REMARK    2  A    between atoms: S1_4  and  C1_7 
REMARK    3  A    between atoms: C4_10  and  C5_11 
ROOT
HETATM    1  C1  UNL     1       0.011  10.750  83.305  1.00  0.00     0.079 A 
HETATM    2  C2  UNL     1       0.602   9.647  82.694  1.00  0.00     0.026 A 
HETATM    3  C3  UNL     1       0.475   8.410  83.315  1.00  0.00     0.014 A 
HETATM    4  C4  UNL     1      -0.204   8.251  84.493  1.00  0.00    -0.025 A 
HETATM    5  C14 UNL     1      -0.768   9.371  85.055  1.00  0.00     0.014 A 
HETATM    6  C15 UNL     1      -0.677  10.622  84.488  1.00  0.00     0.026 A 
ENDROOT
BRANCH   4   7
HETATM    7  C5  UNL     1      -0.323   6.946  85.129  1.00  0.00    -0.010 A 
HETATM    8  C6  UNL     1       0.720   6.090  85.291  1.00  0.00     0.100 A 
HETATM    9  N2  UNL     1       0.569   4.886  85.886  1.00  0.00    -0.364 N 
HETATM   10  C7  UNL     1      -0.641   4.477  86.352  1.00  0.00     0.042 A 
ATOM     11  H2  UNL     1       1.378   4.272  85.988  1.00  0.00     0.165 HD
HETATM   12  C8  UNL     1      -0.768   3.247  86.952  1.00  0.00     0.030 A 
HETATM   13  C12 UNL     1      -1.722   5.317  86.205  1.00  0.00    -0.009 A 
HETATM   14  C9  UNL     1      -2.013   2.875  87.407  1.00  0.00     0.002 A 
HETATM   15  C10 UNL     1      -3.105   3.700  87.270  1.00  0.00     0.001 A 
HETATM   16  C11 UNL     1      -2.977   4.934  86.667  1.00  0.00     0.014 A 
HETATM   17  C13 UNL     1      -1.561   6.524  85.607  1.00  0.00     0.027 A 
ENDBRANCH   4   7
BRANCH   1  18
HETATM   18  S1  UNL     1       0.119  12.354  82.578  1.00  0.00     0.256 S 
HETATM   19  O1  UNL     1       0.272  13.415  83.636  1.00  0.00    -0.201 OA
HETATM   20  O2  UNL     1      -1.111  12.547  81.748  1.00  0.00    -0.201 OA
BRANCH  18  21
HETATM   21  N1  UNL     1       1.563  12.356  81.622  1.00  0.00    -0.324 N 
ATOM     22  H12 UNL     1       2.513  12.403  81.988  1.00  0.00     0.169 HD
ATOM     23  H11 UNL     1       1.284  12.301  80.643  1.00  0.00     0.169 HD
ENDBRANCH  18  21
ENDBRANCH   1  18
TORSDOF 3
ENDMDL
