MODEL 10
REMARK VINA RESULT: -7.276980493      4.515      7.740
REMARK  3 active torsions:
REMARK  status: ('A' for Active; 'I' for Inactive)
REMARK    1  A    between atoms: N1_1  and  S1_4 
REMARK    2  A    between atoms: S1_4  and  C1_7 
REMARK    3  A    between atoms: C4_10  and  C5_11 
ROOT
HETATM    1  C1  UNL     1      -0.080  10.681  83.319  1.00  0.00     0.079 A 
HETATM    2  C2  UNL     1      -0.779  10.559  84.517  1.00  0.00     0.026 A 
HETATM    3  C3  UNL     1      -0.855   9.303  85.104  1.00  0.00     0.014 A 
HETATM    4  C4  UNL     1      -0.269   8.199  84.545  1.00  0.00    -0.025 A 
HETATM    5  C14 UNL     1       0.408   8.373  83.362  1.00  0.00     0.014 A 
HETATM    6  C15 UNL     1       0.518   9.591  82.732  1.00  0.00     0.026 A 
ENDROOT
BRANCH   4   7
HETATM    7  C5  UNL     1      -0.363   6.889  85.177  1.00  0.00    -0.010 A 
HETATM    8  C6  UNL     1       0.695   6.052  85.333  1.00  0.00     0.100 A 
HETATM    9  N2  UNL     1       0.568   4.842  85.924  1.00  0.00    -0.364 N 
HETATM   10  C7  UNL     1      -0.633   4.410  86.390  1.00  0.00     0.042 A 
ATOM     11  H2  UNL     1       1.388   4.243  86.021  1.00  0.00     0.165 HD
HETATM   12  C8  UNL     1      -0.738   3.175  86.986  1.00  0.00     0.030 A 
HETATM   13  C12 UNL     1      -1.730   5.231  86.249  1.00  0.00    -0.009 A 
HETATM   14  C9  UNL     1      -1.974   2.780  87.441  1.00  0.00     0.002 A 
HETATM   15  C10 UNL     1      -3.081   3.585  87.310  1.00  0.00     0.001 A 
HETATM   16  C11 UNL     1      -2.977   4.823  86.712  1.00  0.00     0.014 A 
HETATM   17  C13 UNL     1      -1.592   6.443  85.655  1.00  0.00     0.027 A 
ENDBRANCH   4   7
BRANCH   1  18
HETATM   18  S1  UNL     1       0.069  12.243  82.512  1.00  0.00     0.256 S 
HETATM   19  O1  UNL     1       0.314  13.343  83.512  1.00  0.00    -0.201 OA
HETATM   20  O2  UNL     1      -1.185  12.456  81.724  1.00  0.00    -0.201 OA
BRANCH  18  21
HETATM   21  N1  UNL     1       1.470  12.134  81.501  1.00  0.00    -0.324 N 
ATOM     22  H12 UNL     1       1.462  11.928  80.502  1.00  0.00     0.169 HD
ATOM     23  H11 UNL     1       2.287  12.311  82.085  1.00  0.00     0.169 HD
ENDBRANCH  18  21
ENDBRANCH   1  18
TORSDOF 3
ENDMDL
