MODEL 12
REMARK VINA RESULT: -7.163351704      4.871      7.439
REMARK  3 active torsions:
REMARK  status: ('A' for Active; 'I' for Inactive)
REMARK    1  A    between atoms: N1_1  and  S1_4 
REMARK    2  A    between atoms: S1_4  and  C1_7 
REMARK    3  A    between atoms: C4_10  and  C5_11 
ROOT
HETATM    1  C1  UNL     1       3.317   8.411  82.849  1.00  0.00     0.079 A 
HETATM    2  C2  UNL     1       2.652   9.129  83.838  1.00  0.00     0.026 A 
HETATM    3  C3  UNL     1       1.596   8.511  84.497  1.00  0.00     0.014 A 
HETATM    4  C4  UNL     1       1.200   7.234  84.202  1.00  0.00    -0.025 A 
HETATM    5  C14 UNL     1       1.889   6.569  83.217  1.00  0.00     0.014 A 
HETATM    6  C15 UNL     1       2.942   7.128  82.530  1.00  0.00     0.026 A 
ENDROOT
BRANCH   4   7
HETATM    7  C5  UNL     1       0.087   6.605  84.903  1.00  0.00    -0.010 A 
HETATM    8  C6  UNL     1      -1.128   7.190  85.063  1.00  0.00     0.100 A 
HETATM    9  N2  UNL     1      -2.135   6.573  85.721  1.00  0.00    -0.364 N 
HETATM   10  C7  UNL     1      -1.974   5.334  86.253  1.00  0.00     0.042 A 
ATOM     11  H2  UNL     1      -3.033   7.048  85.820  1.00  0.00     0.165 HD
HETATM   12  C8  UNL     1      -3.013   4.728  86.919  1.00  0.00     0.030 A 
HETATM   13  C12 UNL     1      -0.754   4.708  86.111  1.00  0.00    -0.009 A 
HETATM   14  C9  UNL     1      -2.803   3.473  87.442  1.00  0.00     0.002 A 
HETATM   15  C10 UNL     1      -1.593   2.833  87.311  1.00  0.00     0.001 A 
HETATM   16  C11 UNL     1      -0.550   3.440  86.643  1.00  0.00     0.014 A 
HETATM   17  C13 UNL     1       0.250   5.335  85.449  1.00  0.00     0.027 A 
ENDBRANCH   4   7
BRANCH   1  18
HETATM   18  S1  UNL     1       4.674   9.121  81.971  1.00  0.00     0.256 S 
HETATM   19  O1  UNL     1       4.848  10.572  82.335  1.00  0.00    -0.201 OA
HETATM   20  O2  UNL     1       4.406   8.926  80.511  1.00  0.00    -0.201 OA
BRANCH  18  21
HETATM   21  N1  UNL     1       6.088   8.275  82.499  1.00  0.00    -0.324 N 
ATOM     22  H12 UNL     1       7.001   8.309  82.045  1.00  0.00     0.169 HD
ATOM     23  H11 UNL     1       5.837   7.745  83.334  1.00  0.00     0.169 HD
ENDBRANCH  18  21
ENDBRANCH   1  18
TORSDOF 3
ENDMDL
