MODEL 1
REMARK VINA RESULT: -7.919675460      0.000      0.000
REMARK  3 active torsions:
REMARK  status: ('A' for Active; 'I' for Inactive)
REMARK    1  A    between atoms: N1_1  and  S1_4 
REMARK    2  A    between atoms: S1_4  and  C1_7 
REMARK    3  A    between atoms: C4_10  and  C5_11 
ROOT
HETATM    1  C1  UNL     1      -1.005   4.889  86.077  1.00  0.00     0.079 A 
HETATM    2  C2  UNL     1      -2.103   5.743  86.024  1.00  0.00     0.026 A 
HETATM    3  C3  UNL     1      -1.901   7.040  85.570  1.00  0.00     0.014 A 
HETATM    4  C4  UNL     1      -0.669   7.493  85.180  1.00  0.00    -0.025 A 
HETATM    5  C14 UNL     1       0.382   6.611  85.252  1.00  0.00     0.014 A 
HETATM    6  C15 UNL     1       0.244   5.315  85.693  1.00  0.00     0.026 A 
ENDROOT
BRANCH   4   7
HETATM    7  C5  UNL     1      -0.478   8.859  84.709  1.00  0.00    -0.010 A 
HETATM    8  C6  UNL     1      -1.395   9.535  83.969  1.00  0.00     0.100 A 
HETATM    9  N2  UNL     1      -1.180  10.802  83.550  1.00  0.00    -0.364 N 
HETATM   10  C7  UNL     1      -0.030  11.459  83.854  1.00  0.00     0.042 A 
ATOM     11  H2  UNL     1      -1.895  11.274  82.995  1.00  0.00     0.165 HD
HETATM   12  C8  UNL     1       0.165  12.747  83.414  1.00  0.00     0.030 A 
HETATM   13  C12 UNL     1       0.924  10.805  84.602  1.00  0.00    -0.009 A 
HETATM   14  C9  UNL     1       1.346  13.370  83.746  1.00  0.00     0.002 A 
HETATM   15  C10 UNL     1       2.311  12.735  84.492  1.00  0.00     0.001 A 
HETATM   16  C11 UNL     1       2.115  11.443  84.932  1.00  0.00     0.014 A 
HETATM   17  C13 UNL     1       0.699   9.534  85.019  1.00  0.00     0.027 A 
ENDBRANCH   4   7
BRANCH   1  18
HETATM   18  S1  UNL     1      -1.178   3.224  86.635  1.00  0.00     0.256 S 
HETATM   19  O1  UNL     1      -2.557   2.698  86.334  1.00  0.00    -0.201 OA
HETATM   20  O2  UNL     1      -0.869   3.213  88.100  1.00  0.00    -0.201 OA
BRANCH  18  21
HETATM   21  N1  UNL     1      -0.048   2.287  85.719  1.00  0.00    -0.324 N 
ATOM     22  H12 UNL     1       0.185   2.436  84.737  1.00  0.00     0.169 HD
ATOM     23  H11 UNL     1       0.333   1.571  86.338  1.00  0.00     0.169 HD
ENDBRANCH  18  21
ENDBRANCH   1  18
TORSDOF 3
ENDMDL
