MODEL 7
REMARK VINA RESULT: -7.415891349      1.531      2.107
REMARK  3 active torsions:
REMARK  status: ('A' for Active; 'I' for Inactive)
REMARK    1  A    between atoms: N1_1  and  S1_4 
REMARK    2  A    between atoms: S1_4  and  C1_7 
REMARK    3  A    between atoms: C4_10  and  C5_11 
ROOT
HETATM    1  C1  UNL     1      -1.164   4.790  86.280  1.00  0.00     0.079 A 
HETATM    2  C2  UNL     1       0.184   4.923  85.961  1.00  0.00     0.026 A 
HETATM    3  C3  UNL     1       0.580   6.051  85.253  1.00  0.00     0.014 A 
HETATM    4  C4  UNL     1      -0.307   7.020  84.869  1.00  0.00    -0.025 A 
HETATM    5  C14 UNL     1      -1.626   6.841  85.209  1.00  0.00     0.014 A 
HETATM    6  C15 UNL     1      -2.079   5.745  85.908  1.00  0.00     0.026 A 
ENDROOT
BRANCH   4   7
HETATM    7  C5  UNL     1       0.129   8.195  84.125  1.00  0.00    -0.010 A 
HETATM    8  C6  UNL     1       0.786   8.132  82.938  1.00  0.00     0.100 A 
HETATM    9  N2  UNL     1       1.175   9.246  82.278  1.00  0.00    -0.364 N 
HETATM   10  C7  UNL     1       0.922  10.484  82.777  1.00  0.00     0.042 A 
ATOM     11  H2  UNL     1       1.668   9.155  81.389  1.00  0.00     0.165 HD
HETATM   12  C8  UNL     1       1.330  11.602  82.088  1.00  0.00     0.030 A 
HETATM   13  C12 UNL     1       0.258  10.588  83.979  1.00  0.00    -0.009 A 
HETATM   14  C9  UNL     1       1.053  12.835  82.633  1.00  0.00     0.002 A 
HETATM   15  C10 UNL     1       0.391  12.959  83.831  1.00  0.00     0.001 A 
HETATM   16  C11 UNL     1      -0.018  11.838  84.523  1.00  0.00     0.014 A 
HETATM   17  C13 UNL     1      -0.129   9.465  84.634  1.00  0.00     0.027 A 
ENDBRANCH   4   7
BRANCH   1  18
HETATM   18  S1  UNL     1      -1.748   3.390  87.184  1.00  0.00     0.256 S 
HETATM   19  O1  UNL     1      -1.319   3.465  88.626  1.00  0.00    -0.201 OA
HETATM   20  O2  UNL     1      -1.224   2.169  86.494  1.00  0.00    -0.201 OA
BRANCH  18  21
HETATM   21  N1  UNL     1      -3.475   3.476  87.146  1.00  0.00    -0.324 N 
ATOM     22  H12 UNL     1      -4.110   2.716  87.390  1.00  0.00     0.169 HD
ATOM     23  H11 UNL     1      -3.731   4.414  86.838  1.00  0.00     0.169 HD
ENDBRANCH  18  21
ENDBRANCH   1  18
TORSDOF 3
ENDMDL
