MODEL 8
REMARK VINA RESULT: -7.411408064      1.570      1.875
REMARK  3 active torsions:
REMARK  status: ('A' for Active; 'I' for Inactive)
REMARK    1  A    between atoms: N1_1  and  S1_4 
REMARK    2  A    between atoms: S1_4  and  C1_7 
REMARK    3  A    between atoms: C4_10  and  C5_11 
ROOT
HETATM    1  C1  UNL     1      -1.162   4.821  86.279  1.00  0.00     0.079 A 
HETATM    2  C2  UNL     1      -2.052   5.818  85.891  1.00  0.00     0.026 A 
HETATM    3  C3  UNL     1      -1.546   6.919  85.210  1.00  0.00     0.014 A 
HETATM    4  C4  UNL     1      -0.215   7.045  84.916  1.00  0.00    -0.025 A 
HETATM    5  C14 UNL     1       0.622   6.033  85.321  1.00  0.00     0.014 A 
HETATM    6  C15 UNL     1       0.180   4.919  85.998  1.00  0.00     0.026 A 
ENDROOT
BRANCH   4   7
HETATM    7  C5  UNL     1       0.297   8.209  84.203  1.00  0.00    -0.010 A 
HETATM    8  C6  UNL     1       1.141   8.130  83.142  1.00  0.00     0.100 A 
HETATM    9  N2  UNL     1       1.595   9.234  82.508  1.00  0.00    -0.364 N 
HETATM   10  C7  UNL     1       1.223  10.478  82.907  1.00  0.00     0.042 A 
ATOM     11  H2  UNL     1       2.228   9.131  81.714  1.00  0.00     0.165 HD
HETATM   12  C8  UNL     1       1.700  11.586  82.247  1.00  0.00     0.030 A 
HETATM   13  C12 UNL     1       0.368  10.599  83.981  1.00  0.00    -0.009 A 
HETATM   14  C9  UNL     1       1.297  12.825  82.688  1.00  0.00     0.002 A 
HETATM   15  C10 UNL     1       0.445  12.966  83.758  1.00  0.00     0.001 A 
HETATM   16  C11 UNL     1      -0.033  11.856  84.421  1.00  0.00     0.014 A 
HETATM   17  C13 UNL     1      -0.082   9.485  84.611  1.00  0.00     0.027 A 
ENDBRANCH   4   7
BRANCH   1  18
HETATM   18  S1  UNL     1      -1.726   3.388  87.140  1.00  0.00     0.256 S 
HETATM   19  O1  UNL     1      -1.289   3.421  88.581  1.00  0.00    -0.201 OA
HETATM   20  O2  UNL     1      -1.194   2.194  86.409  1.00  0.00    -0.201 OA
BRANCH  18  21
HETATM   21  N1  UNL     1      -3.455   3.457  87.114  1.00  0.00    -0.324 N 
ATOM     22  H12 UNL     1      -4.034   3.989  87.764  1.00  0.00     0.169 HD
ATOM     23  H11 UNL     1      -3.776   2.875  86.341  1.00  0.00     0.169 HD
ENDBRANCH  18  21
ENDBRANCH   1  18
TORSDOF 3
ENDMDL
