MODEL 4
REMARK VINA RESULT: -7.568167098      1.159      1.337
REMARK  3 active torsions:
REMARK  status: ('A' for Active; 'I' for Inactive)
REMARK    1  A    between atoms: N1_1  and  S1_4 
REMARK    2  A    between atoms: S1_4  and  C1_7 
REMARK    3  A    between atoms: C4_10  and  C5_11 
ROOT
HETATM    1  C1  UNL     1      -1.144   4.908  86.213  1.00  0.00     0.079 A 
HETATM    2  C2  UNL     1      -2.101   5.892  85.981  1.00  0.00     0.026 A 
HETATM    3  C3  UNL     1      -1.688   7.079  85.388  1.00  0.00     0.014 A 
HETATM    4  C4  UNL     1      -0.386   7.301  85.030  1.00  0.00    -0.025 A 
HETATM    5  C14 UNL     1       0.520   6.299  85.281  1.00  0.00     0.014 A 
HETATM    6  C15 UNL     1       0.172   5.102  85.866  1.00  0.00     0.026 A 
ENDROOT
BRANCH   4   7
HETATM    7  C5  UNL     1       0.027   8.555  84.411  1.00  0.00    -0.010 A 
HETATM    8  C6  UNL     1      -0.485   9.021  83.244  1.00  0.00     0.100 A 
HETATM    9  N2  UNL     1      -0.075  10.189  82.700  1.00  0.00    -0.364 N 
HETATM   10  C7  UNL     1       0.874  10.952  83.304  1.00  0.00     0.042 A 
ATOM     11  H2  UNL     1      -0.485  10.504  81.820  1.00  0.00     0.165 HD
HETATM   12  C8  UNL     1       1.275  12.135  82.730  1.00  0.00     0.030 A 
HETATM   13  C12 UNL     1       1.418  10.511  84.490  1.00  0.00    -0.009 A 
HETATM   14  C9  UNL     1       2.240  12.873  83.378  1.00  0.00     0.002 A 
HETATM   15  C10 UNL     1       2.795  12.449  84.562  1.00  0.00     0.001 A 
HETATM   16  C11 UNL     1       2.393  11.262  85.137  1.00  0.00     0.014 A 
HETATM   17  C13 UNL     1       1.000   9.338  85.028  1.00  0.00     0.027 A 
ENDBRANCH   4   7
BRANCH   1  18
HETATM   18  S1  UNL     1      -1.588   3.370  86.955  1.00  0.00     0.256 S 
HETATM   19  O1  UNL     1      -1.090   3.296  88.375  1.00  0.00    -0.201 OA
HETATM   20  O2  UNL     1      -1.022   2.284  86.094  1.00  0.00    -0.201 OA
BRANCH  18  21
HETATM   21  N1  UNL     1      -3.317   3.337  87.003  1.00  0.00    -0.324 N 
ATOM     22  H12 UNL     1      -3.880   2.825  87.682  1.00  0.00     0.169 HD
ATOM     23  H11 UNL     1      -3.658   3.917  86.236  1.00  0.00     0.169 HD
ENDBRANCH  18  21
ENDBRANCH   1  18
TORSDOF 3
ENDMDL
