MODEL 2
REMARK VINA RESULT: -7.584935952      0.907      1.552
REMARK  3 active torsions:
REMARK  status: ('A' for Active; 'I' for Inactive)
REMARK    1  A    between atoms: N1_1  and  S1_4 
REMARK    2  A    between atoms: S1_4  and  C1_7 
REMARK    3  A    between atoms: C4_10  and  C5_11 
ROOT
HETATM    1  C1  UNL     1      -1.146   4.827  86.236  1.00  0.00     0.079 A 
HETATM    2  C2  UNL     1       0.095   5.177  85.711  1.00  0.00     0.026 A 
HETATM    3  C3  UNL     1       0.250   6.460  85.200  1.00  0.00     0.014 A 
HETATM    4  C4  UNL     1      -0.769   7.373  85.200  1.00  0.00    -0.025 A 
HETATM    5  C14 UNL     1      -1.973   6.978  85.729  1.00  0.00     0.014 A 
HETATM    6  C15 UNL     1      -2.189   5.722  86.249  1.00  0.00     0.026 A 
ENDROOT
BRANCH   4   7
HETATM    7  C5  UNL     1      -0.585   8.713  84.657  1.00  0.00    -0.010 A 
HETATM    8  C6  UNL     1      -1.485   9.324  83.843  1.00  0.00     0.100 A 
HETATM    9  N2  UNL     1      -1.278  10.569  83.357  1.00  0.00    -0.364 N 
HETATM   10  C7  UNL     1      -0.153  11.267  83.666  1.00  0.00     0.042 A 
ATOM     11  H2  UNL     1      -1.978  10.992  82.748  1.00  0.00     0.165 HD
HETATM   12  C8  UNL     1       0.034  12.531  83.159  1.00  0.00     0.030 A 
HETATM   13  C12 UNL     1       0.783  10.680  84.489  1.00  0.00    -0.009 A 
HETATM   14  C9  UNL     1       1.189  13.199  83.498  1.00  0.00     0.002 A 
HETATM   15  C10 UNL     1       2.135  12.630  84.318  1.00  0.00     0.001 A 
HETATM   16  C11 UNL     1       1.947  11.362  84.826  1.00  0.00     0.014 A 
HETATM   17  C13 UNL     1       0.566   9.431  84.971  1.00  0.00     0.027 A 
ENDBRANCH   4   7
BRANCH   1  18
HETATM   18  S1  UNL     1      -1.424   3.220  86.911  1.00  0.00     0.256 S 
HETATM   19  O1  UNL     1      -0.821   3.104  88.286  1.00  0.00    -0.201 OA
HETATM   20  O2  UNL     1      -0.847   2.230  85.948  1.00  0.00    -0.201 OA
BRANCH  18  21
HETATM   21  N1  UNL     1      -3.139   3.055  87.075  1.00  0.00    -0.324 N 
ATOM     22  H12 UNL     1      -3.828   3.312  86.369  1.00  0.00     0.169 HD
ATOM     23  H11 UNL     1      -3.324   2.657  87.996  1.00  0.00     0.169 HD
ENDBRANCH  18  21
ENDBRANCH   1  18
TORSDOF 3
ENDMDL
