MODEL 4
REMARK VINA RESULT: -8.050691715      4.070      7.566
REMARK  3 active torsions:
REMARK  status: ('A' for Active; 'I' for Inactive)
REMARK    1  A    between atoms: N1_2  and  C2_4 
REMARK    2  A    between atoms: C5_7  and  C6_8 
REMARK    3  A    between atoms: C11_13  and  N2_14 
ROOT
HETATM    1  C6  UNL     1      -1.588  64.501   1.452  1.00  0.00    -0.024 A 
HETATM    2  C7  UNL     1      -0.391  64.766   0.808  1.00  0.00     0.013 A 
HETATM    3  C8  UNL     1      -0.210  65.972   0.166  1.00  0.00     0.010 A 
HETATM    4  C9  UNL     1      -1.229  66.892   0.180  1.00  0.00    -0.034 A 
HETATM    5  C10 UNL     1      -1.046  68.214  -0.516  1.00  0.00     0.050 C 
HETATM    6  C11 UNL     1      -2.424  66.655   0.810  1.00  0.00     0.053 A 
HETATM    7  C14 UNL     1      -2.594  65.426   1.456  1.00  0.00     0.043 A 
ENDROOT
BRANCH   1   8
HETATM    8  C5  UNL     1      -1.699  63.193   2.109  1.00  0.00    -0.026 A 
HETATM    9  C4  UNL     1      -0.869  62.139   1.789  1.00  0.00     0.014 A 
HETATM   10  C3  UNL     1      -0.964  60.917   2.395  1.00  0.00     0.030 A 
HETATM   11  C2  UNL     1      -1.907  60.680   3.366  1.00  0.00     0.027 A 
HETATM   12  C16 UNL     1      -2.752  61.717   3.706  1.00  0.00     0.030 A 
HETATM   13  C15 UNL     1      -2.641  62.939   3.085  1.00  0.00     0.014 A 
BRANCH  11  14
HETATM   14  N1  UNL     1      -1.996  59.404   3.989  1.00  0.00    -0.394 N 
HETATM   15  C1  UNL     1      -3.023  59.094   4.948  1.00  0.00     0.146 C 
ATOM     16  H1  UNL     1      -1.310  58.688   3.750  1.00  0.00     0.159 HD
ENDBRANCH  11  14
ENDBRANCH   1   8
BRANCH   6  17
HETATM   17  N2  UNL     1      -3.477  67.602   0.825  1.00  0.00    -0.250 N 
HETATM   18  C12 UNL     1      -3.783  68.648   1.802  1.00  0.00     0.247 C 
HETATM   19  C13 UNL     1      -5.259  68.654   1.957  1.00  0.00     0.251 C 
HETATM   20  O1  UNL     1      -5.859  68.640   3.088  1.00  0.00    -0.271 OA
HETATM   21  N3  UNL     1      -5.885  68.675   0.681  1.00  0.00    -0.235 N 
HETATM   22  S1  UNL     1      -4.761  67.811  -0.347  1.00  0.00     0.328 S 
ATOM     23  H3  UNL     1      -6.778  69.095   0.425  1.00  0.00     0.183 HD
HETATM   24  O2  UNL     1      -4.339  68.632  -1.500  1.00  0.00    -0.182 OA
HETATM   25  O3  UNL     1      -5.289  66.473  -0.703  1.00  0.00    -0.182 OA
ENDBRANCH   6  17
TORSDOF 3
ENDMDL
