MODEL 3
REMARK VINA RESULT: -8.215906325      4.093      7.605
REMARK  3 active torsions:
REMARK  status: ('A' for Active; 'I' for Inactive)
REMARK    1  A    between atoms: N1_2  and  C2_4 
REMARK    2  A    between atoms: C5_7  and  C6_8 
REMARK    3  A    between atoms: C11_13  and  N2_14 
ROOT
HETATM    1  C6  UNL     1      -1.633  64.500   1.517  1.00  0.00    -0.024 A 
HETATM    2  C7  UNL     1      -0.404  64.826   0.968  1.00  0.00     0.013 A 
HETATM    3  C8  UNL     1      -0.243  66.026   0.310  1.00  0.00     0.010 A 
HETATM    4  C9  UNL     1      -1.313  66.880   0.213  1.00  0.00    -0.034 A 
HETATM    5  C10 UNL     1      -1.153  68.194  -0.502  1.00  0.00     0.050 C 
HETATM    6  C11 UNL     1      -2.541  66.583   0.747  1.00  0.00     0.053 A 
HETATM    7  C14 UNL     1      -2.690  65.361   1.412  1.00  0.00     0.043 A 
ENDROOT
BRANCH   1   8
HETATM    8  C5  UNL     1      -1.720  63.204   2.199  1.00  0.00    -0.026 A 
HETATM    9  C4  UNL     1      -2.649  62.956   3.189  1.00  0.00     0.014 A 
HETATM   10  C3  UNL     1      -2.738  61.752   3.830  1.00  0.00     0.030 A 
HETATM   11  C2  UNL     1      -1.892  60.716   3.512  1.00  0.00     0.027 A 
HETATM   12  C16 UNL     1      -0.953  60.936   2.525  1.00  0.00     0.030 A 
HETATM   13  C15 UNL     1      -0.879  62.154   1.892  1.00  0.00     0.014 A 
BRANCH  11  14
HETATM   14  N1  UNL     1      -1.995  59.468   4.186  1.00  0.00    -0.394 N 
HETATM   15  C1  UNL     1      -3.169  59.101   4.935  1.00  0.00     0.146 C 
ATOM     16  H1  UNL     1      -1.214  58.813   4.138  1.00  0.00     0.159 HD
ENDBRANCH  11  14
ENDBRANCH   1   8
BRANCH   6  17
HETATM   17  N2  UNL     1      -3.648  67.461   0.648  1.00  0.00    -0.250 N 
HETATM   18  C12 UNL     1      -4.611  67.634  -0.440  1.00  0.00     0.247 C 
HETATM   19  C13 UNL     1      -4.854  69.094  -0.551  1.00  0.00     0.251 C 
HETATM   20  O1  UNL     1      -4.815  69.745  -1.653  1.00  0.00    -0.271 OA
HETATM   21  N3  UNL     1      -5.131  69.643   0.731  1.00  0.00    -0.235 N 
HETATM   22  S1  UNL     1      -4.210  68.631   1.823  1.00  0.00     0.328 S 
ATOM     23  H3  UNL     1      -5.726  70.439   0.961  1.00  0.00     0.183 HD
HETATM   24  O2  UNL     1      -5.073  68.018   2.854  1.00  0.00    -0.182 OA
HETATM   25  O3  UNL     1      -3.034  69.357   2.356  1.00  0.00    -0.182 OA
ENDBRANCH   6  17
TORSDOF 3
ENDMDL
