MODEL 2
REMARK VINA RESULT: -8.505803481      3.928      7.449
REMARK  3 active torsions:
REMARK  status: ('A' for Active; 'I' for Inactive)
REMARK    1  A    between atoms: N1_2  and  C2_4 
REMARK    2  A    between atoms: C5_7  and  C6_8 
REMARK    3  A    between atoms: C11_13  and  N2_14 
ROOT
HETATM    1  C6  UNL     1      -1.588  64.326   1.655  1.00  0.00    -0.024 A 
HETATM    2  C7  UNL     1      -0.443  64.513   0.897  1.00  0.00     0.013 A 
HETATM    3  C8  UNL     1      -0.227  65.720   0.269  1.00  0.00     0.010 A 
HETATM    4  C9  UNL     1      -1.157  66.719   0.410  1.00  0.00    -0.034 A 
HETATM    5  C10 UNL     1      -0.935  68.043  -0.270  1.00  0.00     0.050 C 
HETATM    6  C11 UNL     1      -2.298  66.561   1.154  1.00  0.00     0.053 A 
HETATM    7  C14 UNL     1      -2.505  65.330   1.786  1.00  0.00     0.043 A 
ENDROOT
BRANCH   1   8
HETATM    8  C5  UNL     1      -1.742  63.011   2.289  1.00  0.00    -0.026 A 
HETATM    9  C4  UNL     1      -2.682  62.777   3.272  1.00  0.00     0.014 A 
HETATM   10  C3  UNL     1      -2.834  61.556   3.868  1.00  0.00     0.030 A 
HETATM   11  C2  UNL     1      -2.044  60.490   3.511  1.00  0.00     0.027 A 
HETATM   12  C16 UNL     1      -1.094  60.696   2.530  1.00  0.00     0.030 A 
HETATM   13  C15 UNL     1      -0.957  61.931   1.942  1.00  0.00     0.014 A 
BRANCH  11  14
HETATM   14  N1  UNL     1      -2.212  59.225   4.139  1.00  0.00    -0.394 N 
HETATM   15  C1  UNL     1      -3.356  58.928   4.961  1.00  0.00     0.146 C 
ATOM     16  H1  UNL     1      -1.501  58.506   4.003  1.00  0.00     0.159 HD
ENDBRANCH  11  14
ENDBRANCH   1   8
BRANCH   6  17
HETATM   17  N2  UNL     1      -3.261  67.590   1.301  1.00  0.00    -0.250 N 
HETATM   18  C12 UNL     1      -3.368  68.634   2.321  1.00  0.00     0.247 C 
HETATM   19  C13 UNL     1      -4.813  68.756   2.640  1.00  0.00     0.251 C 
HETATM   20  O1  UNL     1      -5.285  68.764   3.831  1.00  0.00    -0.271 OA
HETATM   21  N3  UNL     1      -5.571  68.859   1.442  1.00  0.00    -0.235 N 
HETATM   22  S1  UNL     1      -4.644  67.931   0.282  1.00  0.00     0.328 S 
ATOM     23  H3  UNL     1      -6.449  69.356   1.293  1.00  0.00     0.183 HD
HETATM   24  O2  UNL     1      -4.283  68.743  -0.898  1.00  0.00    -0.182 OA
HETATM   25  O3  UNL     1      -5.317  66.650  -0.033  1.00  0.00    -0.182 OA
ENDBRANCH   6  17
TORSDOF 3
ENDMDL
