MODEL 1
REMARK VINA RESULT: -9.204320254      0.000      0.000
REMARK  3 active torsions:
REMARK  status: ('A' for Active; 'I' for Inactive)
REMARK    1  A    between atoms: N1_2  and  C2_4 
REMARK    2  A    between atoms: C5_7  and  C6_8 
REMARK    3  A    between atoms: C11_13  and  N2_14 
ROOT
HETATM    1  C6  UNL     1      -1.297  63.768   1.366  1.00  0.00    -0.024 A 
HETATM    2  C7  UNL     1      -0.380  63.372   0.406  1.00  0.00     0.013 A 
HETATM    3  C8  UNL     1       0.078  62.072   0.390  1.00  0.00     0.010 A 
HETATM    4  C9  UNL     1      -0.390  61.191   1.333  1.00  0.00    -0.034 A 
HETATM    5  C10 UNL     1       0.101  59.768   1.329  1.00  0.00     0.050 C 
HETATM    6  C11 UNL     1      -1.297  61.556   2.294  1.00  0.00     0.053 A 
HETATM    7  C14 UNL     1      -1.753  62.879   2.299  1.00  0.00     0.043 A 
ENDROOT
BRANCH   1   8
HETATM    8  C5  UNL     1      -1.732  65.168   1.314  1.00  0.00    -0.026 A 
HETATM    9  C4  UNL     1      -2.771  65.643   2.088  1.00  0.00     0.014 A 
HETATM   10  C3  UNL     1      -3.183  66.946   2.046  1.00  0.00     0.030 A 
HETATM   11  C2  UNL     1      -2.572  67.857   1.218  1.00  0.00     0.027 A 
HETATM   12  C16 UNL     1      -1.530  67.409   0.432  1.00  0.00     0.030 A 
HETATM   13  C15 UNL     1      -1.130  66.095   0.487  1.00  0.00     0.014 A 
BRANCH  11  14
HETATM   14  N1  UNL     1      -3.010  69.209   1.185  1.00  0.00    -0.394 N 
HETATM   15  C1  UNL     1      -3.797  69.782   2.245  1.00  0.00     0.146 C 
ATOM     16  H1  UNL     1      -2.760  69.791   0.385  1.00  0.00     0.159 HD
ENDBRANCH  11  14
ENDBRANCH   1   8
BRANCH   6  17
HETATM   17  N2  UNL     1      -1.781  60.650   3.269  1.00  0.00    -0.250 N 
HETATM   18  C12 UNL     1      -2.795  59.600   3.152  1.00  0.00     0.247 C 
HETATM   19  C13 UNL     1      -3.588  59.648   4.405  1.00  0.00     0.251 C 
HETATM   20  O1  UNL     1      -4.868  59.666   4.441  1.00  0.00    -0.271 OA
HETATM   21  N3  UNL     1      -2.723  59.670   5.532  1.00  0.00    -0.235 N 
HETATM   22  S1  UNL     1      -1.300  60.507   4.947  1.00  0.00     0.328 S 
ATOM     23  H3  UNL     1      -2.890  59.288   6.463  1.00  0.00     0.183 HD
HETATM   24  O2  UNL     1      -0.082  59.689   5.113  1.00  0.00    -0.182 OA
HETATM   25  O3  UNL     1      -1.212  61.869   5.523  1.00  0.00    -0.182 OA
ENDBRANCH   6  17
TORSDOF 3
ENDMDL
