MODEL 3
REMARK VINA RESULT: -7.337920863      0.317      1.031
REMARK  5 active torsions:
REMARK  status: ('A' for Active; 'I' for Inactive)
REMARK    1  A    between atoms: N1_2  and  C2_4 
REMARK    2  A    between atoms: C3_7  and  C4_8 
REMARK    3  A    between atoms: C4_8  and  C5_9 
REMARK    4  A    between atoms: C5_9  and  C6_10 
REMARK    5  A    between atoms: C13_20  and  C14_21 
ROOT
HETATM    1  C2  UNL     1      54.408 135.646  20.950  1.00  0.00     0.115 A 
HETATM    2  N2  UNL     1      53.627 135.730  19.848  1.00  0.00    -0.332 N 
ATOM      3  H2  UNL     1      53.284 136.657  19.594  1.00  0.00     0.168 HD
HETATM    4  C3  UNL     1      53.267 134.724  19.069  1.00  0.00     0.083 A 
HETATM    5  N3  UNL     1      53.722 133.515  19.408  1.00  0.00    -0.339 N 
ATOM      6  H3  UNL     1      53.473 132.704  18.842  1.00  0.00     0.168 HD
HETATM    7  C12 UNL     1      54.519 133.355  20.511  1.00  0.00     0.090 A 
HETATM    8  S1  UNL     1      55.249 131.980  21.205  1.00  0.00    -0.064 SA
HETATM    9  C13 UNL     1      56.031 132.723  22.522  1.00  0.00     0.090 A 
HETATM   10  C15 UNL     1      55.700 134.040  22.384  1.00  0.00    -0.021 A 
HETATM   11  C16 UNL     1      56.258 135.050  23.387  1.00  0.00     0.051 C 
HETATM   12  C17 UNL     1      54.905 134.380  21.332  1.00  0.00     0.049 A 
ENDROOT
BRANCH   4  13
HETATM   13  C4  UNL     1      52.396 134.906  17.864  1.00  0.00     0.081 C 
BRANCH  13  14
HETATM   14  C5  UNL     1      51.022 135.355  18.312  1.00  0.00     0.046 C 
BRANCH  14  15
HETATM   15  C6  UNL     1      50.069 134.989  17.232  1.00  0.00    -0.058 A 
HETATM   16  C7  UNL     1      50.417 134.994  15.903  1.00  0.00     0.007 A 
HETATM   17  C8  UNL     1      49.537 134.656  14.899  1.00  0.00     0.001 A 
HETATM   18  C9  UNL     1      48.251 134.296  15.232  1.00  0.00     0.000 A 
HETATM   19  C10 UNL     1      47.866 134.279  16.549  1.00  0.00     0.001 A 
HETATM   20  C11 UNL     1      48.760 134.620  17.539  1.00  0.00     0.007 A 
ENDBRANCH  14  15
ENDBRANCH  13  14
ENDBRANCH   4  13
BRANCH   1  21
HETATM   21  N1  UNL     1      54.629 136.848  21.640  1.00  0.00    -0.380 N 
HETATM   22  C1  UNL     1      55.264 137.957  20.882  1.00  0.00     0.147 C 
ATOM     23  H1  UNL     1      54.364 136.956  22.620  1.00  0.00     0.160 HD
ENDBRANCH   1  21
BRANCH   9  24
HETATM   24  C14 UNL     1      56.843 132.036  23.522  1.00  0.00     0.217 C 
HETATM   25  O1  UNL     1      58.056 131.796  23.478  1.00  0.00    -0.643 OA
HETATM   26  O2  UNL     1      56.205 131.569  24.705  1.00  0.00    -0.643 OA
ENDBRANCH   9  24
TORSDOF 5
ENDMDL
