MODEL 2
REMARK VINA RESULT: -7.368956637      1.666      2.775
REMARK  5 active torsions:
REMARK  status: ('A' for Active; 'I' for Inactive)
REMARK    1  A    between atoms: N1_2  and  C2_4 
REMARK    2  A    between atoms: C3_7  and  C4_8 
REMARK    3  A    between atoms: C4_8  and  C5_9 
REMARK    4  A    between atoms: C5_9  and  C6_10 
REMARK    5  A    between atoms: C13_20  and  C14_21 
ROOT
HETATM    1  C2  UNL     1      54.615 133.558  20.300  1.00  0.00     0.115 A 
HETATM    2  N2  UNL     1      53.543 134.154  19.728  1.00  0.00    -0.332 N 
ATOM      3  H2  UNL     1      53.049 133.625  19.009  1.00  0.00     0.168 HD
HETATM    4  C3  UNL     1      53.075 135.357  20.015  1.00  0.00     0.083 A 
HETATM    5  N3  UNL     1      53.727 136.041  20.958  1.00  0.00    -0.339 N 
ATOM      6  H3  UNL     1      53.408 136.975  21.216  1.00  0.00     0.168 HD
HETATM    7  C12 UNL     1      54.821 135.500  21.581  1.00  0.00     0.090 A 
HETATM    8  S1  UNL     1      55.855 136.095  22.798  1.00  0.00    -0.064 SA
HETATM    9  C13 UNL     1      56.907 134.763  22.936  1.00  0.00     0.090 A 
HETATM   10  C15 UNL     1      56.417 133.879  22.020  1.00  0.00    -0.021 A 
HETATM   11  C16 UNL     1      57.097 132.516  21.873  1.00  0.00     0.051 C 
HETATM   12  C17 UNL     1      55.323 134.258  21.303  1.00  0.00     0.049 A 
ENDROOT
BRANCH   4  13
HETATM   13  C4  UNL     1      51.879 135.942  19.330  1.00  0.00     0.081 C 
BRANCH  13  14
HETATM   14  C5  UNL     1      50.856 134.849  19.104  1.00  0.00     0.046 C 
BRANCH  14  15
HETATM   15  C6  UNL     1      50.432 134.935  17.683  1.00  0.00    -0.058 A 
HETATM   16  C7  UNL     1      49.112 134.959  17.302  1.00  0.00     0.007 A 
HETATM   17  C8  UNL     1      48.714 135.039  15.986  1.00  0.00     0.001 A 
HETATM   18  C9  UNL     1      49.675 135.097  15.001  1.00  0.00     0.000 A 
HETATM   19  C10 UNL     1      51.005 135.076  15.342  1.00  0.00     0.001 A 
HETATM   20  C11 UNL     1      51.382 134.996  16.664  1.00  0.00     0.007 A 
ENDBRANCH  14  15
ENDBRANCH  13  14
ENDBRANCH   4  13
BRANCH   1  21
HETATM   21  N1  UNL     1      54.946 132.285  19.809  1.00  0.00    -0.380 N 
HETATM   22  C1  UNL     1      54.264 131.841  18.567  1.00  0.00     0.147 C 
ATOM     23  H1  UNL     1      55.626 131.691  20.285  1.00  0.00     0.160 HD
ENDBRANCH   1  21
BRANCH   9  24
HETATM   24  C14 UNL     1      58.045 134.675  23.845  1.00  0.00     0.217 C 
HETATM   25  O1  UNL     1      58.347 133.737  24.593  1.00  0.00    -0.643 OA
HETATM   26  O2  UNL     1      58.943 135.776  23.912  1.00  0.00    -0.643 OA
ENDBRANCH   9  24
TORSDOF 5
ENDMDL
