MODEL 1
REMARK VINA RESULT: -7.417122177      0.000      0.000
REMARK  5 active torsions:
REMARK  status: ('A' for Active; 'I' for Inactive)
REMARK    1  A    between atoms: N1_2  and  C2_4 
REMARK    2  A    between atoms: C3_7  and  C4_8 
REMARK    3  A    between atoms: C4_8  and  C5_9 
REMARK    4  A    between atoms: C5_9  and  C6_10 
REMARK    5  A    between atoms: C13_20  and  C14_21 
ROOT
HETATM    1  C2  UNL     1      54.496 135.922  21.157  1.00  0.00     0.115 A 
HETATM    2  N2  UNL     1      53.687 136.072  20.082  1.00  0.00    -0.332 N 
ATOM      3  H2  UNL     1      53.368 137.017  19.872  1.00  0.00     0.168 HD
HETATM    4  C3  UNL     1      53.273 135.107  19.278  1.00  0.00     0.083 A 
HETATM    5  N3  UNL     1      53.697 133.872  19.560  1.00  0.00    -0.339 N 
ATOM      6  H3  UNL     1      53.406 133.091  18.973  1.00  0.00     0.168 HD
HETATM    7  C12 UNL     1      54.519 133.646  20.633  1.00  0.00     0.090 A 
HETATM    8  S1  UNL     1      55.223 132.224  21.255  1.00  0.00    -0.064 SA
HETATM    9  C13 UNL     1      56.066 132.893  22.575  1.00  0.00     0.090 A 
HETATM   10  C15 UNL     1      55.774 134.223  22.493  1.00  0.00    -0.021 A 
HETATM   11  C16 UNL     1      56.393 135.178  23.515  1.00  0.00     0.051 C 
HETATM   12  C17 UNL     1      54.962 134.627  21.478  1.00  0.00     0.049 A 
ENDROOT
BRANCH   4  13
HETATM   13  C4  UNL     1      52.375 135.361  18.107  1.00  0.00     0.081 C 
BRANCH  13  14
HETATM   14  C5  UNL     1      50.934 135.302  18.568  1.00  0.00     0.046 C 
BRANCH  14  15
HETATM   15  C6  UNL     1      50.102 135.031  17.367  1.00  0.00    -0.058 A 
HETATM   16  C7  UNL     1      48.757 134.763  17.441  1.00  0.00     0.007 A 
HETATM   17  C8  UNL     1      47.982 134.511  16.331  1.00  0.00     0.001 A 
HETATM   18  C9  UNL     1      48.573 134.527  15.088  1.00  0.00     0.000 A 
HETATM   19  C10 UNL     1      49.915 134.792  14.972  1.00  0.00     0.001 A 
HETATM   20  C11 UNL     1      50.673 135.041  16.095  1.00  0.00     0.007 A 
ENDBRANCH  14  15
ENDBRANCH  13  14
ENDBRANCH   4  13
BRANCH   1  21
HETATM   21  N1  UNL     1      54.775 137.090  21.884  1.00  0.00    -0.380 N 
HETATM   22  C1  UNL     1      55.327 138.243  21.125  1.00  0.00     0.147 C 
ATOM     23  H1  UNL     1      54.607 137.145  22.888  1.00  0.00     0.160 HD
ENDBRANCH   1  21
BRANCH   9  24
HETATM   24  C14 UNL     1      56.883 132.144  23.525  1.00  0.00     0.217 C 
HETATM   25  O1  UNL     1      58.101 131.933  23.476  1.00  0.00    -0.643 OA
HETATM   26  O2  UNL     1      56.244 131.569  24.658  1.00  0.00    -0.643 OA
ENDBRANCH   9  24
TORSDOF 5
ENDMDL
