MODEL 3
REMARK VINA RESULT: -5.289824161      1.520      2.712
REMARK  12 active torsions:
REMARK  status: ('A' for Active; 'I' for Inactive)
REMARK    1  A    between atoms: O1_1  and  C1_3 
REMARK    2  A    between atoms: C1_3  and  C2_4 
REMARK    3  A    between atoms: C3_6  and  O3_7 
REMARK    4  A    between atoms: C4_9  and  O4_10 
REMARK    5  A    between atoms: C5_12  and  O5_13 
REMARK    6  A    between atoms: C6_15  and  O6_16 
REMARK    7  A    between atoms: O6_16  and  C7_17 
REMARK    8  A    between atoms: C8_19  and  C9_20 
REMARK    9  A    between atoms: C9_20  and  O8_21 
REMARK   10  A    between atoms: C10_23  and  O9_24 
REMARK   11  A    between atoms: C11_26  and  O10_27 
REMARK   12  A    between atoms: C12_29  and  O11_30 
ROOT
HETATM    1  O6  UNL     1      -2.977  -1.422   6.217  1.00  0.00    -0.348 OA
ENDROOT
BRANCH   1   2
HETATM    2  C6  UNL     1      -2.920  -2.693   5.731  1.00  0.00     0.187 C 
HETATM    3  C2  UNL     1      -3.027  -3.790   6.727  1.00  0.00     0.180 C 
HETATM    4  O2  UNL     1      -1.996  -4.735   6.629  1.00  0.00    -0.349 OA
HETATM    5  C3  UNL     1      -1.929  -5.318   5.380  1.00  0.00     0.288 C 
HETATM    6  C4  UNL     1      -1.913  -4.304   4.254  1.00  0.00     0.204 C 
HETATM    7  C5  UNL     1      -1.654  -2.957   4.909  1.00  0.00     0.183 C 
BRANCH   3   8
HETATM    8  C1  UNL     1      -4.344  -4.563   6.562  1.00  0.00     0.198 C 
BRANCH   8   9
HETATM    9  O1  UNL     1      -5.058  -3.843   5.575  1.00  0.00    -0.398 OA
ATOM     10  H1  UNL     1      -4.629  -4.069   4.757  1.00  0.00     0.209 HD
ENDBRANCH   8   9
ENDBRANCH   3   8
BRANCH   5  11
HETATM   11  O3  UNL     1      -0.689  -5.989   5.315  1.00  0.00    -0.369 OA
ATOM     12  H3  UNL     1      -0.876  -6.915   5.421  1.00  0.00     0.212 HD
ENDBRANCH   5  11
BRANCH   6  13
HETATM   13  O4  UNL     1      -0.980  -4.602   3.279  1.00  0.00    -0.388 OA
ATOM     14  H4  UNL     1      -0.496  -3.838   2.987  1.00  0.00     0.210 HD
ENDBRANCH   6  13
BRANCH   7  15
HETATM   15  O5  UNL     1      -1.432  -1.959   3.983  1.00  0.00    -0.390 OA
ATOM     16  H5  UNL     1      -0.745  -1.362   4.253  1.00  0.00     0.210 HD
ENDBRANCH   7  15
ENDBRANCH   1   2
BRANCH   1  17
HETATM   17  C7  UNL     1      -4.057  -0.665   5.812  1.00  0.00     0.292 C 
HETATM   18  O7  UNL     1      -3.573   0.658   5.694  1.00  0.00    -0.348 OA
HETATM   19  C8  UNL     1      -4.600   1.554   5.436  1.00  0.00     0.179 C 
HETATM   20  C10 UNL     1      -5.385   1.733   6.707  1.00  0.00     0.180 C 
HETATM   21  C11 UNL     1      -5.435   0.504   7.559  1.00  0.00     0.183 C 
HETATM   22  C12 UNL     1      -5.153  -0.773   6.829  1.00  0.00     0.204 C 
BRANCH  19  23
HETATM   23  C9  UNL     1      -3.975   2.864   5.031  1.00  0.00     0.198 C 
BRANCH  23  24
HETATM   24  O8  UNL     1      -5.013   3.774   4.836  1.00  0.00    -0.398 OA
ATOM     25  H8  UNL     1      -4.832   4.238   4.028  1.00  0.00     0.209 HD
ENDBRANCH  23  24
ENDBRANCH  19  23
BRANCH  20  26
HETATM   26  O9  UNL     1      -4.804   2.782   7.421  1.00  0.00    -0.390 OA
ATOM     27  H9  UNL     1      -5.467   3.139   8.001  1.00  0.00     0.210 HD
ENDBRANCH  20  26
BRANCH  21  28
HETATM   28  O10 UNL     1      -4.562   0.666   8.640  1.00  0.00    -0.390 OA
ATOM     29  H10 UNL     1      -4.354  -0.189   8.999  1.00  0.00     0.210 HD
ENDBRANCH  21  28
BRANCH  22  30
HETATM   30  O11 UNL     1      -6.354  -1.210   6.220  1.00  0.00    -0.388 OA
ATOM     31  H11 UNL     1      -6.596  -2.071   6.541  1.00  0.00     0.210 HD
ENDBRANCH  22  30
ENDBRANCH   1  17
TORSDOF 12
ENDMDL
