MODEL 4
REMARK VINA RESULT: -5.286767928      2.599      4.112
REMARK  12 active torsions:
REMARK  status: ('A' for Active; 'I' for Inactive)
REMARK    1  A    between atoms: O1_1  and  C1_3 
REMARK    2  A    between atoms: C1_3  and  C2_4 
REMARK    3  A    between atoms: C3_6  and  O3_7 
REMARK    4  A    between atoms: C4_9  and  O4_10 
REMARK    5  A    between atoms: C5_12  and  O5_13 
REMARK    6  A    between atoms: C6_15  and  O6_16 
REMARK    7  A    between atoms: O6_16  and  C7_17 
REMARK    8  A    between atoms: C8_19  and  C9_20 
REMARK    9  A    between atoms: C9_20  and  O8_21 
REMARK   10  A    between atoms: C10_23  and  O9_24 
REMARK   11  A    between atoms: C11_26  and  O10_27 
REMARK   12  A    between atoms: C12_29  and  O11_30 
ROOT
HETATM    1  O6  UNL     1      -2.827  -3.806   4.119  1.00  0.00    -0.348 OA
ENDROOT
BRANCH   1   2
HETATM    2  C6  UNL     1      -2.445  -5.110   4.021  1.00  0.00     0.187 C 
HETATM    3  C2  UNL     1      -1.104  -5.366   3.435  1.00  0.00     0.180 C 
HETATM    4  O2  UNL     1      -1.122  -6.296   2.385  1.00  0.00    -0.349 OA
HETATM    5  C3  UNL     1      -1.644  -7.514   2.767  1.00  0.00     0.288 C 
HETATM    6  C4  UNL     1      -2.979  -7.392   3.473  1.00  0.00     0.204 C 
HETATM    7  C5  UNL     1      -3.447  -5.965   3.237  1.00  0.00     0.183 C 
BRANCH   3   8
HETATM    8  C1  UNL     1      -0.133  -5.918   4.489  1.00  0.00     0.198 C 
BRANCH   8   9
HETATM    9  O1  UNL     1       0.083  -4.837   5.376  1.00  0.00    -0.398 OA
ATOM     10  H1  UNL     1       0.444  -5.237   6.158  1.00  0.00     0.209 HD
ENDBRANCH   8   9
ENDBRANCH   3   8
BRANCH   5  11
HETATM   11  O3  UNL     1      -1.899  -8.233   1.579  1.00  0.00    -0.369 OA
ATOM     12  H3  UNL     1      -2.714  -8.702   1.715  1.00  0.00     0.212 HD
ENDBRANCH   5  11
BRANCH   6  13
HETATM   13  O4  UNL     1      -3.902  -8.325   3.040  1.00  0.00    -0.388 OA
ATOM     14  H4  UNL     1      -4.714  -8.296   3.533  1.00  0.00     0.210 HD
ENDBRANCH   6  13
BRANCH   7  15
HETATM   15  O5  UNL     1      -4.740  -5.759   3.672  1.00  0.00    -0.390 OA
ATOM     16  H5  UNL     1      -5.076  -4.910   3.411  1.00  0.00     0.210 HD
ENDBRANCH   7  15
ENDBRANCH   1   2
BRANCH   1  17
HETATM   17  C7  UNL     1      -3.040  -3.331   5.397  1.00  0.00     0.292 C 
HETATM   18  O7  UNL     1      -4.434  -3.423   5.610  1.00  0.00    -0.348 OA
HETATM   19  C8  UNL     1      -4.805  -2.833   6.810  1.00  0.00     0.179 C 
HETATM   20  C10 UNL     1      -4.719  -1.341   6.635  1.00  0.00     0.180 C 
HETATM   21  C11 UNL     1      -3.636  -0.908   5.699  1.00  0.00     0.183 C 
HETATM   22  C12 UNL     1      -2.550  -1.918   5.493  1.00  0.00     0.204 C 
BRANCH  19  23
HETATM   23  C9  UNL     1      -6.228  -3.235   7.099  1.00  0.00     0.198 C 
BRANCH  23  24
HETATM   24  O8  UNL     1      -6.695  -3.929   5.984  1.00  0.00    -0.398 OA
ATOM     25  H8  UNL     1      -6.133  -4.685   5.868  1.00  0.00     0.209 HD
ENDBRANCH  23  24
ENDBRANCH  19  23
BRANCH  20  26
HETATM   26  O9  UNL     1      -5.957  -0.897   6.168  1.00  0.00    -0.390 OA
ATOM     27  H9  UNL     1      -5.921  -0.887   5.219  1.00  0.00     0.210 HD
ENDBRANCH  20  26
BRANCH  21  28
HETATM   28  O10 UNL     1      -4.213  -0.537   4.480  1.00  0.00    -0.390 OA
ATOM     29  H10 UNL     1      -3.771   0.239   4.154  1.00  0.00     0.210 HD
ENDBRANCH  21  28
BRANCH  22  30
HETATM   30  O11 UNL     1      -1.616  -1.787   6.549  1.00  0.00    -0.388 OA
ATOM     31  H11 UNL     1      -1.333  -0.884   6.633  1.00  0.00     0.210 HD
ENDBRANCH  22  30
ENDBRANCH   1  17
TORSDOF 12
ENDMDL
