MODEL 2
REMARK VINA RESULT: -5.376689648      2.858      7.145
REMARK  12 active torsions:
REMARK  status: ('A' for Active; 'I' for Inactive)
REMARK    1  A    between atoms: O1_1  and  C1_3 
REMARK    2  A    between atoms: C1_3  and  C2_4 
REMARK    3  A    between atoms: C3_6  and  O3_7 
REMARK    4  A    between atoms: C4_9  and  O4_10 
REMARK    5  A    between atoms: C5_12  and  O5_13 
REMARK    6  A    between atoms: C6_15  and  O6_16 
REMARK    7  A    between atoms: O6_16  and  C7_17 
REMARK    8  A    between atoms: C8_19  and  C9_20 
REMARK    9  A    between atoms: C9_20  and  O8_21 
REMARK   10  A    between atoms: C10_23  and  O9_24 
REMARK   11  A    between atoms: C11_26  and  O10_27 
REMARK   12  A    between atoms: C12_29  and  O11_30 
ROOT
HETATM    1  O6  UNL     1      -6.069   0.565   8.920  1.00  0.00    -0.348 OA
ENDROOT
BRANCH   1   2
HETATM    2  C6  UNL     1      -6.976   1.566   8.749  1.00  0.00     0.187 C 
HETATM    3  C2  UNL     1      -7.229   2.442   9.922  1.00  0.00     0.180 C 
HETATM    4  O2  UNL     1      -8.588   2.571  10.240  1.00  0.00    -0.349 OA
HETATM    5  C3  UNL     1      -9.332   3.067   9.189  1.00  0.00     0.288 C 
HETATM    6  C4  UNL     1      -9.095   2.321   7.892  1.00  0.00     0.204 C 
HETATM    7  C5  UNL     1      -8.340   1.057   8.269  1.00  0.00     0.183 C 
BRANCH   3   8
HETATM    8  C1  UNL     1      -6.701   3.863   9.678  1.00  0.00     0.198 C 
BRANCH   8   9
HETATM    9  O1  UNL     1      -5.850   3.739   8.554  1.00  0.00    -0.398 OA
ATOM     10  H1  UNL     1      -5.371   2.932   8.706  1.00  0.00     0.209 HD
ENDBRANCH   8   9
ENDBRANCH   3   8
BRANCH   5  11
HETATM   11  O3  UNL     1     -10.688   2.851   9.518  1.00  0.00    -0.369 OA
ATOM     12  H3  UNL     1     -10.869   3.383  10.284  1.00  0.00     0.212 HD
ENDBRANCH   5  11
BRANCH   6  13
HETATM   13  O4  UNL     1     -10.265   2.049   7.209  1.00  0.00    -0.388 OA
ATOM     14  H4  UNL     1     -10.371   2.585   6.432  1.00  0.00     0.210 HD
ENDBRANCH   6  13
BRANCH   7  15
HETATM   15  O5  UNL     1      -8.212   0.186   7.207  1.00  0.00    -0.390 OA
ATOM     16  H5  UNL     1      -9.019   0.096   6.715  1.00  0.00     0.210 HD
ENDBRANCH   7  15
ENDBRANCH   1   2
BRANCH   1  17
HETATM   17  C7  UNL     1      -4.937   0.631   8.136  1.00  0.00     0.292 C 
HETATM   18  O7  UNL     1      -5.293   1.421   7.019  1.00  0.00    -0.348 OA
HETATM   19  C8  UNL     1      -4.281   1.443   6.069  1.00  0.00     0.179 C 
HETATM   20  C10 UNL     1      -4.268   0.106   5.381  1.00  0.00     0.180 C 
HETATM   21  C11 UNL     1      -4.663  -1.030   6.270  1.00  0.00     0.183 C 
HETATM   22  C12 UNL     1      -4.525  -0.753   7.734  1.00  0.00     0.204 C 
BRANCH  19  23
HETATM   23  C9  UNL     1      -4.609   2.528   5.075  1.00  0.00     0.198 C 
BRANCH  23  24
HETATM   24  O8  UNL     1      -4.557   3.742   5.758  1.00  0.00    -0.398 OA
ATOM     25  H8  UNL     1      -3.669   4.069   5.683  1.00  0.00     0.209 HD
ENDBRANCH  23  24
ENDBRANCH  19  23
BRANCH  20  26
HETATM   26  O9  UNL     1      -5.135   0.181   4.290  1.00  0.00    -0.390 OA
ATOM     27  H9  UNL     1      -5.293   1.100   4.108  1.00  0.00     0.210 HD
ENDBRANCH  20  26
BRANCH  21  28
HETATM   28  O10 UNL     1      -5.969  -1.419   5.954  1.00  0.00    -0.390 OA
ATOM     29  H10 UNL     1      -6.253  -2.079   6.575  1.00  0.00     0.210 HD
ENDBRANCH  21  28
BRANCH  22  30
HETATM   30  O11 UNL     1      -3.181  -0.999   8.107  1.00  0.00    -0.388 OA
ATOM     31  H11 UNL     1      -3.123  -1.775   8.652  1.00  0.00     0.210 HD
ENDBRANCH  22  30
ENDBRANCH   1  17
TORSDOF 12
ENDMDL
