MODEL 1
REMARK VINA RESULT: -5.457655480      0.000      0.000
REMARK  12 active torsions:
REMARK  status: ('A' for Active; 'I' for Inactive)
REMARK    1  A    between atoms: O1_1  and  C1_3 
REMARK    2  A    between atoms: C1_3  and  C2_4 
REMARK    3  A    between atoms: C3_6  and  O3_7 
REMARK    4  A    between atoms: C4_9  and  O4_10 
REMARK    5  A    between atoms: C5_12  and  O5_13 
REMARK    6  A    between atoms: C6_15  and  O6_16 
REMARK    7  A    between atoms: O6_16  and  C7_17 
REMARK    8  A    between atoms: C8_19  and  C9_20 
REMARK    9  A    between atoms: C9_20  and  O8_21 
REMARK   10  A    between atoms: C10_23  and  O9_24 
REMARK   11  A    between atoms: C11_26  and  O10_27 
REMARK   12  A    between atoms: C12_29  and  O11_30 
ROOT
HETATM    1  O6  UNL     1      -4.364  -1.365   5.481  1.00  0.00    -0.348 OA
ENDROOT
BRANCH   1   2
HETATM    2  C6  UNL     1      -3.660  -2.528   5.389  1.00  0.00     0.187 C 
HETATM    3  C2  UNL     1      -3.542  -3.332   6.632  1.00  0.00     0.180 C 
HETATM    4  O2  UNL     1      -2.221  -3.684   6.946  1.00  0.00    -0.349 OA
HETATM    5  C3  UNL     1      -1.608  -4.395   5.935  1.00  0.00     0.288 C 
HETATM    6  C4  UNL     1      -1.738  -3.729   4.580  1.00  0.00     0.204 C 
HETATM    7  C5  UNL     1      -2.239  -2.320   4.853  1.00  0.00     0.183 C 
BRANCH   3   8
HETATM    8  C1  UNL     1      -4.327  -4.648   6.518  1.00  0.00     0.198 C 
BRANCH   8   9
HETATM    9  O1  UNL     1      -5.495  -4.304   5.797  1.00  0.00    -0.398 OA
ATOM     10  H1  UNL     1      -5.203  -4.214   4.898  1.00  0.00     0.209 HD
ENDBRANCH   8   9
ENDBRANCH   3   8
BRANCH   5  11
HETATM   11  O3  UNL     1      -0.227  -4.406   6.230  1.00  0.00    -0.369 OA
ATOM     12  H3  UNL     1       0.228  -4.440   5.396  1.00  0.00     0.212 HD
ENDBRANCH   5  11
BRANCH   6  13
HETATM   13  O4  UNL     1      -0.556  -3.737   3.864  1.00  0.00    -0.388 OA
ATOM     14  H4  UNL     1      -0.042  -2.949   3.994  1.00  0.00     0.210 HD
ENDBRANCH   6  13
BRANCH   7  15
HETATM   15  O5  UNL     1      -2.233  -1.534   3.720  1.00  0.00    -0.390 OA
ATOM     16  H5  UNL     1      -1.407  -1.082   3.599  1.00  0.00     0.210 HD
ENDBRANCH   7  15
ENDBRANCH   1   2
BRANCH   1  17
HETATM   17  C7  UNL     1      -4.971  -1.118   6.695  1.00  0.00     0.292 C 
HETATM   18  O7  UNL     1      -6.361  -1.162   6.441  1.00  0.00    -0.348 OA
HETATM   19  C8  UNL     1      -7.093  -0.779   7.556  1.00  0.00     0.179 C 
HETATM   20  C10 UNL     1      -6.957   0.712   7.705  1.00  0.00     0.180 C 
HETATM   21  C11 UNL     1      -5.632   1.242   7.253  1.00  0.00     0.183 C 
HETATM   22  C12 UNL     1      -4.537   0.222   7.207  1.00  0.00     0.204 C 
BRANCH  19  23
HETATM   23  C9  UNL     1      -8.534  -1.140   7.305  1.00  0.00     0.198 C 
BRANCH  23  24
HETATM   24  O8  UNL     1      -8.637  -1.523   5.969  1.00  0.00    -0.398 OA
ATOM     25  H8  UNL     1      -8.858  -0.745   5.469  1.00  0.00     0.209 HD
ENDBRANCH  23  24
ENDBRANCH  19  23
BRANCH  20  26
HETATM   26  O9  UNL     1      -7.982   1.308   6.970  1.00  0.00    -0.390 OA
ATOM     27  H9  UNL     1      -7.599   2.007   6.452  1.00  0.00     0.210 HD
ENDBRANCH  20  26
BRANCH  21  28
HETATM   28  O10 UNL     1      -5.793   1.863   6.011  1.00  0.00    -0.390 OA
ATOM     29  H10 UNL     1      -5.538   2.775   6.087  1.00  0.00     0.210 HD
ENDBRANCH  21  28
BRANCH  22  30
HETATM   30  O11 UNL     1      -3.986   0.103   8.506  1.00  0.00    -0.388 OA
ATOM     31  H11 UNL     1      -4.318   0.790   9.073  1.00  0.00     0.210 HD
ENDBRANCH  22  30
ENDBRANCH   1  17
TORSDOF 12
ENDMDL
