MODEL 1
REMARK VINA RESULT: -9.680244817      0.000      0.000
REMARK  4 active torsions:
REMARK  status: ('A' for Active; 'I' for Inactive)
REMARK    1  A    between atoms: C2_2  and  O1_4 
REMARK    2  A    between atoms: C2_2  and  C4_6 
REMARK    3  A    between atoms: C5_7  and  C6_8 
REMARK    4  A    between atoms: C13_17  and  C14_18 
ROOT
HETATM    1  C6  UNL     1      42.721  17.825   1.013  1.00  0.00     0.018 A 
HETATM    2  C7  UNL     1      43.013  16.680   1.724  1.00  0.00     0.023 A 
HETATM    3  C8  UNL     1      43.342  15.499   1.100  1.00  0.00     0.039 A 
HETATM    4  C9  UNL     1      43.384  15.459  -0.265  1.00  0.00     0.082 A 
HETATM    5  C10 UNL     1      43.091  16.609  -0.973  1.00  0.00     0.043 A 
HETATM    6  C11 UNL     1      42.760  17.794  -0.359  1.00  0.00     0.038 A 
HETATM    7  C12 UNL     1      43.079  16.778  -2.447  1.00  0.00     0.121 A 
HETATM    8  N1  UNL     1      42.448  17.789  -3.059  1.00  0.00    -0.336 N 
ATOM      9  H1  UNL     1      41.921  18.538  -2.609  1.00  0.00     0.168 HD
HETATM   10  C13 UNL     1      42.641  17.631  -4.377  1.00  0.00     0.115 A 
HETATM   11  C15 UNL     1      43.407  16.497  -4.537  1.00  0.00     0.127 A 
HETATM   12  N3  UNL     1      43.685  15.954  -3.318  1.00  0.00    -0.338 N 
HETATM   13  C16 UNL     1      44.453  14.779  -3.067  1.00  0.00     0.156 C 
HETATM   14  C17 UNL     1      43.827  13.781  -2.145  1.00  0.00     0.196 C 
HETATM   15  O3  UNL     1      43.724  14.232  -0.812  1.00  0.00    -0.349 OA
ENDROOT
BRANCH   1  16
HETATM   16  C5  UNL     1      42.376  19.055   1.713  1.00  0.00    -0.064 C 
HETATM   17  C4  UNL     1      42.112  20.077   2.294  1.00  0.00    -0.064 C 
BRANCH  17  18
HETATM   18  C2  UNL     1      41.794  21.308   3.019  1.00  0.00     0.114 C 
HETATM   19  C1  UNL     1      40.296  21.473   2.989  1.00  0.00     0.060 C 
HETATM   20  C3  UNL     1      42.435  22.478   2.315  1.00  0.00     0.060 C 
BRANCH  18  21
HETATM   21  O1  UNL     1      42.274  21.275   4.330  1.00  0.00    -0.378 OA
ATOM     22  H1  UNL     1      43.139  21.662   4.390  1.00  0.00     0.211 HD
ENDBRANCH  18  21
ENDBRANCH  17  18
ENDBRANCH   1  16
BRANCH  10  23
HETATM   23  C14 UNL     1      42.153  18.474  -5.473  1.00  0.00     0.282 C 
HETATM   24  N2  UNL     1      42.567  19.815  -5.575  1.00  0.00    -0.056 NA
HETATM   25  O2  UNL     1      41.364  18.020  -6.333  1.00  0.00    -0.269 OA
ENDBRANCH  10  23
TORSDOF 4
ENDMDL
