MODEL 2
REMARK VINA RESULT: -8.626621317      3.705      7.906
REMARK  4 active torsions:
REMARK  status: ('A' for Active; 'I' for Inactive)
REMARK    1  A    between atoms: C2_2  and  O1_4 
REMARK    2  A    between atoms: C2_2  and  C4_6 
REMARK    3  A    between atoms: C5_7  and  C6_8 
REMARK    4  A    between atoms: C13_17  and  C14_18 
ROOT
HETATM    1  C6  UNL     1      42.446  16.505  -4.748  1.00  0.00     0.018 A 
HETATM    2  C7  UNL     1      41.976  17.607  -4.066  1.00  0.00     0.023 A 
HETATM    3  C8  UNL     1      42.185  17.772  -2.716  1.00  0.00     0.039 A 
HETATM    4  C9  UNL     1      42.880  16.816  -2.030  1.00  0.00     0.082 A 
HETATM    5  C10 UNL     1      43.349  15.714  -2.719  1.00  0.00     0.043 A 
HETATM    6  C11 UNL     1      43.145  15.539  -4.068  1.00  0.00     0.038 A 
HETATM    7  C12 UNL     1      44.119  14.571  -2.168  1.00  0.00     0.121 A 
HETATM    8  N1  UNL     1      44.223  13.392  -2.796  1.00  0.00    -0.336 N 
ATOM      9  H1  UNL     1      43.805  13.143  -3.693  1.00  0.00     0.168 HD
HETATM   10  C13 UNL     1      44.981  12.601  -2.023  1.00  0.00     0.115 A 
HETATM   11  C15 UNL     1      45.330  13.340  -0.913  1.00  0.00     0.127 A 
HETATM   12  N3  UNL     1      44.785  14.587  -1.002  1.00  0.00    -0.338 N 
HETATM   13  C16 UNL     1      44.920  15.642  -0.051  1.00  0.00     0.156 C 
HETATM   14  C17 UNL     1      43.646  16.311   0.358  1.00  0.00     0.196 C 
HETATM   15  O3  UNL     1      43.045  17.059  -0.676  1.00  0.00    -0.349 OA
ENDROOT
BRANCH   1  16
HETATM   16  C5  UNL     1      42.203  16.369  -6.178  1.00  0.00    -0.064 C 
HETATM   17  C4  UNL     1      41.991  16.238  -7.357  1.00  0.00    -0.064 C 
BRANCH  17  18
HETATM   18  C2  UNL     1      41.752  16.066  -8.791  1.00  0.00     0.114 C 
HETATM   19  C1  UNL     1      40.345  15.551  -8.953  1.00  0.00     0.060 C 
HETATM   20  C3  UNL     1      42.720  15.045  -9.336  1.00  0.00     0.060 C 
BRANCH  18  21
HETATM   21  O1  UNL     1      41.940  17.258  -9.493  1.00  0.00    -0.378 OA
ATOM     22  H1  UNL     1      41.146  17.778  -9.507  1.00  0.00     0.211 HD
ENDBRANCH  18  21
ENDBRANCH  17  18
ENDBRANCH   1  16
BRANCH  10  23
HETATM   23  C14 UNL     1      45.388  11.214  -2.267  1.00  0.00     0.282 C 
HETATM   24  N2  UNL     1      46.701  10.921  -2.676  1.00  0.00    -0.056 NA
HETATM   25  O2  UNL     1      44.579  10.269  -2.116  1.00  0.00    -0.269 OA
ENDBRANCH  10  23
TORSDOF 4
ENDMDL
