MODEL 15
REMARK VINA RESULT: -7.199684277      1.281      1.435
REMARK  4 active torsions:
REMARK  status: ('A' for Active; 'I' for Inactive)
REMARK    1  A    between atoms: C2_2  and  O1_4 
REMARK    2  A    between atoms: C2_2  and  C4_6 
REMARK    3  A    between atoms: C5_7  and  C6_8 
REMARK    4  A    between atoms: C13_17  and  C14_18 
ROOT
HETATM    1  C6  UNL     1      43.234  17.347   0.843  1.00  0.00     0.018 A 
HETATM    2  C7  UNL     1      43.907  16.408   1.597  1.00  0.00     0.023 A 
HETATM    3  C8  UNL     1      44.430  15.264   1.038  1.00  0.00     0.039 A 
HETATM    4  C9  UNL     1      44.280  15.053  -0.304  1.00  0.00     0.082 A 
HETATM    5  C10 UNL     1      43.605  15.996  -1.054  1.00  0.00     0.043 A 
HETATM    6  C11 UNL     1      43.078  17.142  -0.505  1.00  0.00     0.038 A 
HETATM    7  C12 UNL     1      43.334  15.959  -2.513  1.00  0.00     0.121 A 
HETATM    8  N1  UNL     1      42.385  16.703  -3.097  1.00  0.00    -0.336 N 
ATOM      9  H1  UNL     1      41.758  17.360  -2.633  1.00  0.00     0.168 HD
HETATM   10  C13 UNL     1      42.417  16.420  -4.407  1.00  0.00     0.115 A 
HETATM   11  C15 UNL     1      43.413  15.486  -4.592  1.00  0.00     0.127 A 
HETATM   12  N3  UNL     1      43.995  15.192  -3.395  1.00  0.00    -0.338 N 
HETATM   13  C16 UNL     1      45.064  14.273  -3.173  1.00  0.00     0.156 C 
HETATM   14  C17 UNL     1      44.853  13.290  -2.067  1.00  0.00     0.196 C 
HETATM   15  O3  UNL     1      44.836  13.878  -0.785  1.00  0.00    -0.349 OA
ENDROOT
BRANCH   1  16
HETATM   16  C5  UNL     1      42.695  18.544   1.474  1.00  0.00    -0.064 C 
HETATM   17  C4  UNL     1      42.248  19.543   1.978  1.00  0.00    -0.064 C 
BRANCH  17  18
HETATM   18  C2  UNL     1      41.725  20.766   2.588  1.00  0.00     0.114 C 
HETATM   19  C1  UNL     1      42.493  21.924   2.003  1.00  0.00     0.060 C 
HETATM   20  C3  UNL     1      41.960  20.717   4.077  1.00  0.00     0.060 C 
BRANCH  18  21
HETATM   21  O1  UNL     1      40.353  20.907   2.371  1.00  0.00    -0.378 OA
ATOM     22  H1  UNL     1      39.855  20.312   2.918  1.00  0.00     0.211 HD
ENDBRANCH  18  21
ENDBRANCH  17  18
ENDBRANCH   1  16
BRANCH  10  23
HETATM   23  C14 UNL     1      41.576  16.971  -5.475  1.00  0.00     0.282 C 
HETATM   24  N2  UNL     1      42.157  17.425  -6.673  1.00  0.00    -0.056 NA
HETATM   25  O2  UNL     1      40.333  17.047  -5.341  1.00  0.00    -0.269 OA
ENDBRANCH  10  23
TORSDOF 4
ENDMDL
