MODEL 4
REMARK VINA RESULT: -8.492739751      4.440      6.995
REMARK  4 active torsions:
REMARK  status: ('A' for Active; 'I' for Inactive)
REMARK    1  A    between atoms: C2_2  and  O1_4 
REMARK    2  A    between atoms: C2_2  and  C4_6 
REMARK    3  A    between atoms: C5_7  and  C6_8 
REMARK    4  A    between atoms: C13_17  and  C14_18 
ROOT
HETATM    1  C6  UNL     1      44.149  14.590  -2.483  1.00  0.00     0.018 A 
HETATM    2  C7  UNL     1      43.570  15.667  -1.845  1.00  0.00     0.023 A 
HETATM    3  C8  UNL     1      42.855  16.622  -2.530  1.00  0.00     0.039 A 
HETATM    4  C9  UNL     1      42.712  16.499  -3.884  1.00  0.00     0.082 A 
HETATM    5  C10 UNL     1      43.293  15.418  -4.518  1.00  0.00     0.043 A 
HETATM    6  C11 UNL     1      44.011  14.459  -3.842  1.00  0.00     0.038 A 
HETATM    7  C12 UNL     1      43.258  15.101  -5.968  1.00  0.00     0.121 A 
HETATM    8  N1  UNL     1      44.126  14.262  -6.551  1.00  0.00    -0.336 N 
ATOM      9  H1  UNL     1      44.885  13.758  -6.093  1.00  0.00     0.168 HD
HETATM   10  C13 UNL     1      43.806  14.212  -7.852  1.00  0.00     0.115 A 
HETATM   11  C15 UNL     1      42.721  15.042  -8.032  1.00  0.00     0.127 A 
HETATM   12  N3  UNL     1      42.372  15.607  -6.841  1.00  0.00    -0.338 N 
HETATM   13  C16 UNL     1      41.301  16.521  -6.616  1.00  0.00     0.156 C 
HETATM   14  C17 UNL     1      41.652  17.754  -5.845  1.00  0.00     0.196 C 
HETATM   15  O3  UNL     1      41.977  17.502  -4.496  1.00  0.00    -0.349 OA
ENDROOT
BRANCH   1  16
HETATM   16  C5  UNL     1      44.899  13.602  -1.719  1.00  0.00    -0.064 C 
HETATM   17  C4  UNL     1      45.537  12.797  -1.089  1.00  0.00    -0.064 C 
BRANCH  17  18
HETATM   18  C2  UNL     1      46.320  11.811  -0.342  1.00  0.00     0.114 C 
HETATM   19  C1  UNL     1      45.711  10.458  -0.610  1.00  0.00     0.060 C 
HETATM   20  C3  UNL     1      46.224  12.115   1.132  1.00  0.00     0.060 C 
BRANCH  18  21
HETATM   21  O1  UNL     1      47.668  11.841  -0.704  1.00  0.00    -0.378 OA
ATOM     22  H1  UNL     1      48.222  12.023   0.046  1.00  0.00     0.211 HD
ENDBRANCH  18  21
ENDBRANCH  17  18
ENDBRANCH   1  16
BRANCH  10  23
HETATM   23  C14 UNL     1      44.453  13.437  -8.916  1.00  0.00     0.282 C 
HETATM   24  N2  UNL     1      44.829  12.101  -8.693  1.00  0.00    -0.056 NA
HETATM   25  O2  UNL     1      44.681  13.949 -10.037  1.00  0.00    -0.269 OA
ENDBRANCH  10  23
TORSDOF 4
ENDMDL
