MODEL 3
REMARK VINA RESULT: -8.541606766      3.115      8.012
REMARK  4 active torsions:
REMARK  status: ('A' for Active; 'I' for Inactive)
REMARK    1  A    between atoms: C2_2  and  O1_4 
REMARK    2  A    between atoms: C2_2  and  C4_6 
REMARK    3  A    between atoms: C5_7  and  C6_8 
REMARK    4  A    between atoms: C13_17  and  C14_18 
ROOT
HETATM    1  C6  UNL     1      44.876  13.203  -3.230  1.00  0.00     0.018 A 
HETATM    2  C7  UNL     1      44.553  13.273  -4.569  1.00  0.00     0.023 A 
HETATM    3  C8  UNL     1      43.790  14.296  -5.082  1.00  0.00     0.039 A 
HETATM    4  C9  UNL     1      43.339  15.274  -4.240  1.00  0.00     0.082 A 
HETATM    5  C10 UNL     1      43.665  15.199  -2.900  1.00  0.00     0.043 A 
HETATM    6  C11 UNL     1      44.427  14.180  -2.377  1.00  0.00     0.038 A 
HETATM    7  C12 UNL     1      43.280  16.149  -1.826  1.00  0.00     0.121 A 
HETATM    8  N1  UNL     1      43.318  15.832  -0.525  1.00  0.00    -0.336 N 
ATOM      9  H1  UNL     1      43.606  14.939  -0.125  1.00  0.00     0.168 HD
HETATM   10  C13 UNL     1      42.908  16.914   0.153  1.00  0.00     0.115 A 
HETATM   11  C15 UNL     1      42.624  17.888  -0.778  1.00  0.00     0.127 A 
HETATM   12  N3  UNL     1      42.857  17.407  -2.032  1.00  0.00    -0.338 N 
HETATM   13  C16 UNL     1      42.683  18.114  -3.259  1.00  0.00     0.156 C 
HETATM   14  C17 UNL     1      41.909  17.394  -4.317  1.00  0.00     0.196 C 
HETATM   15  O3  UNL     1      42.579  16.267  -4.837  1.00  0.00    -0.349 OA
ENDROOT
BRANCH   1  16
HETATM   16  C5  UNL     1      45.687  12.101  -2.727  1.00  0.00    -0.064 C 
HETATM   17  C4  UNL     1      46.341  11.177  -2.317  1.00  0.00    -0.064 C 
BRANCH  17  18
HETATM   18  C2  UNL     1      47.125  10.055  -1.798  1.00  0.00     0.114 C 
HETATM   19  C1  UNL     1      46.524   8.791  -2.357  1.00  0.00     0.060 C 
HETATM   20  C3  UNL     1      47.022  10.031  -0.293  1.00  0.00     0.060 C 
BRANCH  18  21
HETATM   21  O1  UNL     1      48.475  10.168  -2.137  1.00  0.00    -0.378 OA
ATOM     22  H1  UNL     1      48.793  11.052  -1.998  1.00  0.00     0.211 HD
ENDBRANCH  18  21
ENDBRANCH  17  18
ENDBRANCH   1  16
BRANCH  10  23
HETATM   23  C14 UNL     1      42.772  17.077   1.604  1.00  0.00     0.282 C 
HETATM   24  N2  UNL     1      42.755  18.363   2.176  1.00  0.00    -0.056 NA
HETATM   25  O2  UNL     1      42.668  16.082   2.358  1.00  0.00    -0.269 OA
ENDBRANCH  10  23
TORSDOF 4
ENDMDL
