MODEL 4
REMARK VINA RESULT: -7.733466369      2.691      4.971
REMARK  1 active torsions:
REMARK  status: ('A' for Active; 'I' for Inactive)
REMARK    1  A    between atoms: C1_2  and  C2_4 
ROOT
HETATM    1  C2  UNL     1      28.691  54.593  -4.178  1.00  0.00     0.098 A 
HETATM    2  C3  UNL     1      27.952  55.758  -4.216  1.00  0.00     0.038 A 
HETATM    3  C4  UNL     1      27.507  56.335  -3.050  1.00  0.00     0.041 A 
HETATM    4  C5  UNL     1      27.823  55.718  -1.865  1.00  0.00     0.096 A 
HETATM    5  C6  UNL     1      28.564  54.558  -1.884  1.00  0.00     0.084 A 
HETATM    6  N2  UNL     1      29.011  53.971  -3.001  1.00  0.00    -0.349 N 
ATOM      7  H2  UNL     1      29.558  53.110  -2.977  1.00  0.00     0.166 HD
HETATM    8  C7  UNL     1      29.026  53.714  -0.748  1.00  0.00     0.040 A 
HETATM    9  S1  UNL     1      29.749  52.178  -0.832  1.00  0.00    -0.099 SA
HETATM   10  C8  UNL     1      29.976  51.902   0.832  1.00  0.00     0.051 A 
HETATM   11  C9  UNL     1      29.478  53.028   1.416  1.00  0.00     0.015 A 
HETATM   12  C10 UNL     1      28.971  53.995   0.602  1.00  0.00    -0.036 A 
HETATM   13  C11 UNL     1      28.412  55.249   1.215  1.00  0.00     0.067 C 
HETATM   14  C12 UNL     1      27.218  55.777   0.539  1.00  0.00     0.180 C 
HETATM   15  O2  UNL     1      27.358  56.331  -0.718  1.00  0.00    -0.348 OA
ENDROOT
BRANCH   1  16
HETATM   16  C1  UNL     1      29.136  54.024  -5.442  1.00  0.00     0.281 C 
HETATM   17  N1  UNL     1      30.399  54.367  -5.950  1.00  0.00    -0.056 NA
HETATM   18  O1  UNL     1      28.399  53.242  -6.062  1.00  0.00    -0.269 OA
ENDBRANCH   1  16
TORSDOF 1
ENDMDL
