MODEL 10
REMARK VINA RESULT: -7.129550847      2.563      5.014
REMARK  1 active torsions:
REMARK  status: ('A' for Active; 'I' for Inactive)
REMARK    1  A    between atoms: C1_2  and  C2_4 
ROOT
HETATM    1  C2  UNL     1      28.788  54.351  -5.308  1.00  0.00     0.098 A 
HETATM    2  C3  UNL     1      28.054  55.504  -5.499  1.00  0.00     0.038 A 
HETATM    3  C4  UNL     1      27.550  56.191  -4.420  1.00  0.00     0.041 A 
HETATM    4  C5  UNL     1      27.802  55.695  -3.166  1.00  0.00     0.096 A 
HETATM    5  C6  UNL     1      28.540  54.541  -3.031  1.00  0.00     0.084 A 
HETATM    6  N2  UNL     1      29.045  53.849  -4.060  1.00  0.00    -0.349 N 
ATOM      7  H2  UNL     1      29.589  52.997  -3.923  1.00  0.00     0.166 HD
HETATM    8  C7  UNL     1      28.941  53.815  -1.795  1.00  0.00     0.040 A 
HETATM    9  S1  UNL     1      29.665  52.281  -1.689  1.00  0.00    -0.099 SA
HETATM   10  C8  UNL     1      29.804  52.171   0.003  1.00  0.00     0.051 A 
HETATM   11  C9  UNL     1      29.277  53.347   0.447  1.00  0.00     0.015 A 
HETATM   12  C10 UNL     1      28.816  54.228  -0.484  1.00  0.00    -0.036 A 
HETATM   13  C11 UNL     1      28.227  55.533  -0.028  1.00  0.00     0.067 C 
HETATM   14  C12 UNL     1      27.071  55.988  -0.814  1.00  0.00     0.180 C 
HETATM   15  O2  UNL     1      27.278  56.417  -2.110  1.00  0.00    -0.348 OA
ENDROOT
BRANCH   1  16
HETATM   16  C1  UNL     1      29.298  53.662  -6.484  1.00  0.00     0.281 C 
HETATM   17  N1  UNL     1      29.240  54.295  -7.737  1.00  0.00    -0.056 NA
HETATM   18  O1  UNL     1      29.780  52.524  -6.375  1.00  0.00    -0.269 OA
ENDBRANCH   1  16
TORSDOF 1
ENDMDL
