MODEL 19
REMARK VINA RESULT: -6.649812631      2.504      5.681
REMARK  1 active torsions:
REMARK  status: ('A' for Active; 'I' for Inactive)
REMARK    1  A    between atoms: C1_2  and  C2_4 
ROOT
HETATM    1  C2  UNL     1      29.326  53.506  -4.484  1.00  0.00     0.098 A 
HETATM    2  C3  UNL     1      28.842  54.391  -5.427  1.00  0.00     0.038 A 
HETATM    3  C4  UNL     1      28.111  55.488  -5.037  1.00  0.00     0.041 A 
HETATM    4  C5  UNL     1      27.886  55.669  -3.696  1.00  0.00     0.096 A 
HETATM    5  C6  UNL     1      28.391  54.757  -2.797  1.00  0.00     0.084 A 
HETATM    6  N2  UNL     1      29.106  53.679  -3.143  1.00  0.00    -0.349 N 
ATOM      7  H2  UNL     1      29.466  53.024  -2.449  1.00  0.00     0.166 HD
HETATM    8  C7  UNL     1      28.282  54.733  -1.313  1.00  0.00     0.040 A 
HETATM    9  S1  UNL     1      28.736  53.474  -0.264  1.00  0.00    -0.099 SA
HETATM   10  C8  UNL     1      28.314  54.198   1.216  1.00  0.00     0.051 A 
HETATM   11  C9  UNL     1      27.825  55.417   0.851  1.00  0.00     0.015 A 
HETATM   12  C10 UNL     1      27.799  55.720  -0.477  1.00  0.00    -0.036 A 
HETATM   13  C11 UNL     1      27.265  57.055  -0.913  1.00  0.00     0.067 C 
HETATM   14  C12 UNL     1      26.486  57.022  -2.160  1.00  0.00     0.180 C 
HETATM   15  O2  UNL     1      27.147  56.784  -3.348  1.00  0.00    -0.348 OA
ENDROOT
BRANCH   1  16
HETATM   16  C1  UNL     1      30.093  52.361  -4.951  1.00  0.00     0.281 C 
HETATM   17  N1  UNL     1      30.239  52.140  -6.330  1.00  0.00    -0.056 NA
HETATM   18  O1  UNL     1      30.613  51.588  -4.131  1.00  0.00    -0.269 OA
ENDBRANCH   1  16
TORSDOF 1
ENDMDL
