MODEL 1
REMARK VINA RESULT: -7.995180259      0.000      0.000
REMARK  1 active torsions:
REMARK  status: ('A' for Active; 'I' for Inactive)
REMARK    1  A    between atoms: C1_2  and  C2_4 
ROOT
HETATM    1  C2  UNL     1      27.306  56.666  -2.181  1.00  0.00     0.098 A 
HETATM    2  C3  UNL     1      27.525  56.258  -0.880  1.00  0.00     0.038 A 
HETATM    3  C4  UNL     1      28.224  55.103  -0.625  1.00  0.00     0.041 A 
HETATM    4  C5  UNL     1      28.691  54.382  -1.695  1.00  0.00     0.096 A 
HETATM    5  C6  UNL     1      28.446  54.834  -2.973  1.00  0.00     0.084 A 
HETATM    6  N2  UNL     1      27.768  55.954  -3.255  1.00  0.00    -0.349 N 
ATOM      7  H2  UNL     1      27.605  56.258  -4.215  1.00  0.00     0.166 HD
HETATM    8  C7  UNL     1      28.840  54.237  -4.277  1.00  0.00     0.040 A 
HETATM    9  S1  UNL     1      28.329  54.713  -5.827  1.00  0.00    -0.099 SA
HETATM   10  C8  UNL     1      29.201  53.582  -6.752  1.00  0.00     0.051 A 
HETATM   11  C9  UNL     1      29.877  52.855  -5.819  1.00  0.00     0.015 A 
HETATM   12  C10 UNL     1      29.701  53.183  -4.508  1.00  0.00    -0.036 A 
HETATM   13  C11 UNL     1      30.431  52.399  -3.454  1.00  0.00     0.067 C 
HETATM   14  C12 UNL     1      29.656  52.161  -2.226  1.00  0.00     0.180 C 
HETATM   15  O2  UNL     1      29.389  53.229  -1.393  1.00  0.00    -0.348 OA
ENDROOT
BRANCH   1  16
HETATM   16  C1  UNL     1      26.559  57.896  -2.396  1.00  0.00     0.281 C 
HETATM   17  N1  UNL     1      27.137  58.939  -3.138  1.00  0.00    -0.056 NA
HETATM   18  O1  UNL     1      25.417  58.018  -1.923  1.00  0.00    -0.269 OA
ENDBRANCH   1  16
TORSDOF 1
ENDMDL
