MODEL 5
REMARK VINA RESULT: -7.680261303      2.247      3.545
REMARK  1 active torsions:
REMARK  status: ('A' for Active; 'I' for Inactive)
REMARK    1  A    between atoms: C1_2  and  C2_4 
ROOT
HETATM    1  C2  UNL     1      26.988  56.918  -2.278  1.00  0.00     0.098 A 
HETATM    2  C3  UNL     1      27.162  56.878  -3.647  1.00  0.00     0.038 A 
HETATM    3  C4  UNL     1      27.893  55.867  -4.223  1.00  0.00     0.041 A 
HETATM    4  C5  UNL     1      28.433  54.912  -3.399  1.00  0.00     0.096 A 
HETATM    5  C6  UNL     1      28.229  54.998  -2.040  1.00  0.00     0.084 A 
HETATM    6  N2  UNL     1      27.524  55.970  -1.448  1.00  0.00    -0.349 N 
ATOM      7  H2  UNL     1      27.392  56.002  -0.436  1.00  0.00     0.166 HD
HETATM    8  C7  UNL     1      28.706  54.099  -0.954  1.00  0.00     0.040 A 
HETATM    9  S1  UNL     1      28.612  54.366   0.722  1.00  0.00    -0.099 SA
HETATM   10  C8  UNL     1      29.342  52.926   1.260  1.00  0.00     0.051 A 
HETATM   11  C9  UNL     1      29.642  52.266   0.106  1.00  0.00     0.015 A 
HETATM   12  C10 UNL     1      29.316  52.867  -1.073  1.00  0.00    -0.036 A 
HETATM   13  C11 UNL     1      29.635  52.166  -2.364  1.00  0.00     0.067 C 
HETATM   14  C12 UNL     1      30.078  53.057  -3.447  1.00  0.00     0.180 C 
HETATM   15  O2  UNL     1      29.159  53.913  -4.019  1.00  0.00    -0.348 OA
ENDROOT
BRANCH   1  16
HETATM   16  C1  UNL     1      26.207  58.012  -1.720  1.00  0.00     0.281 C 
HETATM   17  N1  UNL     1      25.540  58.898  -2.582  1.00  0.00    -0.056 NA
HETATM   18  O1  UNL     1      26.133  58.155  -0.489  1.00  0.00    -0.269 OA
ENDBRANCH   1  16
TORSDOF 1
ENDMDL
