MODEL 2
REMARK VINA RESULT: -7.824012567      2.480      4.067
REMARK  1 active torsions:
REMARK  status: ('A' for Active; 'I' for Inactive)
REMARK    1  A    between atoms: C1_2  and  C2_4 
ROOT
HETATM    1  C2  UNL     1      28.992  53.651  -0.436  1.00  0.00     0.098 A 
HETATM    2  C3  UNL     1      28.305  54.815  -0.154  1.00  0.00     0.038 A 
HETATM    3  C4  UNL     1      27.875  55.630  -1.173  1.00  0.00     0.041 A 
HETATM    4  C5  UNL     1      28.149  55.249  -2.463  1.00  0.00     0.096 A 
HETATM    5  C6  UNL     1      28.837  54.078  -2.689  1.00  0.00     0.084 A 
HETATM    6  N2  UNL     1      29.270  53.262  -1.719  1.00  0.00    -0.349 N 
ATOM      7  H2  UNL     1      29.777  52.401  -1.924  1.00  0.00     0.166 HD
HETATM    8  C7  UNL     1      29.250  53.459  -3.978  1.00  0.00     0.040 A 
HETATM    9  S1  UNL     1      30.285  52.128  -4.199  1.00  0.00    -0.099 SA
HETATM   10  C8  UNL     1      30.247  52.044  -5.898  1.00  0.00     0.051 A 
HETATM   11  C9  UNL     1      29.419  53.067  -6.253  1.00  0.00     0.015 A 
HETATM   12  C10 UNL     1      28.883  53.826  -5.257  1.00  0.00    -0.036 A 
HETATM   13  C11 UNL     1      27.967  54.962  -5.615  1.00  0.00     0.067 C 
HETATM   14  C12 UNL     1      28.118  56.156  -4.770  1.00  0.00     0.180 C 
HETATM   15  O2  UNL     1      27.698  56.096  -3.456  1.00  0.00    -0.348 OA
ENDROOT
BRANCH   1  16
HETATM   16  C1  UNL     1      29.425  52.825   0.681  1.00  0.00     0.281 C 
HETATM   17  N1  UNL     1      29.715  53.426   1.917  1.00  0.00    -0.056 NA
HETATM   18  O1  UNL     1      29.535  51.597   0.537  1.00  0.00    -0.269 OA
ENDBRANCH   1  16
TORSDOF 1
ENDMDL
