MODEL 1
REMARK VINA RESULT: -7.610633666      0.000      0.000
REMARK  8 active torsions:
REMARK  status: ('A' for Active; 'I' for Inactive)
REMARK    1  A    between atoms: O1_2  and  C2_3 
REMARK    2  A    between atoms: C15_21  and  C16_22 
REMARK    3  A    between atoms: C16_22  and  C17_23 
REMARK    4  A    between atoms: C21_27  and  O5_28 
REMARK    5  A    between atoms: C23_33  and  O6_34 
REMARK    6  A    between atoms: C24_36  and  C25_37 
REMARK    7  A    between atoms: C28_42  and  O7_43 
REMARK    8  A    between atoms: C31_47  and  O8_48 
ROOT
HETATM    1  C2  UNL     1      72.081  60.049  60.871  1.00  0.00     0.149 C 
HETATM    2  C3  UNL     1      73.549  59.920  60.965  1.00  0.00     0.005 C 
HETATM    3  C4  UNL     1      74.308  59.093  60.271  1.00  0.00    -0.002 C 
HETATM    4  C5  UNL     1      73.843  58.138  59.273  1.00  0.00    -0.004 C 
HETATM    5  C6  UNL     1      73.076  57.081  59.518  1.00  0.00    -0.025 C 
HETATM    6  C7  UNL     1      72.567  56.699  60.855  1.00  0.00     0.054 C 
HETATM    7  C8  UNL     1      72.761  55.213  61.142  1.00  0.00     0.182 C 
HETATM    8  O2  UNL     1      72.127  54.906  62.346  1.00  0.00    -0.320 OA
HETATM    9  C9  UNL     1      72.423  53.854  63.192  1.00  0.00     0.280 C 
HETATM   10  O3  UNL     1      71.577  52.994  63.582  1.00  0.00    -0.263 OA
HETATM   11  C10 UNL     1      73.811  53.705  63.684  1.00  0.00     0.199 C 
HETATM   12  C11 UNL     1      74.507  52.498  63.074  1.00  0.00     0.035 C 
HETATM   13  C12 UNL     1      74.936  51.504  64.119  1.00  0.00     0.024 C 
HETATM   14  C13 UNL     1      75.768  52.213  65.154  1.00  0.00     0.148 C 
HETATM   15  N1  UNL     1      75.067  53.416  65.645  1.00  0.00    -0.263 N 
HETATM   16  N2  UNL     1      73.771  53.564  65.134  1.00  0.00    -0.121 NA
HETATM   17  C14 UNL     1      75.700  54.305  66.543  1.00  0.00     0.258 C 
HETATM   18  O4  UNL     1      76.981  54.248  66.516  1.00  0.00    -0.270 OA
HETATM   19  C15 UNL     1      75.026  55.244  67.457  1.00  0.00     0.181 C 
HETATM   20  N3  UNL     1      74.091  56.147  66.860  1.00  0.00    -0.355 N 
ATOM     21  H3  UNL     1      73.142  56.059  67.223  1.00  0.00     0.162 HD
HETATM   22  C23 UNL     1      74.230  57.113  65.888  1.00  0.00     0.164 C 
HETATM   23  C24 UNL     1      74.959  58.398  65.868  1.00  0.00     0.086 C 
HETATM   24  N4  UNL     1      74.607  59.201  64.711  1.00  0.00    -0.337 N 
ATOM     25  H4  UNL     1      75.123  58.953  63.867  1.00  0.00     0.168 HD
HETATM   26  C28 UNL     1      73.706  60.241  64.530  1.00  0.00     0.122 C 
HETATM   27  C29 UNL     1      72.250  60.344  64.562  1.00  0.00     0.086 C 
HETATM   28  C30 UNL     1      71.468  59.199  65.055  1.00  0.00     0.021 C 
HETATM   29  C31 UNL     1      71.711  60.896  63.235  1.00  0.00     0.138 C 
HETATM   30  C33 UNL     1      71.433  59.855  62.219  1.00  0.00     0.044 C 
HETATM   31  C34 UNL     1      69.923  59.781  61.932  1.00  0.00     0.015 C 
ENDROOT
BRANCH  19  32
HETATM   32  C16 UNL     1      74.419  54.397  68.567  1.00  0.00     0.073 C 
BRANCH  32  33
HETATM   33  C17 UNL     1      75.139  54.427  69.825  1.00  0.00    -0.053 A 
HETATM   34  C18 UNL     1      75.544  55.607  70.403  1.00  0.00     0.007 A 
HETATM   35  C19 UNL     1      76.250  55.601  71.611  1.00  0.00     0.003 A 
HETATM   36  C20 UNL     1      76.548  54.404  72.237  1.00  0.00     0.036 A 
HETATM   37  C21 UNL     1      76.145  53.224  71.663  1.00  0.00     0.066 A 
HETATM   38  C22 UNL     1      75.450  53.248  70.473  1.00  0.00     0.043 A 
BRANCH  37  39
HETATM   39  O5  UNL     1      76.410  51.990  72.238  1.00  0.00    -0.361 OA
ATOM     40  H5  UNL     1      76.213  51.171  71.798  1.00  0.00     0.217 HD
ENDBRANCH  37  39
ENDBRANCH  32  33
ENDBRANCH  19  32
BRANCH  22  41
HETATM   41  O6  UNL     1      73.602  56.863  64.766  1.00  0.00    -0.345 OA
ATOM     42  H6  UNL     1      72.656  56.937  64.810  1.00  0.00     0.219 HD
ENDBRANCH  22  41
BRANCH  23  43
HETATM   43  C25 UNL     1      75.101  59.137  67.143  1.00  0.00    -0.057 C 
HETATM   44  C26 UNL     1      75.878  60.409  67.121  1.00  0.00     0.045 C 
HETATM   45  C27 UNL     1      73.846  59.267  67.971  1.00  0.00     0.045 C 
ENDBRANCH  23  43
BRANCH  26  46
HETATM   46  O7  UNL     1      74.249  61.396  64.269  1.00  0.00    -0.349 OA
ATOM     47  H7  UNL     1      73.631  62.094  64.088  1.00  0.00     0.219 HD
ENDBRANCH  26  46
BRANCH  29  48
HETATM   48  O8  UNL     1      70.587  61.671  63.433  1.00  0.00    -0.389 OA
HETATM   49  C32 UNL     1      70.721  63.016  63.397  1.00  0.00     0.202 C 
ENDBRANCH  29  48
BRANCH   1  50
HETATM   50  O1  UNL     1      71.805  61.376  60.470  1.00  0.00    -0.386 OA
HETATM   51  C1  UNL     1      71.702  61.418  59.102  1.00  0.00     0.202 C 
ENDBRANCH   1  50
TORSDOF 8
ENDMDL
