MODEL 3
REMARK VINA RESULT: -6.654609163      3.642      9.031
REMARK  8 active torsions:
REMARK  status: ('A' for Active; 'I' for Inactive)
REMARK    1  A    between atoms: O1_2  and  C2_3 
REMARK    2  A    between atoms: C15_21  and  C16_22 
REMARK    3  A    between atoms: C16_22  and  C17_23 
REMARK    4  A    between atoms: C21_27  and  O5_28 
REMARK    5  A    between atoms: C23_33  and  O6_34 
REMARK    6  A    between atoms: C24_36  and  C25_37 
REMARK    7  A    between atoms: C28_42  and  O7_43 
REMARK    8  A    between atoms: C31_47  and  O8_48 
ROOT
HETATM    1  C2  UNL     1      73.721  54.434  65.385  1.00  0.00     0.149 C 
HETATM    2  C3  UNL     1      74.139  55.278  66.522  1.00  0.00     0.005 C 
HETATM    3  C4  UNL     1      73.774  55.132  67.782  1.00  0.00    -0.002 C 
HETATM    4  C5  UNL     1      72.879  54.105  68.299  1.00  0.00    -0.004 C 
HETATM    5  C6  UNL     1      71.587  53.992  68.009  1.00  0.00    -0.025 C 
HETATM    6  C7  UNL     1      70.843  54.900  67.106  1.00  0.00     0.054 C 
HETATM    7  C8  UNL     1      69.514  55.347  67.706  1.00  0.00     0.182 C 
HETATM    8  O2  UNL     1      68.812  56.070  66.742  1.00  0.00    -0.320 OA
HETATM    9  C9  UNL     1      67.831  57.018  66.970  1.00  0.00     0.280 C 
HETATM   10  O3  UNL     1      66.668  56.975  66.468  1.00  0.00    -0.263 OA
HETATM   11  C10 UNL     1      68.141  58.163  67.856  1.00  0.00     0.199 C 
HETATM   12  C11 UNL     1      67.391  58.082  69.178  1.00  0.00     0.035 C 
HETATM   13  C12 UNL     1      66.484  59.265  69.386  1.00  0.00     0.024 C 
HETATM   14  C13 UNL     1      67.286  60.528  69.231  1.00  0.00     0.148 C 
HETATM   15  N1  UNL     1      68.049  60.505  67.966  1.00  0.00    -0.263 N 
HETATM   16  N2  UNL     1      67.776  59.391  67.162  1.00  0.00    -0.121 NA
HETATM   17  C14 UNL     1      68.962  61.537  67.654  1.00  0.00     0.258 C 
HETATM   18  O4  UNL     1      69.394  62.177  68.677  1.00  0.00    -0.270 OA
HETATM   19  C15 UNL     1      69.428  61.907  66.306  1.00  0.00     0.181 C 
HETATM   20  N3  UNL     1      69.994  60.854  65.520  1.00  0.00    -0.355 N 
ATOM     21  H3  UNL     1      69.502  60.681  64.644  1.00  0.00     0.162 HD
HETATM   22  C23 UNL     1      71.077  60.028  65.724  1.00  0.00     0.164 C 
HETATM   23  C24 UNL     1      72.529  60.298  65.784  1.00  0.00     0.086 C 
HETATM   24  N4  UNL     1      73.308  59.073  65.766  1.00  0.00    -0.337 N 
ATOM     25  H4  UNL     1      73.403  58.634  66.682  1.00  0.00     0.168 HD
HETATM   26  C28 UNL     1      73.948  58.384  64.746  1.00  0.00     0.122 C 
HETATM   27  C29 UNL     1      73.491  57.655  63.566  1.00  0.00     0.086 C 
HETATM   28  C30 UNL     1      72.076  57.753  63.176  1.00  0.00     0.021 C 
HETATM   29  C31 UNL     1      73.996  56.205  63.589  1.00  0.00     0.138 C 
HETATM   30  C33 UNL     1      73.095  55.266  64.295  1.00  0.00     0.044 C 
HETATM   31  C34 UNL     1      72.505  54.248  63.302  1.00  0.00     0.015 C 
ENDROOT
BRANCH  19  32
HETATM   32  C16 UNL     1      68.256  62.602  65.626  1.00  0.00     0.073 C 
BRANCH  32  33
HETATM   33  C17 UNL     1      68.427  62.845  64.207  1.00  0.00    -0.053 A 
HETATM   34  C18 UNL     1      67.464  62.496  63.288  1.00  0.00     0.007 A 
HETATM   35  C19 UNL     1      67.666  62.731  61.924  1.00  0.00     0.003 A 
HETATM   36  C20 UNL     1      68.839  63.318  61.485  1.00  0.00     0.036 A 
HETATM   37  C21 UNL     1      69.802  63.668  62.399  1.00  0.00     0.066 A 
HETATM   38  C22 UNL     1      69.587  63.429  63.739  1.00  0.00     0.043 A 
BRANCH  37  39
HETATM   39  O5  UNL     1      70.999  64.260  62.025  1.00  0.00    -0.361 OA
ATOM     40  H5  UNL     1      71.826  64.039  62.438  1.00  0.00     0.217 HD
ENDBRANCH  37  39
ENDBRANCH  32  33
ENDBRANCH  19  32
BRANCH  22  41
HETATM   41  O6  UNL     1      70.785  58.764  65.898  1.00  0.00    -0.345 OA
ATOM     42  H6  UNL     1      71.309  58.317  66.552  1.00  0.00     0.219 HD
ENDBRANCH  22  41
BRANCH  23  43
HETATM   43  C25 UNL     1      73.063  61.411  64.966  1.00  0.00    -0.057 C 
HETATM   44  C26 UNL     1      74.453  61.869  65.248  1.00  0.00     0.045 C 
HETATM   45  C27 UNL     1      72.798  61.323  63.483  1.00  0.00     0.045 C 
ENDBRANCH  23  43
BRANCH  26  46
HETATM   46  O7  UNL     1      75.248  58.361  64.833  1.00  0.00    -0.349 OA
ATOM     47  H7  UNL     1      75.682  57.843  64.166  1.00  0.00     0.219 HD
ENDBRANCH  26  46
BRANCH  29  48
HETATM   48  O8  UNL     1      74.253  55.743  62.315  1.00  0.00    -0.389 OA
HETATM   49  C32 UNL     1      74.536  56.647  61.350  1.00  0.00     0.202 C 
ENDBRANCH  29  48
BRANCH   1  50
HETATM   50  O1  UNL     1      74.893  53.858  64.842  1.00  0.00    -0.386 OA
HETATM   51  C1  UNL     1      75.110  52.640  65.437  1.00  0.00     0.202 C 
ENDBRANCH   1  50
TORSDOF 8
ENDMDL
