MODEL 2
REMARK VINA RESULT: -6.843407977      6.729     10.454
REMARK  8 active torsions:
REMARK  status: ('A' for Active; 'I' for Inactive)
REMARK    1  A    between atoms: O1_2  and  C2_3 
REMARK    2  A    between atoms: C15_21  and  C16_22 
REMARK    3  A    between atoms: C16_22  and  C17_23 
REMARK    4  A    between atoms: C21_27  and  O5_28 
REMARK    5  A    between atoms: C23_33  and  O6_34 
REMARK    6  A    between atoms: C24_36  and  C25_37 
REMARK    7  A    between atoms: C28_42  and  O7_43 
REMARK    8  A    between atoms: C31_47  and  O8_48 
ROOT
HETATM    1  C2  UNL     1      69.339  51.158  67.454  1.00  0.00     0.149 C 
HETATM    2  C3  UNL     1      68.884  51.770  68.718  1.00  0.00     0.005 C 
HETATM    3  C4  UNL     1      68.910  53.054  69.020  1.00  0.00    -0.002 C 
HETATM    4  C5  UNL     1      69.397  54.125  68.161  1.00  0.00    -0.004 C 
HETATM    5  C6  UNL     1      70.658  54.287  67.771  1.00  0.00    -0.025 C 
HETATM    6  C7  UNL     1      71.779  53.397  68.153  1.00  0.00     0.054 C 
HETATM    7  C8  UNL     1      73.005  54.181  68.613  1.00  0.00     0.182 C 
HETATM    8  O2  UNL     1      74.056  53.286  68.809  1.00  0.00    -0.320 OA
HETATM    9  C9  UNL     1      75.154  53.466  69.630  1.00  0.00     0.280 C 
HETATM   10  O3  UNL     1      76.357  53.376  69.241  1.00  0.00    -0.263 OA
HETATM   11  C10 UNL     1      74.930  53.785  71.057  1.00  0.00     0.199 C 
HETATM   12  C11 UNL     1      75.320  55.218  71.391  1.00  0.00     0.035 C 
HETATM   13  C12 UNL     1      76.408  55.280  72.429  1.00  0.00     0.024 C 
HETATM   14  C13 UNL     1      75.982  54.482  73.631  1.00  0.00     0.148 C 
HETATM   15  N1  UNL     1      75.542  53.132  73.226  1.00  0.00    -0.263 N 
HETATM   16  N2  UNL     1      75.721  52.864  71.863  1.00  0.00    -0.121 NA
HETATM   17  C14 UNL     1      74.991  52.237  74.172  1.00  0.00     0.258 C 
HETATM   18  O4  UNL     1      74.502  52.812  75.208  1.00  0.00    -0.270 OA
HETATM   19  C15 UNL     1      74.943  50.769  74.055  1.00  0.00     0.181 C 
HETATM   20  N3  UNL     1      74.339  50.249  72.867  1.00  0.00    -0.355 N 
ATOM     21  H3  UNL     1      74.962  49.668  72.306  1.00  0.00     0.162 HD
HETATM   22  C23 UNL     1      73.075  50.384  72.337  1.00  0.00     0.164 C 
HETATM   23  C24 UNL     1      71.752  49.916  72.802  1.00  0.00     0.086 C 
HETATM   24  N4  UNL     1      70.733  50.077  71.782  1.00  0.00    -0.337 N 
ATOM     25  H4  UNL     1      70.332  51.014  71.746  1.00  0.00     0.168 HD
HETATM   26  C28 UNL     1      70.197  49.203  70.846  1.00  0.00     0.122 C 
HETATM   27  C29 UNL     1      70.724  48.526  69.665  1.00  0.00     0.086 C 
HETATM   28  C30 UNL     1      72.174  48.564  69.414  1.00  0.00     0.021 C 
HETATM   29  C31 UNL     1      69.902  48.878  68.418  1.00  0.00     0.138 C 
HETATM   30  C33 UNL     1      70.373  50.090  67.710  1.00  0.00     0.044 C 
HETATM   31  C34 UNL     1      70.917  49.716  66.319  1.00  0.00     0.015 C 
ENDROOT
BRANCH  19  32
HETATM   32  C16 UNL     1      76.368  50.277  74.269  1.00  0.00     0.073 C 
BRANCH  32  33
HETATM   33  C17 UNL     1      76.498  49.145  75.165  1.00  0.00    -0.053 A 
HETATM   34  C18 UNL     1      75.461  48.729  75.967  1.00  0.00     0.007 A 
HETATM   35  C19 UNL     1      75.623  47.642  76.832  1.00  0.00     0.003 A 
HETATM   36  C20 UNL     1      76.832  46.973  76.890  1.00  0.00     0.036 A 
HETATM   37  C21 UNL     1      77.871  47.385  76.091  1.00  0.00     0.066 A 
HETATM   38  C22 UNL     1      77.693  48.458  75.244  1.00  0.00     0.043 A 
BRANCH  37  39
HETATM   39  O5  UNL     1      79.107  46.759  76.100  1.00  0.00    -0.361 OA
ATOM     40  H5  UNL     1      79.715  46.822  75.371  1.00  0.00     0.217 HD
ENDBRANCH  37  39
ENDBRANCH  32  33
ENDBRANCH  19  32
BRANCH  22  41
HETATM   41  O6  UNL     1      73.015  51.047  71.209  1.00  0.00    -0.345 OA
ATOM     42  H6  UNL     1      73.806  51.018  70.684  1.00  0.00     0.219 HD
ENDBRANCH  22  41
BRANCH  23  43
HETATM   43  C25 UNL     1      71.694  48.655  73.575  1.00  0.00    -0.057 C 
HETATM   44  C26 UNL     1      72.449  47.484  73.044  1.00  0.00     0.045 C 
HETATM   45  C27 UNL     1      71.859  48.791  75.069  1.00  0.00     0.045 C 
ENDBRANCH  23  43
BRANCH  26  46
HETATM   46  O7  UNL     1      68.943  48.902  71.034  1.00  0.00    -0.349 OA
ATOM     47  H7  UNL     1      68.508  48.522  70.280  1.00  0.00     0.219 HD
ENDBRANCH  26  46
BRANCH  29  48
HETATM   48  O8  UNL     1      69.839  47.816  67.541  1.00  0.00    -0.389 OA
HETATM   49  C32 UNL     1      68.828  46.930  67.678  1.00  0.00     0.202 C 
ENDBRANCH  29  48
BRANCH   1  50
HETATM   50  O1  UNL     1      68.219  50.515  66.877  1.00  0.00    -0.386 OA
HETATM   51  C1  UNL     1      67.623  51.370  65.984  1.00  0.00     0.202 C 
ENDBRANCH   1  50
TORSDOF 8
ENDMDL
