MODEL 2
REMARK VINA RESULT: -7.182425408      2.807      3.325
REMARK  4 active torsions:
REMARK  status: ('A' for Active; 'I' for Inactive)
REMARK    1  A    between atoms: C2_2  and  C4_4 
REMARK    2  A    between atoms: C22_30  and  C23_31 
REMARK    3  A    between atoms: C23_31  and  C24_32 
REMARK    4  A    between atoms: C28_36  and  O5_37 
ROOT
HETATM    1  C4  UNL     1       1.893 -24.762  -2.026  1.00  0.00     0.180 C 
HETATM    2  N1  UNL     1       1.616 -24.364  -3.388  1.00  0.00    -0.347 N 
ATOM      3  H1  UNL     1       2.426 -24.223  -3.994  1.00  0.00     0.163 HD
HETATM    4  C5  UNL     1       0.364 -24.153  -3.965  1.00  0.00     0.218 C 
HETATM    5  O1  UNL     1       0.222 -24.394  -5.211  1.00  0.00    -0.274 OA
HETATM    6  C6  UNL     1      -0.825 -23.663  -3.227  1.00  0.00     0.103 C 
HETATM    7  C7  UNL     1      -0.909 -22.154  -3.260  1.00  0.00     0.010 C 
HETATM    8  C8  UNL     1      -1.967 -21.680  -2.323  1.00  0.00     0.004 C 
HETATM    9  C9  UNL     1      -1.364 -20.757  -1.261  1.00  0.00     0.027 C 
HETATM   10  C10 UNL     1      -1.553 -21.363   0.083  1.00  0.00    -0.027 C 
HETATM   11  C11 UNL     1      -1.741 -20.701   1.210  1.00  0.00    -0.004 C 
HETATM   12  C12 UNL     1      -1.797 -19.251   1.343  1.00  0.00    -0.004 C 
HETATM   13  C13 UNL     1      -0.843 -18.393   1.049  1.00  0.00    -0.025 C 
HETATM   14  C14 UNL     1       0.498 -18.745   0.516  1.00  0.00     0.054 C 
HETATM   15  C15 UNL     1       1.606 -18.133   1.367  1.00  0.00     0.182 C 
HETATM   16  O2  UNL     1       1.981 -18.952   2.422  1.00  0.00    -0.320 OA
HETATM   17  C16 UNL     1       2.612 -20.146   2.453  1.00  0.00     0.280 C 
HETATM   18  O3  UNL     1       2.049 -21.193   2.932  1.00  0.00    -0.263 OA
HETATM   19  C17 UNL     1       3.981 -20.315   1.940  1.00  0.00     0.199 C 
HETATM   20  C18 UNL     1       4.966 -19.294   2.469  1.00  0.00     0.035 C 
HETATM   21  C19 UNL     1       6.348 -19.853   2.110  1.00  0.00     0.024 C 
HETATM   22  C20 UNL     1       6.471 -20.083   0.630  1.00  0.00     0.148 C 
HETATM   23  N2  UNL     1       5.322 -20.877   0.194  1.00  0.00    -0.263 N 
HETATM   24  N3  UNL     1       4.067 -20.332   0.483  1.00  0.00    -0.121 NA
HETATM   25  C21 UNL     1       5.574 -22.091  -0.464  1.00  0.00     0.258 C 
HETATM   26  O4  UNL     1       6.724 -22.645  -0.328  1.00  0.00    -0.270 OA
HETATM   27  C22 UNL     1       4.594 -22.805  -1.326  1.00  0.00     0.182 C 
HETATM   28  N4  UNL     1       3.405 -23.200  -0.611  1.00  0.00    -0.346 N 
ATOM     29  H4  UNL     1       3.471 -23.154   0.405  1.00  0.00     0.163 HD
HETATM   30  C30 UNL     1       2.180 -23.634  -1.111  1.00  0.00     0.241 C 
HETATM   31  O6  UNL     1       1.133 -22.983  -0.739  1.00  0.00    -0.271 OA
ENDROOT
BRANCH  27  32
HETATM   32  C23 UNL     1       4.350 -21.928  -2.525  1.00  0.00     0.073 C 
BRANCH  32  33
HETATM   33  C24 UNL     1       5.341 -22.274  -3.573  1.00  0.00    -0.053 A 
HETATM   34  C25 UNL     1       5.465 -23.600  -3.966  1.00  0.00     0.007 A 
HETATM   35  C26 UNL     1       6.351 -24.013  -4.931  1.00  0.00     0.003 A 
HETATM   36  C27 UNL     1       7.150 -23.068  -5.534  1.00  0.00     0.036 A 
HETATM   37  C28 UNL     1       7.061 -21.751  -5.177  1.00  0.00     0.066 A 
HETATM   38  C29 UNL     1       6.154 -21.351  -4.193  1.00  0.00     0.043 A 
BRANCH  37  39
HETATM   39  O5  UNL     1       7.848 -20.771  -5.759  1.00  0.00    -0.361 OA
ATOM     40  H5  UNL     1       7.683 -20.440  -6.634  1.00  0.00     0.217 HD
ENDBRANCH  37  39
ENDBRANCH  32  33
ENDBRANCH  27  32
BRANCH   1  41
HETATM   41  C2  UNL     1       2.974 -25.816  -2.071  1.00  0.00     0.009 C 
HETATM   42  C1  UNL     1       2.597 -26.978  -1.180  1.00  0.00     0.012 C 
HETATM   43  C3  UNL     1       2.937 -26.370  -3.505  1.00  0.00     0.012 C 
ENDBRANCH   1  41
TORSDOF 4
ENDMDL
