MODEL 4
REMARK VINA RESULT: -6.857930481      2.764      3.436
REMARK  4 active torsions:
REMARK  status: ('A' for Active; 'I' for Inactive)
REMARK    1  A    between atoms: C2_2  and  C4_4 
REMARK    2  A    between atoms: C22_30  and  C23_31 
REMARK    3  A    between atoms: C23_31  and  C24_32 
REMARK    4  A    between atoms: C28_36  and  O5_37 
ROOT
HETATM    1  C4  UNL     1       2.168 -24.216  -2.519  1.00  0.00     0.180 C 
HETATM    2  N1  UNL     1       1.815 -23.617  -3.786  1.00  0.00    -0.347 N 
ATOM      3  H1  UNL     1       2.588 -23.283  -4.362  1.00  0.00     0.163 HD
HETATM    4  C5  UNL     1       0.532 -23.446  -4.308  1.00  0.00     0.218 C 
HETATM    5  O1  UNL     1       0.384 -23.477  -5.575  1.00  0.00    -0.274 OA
HETATM    6  C6  UNL     1      -0.683 -23.229  -3.485  1.00  0.00     0.103 C 
HETATM    7  C7  UNL     1      -0.929 -21.757  -3.248  1.00  0.00     0.010 C 
HETATM    8  C8  UNL     1      -2.007 -21.575  -2.234  1.00  0.00     0.004 C 
HETATM    9  C9  UNL     1      -1.479 -20.795  -1.029  1.00  0.00     0.027 C 
HETATM   10  C10 UNL     1      -1.566 -21.645   0.187  1.00  0.00    -0.027 C 
HETATM   11  C11 UNL     1      -1.794 -21.218   1.416  1.00  0.00    -0.004 C 
HETATM   12  C12 UNL     1      -2.002 -19.830   1.806  1.00  0.00    -0.004 C 
HETATM   13  C13 UNL     1      -1.154 -18.834   1.663  1.00  0.00    -0.025 C 
HETATM   14  C14 UNL     1       0.203 -18.935   1.067  1.00  0.00     0.054 C 
HETATM   15  C15 UNL     1       1.260 -18.365   2.006  1.00  0.00     0.182 C 
HETATM   16  O2  UNL     1       1.749 -19.312   2.895  1.00  0.00    -0.320 OA
HETATM   17  C16 UNL     1       2.505 -20.415   2.708  1.00  0.00     0.280 C 
HETATM   18  O3  UNL     1       2.071 -21.586   2.996  1.00  0.00    -0.263 OA
HETATM   19  C17 UNL     1       3.870 -20.338   2.164  1.00  0.00     0.199 C 
HETATM   20  C18 UNL     1       4.753 -19.325   2.860  1.00  0.00     0.035 C 
HETATM   21  C19 UNL     1       6.178 -19.656   2.398  1.00  0.00     0.024 C 
HETATM   22  C20 UNL     1       6.286 -19.605   0.900  1.00  0.00     0.148 C 
HETATM   23  N2  UNL     1       5.217 -20.432   0.336  1.00  0.00    -0.263 N 
HETATM   24  N3  UNL     1       3.919 -20.088   0.727  1.00  0.00    -0.121 NA
HETATM   25  C21 UNL     1       5.581 -21.475  -0.530  1.00  0.00     0.258 C 
HETATM   26  O4  UNL     1       6.787 -21.914  -0.503  1.00  0.00    -0.270 OA
HETATM   27  C22 UNL     1       4.661 -22.128  -1.499  1.00  0.00     0.182 C 
HETATM   28  N4  UNL     1       3.540 -22.772  -0.858  1.00  0.00    -0.346 N 
ATOM     29  H4  UNL     1       3.628 -22.900   0.150  1.00  0.00     0.163 HD
HETATM   30  C30 UNL     1       2.356 -23.244  -1.419  1.00  0.00     0.241 C 
HETATM   31  O6  UNL     1       1.256 -22.788  -0.929  1.00  0.00    -0.271 OA
ENDROOT
BRANCH  27  32
HETATM   32  C23 UNL     1       4.293 -21.086  -2.520  1.00  0.00     0.073 C 
BRANCH  32  33
HETATM   33  C24 UNL     1       4.960 -21.423  -3.801  1.00  0.00    -0.053 A 
HETATM   34  C25 UNL     1       4.212 -21.403  -4.971  1.00  0.00     0.007 A 
HETATM   35  C26 UNL     1       4.745 -21.695  -6.203  1.00  0.00     0.003 A 
HETATM   36  C27 UNL     1       6.080 -22.024  -6.278  1.00  0.00     0.036 A 
HETATM   37  C28 UNL     1       6.853 -22.055  -5.150  1.00  0.00     0.066 A 
HETATM   38  C29 UNL     1       6.293 -21.755  -3.907  1.00  0.00     0.043 A 
BRANCH  37  39
HETATM   39  O5  UNL     1       8.199 -22.381  -5.184  1.00  0.00    -0.361 OA
ATOM     40  H5  UNL     1       8.507 -23.244  -5.436  1.00  0.00     0.217 HD
ENDBRANCH  37  39
ENDBRANCH  32  33
ENDBRANCH  27  32
BRANCH   1  41
HETATM   41  C2  UNL     1       3.355 -25.120  -2.759  1.00  0.00     0.009 C 
HETATM   42  C1  UNL     1       2.913 -26.566  -2.737  1.00  0.00     0.012 C 
HETATM   43  C3  UNL     1       3.783 -24.845  -4.210  1.00  0.00     0.012 C 
ENDBRANCH   1  41
TORSDOF 4
ENDMDL
