MODEL 3
REMARK VINA RESULT: -7.032179581      0.999      1.255
REMARK  4 active torsions:
REMARK  status: ('A' for Active; 'I' for Inactive)
REMARK    1  A    between atoms: C2_2  and  C4_4 
REMARK    2  A    between atoms: C22_30  and  C23_31 
REMARK    3  A    between atoms: C23_31  and  C24_32 
REMARK    4  A    between atoms: C28_36  and  O5_37 
ROOT
HETATM    1  C4  UNL     1       3.348 -24.010  -4.655  1.00  0.00     0.180 C 
HETATM    2  N1  UNL     1       4.018 -23.773  -5.914  1.00  0.00    -0.347 N 
ATOM      3  H1  UNL     1       5.022 -23.953  -5.934  1.00  0.00     0.163 HD
HETATM    4  C5  UNL     1       3.442 -23.327  -7.103  1.00  0.00     0.218 C 
HETATM    5  O1  UNL     1       3.953 -23.715  -8.207  1.00  0.00    -0.274 OA
HETATM    6  C6  UNL     1       2.267 -22.425  -7.177  1.00  0.00     0.103 C 
HETATM    7  C7  UNL     1       2.690 -20.974  -7.210  1.00  0.00     0.010 C 
HETATM    8  C8  UNL     1       1.501 -20.091  -7.046  1.00  0.00     0.004 C 
HETATM    9  C9  UNL     1       1.659 -19.208  -5.807  1.00  0.00     0.027 C 
HETATM   10  C10 UNL     1       0.575 -19.519  -4.837  1.00  0.00    -0.027 C 
HETATM   11  C11 UNL     1       0.007 -18.662  -4.010  1.00  0.00    -0.004 C 
HETATM   12  C12 UNL     1       0.341 -17.248  -3.893  1.00  0.00    -0.004 C 
HETATM   13  C13 UNL     1       1.505 -16.736  -3.556  1.00  0.00    -0.025 C 
HETATM   14  C14 UNL     1       2.726 -17.515  -3.223  1.00  0.00     0.054 C 
HETATM   15  C15 UNL     1       3.293 -17.097  -1.871  1.00  0.00     0.182 C 
HETATM   16  O2  UNL     1       2.739 -17.809  -0.818  1.00  0.00    -0.320 OA
HETATM   17  C16 UNL     1       2.836 -19.108  -0.460  1.00  0.00     0.280 C 
HETATM   18  O3  UNL     1       1.810 -19.875  -0.425  1.00  0.00    -0.263 OA
HETATM   19  C17 UNL     1       4.123 -19.718  -0.090  1.00  0.00     0.199 C 
HETATM   20  C18 UNL     1       4.903 -18.929   0.941  1.00  0.00     0.035 C 
HETATM   21  C19 UNL     1       5.993 -19.888   1.433  1.00  0.00     0.024 C 
HETATM   22  C20 UNL     1       6.842 -20.374   0.292  1.00  0.00     0.148 C 
HETATM   23  N2  UNL     1       5.954 -20.890  -0.751  1.00  0.00    -0.263 N 
HETATM   24  N3  UNL     1       4.997 -19.988  -1.227  1.00  0.00    -0.121 NA
HETATM   25  C21 UNL     1       6.138 -22.215  -1.175  1.00  0.00     0.258 C 
HETATM   26  O4  UNL     1       6.775 -23.029  -0.414  1.00  0.00    -0.270 OA
HETATM   27  C22 UNL     1       5.643 -22.766  -2.465  1.00  0.00     0.182 C 
HETATM   28  N4  UNL     1       4.207 -22.708  -2.583  1.00  0.00    -0.346 N 
ATOM     29  H4  UNL     1       3.704 -22.521  -1.715  1.00  0.00     0.163 HD
HETATM   30  C30 UNL     1       3.408 -22.871  -3.712  1.00  0.00     0.241 C 
HETATM   31  O6  UNL     1       2.597 -21.911  -3.997  1.00  0.00    -0.271 OA
ENDROOT
BRANCH  27  32
HETATM   32  C23 UNL     1       6.397 -22.057  -3.558  1.00  0.00     0.073 C 
BRANCH  32  33
HETATM   33  C24 UNL     1       7.378 -23.003  -4.146  1.00  0.00    -0.053 A 
HETATM   34  C25 UNL     1       8.370 -23.530  -3.331  1.00  0.00     0.007 A 
HETATM   35  C26 UNL     1       9.317 -24.415  -3.784  1.00  0.00     0.003 A 
HETATM   36  C27 UNL     1       9.279 -24.794  -5.107  1.00  0.00     0.036 A 
HETATM   37  C28 UNL     1       8.318 -24.299  -5.945  1.00  0.00     0.066 A 
HETATM   38  C29 UNL     1       7.364 -23.400  -5.465  1.00  0.00     0.043 A 
BRANCH  37  39
HETATM   39  O5  UNL     1       8.246 -24.655  -7.282  1.00  0.00    -0.361 OA
ATOM     40  H5  UNL     1       7.645 -24.237  -7.887  1.00  0.00     0.217 HD
ENDBRANCH  37  39
ENDBRANCH  32  33
ENDBRANCH  27  32
BRANCH   1  41
HETATM   41  C2  UNL     1       3.877 -25.309  -4.095  1.00  0.00     0.009 C 
HETATM   42  C1  UNL     1       2.736 -26.276  -3.872  1.00  0.00     0.012 C 
HETATM   43  C3  UNL     1       4.718 -25.922  -5.227  1.00  0.00     0.012 C 
ENDBRANCH   1  41
TORSDOF 4
ENDMDL
