MODEL 2
REMARK VINA RESULT: -7.053159940      4.711      8.467
REMARK  5 active torsions:
REMARK  status: ('A' for Active; 'I' for Inactive)
REMARK    1  A    between atoms: O1_2  and  C2_3 
REMARK    2  A    between atoms: C20_26  and  C21_27 
REMARK    3  A    between atoms: C21_27  and  C22_28 
REMARK    4  A    between atoms: C26_32  and  O5_33 
REMARK    5  A    between atoms: C29_40  and  C30_41 
ROOT
HETATM    1  C2  UNL     1      19.065  -9.518  13.957  1.00  0.00     0.133 C 
HETATM    2  C3  UNL     1      18.709  -9.972  15.353  1.00  0.00     0.036 C 
HETATM    3  C4  UNL     1      19.828 -10.728  15.991  1.00  0.00     0.029 C 
HETATM    4  C5  UNL     1      20.766  -9.764  16.642  1.00  0.00    -0.026 C 
HETATM    5  C6  UNL     1      20.679  -9.570  17.946  1.00  0.00     0.007 C 
HETATM    6  C7  UNL     1      19.784 -10.147  18.957  1.00  0.00    -0.036 A 
HETATM    7  C8  UNL     1      20.552 -10.498  20.102  1.00  0.00     0.011 A 
HETATM    8  C9  UNL     1      20.023 -11.059  21.228  1.00  0.00     0.001 A 
HETATM    9  C10 UNL     1      18.664 -11.264  21.175  1.00  0.00     0.009 A 
HETATM   10  C11 UNL     1      17.859 -10.937  20.072  1.00  0.00    -0.033 A 
HETATM   11  C12 UNL     1      18.431 -10.368  18.946  1.00  0.00     0.020 A 
HETATM   12  C13 UNL     1      16.434 -11.289  20.343  1.00  0.00     0.217 C 
HETATM   13  O2  UNL     1      15.562 -10.220  20.567  1.00  0.00    -0.316 OA
HETATM   14  C14 UNL     1      15.007  -9.347  19.672  1.00  0.00     0.280 C 
HETATM   15  O3  UNL     1      15.370  -8.167  19.430  1.00  0.00    -0.263 OA
HETATM   16  C15 UNL     1      13.833  -9.820  18.879  1.00  0.00     0.199 C 
HETATM   17  C16 UNL     1      13.094 -10.811  19.720  1.00  0.00     0.035 C 
HETATM   18  C17 UNL     1      11.847 -11.232  18.934  1.00  0.00     0.024 C 
HETATM   19  C18 UNL     1      12.406 -11.810  17.637  1.00  0.00     0.148 C 
HETATM   20  N1  UNL     1      13.109 -10.742  16.896  1.00  0.00    -0.259 N 
HETATM   21  N2  UNL     1      14.252 -10.309  17.576  1.00  0.00    -0.121 NA
HETATM   22  C19 UNL     1      12.636 -10.246  15.676  1.00  0.00     0.282 C 
HETATM   23  O4  UNL     1      11.348 -10.097  15.627  1.00  0.00    -0.265 OA
HETATM   24  C20 UNL     1      13.351  -9.867  14.449  1.00  0.00     0.086 C 
HETATM   25  N3  UNL     1      13.388  -8.437  14.214  1.00  0.00    -0.324 N 
ATOM     26  H3  UNL     1      12.593  -8.101  13.671  1.00  0.00     0.169 HD
HETATM   27  C28 UNL     1      14.264  -7.436  14.564  1.00  0.00     0.245 C 
HETATM   28  O6  UNL     1      13.824  -6.563  15.419  1.00  0.00    -0.271 OA
HETATM   29  C29 UNL     1      15.651  -7.102  14.179  1.00  0.00     0.180 C 
HETATM   30  N4  UNL     1      16.129  -7.779  12.997  1.00  0.00    -0.347 N 
ATOM     31  H4  UNL     1      15.430  -8.053  12.307  1.00  0.00     0.163 HD
HETATM   32  C33 UNL     1      17.459  -8.093  12.709  1.00  0.00     0.224 C 
HETATM   33  O7  UNL     1      17.785  -8.395  11.532  1.00  0.00    -0.273 OA
HETATM   34  C34 UNL     1      18.582  -8.110  13.691  1.00  0.00     0.103 C 
HETATM   35  C35 UNL     1      19.769  -7.325  13.190  1.00  0.00     0.022 C 
ENDROOT
BRANCH  24  36
HETATM   36  C21 UNL     1      14.621 -10.595  14.160  1.00  0.00     0.101 C 
BRANCH  36  37
HETATM   37  C22 UNL     1      14.590 -11.316  12.845  1.00  0.00    -0.050 A 
HETATM   38  C23 UNL     1      14.189 -12.621  12.736  1.00  0.00     0.007 A 
HETATM   39  C24 UNL     1      14.153 -13.273  11.496  1.00  0.00     0.003 A 
HETATM   40  C25 UNL     1      14.531 -12.567  10.385  1.00  0.00     0.036 A 
HETATM   41  C26 UNL     1      14.938 -11.242  10.493  1.00  0.00     0.066 A 
HETATM   42  C27 UNL     1      14.973 -10.611  11.702  1.00  0.00     0.044 A 
BRANCH  41  43
HETATM   43  O5  UNL     1      15.311 -10.568   9.351  1.00  0.00    -0.361 OA
ATOM     44  H5  UNL     1      15.036  -9.665   9.243  1.00  0.00     0.217 HD
ENDBRANCH  41  43
ENDBRANCH  36  37
ENDBRANCH  24  36
BRANCH  29  45
HETATM   45  C30 UNL     1      15.782  -5.579  14.019  1.00  0.00     0.009 C 
HETATM   46  C31 UNL     1      16.984  -5.051  14.723  1.00  0.00     0.012 C 
HETATM   47  C32 UNL     1      15.726  -5.189  12.562  1.00  0.00     0.012 C 
ENDBRANCH  29  45
BRANCH   1  48
HETATM   48  O1  UNL     1      18.586 -10.410  12.992  1.00  0.00    -0.390 OA
HETATM   49  C1  UNL     1      19.616 -11.159  12.426  1.00  0.00     0.202 C 
ENDBRANCH   1  48
TORSDOF 5
ENDMDL
