MODEL 3
REMARK VINA RESULT: -6.929368107      5.279      9.501
REMARK  5 active torsions:
REMARK  status: ('A' for Active; 'I' for Inactive)
REMARK    1  A    between atoms: O1_2  and  C2_3 
REMARK    2  A    between atoms: C20_26  and  C21_27 
REMARK    3  A    between atoms: C21_27  and  C22_28 
REMARK    4  A    between atoms: C26_32  and  O5_33 
REMARK    5  A    between atoms: C29_40  and  C30_41 
ROOT
HETATM    1  C2  UNL     1      16.301 -11.969  10.415  1.00  0.00     0.133 C 
HETATM    2  C3  UNL     1      15.473 -11.793  11.666  1.00  0.00     0.036 C 
HETATM    3  C4  UNL     1      14.027 -12.067  11.415  1.00  0.00     0.029 C 
HETATM    4  C5  UNL     1      13.770 -13.531  11.561  1.00  0.00    -0.026 C 
HETATM    5  C6  UNL     1      13.253 -13.980  12.691  1.00  0.00     0.007 C 
HETATM    6  C7  UNL     1      12.852 -13.284  13.921  1.00  0.00    -0.036 A 
HETATM    7  C8  UNL     1      11.593 -13.790  14.345  1.00  0.00     0.011 A 
HETATM    8  C9  UNL     1      10.937 -13.357  15.460  1.00  0.00     0.001 A 
HETATM    9  C10 UNL     1      11.596 -12.374  16.161  1.00  0.00     0.009 A 
HETATM   10  C11 UNL     1      12.840 -11.839  15.787  1.00  0.00    -0.033 A 
HETATM   11  C12 UNL     1      13.477 -12.304  14.649  1.00  0.00     0.020 A 
HETATM   12  C13 UNL     1      13.271 -10.794  16.762  1.00  0.00     0.217 C 
HETATM   13  O2  UNL     1      14.324 -11.138  17.616  1.00  0.00    -0.316 OA
HETATM   14  C14 UNL     1      15.664 -11.219  17.357  1.00  0.00     0.280 C 
HETATM   15  O3  UNL     1      16.340 -12.260  17.149  1.00  0.00    -0.263 OA
HETATM   16  C15 UNL     1      16.441  -9.944  17.312  1.00  0.00     0.199 C 
HETATM   17  C16 UNL     1      15.780  -8.983  18.248  1.00  0.00     0.035 C 
HETATM   18  C17 UNL     1      16.628  -7.707  18.259  1.00  0.00     0.024 C 
HETATM   19  C18 UNL     1      16.631  -7.253  16.802  1.00  0.00     0.148 C 
HETATM   20  N1  UNL     1      17.309  -8.278  15.980  1.00  0.00    -0.259 N 
HETATM   21  N2  UNL     1      16.584  -9.474  15.944  1.00  0.00    -0.121 NA
HETATM   22  C19 UNL     1      18.535  -8.036  15.351  1.00  0.00     0.282 C 
HETATM   23  O4  UNL     1      19.379  -7.364  16.072  1.00  0.00    -0.265 OA
HETATM   24  C20 UNL     1      19.024  -8.417  14.018  1.00  0.00     0.086 C 
HETATM   25  N3  UNL     1      20.039  -9.452  14.042  1.00  0.00    -0.324 N 
ATOM     26  H3  UNL     1      20.986  -9.082  14.116  1.00  0.00     0.169 HD
HETATM   27  C28 UNL     1      19.999 -10.827  13.988  1.00  0.00     0.245 C 
HETATM   28  O6  UNL     1      20.350 -11.453  15.071  1.00  0.00    -0.271 OA
HETATM   29  C29 UNL     1      19.638 -11.804  12.941  1.00  0.00     0.180 C 
HETATM   30  N4  UNL     1      19.564 -11.260  11.606  1.00  0.00    -0.347 N 
ATOM     31  H4  UNL     1      20.146 -10.447  11.406  1.00  0.00     0.163 HD
HETATM   32  C33 UNL     1      18.769 -11.741  10.563  1.00  0.00     0.224 C 
HETATM   33  O7  UNL     1      19.017 -11.389   9.380  1.00  0.00    -0.273 OA
HETATM   34  C34 UNL     1      17.609 -12.668  10.709  1.00  0.00     0.103 C 
HETATM   35  C35 UNL     1      17.708 -13.834   9.756  1.00  0.00     0.022 C 
ENDROOT
BRANCH  24  36
HETATM   36  C21 UNL     1      18.001  -8.551  12.940  1.00  0.00     0.101 C 
BRANCH  36  37
HETATM   37  C22 UNL     1      17.197  -7.300  12.745  1.00  0.00    -0.050 A 
HETATM   38  C23 UNL     1      17.753  -6.140  12.275  1.00  0.00     0.007 A 
HETATM   39  C24 UNL     1      16.981  -4.985  12.085  1.00  0.00     0.003 A 
HETATM   40  C25 UNL     1      15.646  -5.045  12.385  1.00  0.00     0.036 A 
HETATM   41  C26 UNL     1      15.080  -6.222  12.862  1.00  0.00     0.066 A 
HETATM   42  C27 UNL     1      15.834  -7.343  13.046  1.00  0.00     0.044 A 
BRANCH  41  43
HETATM   43  O5  UNL     1      13.733  -6.239  13.151  1.00  0.00    -0.361 OA
ATOM     44  H5  UNL     1      13.310  -7.076  13.304  1.00  0.00     0.217 HD
ENDBRANCH  41  43
ENDBRANCH  36  37
ENDBRANCH  24  36
BRANCH  29  45
HETATM   45  C30 UNL     1      20.618 -12.987  12.988  1.00  0.00     0.009 C 
HETATM   46  C31 UNL     1      19.908 -14.295  12.956  1.00  0.00     0.012 C 
HETATM   47  C32 UNL     1      21.667 -12.853  11.910  1.00  0.00     0.012 C 
ENDBRANCH  29  45
BRANCH   1  48
HETATM   48  O1  UNL     1      16.512 -10.748   9.766  1.00  0.00    -0.390 OA
HETATM   49  C1  UNL     1      15.878 -10.706   8.526  1.00  0.00     0.202 C 
ENDBRANCH   1  48
TORSDOF 5
ENDMDL
