MODEL 1
REMARK VINA RESULT: -7.157091342      0.000      0.000
REMARK  5 active torsions:
REMARK  status: ('A' for Active; 'I' for Inactive)
REMARK    1  A    between atoms: O1_2  and  C2_3 
REMARK    2  A    between atoms: C20_26  and  C21_27 
REMARK    3  A    between atoms: C21_27  and  C22_28 
REMARK    4  A    between atoms: C26_32  and  O5_33 
REMARK    5  A    between atoms: C29_40  and  C30_41 
ROOT
HETATM    1  C2  UNL     1      12.853  -9.436  15.553  1.00  0.00     0.133 C 
HETATM    2  C3  UNL     1      12.499 -10.797  15.001  1.00  0.00     0.036 C 
HETATM    3  C4  UNL     1      13.488 -11.254  13.981  1.00  0.00     0.029 C 
HETATM    4  C5  UNL     1      14.628 -11.932  14.669  1.00  0.00    -0.026 C 
HETATM    5  C6  UNL     1      14.656 -13.252  14.711  1.00  0.00     0.007 C 
HETATM    6  C7  UNL     1      13.728 -14.261  14.185  1.00  0.00    -0.036 A 
HETATM    7  C8  UNL     1      14.480 -15.294  13.560  1.00  0.00     0.011 A 
HETATM    8  C9  UNL     1      13.920 -16.389  12.969  1.00  0.00     0.001 A 
HETATM    9  C10 UNL     1      12.546 -16.423  13.023  1.00  0.00     0.009 A 
HETATM   10  C11 UNL     1      11.755 -15.431  13.626  1.00  0.00    -0.033 A 
HETATM   11  C12 UNL     1      12.359 -14.334  14.217  1.00  0.00     0.020 A 
HETATM   12  C13 UNL     1      10.308 -15.775  13.508  1.00  0.00     0.217 C 
HETATM   13  O2  UNL     1       9.670 -16.186  14.682  1.00  0.00    -0.316 OA
HETATM   14  C14 UNL     1       9.240 -15.441  15.745  1.00  0.00     0.280 C 
HETATM   15  O3  UNL     1       9.806 -15.305  16.861  1.00  0.00    -0.263 OA
HETATM   16  C15 UNL     1       7.953 -14.697  15.597  1.00  0.00     0.199 C 
HETATM   17  C16 UNL     1       7.089 -15.479  14.660  1.00  0.00     0.035 C 
HETATM   18  C17 UNL     1       5.741 -14.753  14.575  1.00  0.00     0.024 C 
HETATM   19  C18 UNL     1       6.104 -13.359  14.070  1.00  0.00     0.148 C 
HETATM   20  N1  UNL     1       6.954 -12.688  15.077  1.00  0.00    -0.259 N 
HETATM   21  N2  UNL     1       8.196 -13.318  15.206  1.00  0.00    -0.121 NA
HETATM   22  C19 UNL     1       6.513 -11.573  15.799  1.00  0.00     0.282 C 
HETATM   23  O4  UNL     1       5.276 -11.645  16.185  1.00  0.00    -0.265 OA
HETATM   24  C20 UNL     1       7.215 -10.343  16.191  1.00  0.00     0.086 C 
HETATM   25  N3  UNL     1       7.510 -10.266  17.609  1.00  0.00    -0.324 N 
ATOM     26  H3  UNL     1       6.763  -9.830  18.149  1.00  0.00     0.169 HD
HETATM   27  C28 UNL     1       8.580 -10.655  18.382  1.00  0.00     0.245 C 
HETATM   28  O6  UNL     1       8.363 -11.635  19.207  1.00  0.00    -0.271 OA
HETATM   29  C29 UNL     1       9.979 -10.199  18.503  1.00  0.00     0.180 C 
HETATM   30  N4  UNL     1      10.251  -8.915  17.904  1.00  0.00    -0.347 N 
ATOM     31  H4  UNL     1       9.474  -8.257  17.850  1.00  0.00     0.163 HD
HETATM   32  C33 UNL     1      11.478  -8.488  17.391  1.00  0.00     0.224 C 
HETATM   33  O7  UNL     1      11.672  -7.262  17.184  1.00  0.00    -0.273 OA
HETATM   34  C34 UNL     1      12.632  -9.369  17.048  1.00  0.00     0.103 C 
HETATM   35  C35 UNL     1      13.916  -8.865  17.660  1.00  0.00     0.022 C 
ENDROOT
BRANCH  24  36
HETATM   36  C21 UNL     1       8.305  -9.873  15.287  1.00  0.00     0.101 C 
BRANCH  36  37
HETATM   37  C22 UNL     1       7.907  -8.678  14.471  1.00  0.00    -0.050 A 
HETATM   38  C23 UNL     1       8.820  -7.936  13.770  1.00  0.00     0.007 A 
HETATM   39  C24 UNL     1       8.427  -6.831  13.002  1.00  0.00     0.003 A 
HETATM   40  C25 UNL     1       7.096  -6.509  12.969  1.00  0.00     0.036 A 
HETATM   41  C26 UNL     1       6.168  -7.262  13.680  1.00  0.00     0.066 A 
HETATM   42  C27 UNL     1       6.555  -8.336  14.427  1.00  0.00     0.044 A 
BRANCH  41  43
HETATM   43  O5  UNL     1       4.839  -6.904  13.620  1.00  0.00    -0.361 OA
ATOM     44  H5  UNL     1       4.239  -7.266  14.261  1.00  0.00     0.217 HD
ENDBRANCH  41  43
ENDBRANCH  36  37
ENDBRANCH  24  36
BRANCH  29  45
HETATM   45  C30 UNL     1      10.389 -10.201  19.985  1.00  0.00     0.009 C 
HETATM   46  C31 UNL     1      11.755 -10.762  20.181  1.00  0.00     0.012 C 
HETATM   47  C32 UNL     1      10.218  -8.827  20.587  1.00  0.00     0.012 C 
ENDBRANCH  29  45
BRANCH   1  48
HETATM   48  O1  UNL     1      12.158  -8.419  14.891  1.00  0.00    -0.390 OA
HETATM   49  C1  UNL     1      13.023  -7.557  14.219  1.00  0.00     0.202 C 
ENDBRANCH   1  48
TORSDOF 5
ENDMDL
