MODEL 1
REMARK VINA RESULT: -7.119588957      0.000      0.000
REMARK  3 active torsions:
REMARK  status: ('A' for Active; 'I' for Inactive)
REMARK    1  A    between atoms: O1_2  and  C2_3 
REMARK    2  A    between atoms: C24_33  and  C25_34 
REMARK    3  A    between atoms: C28_39  and  O6_40 
ROOT
HETATM    1  C2  UNL     1      14.231  26.505   2.779  1.00  0.00     0.132 C 
HETATM    2  C3  UNL     1      13.448  26.086   1.584  1.00  0.00     0.036 C 
HETATM    3  C4  UNL     1      11.930  26.147   1.801  1.00  0.00     0.029 C 
HETATM    4  C5  UNL     1      11.493  27.487   1.251  1.00  0.00    -0.026 C 
HETATM    5  C6  UNL     1      10.474  27.580   0.420  1.00  0.00     0.007 C 
HETATM    6  C7  UNL     1       9.572  26.577  -0.152  1.00  0.00    -0.036 A 
HETATM    7  C8  UNL     1       9.376  26.867  -1.533  1.00  0.00     0.011 A 
HETATM    8  C9  UNL     1       8.584  26.126  -2.365  1.00  0.00     0.001 A 
HETATM    9  C10 UNL     1       7.972  25.059  -1.771  1.00  0.00     0.010 A 
HETATM   10  C11 UNL     1       8.135  24.728  -0.397  1.00  0.00    -0.028 A 
HETATM   11  C12 UNL     1       8.937  25.490   0.413  1.00  0.00     0.021 A 
HETATM   12  C13 UNL     1       7.324  23.485  -0.150  1.00  0.00     0.160 C 
HETATM   13  C14 UNL     1       5.937  23.806  -0.805  1.00  0.00     0.045 C 
HETATM   14  O2  UNL     1       7.871  22.362  -0.709  1.00  0.00    -0.310 OA
HETATM   15  C15 UNL     1       8.454  21.752  -1.686  1.00  0.00     0.280 C 
HETATM   16  O3  UNL     1       8.512  22.030  -2.916  1.00  0.00    -0.263 OA
HETATM   17  C16 UNL     1       9.230  20.468  -1.398  1.00  0.00     0.199 C 
HETATM   18  C17 UNL     1       9.150  20.101   0.062  1.00  0.00     0.035 C 
HETATM   19  C18 UNL     1       9.782  18.741   0.217  1.00  0.00     0.024 C 
HETATM   20  C19 UNL     1      10.705  18.433  -0.948  1.00  0.00     0.148 C 
HETATM   21  N1  UNL     1      11.413  19.707  -1.224  1.00  0.00    -0.263 N 
HETATM   22  N2  UNL     1      10.584  20.636  -1.869  1.00  0.00    -0.121 NA
HETATM   23  C20 UNL     1      12.752  19.876  -0.858  1.00  0.00     0.257 C 
HETATM   24  O4  UNL     1      13.547  18.942  -1.244  1.00  0.00    -0.270 OA
HETATM   25  C21 UNL     1      13.391  20.966  -0.096  1.00  0.00     0.174 C 
HETATM   26  C22 UNL     1      12.618  22.244  -0.035  1.00  0.00     0.042 C 
HETATM   27  N3  UNL     1      14.755  21.128  -0.521  1.00  0.00    -0.346 N 
ATOM     28  H3  UNL     1      14.978  20.696  -1.418  1.00  0.00     0.163 HD
HETATM   29  C23 UNL     1      15.819  21.780   0.093  1.00  0.00     0.241 C 
HETATM   30  O5  UNL     1      16.929  21.186   0.359  1.00  0.00    -0.271 OA
HETATM   31  C24 UNL     1      15.856  23.235   0.534  1.00  0.00     0.178 C 
HETATM   32  N4  UNL     1      15.612  23.233   1.957  1.00  0.00    -0.360 N 
ATOM     33  H4  UNL     1      16.010  22.431   2.444  1.00  0.00     0.162 HD
HETATM   34  C28 UNL     1      14.938  24.118   2.787  1.00  0.00     0.118 C 
HETATM   35  C29 UNL     1      15.277  25.487   3.226  1.00  0.00     0.085 C 
HETATM   36  C30 UNL     1      15.308  25.481   4.780  1.00  0.00     0.021 C 
ENDROOT
BRANCH  31  37
HETATM   37  C25 UNL     1      17.270  23.762   0.191  1.00  0.00     0.009 C 
HETATM   38  C26 UNL     1      17.150  25.139  -0.448  1.00  0.00     0.012 C 
HETATM   39  C27 UNL     1      18.103  23.978   1.433  1.00  0.00     0.012 C 
ENDBRANCH  31  37
BRANCH  34  40
HETATM   40  O6  UNL     1      13.806  23.713   3.295  1.00  0.00    -0.349 OA
ATOM     41  H6  UNL     1      13.463  24.203   4.033  1.00  0.00     0.219 HD
ENDBRANCH  34  40
BRANCH   1  42
HETATM   42  O1  UNL     1      13.428  26.813   3.876  1.00  0.00    -0.390 OA
HETATM   43  C1  UNL     1      13.559  28.160   4.216  1.00  0.00     0.202 C 
ENDBRANCH   1  42
TORSDOF 3
ENDMDL
