MODEL 3
REMARK VINA RESULT: -6.819486037      6.858     12.449
REMARK  3 active torsions:
REMARK  status: ('A' for Active; 'I' for Inactive)
REMARK    1  A    between atoms: O1_2  and  C2_3 
REMARK    2  A    between atoms: C24_33  and  C25_34 
REMARK    3  A    between atoms: C28_39  and  O6_40 
ROOT
HETATM    1  C2  UNL     1       5.884  13.478   5.809  1.00  0.00     0.132 C 
HETATM    2  C3  UNL     1       6.397  13.341   4.418  1.00  0.00     0.036 C 
HETATM    3  C4  UNL     1       7.905  13.067   4.350  1.00  0.00     0.029 C 
HETATM    4  C5  UNL     1       8.041  11.565   4.232  1.00  0.00    -0.026 C 
HETATM    5  C6  UNL     1       8.810  11.023   3.309  1.00  0.00     0.007 C 
HETATM    6  C7  UNL     1       9.654  11.605   2.261  1.00  0.00    -0.036 A 
HETATM    7  C8  UNL     1       9.475  10.862   1.060  1.00  0.00     0.011 A 
HETATM    8  C9  UNL     1      10.121  11.138  -0.113  1.00  0.00     0.001 A 
HETATM    9  C10 UNL     1      10.974  12.202  -0.059  1.00  0.00     0.010 A 
HETATM   10  C11 UNL     1      11.188  12.975   1.116  1.00  0.00    -0.028 A 
HETATM   11  C12 UNL     1      10.526  12.675   2.278  1.00  0.00     0.021 A 
HETATM   12  C13 UNL     1      12.170  14.056   0.753  1.00  0.00     0.160 C 
HETATM   13  C14 UNL     1      13.311  13.289   0.001  1.00  0.00     0.045 C 
HETATM   14  O2  UNL     1      11.634  15.026  -0.050  1.00  0.00    -0.310 OA
HETATM   15  C15 UNL     1      10.904  15.394  -1.048  1.00  0.00     0.280 C 
HETATM   16  O3  UNL     1      10.518  14.758  -2.068  1.00  0.00    -0.263 OA
HETATM   17  C16 UNL     1      10.372  16.826  -1.088  1.00  0.00     0.199 C 
HETATM   18  C17 UNL     1      10.844  17.613   0.108  1.00  0.00     0.035 C 
HETATM   19  C18 UNL     1      10.426  19.046  -0.107  1.00  0.00     0.024 C 
HETATM   20  C19 UNL     1       9.290  19.138  -1.108  1.00  0.00     0.148 C 
HETATM   21  N1  UNL     1       8.396  18.000  -0.780  1.00  0.00    -0.263 N 
HETATM   22  N2  UNL     1       8.934  16.776  -1.204  1.00  0.00    -0.121 NA
HETATM   23  C20 UNL     1       7.176  18.211  -0.131  1.00  0.00     0.257 C 
HETATM   24  O4  UNL     1       6.422  19.108  -0.661  1.00  0.00    -0.270 OA
HETATM   25  C21 UNL     1       6.622  17.560   1.071  1.00  0.00     0.174 C 
HETATM   26  C22 UNL     1       7.237  16.245   1.429  1.00  0.00     0.042 C 
HETATM   27  N3  UNL     1       5.186  17.532   0.997  1.00  0.00    -0.346 N 
ATOM     28  H3  UNL     1       4.803  17.691   0.066  1.00  0.00     0.163 HD
HETATM   29  C23 UNL     1       4.237  17.321   1.991  1.00  0.00     0.241 C 
HETATM   30  O5  UNL     1       3.299  18.166   2.238  1.00  0.00    -0.271 OA
HETATM   31  C24 UNL     1       4.143  16.114   2.912  1.00  0.00     0.178 C 
HETATM   32  N4  UNL     1       4.724  16.520   4.171  1.00  0.00    -0.360 N 
ATOM     33  H4  UNL     1       4.549  17.495   4.411  1.00  0.00     0.162 HD
HETATM   34  C28 UNL     1       5.475  15.833   5.114  1.00  0.00     0.118 C 
HETATM   35  C29 UNL     1       5.100  14.763   6.061  1.00  0.00     0.085 C 
HETATM   36  C30 UNL     1       5.448  15.266   7.490  1.00  0.00     0.021 C 
ENDROOT
BRANCH  31  37
HETATM   37  C25 UNL     1       2.639  15.783   3.051  1.00  0.00     0.009 C 
HETATM   38  C26 UNL     1       2.448  14.274   2.970  1.00  0.00     0.012 C 
HETATM   39  C27 UNL     1       2.103  16.173   4.409  1.00  0.00     0.012 C 
ENDBRANCH  31  37
BRANCH  34  40
HETATM   40  O6  UNL     1       6.734  16.157   5.223  1.00  0.00    -0.349 OA
ATOM     41  H6  UNL     1       7.164  15.954   6.046  1.00  0.00     0.219 HD
ENDBRANCH  34  40
BRANCH   1  42
HETATM   42  O1  UNL     1       6.890  13.387   6.770  1.00  0.00    -0.390 OA
HETATM   43  C1  UNL     1       6.707  12.255   7.565  1.00  0.00     0.202 C 
ENDBRANCH   1  42
TORSDOF 3
ENDMDL
