MODEL 2
REMARK VINA RESULT: -6.865893650      3.164      6.891
REMARK  3 active torsions:
REMARK  status: ('A' for Active; 'I' for Inactive)
REMARK    1  A    between atoms: O1_2  and  C2_3 
REMARK    2  A    between atoms: C24_33  and  C25_34 
REMARK    3  A    between atoms: C28_39  and  O6_40 
ROOT
HETATM    1  C2  UNL     1      13.395  25.881  -1.424  1.00  0.00     0.132 C 
HETATM    2  C3  UNL     1      12.900  24.947  -0.377  1.00  0.00     0.036 C 
HETATM    3  C4  UNL     1      13.770  23.693  -0.220  1.00  0.00     0.029 C 
HETATM    4  C5  UNL     1      14.720  23.996   0.917  1.00  0.00    -0.026 C 
HETATM    5  C6  UNL     1      14.888  23.141   1.907  1.00  0.00     0.007 C 
HETATM    6  C7  UNL     1      14.303  21.826   2.186  1.00  0.00    -0.036 A 
HETATM    7  C8  UNL     1      13.970  21.755   3.569  1.00  0.00     0.011 A 
HETATM    8  C9  UNL     1      13.408  20.660   4.164  1.00  0.00     0.001 A 
HETATM    9  C10 UNL     1      13.181  19.607   3.325  1.00  0.00     0.010 A 
HETATM   10  C11 UNL     1      13.496  19.630   1.938  1.00  0.00    -0.028 A 
HETATM   11  C12 UNL     1      14.059  20.742   1.368  1.00  0.00     0.021 A 
HETATM   12  C13 UNL     1      13.071  18.300   1.373  1.00  0.00     0.160 C 
HETATM   13  C14 UNL     1      13.666  17.258   2.381  1.00  0.00     0.045 C 
HETATM   14  O2  UNL     1      11.713  18.160   1.284  1.00  0.00    -0.310 OA
HETATM   15  C15 UNL     1      10.525  18.302   1.769  1.00  0.00     0.280 C 
HETATM   16  O3  UNL     1      10.132  18.446   2.960  1.00  0.00    -0.263 OA
HETATM   17  C16 UNL     1       9.332  18.306   0.815  1.00  0.00     0.199 C 
HETATM   18  C17 UNL     1       9.777  18.106  -0.611  1.00  0.00     0.035 C 
HETATM   19  C18 UNL     1       8.534  17.944  -1.450  1.00  0.00     0.024 C 
HETATM   20  C19 UNL     1       7.322  18.524  -0.744  1.00  0.00     0.148 C 
HETATM   21  N1  UNL     1       7.806  19.780  -0.120  1.00  0.00    -0.263 N 
HETATM   22  N2  UNL     1       8.592  19.530   1.013  1.00  0.00    -0.121 NA
HETATM   23  C20 UNL     1       7.464  21.025  -0.657  1.00  0.00     0.257 C 
HETATM   24  O4  UNL     1       6.209  21.202  -0.875  1.00  0.00    -0.270 OA
HETATM   25  C21 UNL     1       8.327  22.168  -1.013  1.00  0.00     0.174 C 
HETATM   26  C22 UNL     1       9.677  22.176  -0.370  1.00  0.00     0.042 C 
HETATM   27  N3  UNL     1       7.600  23.399  -0.859  1.00  0.00    -0.346 N 
ATOM     28  H3  UNL     1       6.754  23.328  -0.294  1.00  0.00     0.163 HD
HETATM   29  C23 UNL     1       7.865  24.669  -1.357  1.00  0.00     0.241 C 
HETATM   30  O5  UNL     1       7.017  25.318  -2.075  1.00  0.00    -0.271 OA
HETATM   31  C24 UNL     1       9.137  25.476  -1.147  1.00  0.00     0.178 C 
HETATM   32  N4  UNL     1       9.915  25.324  -2.355  1.00  0.00    -0.360 N 
ATOM     33  H4  UNL     1       9.354  25.266  -3.204  1.00  0.00     0.162 HD
HETATM   34  C28 UNL     1      11.283  25.243  -2.577  1.00  0.00     0.118 C 
HETATM   35  C29 UNL     1      12.347  26.262  -2.466  1.00  0.00     0.085 C 
HETATM   36  C30 UNL     1      13.051  26.348  -3.849  1.00  0.00     0.021 C 
ENDROOT
BRANCH  31  37
HETATM   37  C25 UNL     1       8.696  26.942  -0.926  1.00  0.00     0.009 C 
HETATM   38  C26 UNL     1       9.579  27.575   0.142  1.00  0.00     0.012 C 
HETATM   39  C27 UNL     1       8.913  27.785  -2.162  1.00  0.00     0.012 C 
ENDBRANCH  31  37
BRANCH  34  40
HETATM   40  O6  UNL     1      11.757  24.087  -2.954  1.00  0.00    -0.349 OA
ATOM     41  H6  UNL     1      11.149  23.358  -2.985  1.00  0.00     0.219 HD
ENDBRANCH  34  40
BRANCH   1  42
HETATM   42  O1  UNL     1      14.519  25.400  -2.095  1.00  0.00    -0.390 OA
HETATM   43  C1  UNL     1      15.628  26.206  -1.834  1.00  0.00     0.202 C 
ENDBRANCH   1  42
TORSDOF 3
ENDMDL
