MODEL 1
REMARK VINA RESULT: -7.831399629      0.000      0.000
REMARK  2 active torsions:
REMARK  status: ('A' for Active; 'I' for Inactive)
REMARK    1  A    between atoms: C2_2  and  C3_3 
REMARK       I    between atoms: C3_3  and  N1_5 
REMARK    2  A    between atoms: C7_13  and  C8_14 
ROOT
HETATM    1  C3  UNL     1      -4.597  12.666  23.544  1.00  0.00     0.219 C 
HETATM    2  O1  UNL     1      -5.689  12.027  23.744  1.00  0.00    -0.273 OA
HETATM    3  N1  UNL     1      -3.449  12.255  24.252  1.00  0.00    -0.347 N 
HETATM    4  C4  UNL     1      -3.546  11.148  25.170  1.00  0.00     0.132 C 
HETATM    5  C5  UNL     1      -2.945  11.437  26.496  1.00  0.00     0.079 C 
HETATM    6  C6  UNL     1      -1.732  12.303  26.416  1.00  0.00     0.037 A 
HETATM    7  N2  UNL     1      -0.806  12.561  27.388  1.00  0.00    -0.304 N 
ATOM      8  H2  UNL     1      -0.814  12.189  28.338  1.00  0.00     0.186 HD
HETATM    9  N3  UNL     1       0.093  13.370  26.882  1.00  0.00    -0.299 N 
ATOM     10  H3  UNL     1       0.903  13.729  27.388  1.00  0.00     0.187 HD
HETATM   11  C7  UNL     1      -0.207  13.666  25.582  1.00  0.00     0.068 A 
HETATM   12  C14 UNL     1      -1.376  12.985  25.280  1.00  0.00     0.013 A 
HETATM   13  C15 UNL     1      -2.170  12.948  24.045  1.00  0.00     0.168 C 
ENDROOT
BRANCH  11  14
HETATM   14  C8  UNL     1       0.609  14.557  24.779  1.00  0.00    -0.007 A 
HETATM   15  C9  UNL     1       1.552  15.392  25.384  1.00  0.00     0.014 A 
HETATM   16  C10 UNL     1       2.362  16.243  24.667  1.00  0.00     0.001 A 
HETATM   17  C11 UNL     1       2.249  16.279  23.298  1.00  0.00     0.000 A 
HETATM   18  C12 UNL     1       1.335  15.476  22.640  1.00  0.00     0.001 A 
HETATM   19  C13 UNL     1       0.541  14.635  23.412  1.00  0.00     0.014 A 
ENDBRANCH  11  14
BRANCH   1  20
HETATM   20  C2  UNL     1      -4.694  13.766  22.578  1.00  0.00     0.098 C 
HETATM   21  C1  UNL     1      -5.212  15.003  23.276  1.00  0.00     0.014 C 
ENDBRANCH   1  20
TORSDOF 2
ENDMDL
