MODEL 3
REMARK VINA RESULT: -7.611310124      2.478      5.671
REMARK  2 active torsions:
REMARK  status: ('A' for Active; 'I' for Inactive)
REMARK    1  A    between atoms: C2_2  and  C3_3 
REMARK       I    between atoms: C3_3  and  N1_5 
REMARK    2  A    between atoms: C7_13  and  C8_14 
ROOT
HETATM    1  C3  UNL     1       1.160  14.795  24.444  1.00  0.00     0.219 C 
HETATM    2  O1  UNL     1       2.187  15.298  25.022  1.00  0.00    -0.273 OA
HETATM    3  N1  UNL     1       0.055  14.441  25.245  1.00  0.00    -0.347 N 
HETATM    4  C4  UNL     1       0.123  14.647  26.670  1.00  0.00     0.132 C 
HETATM    5  C5  UNL     1      -0.296  13.456  27.451  1.00  0.00     0.079 C 
HETATM    6  C6  UNL     1      -1.403  12.690  26.808  1.00  0.00     0.037 A 
HETATM    7  N2  UNL     1      -2.183  11.708  27.350  1.00  0.00    -0.304 N 
ATOM      8  H2  UNL     1      -2.117  11.344  28.301  1.00  0.00     0.186 HD
HETATM    9  N3  UNL     1      -3.033  11.316  26.431  1.00  0.00    -0.299 N 
ATOM     10  H3  UNL     1      -3.737  10.590  26.561  1.00  0.00     0.187 HD
HETATM   11  C7  UNL     1      -2.842  12.017  25.273  1.00  0.00     0.068 A 
HETATM   12  C14 UNL     1      -1.798  12.897  25.510  1.00  0.00     0.013 A 
HETATM   13  C15 UNL     1      -1.150  13.875  24.625  1.00  0.00     0.168 C 
ENDROOT
BRANCH  11  14
HETATM   14  C8  UNL     1      -3.632  11.777  24.080  1.00  0.00    -0.007 A 
HETATM   15  C9  UNL     1      -3.694  10.501  23.516  1.00  0.00     0.014 A 
HETATM   16  C10 UNL     1      -4.441  10.218  22.395  1.00  0.00     0.001 A 
HETATM   17  C11 UNL     1      -5.163  11.225  21.800  1.00  0.00     0.000 A 
HETATM   18  C12 UNL     1      -5.144  12.508  22.312  1.00  0.00     0.001 A 
HETATM   19  C13 UNL     1      -4.372  12.741  23.445  1.00  0.00     0.014 A 
ENDBRANCH  11  14
BRANCH   1  20
HETATM   20  C2  UNL     1       1.279  14.656  22.988  1.00  0.00     0.098 C 
HETATM   21  C1  UNL     1       1.268  16.026  22.350  1.00  0.00     0.014 C 
ENDBRANCH   1  20
TORSDOF 2
ENDMDL
