MODEL 2
REMARK VINA RESULT: -7.822047103      0.083      1.090
REMARK  2 active torsions:
REMARK  status: ('A' for Active; 'I' for Inactive)
REMARK    1  A    between atoms: C2_2  and  C3_3 
REMARK       I    between atoms: C3_3  and  N1_5 
REMARK    2  A    between atoms: C7_13  and  C8_14 
ROOT
HETATM    1  C3  UNL     1      -4.549  12.719  23.530  1.00  0.00     0.219 C 
HETATM    2  O1  UNL     1      -5.647  12.087  23.727  1.00  0.00    -0.273 OA
HETATM    3  N1  UNL     1      -3.408  12.305  24.247  1.00  0.00    -0.347 N 
HETATM    4  C4  UNL     1      -3.517  11.203  25.171  1.00  0.00     0.132 C 
HETATM    5  C5  UNL     1      -2.923  11.496  26.499  1.00  0.00     0.079 C 
HETATM    6  C6  UNL     1      -1.704  12.354  26.422  1.00  0.00     0.037 A 
HETATM    7  N2  UNL     1      -0.783  12.611  27.398  1.00  0.00    -0.304 N 
ATOM      8  H2  UNL     1      -0.798  12.245  28.350  1.00  0.00     0.186 HD
HETATM    9  N3  UNL     1       0.124  13.413  26.893  1.00  0.00    -0.299 N 
ATOM     10  H3  UNL     1       0.933  13.770  27.402  1.00  0.00     0.187 HD
HETATM   11  C7  UNL     1      -0.167  13.704  25.590  1.00  0.00     0.068 A 
HETATM   12  C14 UNL     1      -1.338  13.028  25.284  1.00  0.00     0.013 A 
HETATM   13  C15 UNL     1      -2.124  12.989  24.044  1.00  0.00     0.168 C 
ENDROOT
BRANCH  11  14
HETATM   14  C8  UNL     1       0.660  14.586  24.787  1.00  0.00    -0.007 A 
HETATM   15  C9  UNL     1       0.521  14.619  23.398  1.00  0.00     0.014 A 
HETATM   16  C10 UNL     1       1.268  15.449  22.594  1.00  0.00     0.001 A 
HETATM   17  C11 UNL     1       2.191  16.287  23.172  1.00  0.00     0.000 A 
HETATM   18  C12 UNL     1       2.374  16.303  24.542  1.00  0.00     0.001 A 
HETATM   19  C13 UNL     1       1.595  15.444  25.309  1.00  0.00     0.014 A 
ENDBRANCH  11  14
BRANCH   1  20
HETATM   20  C2  UNL     1      -4.634  13.814  22.558  1.00  0.00     0.098 C 
HETATM   21  C1  UNL     1      -5.086  15.074  23.260  1.00  0.00     0.014 C 
ENDBRANCH   1  20
TORSDOF 2
ENDMDL
