MODEL 4
REMARK VINA RESULT: -7.599183667      2.461      5.633
REMARK  2 active torsions:
REMARK  status: ('A' for Active; 'I' for Inactive)
REMARK    1  A    between atoms: C2_2  and  C3_3 
REMARK       I    between atoms: C3_3  and  N1_5 
REMARK    2  A    between atoms: C7_13  and  C8_14 
ROOT
HETATM    1  C3  UNL     1       1.128  14.778  24.434  1.00  0.00     0.219 C 
HETATM    2  O1  UNL     1       2.158  15.282  25.006  1.00  0.00    -0.273 OA
HETATM    3  N1  UNL     1       0.028  14.421  25.242  1.00  0.00    -0.347 N 
HETATM    4  C4  UNL     1       0.105  14.627  26.667  1.00  0.00     0.132 C 
HETATM    5  C5  UNL     1      -0.307  13.435  27.450  1.00  0.00     0.079 C 
HETATM    6  C6  UNL     1      -1.417  12.667  26.814  1.00  0.00     0.037 A 
HETATM    7  N2  UNL     1      -2.192  11.684  27.360  1.00  0.00    -0.304 N 
ATOM      8  H2  UNL     1      -2.119  11.320  28.311  1.00  0.00     0.186 HD
HETATM    9  N3  UNL     1      -3.047  11.291  26.446  1.00  0.00    -0.299 N 
ATOM     10  H3  UNL     1      -3.750  10.564  26.581  1.00  0.00     0.187 HD
HETATM   11  C7  UNL     1      -2.865  11.993  25.288  1.00  0.00     0.068 A 
HETATM   12  C14 UNL     1      -1.820  12.875  25.519  1.00  0.00     0.013 A 
HETATM   13  C15 UNL     1      -1.180  13.854  24.630  1.00  0.00     0.168 C 
ENDROOT
BRANCH  11  14
HETATM   14  C8  UNL     1      -3.663  11.753  24.099  1.00  0.00    -0.007 A 
HETATM   15  C9  UNL     1      -4.400  12.787  23.520  1.00  0.00     0.014 A 
HETATM   16  C10 UNL     1      -5.159  12.616  22.385  1.00  0.00     0.001 A 
HETATM   17  C11 UNL     1      -5.198  11.379  21.787  1.00  0.00     0.000 A 
HETATM   18  C12 UNL     1      -4.488  10.315  22.312  1.00  0.00     0.001 A 
HETATM   19  C13 UNL     1      -3.738  10.542  23.460  1.00  0.00     0.014 A 
ENDBRANCH  11  14
BRANCH   1  20
HETATM   20  C2  UNL     1       1.237  14.639  22.978  1.00  0.00     0.098 C 
HETATM   21  C1  UNL     1       1.220  16.010  22.340  1.00  0.00     0.014 C 
ENDBRANCH   1  20
TORSDOF 2
ENDMDL
