MODEL 5
REMARK VINA RESULT: -6.942863481      2.770      4.472
REMARK  2 active torsions:
REMARK  status: ('A' for Active; 'I' for Inactive)
REMARK    1  A    between atoms: C2_2  and  C3_3 
REMARK       I    between atoms: C3_3  and  N1_5 
REMARK    2  A    between atoms: C7_13  and  C8_14 
ROOT
HETATM    1  C3  UNL     1      -6.428  15.481  22.423  1.00  0.00     0.219 C 
HETATM    2  O1  UNL     1      -7.430  15.663  21.646  1.00  0.00    -0.273 OA
HETATM    3  N1  UNL     1      -5.575  14.389  22.159  1.00  0.00    -0.347 N 
HETATM    4  C4  UNL     1      -5.863  13.523  21.043  1.00  0.00     0.132 C 
HETATM    5  C5  UNL     1      -5.826  12.083  21.398  1.00  0.00     0.079 C 
HETATM    6  C6  UNL     1      -4.784  11.754  22.415  1.00  0.00     0.037 A 
HETATM    7  N2  UNL     1      -4.315  10.524  22.783  1.00  0.00    -0.304 N 
ATOM      8  H2  UNL     1      -4.622   9.627  22.407  1.00  0.00     0.186 HD
HETATM    9  N3  UNL     1      -3.400  10.704  23.706  1.00  0.00    -0.299 N 
ATOM     10  H3  UNL     1      -2.881   9.954  24.163  1.00  0.00     0.187 HD
HETATM   11  C7  UNL     1      -3.241  12.035  23.970  1.00  0.00     0.068 A 
HETATM   12  C14 UNL     1      -4.126  12.711  23.145  1.00  0.00     0.013 A 
HETATM   13  C15 UNL     1      -4.405  14.148  23.014  1.00  0.00     0.168 C 
ENDROOT
BRANCH  11  14
HETATM   14  C8  UNL     1      -2.304  12.524  24.965  1.00  0.00    -0.007 A 
HETATM   15  C9  UNL     1      -2.382  12.081  26.287  1.00  0.00     0.014 A 
HETATM   16  C10 UNL     1      -1.509  12.501  27.265  1.00  0.00     0.001 A 
HETATM   17  C11 UNL     1      -0.514  13.390  26.937  1.00  0.00     0.000 A 
HETATM   18  C12 UNL     1      -0.384  13.864  25.645  1.00  0.00     0.001 A 
HETATM   19  C13 UNL     1      -1.293  13.409  24.695  1.00  0.00     0.014 A 
ENDBRANCH  11  14
BRANCH   1  20
HETATM   20  C2  UNL     1      -6.302  16.460  23.508  1.00  0.00     0.098 C 
HETATM   21  C1  UNL     1      -7.229  16.079  24.639  1.00  0.00     0.014 C 
ENDBRANCH   1  20
TORSDOF 2
ENDMDL
