MODEL 2
REMARK VINA RESULT: -11.774165775      1.477      2.721
REMARK  7 active torsions:
REMARK  status: ('A' for Active; 'I' for Inactive)
REMARK       I    between atoms: C1_2  and  N1_3 
REMARK    1  A    between atoms: C1_2  and  C8_13 
REMARK    2  A    between atoms: N1_3  and  C2_5 
REMARK    3  A    between atoms: C3_6  and  N2_7 
REMARK    4  A    between atoms: C18_24  and  N3_25 
REMARK    5  A    between atoms: N3_25  and  C19_27 
REMARK    6  A    between atoms: C21_29  and  N4_30 
REMARK       I    between atoms: N4_30  and  C22_32 
REMARK    7  A    between atoms: C22_32  and  C23_34 
ROOT
HETATM    1  C8  UNL     1      15.631   5.117 -19.398  1.00  0.00     0.033 A 
HETATM    2  C9  UNL     1      15.090   4.301 -18.431  1.00  0.00     0.017 A 
HETATM    3  C10 UNL     1      15.433   2.962 -18.368  1.00  0.00     0.009 A 
HETATM    4  C11 UNL     1      16.312   2.366 -19.242  1.00  0.00    -0.044 A 
HETATM    5  C12 UNL     1      16.864   3.193 -20.228  1.00  0.00     0.022 A 
HETATM    6  C13 UNL     1      16.523   4.527 -20.290  1.00  0.00     0.033 A 
HETATM    7  C14 UNL     1      17.808   2.779 -21.264  1.00  0.00     0.193 C 
HETATM    8  O3  UNL     1      18.242   3.674 -22.003  1.00  0.00    -0.287 OA
HETATM    9  C15 UNL     1      18.282   1.399 -21.501  1.00  0.00     0.021 A 
HETATM   10  C16 UNL     1      18.696   1.248 -22.809  1.00  0.00     0.018 A 
HETATM   11  C17 UNL     1      19.158   0.027 -23.214  1.00  0.00     0.030 A 
HETATM   12  C18 UNL     1      19.204  -1.036 -22.311  1.00  0.00     0.033 A 
HETATM   13  C30 UNL     1      18.780  -0.846 -21.012  1.00  0.00     0.037 A 
HETATM   14  C31 UNL     1      18.310   0.375 -20.577  1.00  0.00    -0.042 A 
HETATM   15  C32 UNL     1      17.896   0.429 -19.170  1.00  0.00     0.044 C 
HETATM   16  C33 UNL     1      16.504   0.926 -18.965  1.00  0.00     0.044 C 
ENDROOT
BRANCH  12  17
HETATM   17  N3  UNL     1      19.653  -2.265 -22.838  1.00  0.00    -0.354 N 
ATOM     18  H3  UNL     1      19.470  -2.472 -23.820  1.00  0.00     0.166 HD
BRANCH  17  19
HETATM   19  C19 UNL     1      20.339  -3.213 -22.067  1.00  0.00     0.074 A 
HETATM   20  C20 UNL     1      19.703  -4.296 -21.445  1.00  0.00     0.065 A 
HETATM   21  C21 UNL     1      20.384  -5.195 -20.660  1.00  0.00     0.076 A 
HETATM   22  C27 UNL     1      21.755  -4.961 -20.521  1.00  0.00     0.146 A 
HETATM   23  F1  UNL     1      22.472  -5.817 -19.761  1.00  0.00    -0.204 F 
HETATM   24  C28 UNL     1      22.393  -3.902 -21.125  1.00  0.00     0.089 A 
HETATM   25  C29 UNL     1      21.706  -3.008 -21.907  1.00  0.00     0.146 A 
HETATM   26  F2  UNL     1      22.331  -1.965 -22.503  1.00  0.00    -0.204 F 
BRANCH  21  27
HETATM   27  N4  UNL     1      19.813  -6.305 -19.999  1.00  0.00    -0.320 N 
HETATM   28  C22 UNL     1      18.468  -6.678 -19.960  1.00  0.00     0.263 C 
HETATM   29  O4  UNL     1      17.608  -6.006 -20.556  1.00  0.00    -0.267 OA
ATOM     30  H4  UNL     1      20.461  -6.906 -19.488  1.00  0.00     0.169 HD
BRANCH  28  31
HETATM   31  C23 UNL     1      18.007  -7.879 -19.216  1.00  0.00     0.072 A 
HETATM   32  C24 UNL     1      18.305  -8.229 -17.927  1.00  0.00     0.025 A 
HETATM   33  C25 UNL     1      17.769  -9.364 -17.460  1.00  0.00     0.009 A 
HETATM   34  C26 UNL     1      16.967 -10.078 -18.310  1.00  0.00     0.050 A 
HETATM   35  S1  UNL     1      16.990  -9.141 -19.734  1.00  0.00    -0.097 SA
ENDBRANCH  28  31
ENDBRANCH  21  27
ENDBRANCH  17  19
ENDBRANCH  12  17
BRANCH   1  36
HETATM   36  C1  UNL     1      15.295   6.538 -19.517  1.00  0.00     0.255 C 
HETATM   37  O1  UNL     1      16.180   7.409 -19.301  1.00  0.00    -0.267 OA
HETATM   38  N1  UNL     1      13.982   6.945 -19.878  1.00  0.00    -0.332 N 
ATOM     39  H1  UNL     1      13.248   6.261 -20.061  1.00  0.00     0.168 HD
BRANCH  38  40
HETATM   40  C2  UNL     1      13.730   8.338 -19.974  1.00  0.00     0.108 C 
HETATM   41  C3  UNL     1      12.976   8.917 -19.073  1.00  0.00     0.102 C 
BRANCH  41  42
HETATM   42  N2  UNL     1      12.414   8.201 -18.021  1.00  0.00    -0.385 N 
HETATM   43  C4  UNL     1      11.076   7.646 -18.081  1.00  0.00     0.148 C 
HETATM   44  C5  UNL     1      10.611   7.112 -16.769  1.00  0.00     0.187 C 
HETATM   45  O2  UNL     1      11.529   6.411 -16.039  1.00  0.00    -0.388 OA
HETATM   46  C6  UNL     1      12.831   6.472 -16.464  1.00  0.00     0.187 C 
HETATM   47  C7  UNL     1      13.141   7.948 -16.768  1.00  0.00     0.148 C 
ENDBRANCH  41  42
ENDBRANCH  38  40
ENDBRANCH   1  36
TORSDOF 7
ENDMDL
