MODEL 1
REMARK VINA RESULT: -11.841381636      0.000      0.000
REMARK  7 active torsions:
REMARK  status: ('A' for Active; 'I' for Inactive)
REMARK       I    between atoms: C1_2  and  N1_3 
REMARK    1  A    between atoms: C1_2  and  C8_13 
REMARK    2  A    between atoms: N1_3  and  C2_5 
REMARK    3  A    between atoms: C3_6  and  N2_7 
REMARK    4  A    between atoms: C18_24  and  N3_25 
REMARK    5  A    between atoms: N3_25  and  C19_27 
REMARK    6  A    between atoms: C21_29  and  N4_30 
REMARK       I    between atoms: N4_30  and  C22_32 
REMARK    7  A    between atoms: C22_32  and  C23_34 
ROOT
HETATM    1  C8  UNL     1      14.758   4.612 -18.563  1.00  0.00     0.033 A 
HETATM    2  C9  UNL     1      14.389   3.621 -17.682  1.00  0.00     0.017 A 
HETATM    3  C10 UNL     1      14.944   2.356 -17.775  1.00  0.00     0.009 A 
HETATM    4  C11 UNL     1      15.876   2.009 -18.725  1.00  0.00    -0.044 A 
HETATM    5  C12 UNL     1      16.254   3.015 -19.623  1.00  0.00     0.022 A 
HETATM    6  C13 UNL     1      15.701   4.274 -19.530  1.00  0.00     0.033 A 
HETATM    7  C14 UNL     1      17.214   2.873 -20.714  1.00  0.00     0.193 C 
HETATM    8  O3  UNL     1      17.473   3.901 -21.357  1.00  0.00    -0.287 OA
HETATM    9  C15 UNL     1      17.895   1.622 -21.112  1.00  0.00     0.021 A 
HETATM   10  C16 UNL     1      18.281   1.682 -22.436  1.00  0.00     0.018 A 
HETATM   11  C17 UNL     1      18.918   0.603 -22.982  1.00  0.00     0.030 A 
HETATM   12  C18 UNL     1      19.165  -0.530 -22.203  1.00  0.00     0.033 A 
HETATM   13  C30 UNL     1      18.762  -0.550 -20.883  1.00  0.00     0.037 A 
HETATM   14  C31 UNL     1      18.119   0.524 -20.308  1.00  0.00    -0.042 A 
HETATM   15  C32 UNL     1      17.752   0.359 -18.896  1.00  0.00     0.044 C 
HETATM   16  C33 UNL     1      16.306   0.598 -18.613  1.00  0.00     0.044 C 
ENDROOT
BRANCH  12  17
HETATM   17  N3  UNL     1      19.786  -1.606 -22.871  1.00  0.00    -0.354 N 
ATOM     18  H3  UNL     1      19.741  -1.640 -23.890  1.00  0.00     0.166 HD
BRANCH  17  19
HETATM   19  C19 UNL     1      20.462  -2.628 -22.193  1.00  0.00     0.074 A 
HETATM   20  C20 UNL     1      19.811  -3.742 -21.646  1.00  0.00     0.065 A 
HETATM   21  C21 UNL     1      20.483  -4.717 -20.949  1.00  0.00     0.076 A 
HETATM   22  C27 UNL     1      21.862  -4.528 -20.819  1.00  0.00     0.146 A 
HETATM   23  F1  UNL     1      22.571  -5.458 -20.144  1.00  0.00    -0.204 F 
HETATM   24  C28 UNL     1      22.516  -3.439 -21.350  1.00  0.00     0.089 A 
HETATM   25  C29 UNL     1      21.837  -2.469 -22.043  1.00  0.00     0.146 A 
HETATM   26  F2  UNL     1      22.477  -1.397 -22.567  1.00  0.00    -0.204 F 
BRANCH  21  27
HETATM   27  N4  UNL     1      19.896  -5.863 -20.367  1.00  0.00    -0.320 N 
HETATM   28  C22 UNL     1      18.537  -6.146 -20.220  1.00  0.00     0.263 C 
HETATM   29  O4  UNL     1      17.676  -5.345 -20.626  1.00  0.00    -0.267 OA
ATOM     30  H4  UNL     1      20.543  -6.567 -20.012  1.00  0.00     0.169 HD
BRANCH  28  31
HETATM   31  C23 UNL     1      18.061  -7.400 -19.580  1.00  0.00     0.072 A 
HETATM   32  C24 UNL     1      18.417  -7.902 -18.357  1.00  0.00     0.025 A 
HETATM   33  C25 UNL     1      17.853  -9.057 -17.980  1.00  0.00     0.009 A 
HETATM   34  C26 UNL     1      16.966  -9.637 -18.849  1.00  0.00     0.050 A 
HETATM   35  S1  UNL     1      16.952  -8.551 -20.163  1.00  0.00    -0.097 SA
ENDBRANCH  28  31
ENDBRANCH  21  27
ENDBRANCH  17  19
ENDBRANCH  12  17
BRANCH   1  36
HETATM   36  C1  UNL     1      14.195   5.964 -18.518  1.00  0.00     0.255 C 
HETATM   37  O1  UNL     1      13.872   6.469 -17.409  1.00  0.00    -0.267 OA
HETATM   38  N1  UNL     1      14.012   6.713 -19.711  1.00  0.00    -0.332 N 
ATOM     39  H1  UNL     1      14.267   6.329 -20.621  1.00  0.00     0.168 HD
BRANCH  38  40
HETATM   40  C2  UNL     1      13.461   8.015 -19.591  1.00  0.00     0.108 C 
HETATM   41  C3  UNL     1      14.017   9.009 -20.237  1.00  0.00     0.102 C 
BRANCH  41  42
HETATM   42  N2  UNL     1      15.137   8.822 -21.041  1.00  0.00    -0.385 N 
HETATM   43  C4  UNL     1      15.042   8.559 -22.464  1.00  0.00     0.148 C 
HETATM   44  C5  UNL     1      16.350   8.181 -23.072  1.00  0.00     0.187 C 
HETATM   45  O2  UNL     1      17.441   8.890 -22.655  1.00  0.00    -0.388 OA
HETATM   46  C6  UNL     1      17.269   9.700 -21.563  1.00  0.00     0.187 C 
HETATM   47  C7  UNL     1      16.506   8.883 -20.506  1.00  0.00     0.148 C 
ENDBRANCH  41  42
ENDBRANCH  38  40
ENDBRANCH   1  36
TORSDOF 7
ENDMDL
