MODEL 4
REMARK VINA RESULT: -11.592317244      1.716      3.891
REMARK  7 active torsions:
REMARK  status: ('A' for Active; 'I' for Inactive)
REMARK       I    between atoms: C1_2  and  N1_3 
REMARK    1  A    between atoms: C1_2  and  C8_13 
REMARK    2  A    between atoms: N1_3  and  C2_5 
REMARK    3  A    between atoms: C3_6  and  N2_7 
REMARK    4  A    between atoms: C18_24  and  N3_25 
REMARK    5  A    between atoms: N3_25  and  C19_27 
REMARK    6  A    between atoms: C21_29  and  N4_30 
REMARK       I    between atoms: N4_30  and  C22_32 
REMARK    7  A    between atoms: C22_32  and  C23_34 
ROOT
HETATM    1  C8  UNL     1      16.473   6.146 -23.405  1.00  0.00     0.033 A 
HETATM    2  C9  UNL     1      16.817   6.290 -24.730  1.00  0.00     0.017 A 
HETATM    3  C10 UNL     1      17.355   5.228 -25.436  1.00  0.00     0.009 A 
HETATM    4  C11 UNL     1      17.579   3.989 -24.880  1.00  0.00    -0.044 A 
HETATM    5  C12 UNL     1      17.231   3.840 -23.533  1.00  0.00     0.022 A 
HETATM    6  C13 UNL     1      16.695   4.897 -22.830  1.00  0.00     0.033 A 
HETATM    7  C14 UNL     1      17.389   2.625 -22.737  1.00  0.00     0.193 C 
HETATM    8  O3  UNL     1      16.953   2.666 -21.577  1.00  0.00    -0.287 OA
HETATM    9  C15 UNL     1      18.016   1.366 -23.193  1.00  0.00     0.021 A 
HETATM   10  C16 UNL     1      18.491   0.645 -22.116  1.00  0.00     0.018 A 
HETATM   11  C17 UNL     1      19.117  -0.548 -22.351  1.00  0.00     0.030 A 
HETATM   12  C18 UNL     1      19.264  -1.013 -23.659  1.00  0.00     0.033 A 
HETATM   13  C30 UNL     1      18.775  -0.262 -24.709  1.00  0.00     0.037 A 
HETATM   14  C31 UNL     1      18.141   0.943 -24.500  1.00  0.00    -0.042 A 
HETATM   15  C32 UNL     1      17.673   1.629 -25.711  1.00  0.00     0.044 C 
HETATM   16  C33 UNL     1      18.166   3.031 -25.843  1.00  0.00     0.044 C 
ENDROOT
BRANCH  12  17
HETATM   17  N3  UNL     1      19.963  -2.231 -23.798  1.00  0.00    -0.354 N 
ATOM     18  H3  UNL     1      20.085  -2.621 -24.732  1.00  0.00     0.166 HD
BRANCH  17  19
HETATM   19  C19 UNL     1      20.496  -2.924 -22.703  1.00  0.00     0.074 A 
HETATM   20  C20 UNL     1      19.885  -4.056 -22.146  1.00  0.00     0.065 A 
HETATM   21  C21 UNL     1      20.400  -4.703 -21.048  1.00  0.00     0.076 A 
HETATM   22  C27 UNL     1      21.576  -4.160 -20.521  1.00  0.00     0.146 A 
HETATM   23  F1  UNL     1      22.124  -4.758 -19.442  1.00  0.00    -0.204 F 
HETATM   24  C28 UNL     1      22.187  -3.049 -21.057  1.00  0.00     0.089 A 
HETATM   25  C29 UNL     1      21.666  -2.409 -22.153  1.00  0.00     0.146 A 
HETATM   26  F2  UNL     1      22.265  -1.316 -22.683  1.00  0.00    -0.204 F 
BRANCH  21  27
HETATM   27  N4  UNL     1      19.840  -5.842 -20.428  1.00  0.00    -0.320 N 
HETATM   28  C22 UNL     1      18.488  -6.136 -20.241  1.00  0.00     0.263 C 
HETATM   29  O4  UNL     1      17.609  -5.352 -20.642  1.00  0.00    -0.267 OA
ATOM     30  H4  UNL     1      20.503  -6.533 -20.075  1.00  0.00     0.169 HD
BRANCH  28  31
HETATM   31  C23 UNL     1      18.041  -7.381 -19.564  1.00  0.00     0.072 A 
HETATM   32  C24 UNL     1      18.407  -7.838 -18.327  1.00  0.00     0.025 A 
HETATM   33  C25 UNL     1      17.870  -8.994 -17.916  1.00  0.00     0.009 A 
HETATM   34  C26 UNL     1      17.000  -9.621 -18.768  1.00  0.00     0.050 A 
HETATM   35  S1  UNL     1      16.961  -8.576 -20.114  1.00  0.00    -0.097 SA
ENDBRANCH  28  31
ENDBRANCH  21  27
ENDBRANCH  17  19
ENDBRANCH  12  17
BRANCH   1  36
HETATM   36  C1  UNL     1      15.911   7.239 -22.607  1.00  0.00     0.255 C 
HETATM   37  O1  UNL     1      15.117   8.058 -23.143  1.00  0.00    -0.267 OA
HETATM   38  N1  UNL     1      16.250   7.384 -21.235  1.00  0.00    -0.332 N 
ATOM     39  H1  UNL     1      16.888   6.734 -20.776  1.00  0.00     0.168 HD
BRANCH  38  40
HETATM   40  C2  UNL     1      15.668   8.465 -20.526  1.00  0.00     0.108 C 
HETATM   41  C3  UNL     1      15.218   8.269 -19.311  1.00  0.00     0.102 C 
BRANCH  41  42
HETATM   42  N2  UNL     1      15.297   7.023 -18.696  1.00  0.00    -0.385 N 
HETATM   43  C4  UNL     1      16.333   6.690 -17.738  1.00  0.00     0.148 C 
HETATM   44  C5  UNL     1      16.346   5.243 -17.378  1.00  0.00     0.187 C 
HETATM   45  O2  UNL     1      15.128   4.654 -17.188  1.00  0.00    -0.388 OA
HETATM   46  C6  UNL     1      14.027   5.375 -17.575  1.00  0.00     0.187 C 
HETATM   47  C7  UNL     1      14.329   5.951 -18.969  1.00  0.00     0.148 C 
ENDBRANCH  41  42
ENDBRANCH  38  40
ENDBRANCH   1  36
TORSDOF 7
ENDMDL
