MODEL 1
REMARK VINA RESULT: -11.155178882      0.000      0.000
REMARK  4 active torsions:
REMARK  status: ('A' for Active; 'I' for Inactive)
REMARK    1  A    between atoms: S1_2  and  C2_5 
REMARK    2  A    between atoms: C5_8  and  O3_9 
REMARK    3  A    between atoms: O3_9  and  C6_10 
REMARK    4  A    between atoms: C15_21  and  O4_22 
ROOT
HETATM    1  C6  UNL     1      21.536  -0.932 -11.217  1.00  0.00     0.080 A 
HETATM    2  C7  UNL     1      20.831  -2.127 -11.244  1.00  0.00     0.079 A 
HETATM    3  C8  UNL     1      19.543  -2.175 -10.760  1.00  0.00     0.120 A 
HETATM    4  F1  UNL     1      18.845  -3.331 -10.780  1.00  0.00    -0.206 F 
HETATM    5  C9  UNL     1      18.929  -1.064 -10.247  1.00  0.00     0.065 A 
HETATM    6  C10 UNL     1      19.605   0.141 -10.208  1.00  0.00     0.050 A 
HETATM    7  C11 UNL     1      18.971   1.317  -9.670  1.00  0.00     0.099 C 
HETATM    8  N1  UNL     1      18.462   2.270  -9.225  1.00  0.00    -0.191 NA
HETATM    9  C12 UNL     1      20.890   0.169 -10.695  1.00  0.00     0.060 A 
ENDROOT
BRANCH   1  10
HETATM   10  O3  UNL     1      22.826  -0.893 -11.705  1.00  0.00    -0.310 OA
BRANCH  10  11
HETATM   11  C5  UNL     1      23.904  -0.541 -10.896  1.00  0.00     0.083 A 
HETATM   12  C4  UNL     1      23.915  -0.896  -9.560  1.00  0.00     0.039 A 
HETATM   13  C3  UNL     1      24.988  -0.534  -8.797  1.00  0.00     0.027 A 
HETATM   14  C2  UNL     1      26.043   0.167  -9.319  1.00  0.00     0.068 A 
HETATM   15  C14 UNL     1      26.029   0.523 -10.669  1.00  0.00     0.007 A 
HETATM   16  C13 UNL     1      24.956   0.167 -11.452  1.00  0.00    -0.008 A 
HETATM   17  C15 UNL     1      26.980   1.266 -11.530  1.00  0.00     0.226 C 
HETATM   18  C17 UNL     1      25.169   0.653 -12.864  1.00  0.00     0.124 C 
HETATM   19  C16 UNL     1      26.695   0.753 -12.902  1.00  0.00     0.277 C 
HETATM   20  F2  UNL     1      27.196  -0.525 -13.064  1.00  0.00    -0.203 F 
HETATM   21  F3  UNL     1      27.125   1.586 -13.905  1.00  0.00    -0.203 F 
BRANCH  14  22
HETATM   22  S1  UNL     1      27.425   0.639  -8.358  1.00  0.00     0.172 S 
HETATM   23  C1  UNL     1      28.946   0.284  -9.180  1.00  0.00     0.167 C 
HETATM   24  O1  UNL     1      27.303   2.106  -8.020  1.00  0.00    -0.223 OA
HETATM   25  O2  UNL     1      27.371  -0.108  -7.048  1.00  0.00    -0.223 OA
ENDBRANCH  14  22
BRANCH  17  26
HETATM   26  O4  UNL     1      26.675   2.625 -11.476  1.00  0.00    -0.385 OA
ATOM     27  H4  UNL     1      27.477   3.118 -11.342  1.00  0.00     0.210 HD
ENDBRANCH  17  26
ENDBRANCH  10  11
ENDBRANCH   1  10
TORSDOF 4
ENDMDL
