MODEL 2
REMARK VINA RESULT: -11.005842463      0.870      1.072
REMARK  4 active torsions:
REMARK  status: ('A' for Active; 'I' for Inactive)
REMARK    1  A    between atoms: S1_2  and  C2_5 
REMARK    2  A    between atoms: C5_8  and  O3_9 
REMARK    3  A    between atoms: O3_9  and  C6_10 
REMARK    4  A    between atoms: C15_21  and  O4_22 
ROOT
HETATM    1  C6  UNL     1      21.398  -0.660 -11.181  1.00  0.00     0.080 A 
HETATM    2  C7  UNL     1      20.766  -1.894 -11.117  1.00  0.00     0.079 A 
HETATM    3  C8  UNL     1      19.537  -2.006 -10.506  1.00  0.00     0.120 A 
HETATM    4  F1  UNL     1      18.911  -3.200 -10.436  1.00  0.00    -0.206 F 
HETATM    5  C9  UNL     1      18.913  -0.921  -9.952  1.00  0.00     0.065 A 
HETATM    6  C10 UNL     1      19.516   0.322 -10.001  1.00  0.00     0.050 A 
HETATM    7  C11 UNL     1      18.869   1.471  -9.422  1.00  0.00     0.099 C 
HETATM    8  N1  UNL     1      18.352   2.403  -8.944  1.00  0.00    -0.191 NA
HETATM    9  C12 UNL     1      20.743   0.413 -10.615  1.00  0.00     0.060 A 
ENDROOT
BRANCH   1  10
HETATM   10  O3  UNL     1      22.629  -0.559 -11.795  1.00  0.00    -0.310 OA
BRANCH  10  11
HETATM   11  C5  UNL     1      23.803  -0.410 -11.062  1.00  0.00     0.083 A 
HETATM   12  C4  UNL     1      23.866  -0.854  -9.755  1.00  0.00     0.039 A 
HETATM   13  C3  UNL     1      25.034  -0.692  -9.065  1.00  0.00     0.027 A 
HETATM   14  C2  UNL     1      26.134  -0.104  -9.634  1.00  0.00     0.068 A 
HETATM   15  C14 UNL     1      26.067   0.343 -10.955  1.00  0.00     0.007 A 
HETATM   16  C13 UNL     1      24.898   0.187 -11.663  1.00  0.00    -0.008 A 
HETATM   17  C15 UNL     1      27.044   1.009 -11.849  1.00  0.00     0.226 C 
HETATM   18  C17 UNL     1      25.069   0.736 -13.058  1.00  0.00     0.124 C 
HETATM   19  C16 UNL     1      26.586   0.634 -13.219  1.00  0.00     0.277 C 
HETATM   20  F2  UNL     1      26.891  -0.686 -13.497  1.00  0.00    -0.203 F 
HETATM   21  F3  UNL     1      27.051   1.468 -14.205  1.00  0.00    -0.203 F 
BRANCH  14  22
HETATM   22  S1  UNL     1      27.637   0.112  -8.768  1.00  0.00     0.172 S 
HETATM   23  C1  UNL     1      27.413  -0.027  -7.022  1.00  0.00     0.167 C 
HETATM   24  O1  UNL     1      28.643  -0.889  -9.283  1.00  0.00    -0.223 OA
HETATM   25  O2  UNL     1      28.185   1.479  -9.100  1.00  0.00    -0.223 OA
ENDBRANCH  14  22
BRANCH  17  26
HETATM   26  O4  UNL     1      26.935   2.390 -11.691  1.00  0.00    -0.385 OA
ATOM     27  H4  UNL     1      26.951   2.598 -10.764  1.00  0.00     0.210 HD
ENDBRANCH  17  26
ENDBRANCH  10  11
ENDBRANCH   1  10
TORSDOF 4
ENDMDL
