MODEL 5
REMARK VINA RESULT: -4.198464624      0.104      3.232
REMARK  2 active torsions:
REMARK  status: ('A' for Active; 'I' for Inactive)
REMARK    1  A    between atoms: C1_2  and  C2_4 
REMARK    2  A    between atoms: C2_4  and  C3_5 
ROOT
HETATM    1  C2  UNL     1      83.121 -20.871  18.986  1.00  0.00     0.226 C 
ENDROOT
BRANCH   1   2
HETATM    2  C1  UNL     1      83.729 -22.016  19.657  1.00  0.00     0.182 C 
HETATM    3  O1  UNL     1      84.098 -23.004  18.969  1.00  0.00    -0.648 OA
HETATM    4  O2  UNL     1      83.944 -22.098  21.019  1.00  0.00    -0.648 OA
ENDBRANCH   1   2
BRANCH   1   5
HETATM    5  C3  UNL     1      81.653 -20.977  18.924  1.00  0.00     0.182 C 
HETATM    6  O3  UNL     1      81.086 -22.090  18.889  1.00  0.00    -0.648 OA
HETATM    7  O4  UNL     1      80.859 -19.847  18.899  1.00  0.00    -0.648 OA
ENDBRANCH   1   5
TORSDOF 2
ENDMDL
