MODEL 3
REMARK VINA RESULT: -4.220701152      0.097      3.309
REMARK  2 active torsions:
REMARK  status: ('A' for Active; 'I' for Inactive)
REMARK    1  A    between atoms: C1_2  and  C2_4 
REMARK    2  A    between atoms: C2_4  and  C3_5 
ROOT
HETATM    1  C2  UNL     1      83.163 -20.854  18.971  1.00  0.00     0.226 C 
ENDROOT
BRANCH   1   2
HETATM    2  C1  UNL     1      83.739 -22.008  19.654  1.00  0.00     0.182 C 
HETATM    3  O1  UNL     1      84.094 -23.008  18.973  1.00  0.00    -0.648 OA
HETATM    4  O2  UNL     1      83.937 -22.090  21.018  1.00  0.00    -0.648 OA
ENDBRANCH   1   2
BRANCH   1   5
HETATM    5  C3  UNL     1      81.692 -20.906  18.932  1.00  0.00     0.182 C 
HETATM    6  O3  UNL     1      81.008 -19.861  18.957  1.00  0.00    -0.648 OA
HETATM    7  O4  UNL     1      81.024 -22.114  18.871  1.00  0.00    -0.648 OA
ENDBRANCH   1   5
TORSDOF 2
ENDMDL
