MODEL 1
REMARK VINA RESULT: -4.237319055      0.000      0.000
REMARK  2 active torsions:
REMARK  status: ('A' for Active; 'I' for Inactive)
REMARK    1  A    between atoms: C1_2  and  C2_4 
REMARK    2  A    between atoms: C2_4  and  C3_5 
ROOT
HETATM    1  C2  UNL     1      83.151 -20.830  19.048  1.00  0.00     0.226 C 
ENDROOT
BRANCH   1   2
HETATM    2  C1  UNL     1      81.705 -20.955  18.888  1.00  0.00     0.182 C 
HETATM    3  O1  UNL     1      81.014 -19.913  18.736  1.00  0.00    -0.648 OA
HETATM    4  O2  UNL     1      81.021 -22.155  18.884  1.00  0.00    -0.648 OA
ENDBRANCH   1   2
BRANCH   1   5
HETATM    5  C3  UNL     1      83.750 -22.029  19.658  1.00  0.00     0.182 C 
HETATM    6  O3  UNL     1      84.086 -23.009  18.961  1.00  0.00    -0.648 OA
HETATM    7  O4  UNL     1      83.955 -22.106  21.022  1.00  0.00    -0.648 OA
ENDBRANCH   1   5
TORSDOF 2
ENDMDL
