MODEL 6
REMARK VINA RESULT: -4.187981416      0.257      1.225
REMARK  2 active torsions:
REMARK  status: ('A' for Active; 'I' for Inactive)
REMARK    1  A    between atoms: C1_2  and  C2_4 
REMARK    2  A    between atoms: C2_4  and  C3_5 
ROOT
HETATM    1  C2  UNL     1      83.273 -20.942  19.031  1.00  0.00     0.226 C 
ENDROOT
BRANCH   1   2
HETATM    2  C1  UNL     1      81.818 -20.999  18.922  1.00  0.00     0.182 C 
HETATM    3  O1  UNL     1      81.247 -22.122  18.928  1.00  0.00    -0.648 OA
HETATM    4  O2  UNL     1      80.999 -19.892  18.817  1.00  0.00    -0.648 OA
ENDBRANCH   1   2
BRANCH   1   5
HETATM    5  C3  UNL     1      83.812 -22.036  19.858  1.00  0.00     0.182 C 
HETATM    6  O3  UNL     1      84.342 -23.039  19.336  1.00  0.00    -0.648 OA
HETATM    7  O4  UNL     1      83.744 -21.984  21.237  1.00  0.00    -0.648 OA
ENDBRANCH   1   5
TORSDOF 2
ENDMDL
