MODEL 9
REMARK VINA RESULT: -4.170937069      0.257      3.191
REMARK  2 active torsions:
REMARK  status: ('A' for Active; 'I' for Inactive)
REMARK    1  A    between atoms: C1_2  and  C2_4 
REMARK    2  A    between atoms: C2_4  and  C3_5 
ROOT
HETATM    1  C2  UNL     1      83.210 -20.808  19.069  1.00  0.00     0.226 C 
ENDROOT
BRANCH   1   2
HETATM    2  C1  UNL     1      83.760 -21.903  19.863  1.00  0.00     0.182 C 
HETATM    3  O1  UNL     1      83.714 -21.830  21.120  1.00  0.00    -0.648 OA
HETATM    4  O2  UNL     1      84.333 -23.042  19.332  1.00  0.00    -0.648 OA
ENDBRANCH   1   2
BRANCH   1   5
HETATM    5  C3  UNL     1      81.761 -20.953  18.849  1.00  0.00     0.182 C 
HETATM    6  O3  UNL     1      81.049 -19.966  18.567  1.00  0.00    -0.648 OA
HETATM    7  O4  UNL     1      81.145 -22.185  18.953  1.00  0.00    -0.648 OA
ENDBRANCH   1   5
TORSDOF 2
ENDMDL
