MODEL 2
REMARK VINA RESULT: -7.290412848      2.309      5.683
REMARK  12 active torsions:
REMARK  status: ('A' for Active; 'I' for Inactive)
REMARK       I    between atoms: C1_2  and  N1_3 
REMARK    1  A    between atoms: C1_2  and  C14_24 
REMARK    2  A    between atoms: N1_3  and  C2_5 
REMARK    3  A    between atoms: C2_5  and  C3_6 
REMARK    4  A    between atoms: C3_6  and  C4_7 
REMARK    5  A    between atoms: C4_7  and  C5_8 
REMARK    6  A    between atoms: C5_8  and  C6_9 
REMARK    7  A    between atoms: C6_9  and  N2_10 
REMARK       I    between atoms: N2_10  and  C7_12 
REMARK    8  A    between atoms: C7_12  and  C8_14 
REMARK    9  A    between atoms: C12_18  and  O3_19 
REMARK   10  A    between atoms: C13_21  and  O4_22 
REMARK   11  A    between atoms: C18_28  and  O5_29 
REMARK   12  A    between atoms: C19_31  and  O6_32 
ROOT
HETATM    1  C4  UNL     1      -8.886  -4.886  -1.985  1.00  0.00     0.003 C 
ENDROOT
BRANCH   1   2
HETATM    2  C3  UNL     1      -8.628  -4.599  -3.503  1.00  0.00     0.020 C 
BRANCH   2   3
HETATM    3  C2  UNL     1      -7.243  -4.053  -3.586  1.00  0.00     0.123 C 
BRANCH   3   4
HETATM    4  N1  UNL     1      -6.712  -3.825  -2.239  1.00  0.00    -0.357 N 
HETATM    5  C1  UNL     1      -5.385  -3.504  -1.979  1.00  0.00     0.254 C 
HETATM    6  O1  UNL     1      -4.619  -3.433  -3.012  1.00  0.00    -0.268 OA
ATOM      7  H1  UNL     1      -7.352  -3.906  -1.448  1.00  0.00     0.162 HD
BRANCH   5   8
HETATM    8  C14 UNL     1      -4.789  -3.251  -0.690  1.00  0.00     0.067 A 
HETATM    9  C15 UNL     1      -3.634  -3.956  -0.318  1.00  0.00     0.020 A 
HETATM   10  C16 UNL     1      -3.008  -3.785   0.893  1.00  0.00     0.004 A 
HETATM   11  C17 UNL     1      -3.522  -2.878   1.805  1.00  0.00     0.039 A 
HETATM   12  C18 UNL     1      -4.642  -2.168   1.490  1.00  0.00     0.099 A 
HETATM   13  C19 UNL     1      -5.251  -2.367   0.253  1.00  0.00     0.114 A 
BRANCH  12  14
HETATM   14  O5  UNL     1      -5.215  -1.240   2.351  1.00  0.00    -0.358 OA
ATOM     15  H5  UNL     1      -6.151  -1.085   2.394  1.00  0.00     0.217 HD
ENDBRANCH  12  14
BRANCH  13  16
HETATM   16  O6  UNL     1      -6.380  -1.632  -0.023  1.00  0.00    -0.357 OA
ATOM     17  H6  UNL     1      -6.338  -0.962  -0.695  1.00  0.00     0.217 HD
ENDBRANCH  13  16
ENDBRANCH   5   8
ENDBRANCH   3   4
ENDBRANCH   2   3
ENDBRANCH   1   2
BRANCH   1  18
HETATM   18  C5  UNL     1     -10.124  -4.174  -1.639  1.00  0.00     0.020 C 
BRANCH  18  19
HETATM   19  C6  UNL     1     -10.641  -3.078  -2.466  1.00  0.00     0.123 C 
BRANCH  19  20
HETATM   20  N2  UNL     1     -10.833  -1.831  -1.821  1.00  0.00    -0.357 N 
HETATM   21  C7  UNL     1      -9.841  -0.920  -1.447  1.00  0.00     0.254 C 
HETATM   22  O2  UNL     1      -8.635  -1.213  -1.734  1.00  0.00    -0.268 OA
ATOM     23  H2  UNL     1     -11.796  -1.570  -1.608  1.00  0.00     0.162 HD
BRANCH  21  24
HETATM   24  C8  UNL     1     -10.090   0.322  -0.762  1.00  0.00     0.067 A 
HETATM   25  C9  UNL     1     -11.230   1.039  -1.166  1.00  0.00     0.020 A 
HETATM   26  C10 UNL     1     -11.608   2.243  -0.614  1.00  0.00     0.004 A 
HETATM   27  C11 UNL     1     -10.819   2.743   0.378  1.00  0.00     0.039 A 
HETATM   28  C12 UNL     1      -9.696   2.122   0.839  1.00  0.00     0.099 A 
HETATM   29  C13 UNL     1      -9.339   0.884   0.242  1.00  0.00     0.114 A 
BRANCH  28  30
HETATM   30  O3  UNL     1      -8.952   2.687   1.842  1.00  0.00    -0.358 OA
ATOM     31  H3  UNL     1      -8.117   2.308   2.094  1.00  0.00     0.217 HD
ENDBRANCH  28  30
BRANCH  29  32
HETATM   32  O4  UNL     1      -8.251   0.296   0.699  1.00  0.00    -0.357 OA
ATOM     33  H4  UNL     1      -8.295  -0.372   1.374  1.00  0.00     0.217 HD
ENDBRANCH  29  32
ENDBRANCH  21  24
ENDBRANCH  19  20
ENDBRANCH  18  19
ENDBRANCH   1  18
TORSDOF 12
ENDMDL
