MODEL 3
REMARK VINA RESULT: -7.162583690      1.852      5.052
REMARK  12 active torsions:
REMARK  status: ('A' for Active; 'I' for Inactive)
REMARK       I    between atoms: C1_2  and  N1_3 
REMARK    1  A    between atoms: C1_2  and  C14_24 
REMARK    2  A    between atoms: N1_3  and  C2_5 
REMARK    3  A    between atoms: C2_5  and  C3_6 
REMARK    4  A    between atoms: C3_6  and  C4_7 
REMARK    5  A    between atoms: C4_7  and  C5_8 
REMARK    6  A    between atoms: C5_8  and  C6_9 
REMARK    7  A    between atoms: C6_9  and  N2_10 
REMARK       I    between atoms: N2_10  and  C7_12 
REMARK    8  A    between atoms: C7_12  and  C8_14 
REMARK    9  A    between atoms: C12_18  and  O3_19 
REMARK   10  A    between atoms: C13_21  and  O4_22 
REMARK   11  A    between atoms: C18_28  and  O5_29 
REMARK   12  A    between atoms: C19_31  and  O6_32 
ROOT
HETATM    1  C4  UNL     1      -7.761  -5.433  -1.283  1.00  0.00     0.003 C 
ENDROOT
BRANCH   1   2
HETATM    2  C3  UNL     1      -8.754  -4.757  -0.277  1.00  0.00     0.020 C 
BRANCH   2   3
HETATM    3  C2  UNL     1      -8.063  -3.533   0.219  1.00  0.00     0.123 C 
BRANCH   3   4
HETATM    4  N1  UNL     1      -6.663  -3.838   0.532  1.00  0.00    -0.357 N 
HETATM    5  C1  UNL     1      -5.706  -2.868   0.802  1.00  0.00     0.254 C 
HETATM    6  O1  UNL     1      -6.120  -1.649   0.744  1.00  0.00    -0.268 OA
ATOM      7  H1  UNL     1      -6.376  -4.817   0.552  1.00  0.00     0.162 HD
BRANCH   5   8
HETATM    8  C14 UNL     1      -4.319  -3.084   1.131  1.00  0.00     0.067 A 
HETATM    9  C15 UNL     1      -3.576  -4.017   0.392  1.00  0.00     0.020 A 
HETATM   10  C16 UNL     1      -2.254  -4.293   0.644  1.00  0.00     0.004 A 
HETATM   11  C17 UNL     1      -1.602  -3.630   1.670  1.00  0.00     0.039 A 
HETATM   12  C18 UNL     1      -2.281  -2.713   2.417  1.00  0.00     0.099 A 
HETATM   13  C19 UNL     1      -3.621  -2.458   2.133  1.00  0.00     0.114 A 
BRANCH  12  14
HETATM   14  O5  UNL     1      -1.695  -2.006   3.461  1.00  0.00    -0.358 OA
ATOM     15  H5  UNL     1      -1.679  -2.326   4.355  1.00  0.00     0.217 HD
ENDBRANCH  12  14
BRANCH  13  16
HETATM   16  O6  UNL     1      -4.268  -1.528   2.913  1.00  0.00    -0.357 OA
ATOM     17  H6  UNL     1      -3.751  -0.962   3.474  1.00  0.00     0.217 HD
ENDBRANCH  13  16
ENDBRANCH   5   8
ENDBRANCH   3   4
ENDBRANCH   2   3
ENDBRANCH   1   2
BRANCH   1  18
HETATM   18  C5  UNL     1      -8.464  -5.497  -2.572  1.00  0.00     0.020 C 
BRANCH  18  19
HETATM   19  C6  UNL     1      -8.115  -4.608  -3.686  1.00  0.00     0.123 C 
BRANCH  19  20
HETATM   20  N2  UNL     1      -6.950  -3.817  -3.528  1.00  0.00    -0.357 N 
HETATM   21  C7  UNL     1      -6.878  -2.532  -2.982  1.00  0.00     0.254 C 
HETATM   22  O2  UNL     1      -7.959  -2.014  -2.551  1.00  0.00    -0.268 OA
ATOM     23  H2  UNL     1      -6.073  -4.228  -3.845  1.00  0.00     0.162 HD
BRANCH  21  24
HETATM   24  C8  UNL     1      -5.669  -1.757  -2.876  1.00  0.00     0.067 A 
HETATM   25  C9  UNL     1      -4.482  -2.481  -2.669  1.00  0.00     0.020 A 
HETATM   26  C10 UNL     1      -3.243  -1.893  -2.546  1.00  0.00     0.004 A 
HETATM   27  C11 UNL     1      -3.192  -0.533  -2.634  1.00  0.00     0.039 A 
HETATM   28  C12 UNL     1      -4.286   0.254  -2.834  1.00  0.00     0.099 A 
HETATM   29  C13 UNL     1      -5.546  -0.391  -2.955  1.00  0.00     0.114 A 
BRANCH  28  30
HETATM   30  O3  UNL     1      -4.157   1.617  -2.914  1.00  0.00    -0.358 OA
ATOM     31  H3  UNL     1      -3.961   2.034  -3.745  1.00  0.00     0.217 HD
ENDBRANCH  28  30
BRANCH  29  32
HETATM   32  O4  UNL     1      -6.595   0.384  -3.149  1.00  0.00    -0.357 OA
ATOM     33  H4  UNL     1      -6.501   1.319  -3.295  1.00  0.00     0.217 HD
ENDBRANCH  29  32
ENDBRANCH  21  24
ENDBRANCH  19  20
ENDBRANCH  18  19
ENDBRANCH   1  18
TORSDOF 12
ENDMDL
