MODEL 9
REMARK VINA RESULT: -6.808544684      7.400      9.939
REMARK  12 active torsions:
REMARK  status: ('A' for Active; 'I' for Inactive)
REMARK       I    between atoms: C1_2  and  N1_3 
REMARK    1  A    between atoms: C1_2  and  C14_24 
REMARK    2  A    between atoms: N1_3  and  C2_5 
REMARK    3  A    between atoms: C2_5  and  C3_6 
REMARK    4  A    between atoms: C3_6  and  C4_7 
REMARK    5  A    between atoms: C4_7  and  C5_8 
REMARK    6  A    between atoms: C5_8  and  C6_9 
REMARK    7  A    between atoms: C6_9  and  N2_10 
REMARK       I    between atoms: N2_10  and  C7_12 
REMARK    8  A    between atoms: C7_12  and  C8_14 
REMARK    9  A    between atoms: C12_18  and  O3_19 
REMARK   10  A    between atoms: C13_21  and  O4_22 
REMARK   11  A    between atoms: C18_28  and  O5_29 
REMARK   12  A    between atoms: C19_31  and  O6_32 
ROOT
HETATM    1  C4  UNL     1     -14.183   5.450   0.692  1.00  0.00     0.003 C 
ENDROOT
BRANCH   1   2
HETATM    2  C3  UNL     1     -15.179   5.085  -0.460  1.00  0.00     0.020 C 
BRANCH   2   3
HETATM    3  C2  UNL     1     -15.036   3.618  -0.677  1.00  0.00     0.123 C 
BRANCH   3   4
HETATM    4  N1  UNL     1     -13.775   3.145  -0.095  1.00  0.00    -0.357 N 
HETATM    5  C1  UNL     1     -12.754   2.568  -0.839  1.00  0.00     0.254 C 
HETATM    6  O1  UNL     1     -12.985   2.449  -2.101  1.00  0.00    -0.268 OA
ATOM      7  H1  UNL     1     -13.641   3.246   0.912  1.00  0.00     0.162 HD
BRANCH   5   8
HETATM    8  C14 UNL     1     -11.484   2.093  -0.348  1.00  0.00     0.067 A 
HETATM    9  C15 UNL     1     -10.969   0.883  -0.838  1.00  0.00     0.020 A 
HETATM   10  C16 UNL     1      -9.773   0.351  -0.418  1.00  0.00     0.004 A 
HETATM   11  C17 UNL     1      -9.022   1.026   0.531  1.00  0.00     0.039 A 
HETATM   12  C18 UNL     1      -9.480   2.205   1.037  1.00  0.00     0.099 A 
HETATM   13  C19 UNL     1     -10.697   2.715   0.589  1.00  0.00     0.114 A 
BRANCH  12  14
HETATM   14  O5  UNL     1      -8.783   2.940   1.989  1.00  0.00    -0.358 OA
ATOM     15  H5  UNL     1      -9.107   3.758   2.349  1.00  0.00     0.217 HD
ENDBRANCH  12  14
BRANCH  13  16
HETATM   16  O6  UNL     1     -11.122   3.907   1.127  1.00  0.00    -0.357 OA
ATOM     17  H6  UNL     1     -10.473   4.557   1.369  1.00  0.00     0.217 HD
ENDBRANCH  13  16
ENDBRANCH   5   8
ENDBRANCH   3   4
ENDBRANCH   2   3
ENDBRANCH   1   2
BRANCH   1  18
HETATM   18  C5  UNL     1     -14.257   6.908   0.852  1.00  0.00     0.020 C 
BRANCH  18  19
HETATM   19  C6  UNL     1     -13.460   7.616   1.861  1.00  0.00     0.123 C 
BRANCH  19  20
HETATM   20  N2  UNL     1     -12.068   7.716   1.616  1.00  0.00    -0.357 N 
HETATM   21  C7  UNL     1     -11.211   8.728   2.059  1.00  0.00     0.254 C 
HETATM   22  O2  UNL     1     -11.712   9.649   2.783  1.00  0.00    -0.268 OA
ATOM     23  H2  UNL     1     -11.647   6.973   1.059  1.00  0.00     0.162 HD
BRANCH  21  24
HETATM   24  C8  UNL     1      -9.806   8.800   1.752  1.00  0.00     0.067 A 
HETATM   25  C9  UNL     1      -9.274  10.088   1.566  1.00  0.00     0.020 A 
HETATM   26  C10 UNL     1      -7.952  10.330   1.267  1.00  0.00     0.004 A 
HETATM   27  C11 UNL     1      -7.134   9.245   1.153  1.00  0.00     0.039 A 
HETATM   28  C12 UNL     1      -7.556   7.959   1.316  1.00  0.00     0.099 A 
HETATM   29  C13 UNL     1      -8.927   7.751   1.622  1.00  0.00     0.114 A 
BRANCH  28  30
HETATM   30  O3  UNL     1      -6.675   6.917   1.187  1.00  0.00    -0.358 OA
ATOM     31  H3  UNL     1      -6.949   6.101   0.785  1.00  0.00     0.217 HD
ENDBRANCH  28  30
BRANCH  29  32
HETATM   32  O4  UNL     1      -9.319   6.502   1.778  1.00  0.00    -0.357 OA
ATOM     33  H4  UNL     1      -8.951   5.798   1.256  1.00  0.00     0.217 HD
ENDBRANCH  29  32
ENDBRANCH  21  24
ENDBRANCH  19  20
ENDBRANCH  18  19
ENDBRANCH   1  18
TORSDOF 12
ENDMDL
