MODEL 1
REMARK VINA RESULT: -7.353432928      0.000      0.000
REMARK  12 active torsions:
REMARK  status: ('A' for Active; 'I' for Inactive)
REMARK       I    between atoms: C1_2  and  N1_3 
REMARK    1  A    between atoms: C1_2  and  C14_24 
REMARK    2  A    between atoms: N1_3  and  C2_5 
REMARK    3  A    between atoms: C2_5  and  C3_6 
REMARK    4  A    between atoms: C3_6  and  C4_7 
REMARK    5  A    between atoms: C4_7  and  C5_8 
REMARK    6  A    between atoms: C5_8  and  C6_9 
REMARK    7  A    between atoms: C6_9  and  N2_10 
REMARK       I    between atoms: N2_10  and  C7_12 
REMARK    8  A    between atoms: C7_12  and  C8_14 
REMARK    9  A    between atoms: C12_18  and  O3_19 
REMARK   10  A    between atoms: C13_21  and  O4_22 
REMARK   11  A    between atoms: C18_28  and  O5_29 
REMARK   12  A    between atoms: C19_31  and  O6_32 
ROOT
HETATM    1  C4  UNL     1      -9.460   0.107  -0.845  1.00  0.00     0.003 C 
ENDROOT
BRANCH   1   2
HETATM    2  C3  UNL     1     -10.308  -1.208  -0.930  1.00  0.00     0.020 C 
BRANCH   2   3
HETATM    3  C2  UNL     1      -9.608  -2.083  -1.913  1.00  0.00     0.123 C 
BRANCH   3   4
HETATM    4  N1  UNL     1      -8.272  -1.550  -2.198  1.00  0.00    -0.357 N 
HETATM    5  C1  UNL     1      -7.140  -2.344  -2.333  1.00  0.00     0.254 C 
HETATM    6  O1  UNL     1      -7.327  -3.609  -2.174  1.00  0.00    -0.268 OA
ATOM      7  H1  UNL     1      -8.168  -0.540  -2.301  1.00  0.00     0.162 HD
BRANCH   5   8
HETATM    8  C14 UNL     1      -5.799  -1.903  -2.626  1.00  0.00     0.067 A 
HETATM    9  C15 UNL     1      -4.909  -2.785  -3.258  1.00  0.00     0.020 A 
HETATM   10  C16 UNL     1      -3.611  -2.451  -3.563  1.00  0.00     0.004 A 
HETATM   11  C17 UNL     1      -3.138  -1.189  -3.244  1.00  0.00     0.039 A 
HETATM   12  C18 UNL     1      -3.965  -0.296  -2.630  1.00  0.00     0.099 A 
HETATM   13  C19 UNL     1      -5.274  -0.668  -2.334  1.00  0.00     0.114 A 
BRANCH  12  14
HETATM   14  O5  UNL     1      -3.563   0.988  -2.280  1.00  0.00    -0.358 OA
ATOM     15  H5  UNL     1      -4.174   1.663  -2.005  1.00  0.00     0.217 HD
ENDBRANCH  12  14
BRANCH  13  16
HETATM   16  O6  UNL     1      -6.073   0.262  -1.713  1.00  0.00    -0.357 OA
ATOM     17  H6  UNL     1      -5.853   1.183  -1.794  1.00  0.00     0.217 HD
ENDBRANCH  13  16
ENDBRANCH   5   8
ENDBRANCH   3   4
ENDBRANCH   2   3
ENDBRANCH   1   2
BRANCH   1  18
HETATM   18  C5  UNL     1      -8.824   0.099   0.479  1.00  0.00     0.020 C 
BRANCH  18  19
HETATM   19  C6  UNL     1      -8.383  -1.148   1.116  1.00  0.00     0.123 C 
BRANCH  19  20
HETATM   20  N2  UNL     1      -6.988  -1.394   1.135  1.00  0.00    -0.357 N 
HETATM   21  C7  UNL     1      -6.357  -2.641   1.145  1.00  0.00     0.254 C 
HETATM   22  O2  UNL     1      -7.100  -3.676   1.106  1.00  0.00    -0.268 OA
ATOM     23  H2  UNL     1      -6.380  -0.575   1.141  1.00  0.00     0.162 HD
BRANCH  21  24
HETATM   24  C8  UNL     1      -4.931  -2.835   1.199  1.00  0.00     0.067 A 
HETATM   25  C9  UNL     1      -4.377  -3.655   0.200  1.00  0.00     0.020 A 
HETATM   26  C10 UNL     1      -3.033  -3.942   0.109  1.00  0.00     0.004 A 
HETATM   27  C11 UNL     1      -2.217  -3.386   1.050  1.00  0.00     0.039 A 
HETATM   28  C12 UNL     1      -2.660  -2.579   2.055  1.00  0.00     0.099 A 
HETATM   29  C13 UNL     1      -4.053  -2.309   2.115  1.00  0.00     0.114 A 
BRANCH  28  30
HETATM   30  O3  UNL     1      -1.779  -2.055   2.965  1.00  0.00    -0.358 OA
ATOM     31  H3  UNL     1      -1.740  -1.117   3.114  1.00  0.00     0.217 HD
ENDBRANCH  28  30
BRANCH  29  32
HETATM   32  O4  UNL     1      -4.465  -1.525   3.092  1.00  0.00    -0.357 OA
ATOM     33  H4  UNL     1      -3.986  -0.741   3.335  1.00  0.00     0.217 HD
ENDBRANCH  29  32
ENDBRANCH  21  24
ENDBRANCH  19  20
ENDBRANCH  18  19
ENDBRANCH   1  18
TORSDOF 12
ENDMDL
