MODEL 15
REMARK VINA RESULT: -4.130539176      2.925      4.631
REMARK  0 active torsions:
REMARK  status: ('A' for Active; 'I' for Inactive)
ROOT
HETATM    1  N1  UNL     1      -0.770  11.314   5.307  1.00  0.00    -0.080 NA
HETATM    2  C1  UNL     1      -1.523  12.126   6.196  1.00  0.00     0.147 A 
HETATM    3  N2  UNL     1      -1.002  12.615   7.340  1.00  0.00    -0.339 N 
ATOM      4  H2  UNL     1      -0.035  12.400   7.584  1.00  0.00     0.167 HD
HETATM    5  C2  UNL     1      -1.742  13.385   8.168  1.00  0.00     0.183 A 
HETATM    6  N3  UNL     1      -3.025  13.707   7.912  1.00  0.00    -0.337 N 
ATOM      7  H3  UNL     1      -3.554  14.290   8.560  1.00  0.00     0.168 HD
HETATM    8  C3  UNL     1      -3.596  13.244   6.781  1.00  0.00     0.137 A 
HETATM    9  N4  UNL     1      -4.818  13.357   6.211  1.00  0.00    -0.337 N 
ATOM     10  H4  UNL     1      -5.598  13.881   6.606  1.00  0.00     0.168 HD
HETATM   11  C4  UNL     1      -4.857  12.679   5.051  1.00  0.00     0.182 A 
HETATM   12  N5  UNL     1      -3.641  12.129   4.887  1.00  0.00    -0.347 N 
ATOM     13  H5  UNL     1      -3.362  11.552   4.094  1.00  0.00     0.167 HD
HETATM   14  C5  UNL     1      -2.844  12.454   5.925  1.00  0.00     0.119 A 
ENDROOT
TORSDOF 0
ENDMDL
