MODEL 13
REMARK VINA RESULT: -4.153466644      2.202      3.725
REMARK  0 active torsions:
REMARK  status: ('A' for Active; 'I' for Inactive)
ROOT
HETATM    1  N1  UNL     1       0.728  10.328   5.519  1.00  0.00    -0.080 NA
HETATM    2  C1  UNL     1      -0.180  11.179   6.205  1.00  0.00     0.147 A 
HETATM    3  N2  UNL     1       0.083  11.670   7.433  1.00  0.00    -0.339 N 
ATOM      4  H2  UNL     1       0.961  11.429   7.893  1.00  0.00     0.167 HD
HETATM    5  C2  UNL     1      -0.799  12.477   8.063  1.00  0.00     0.183 A 
HETATM    6  N3  UNL     1      -1.978  12.835   7.517  1.00  0.00    -0.337 N 
ATOM      7  H3  UNL     1      -2.620  13.445   8.022  1.00  0.00     0.168 HD
HETATM    8  C3  UNL     1      -2.291  12.371   6.290  1.00  0.00     0.137 A 
HETATM    9  N4  UNL     1      -3.346  12.513   5.455  1.00  0.00    -0.337 N 
ATOM     10  H4  UNL     1      -4.178  13.068   5.656  1.00  0.00     0.168 HD
HETATM   11  C4  UNL     1      -3.143  11.817   4.323  1.00  0.00     0.182 A 
HETATM   12  N5  UNL     1      -1.942  11.226   4.446  1.00  0.00    -0.347 N 
ATOM     13  H5  UNL     1      -1.509  10.627   3.744  1.00  0.00     0.167 HD
HETATM   14  C5  UNL     1      -1.391  11.543   5.636  1.00  0.00     0.119 A 
ENDROOT
TORSDOF 0
ENDMDL
