MODEL 3
REMARK VINA RESULT: -7.844196189      4.037      5.266
REMARK  4 active torsions:
REMARK  status: ('A' for Active; 'I' for Inactive)
REMARK    1  A    between atoms: N1_1  and  S1_4 
REMARK    2  A    between atoms: S1_4  and  C1_7 
REMARK    3  A    between atoms: C5_12  and  N2_13 
REMARK       I    between atoms: N2_13  and  C6_15 
REMARK    4  A    between atoms: C6_15  and  C7_17 
ROOT
HETATM    1  C1  UNL     1      -2.713   2.300  85.778  1.00  0.00     0.081 A 
HETATM    2  C2  UNL     1      -1.729   1.750  84.977  1.00  0.00     0.028 A 
HETATM    3  C3  UNL     1      -1.125   2.462  83.965  1.00  0.00     0.041 A 
HETATM    4  C4  UNL     1      -1.474   3.771  83.699  1.00  0.00     0.106 A 
HETATM    5  O3  UNL     1      -1.090   4.676  82.832  1.00  0.00    -0.277 OA
HETATM    6  C5  UNL     1      -1.766   5.774  83.026  1.00  0.00     0.232 A 
HETATM    7  N3  UNL     1      -2.623   5.600  84.048  1.00  0.00    -0.319 N 
ATOM      8  H3  UNL     1      -3.275   6.292  84.418  1.00  0.00     0.169 HD
HETATM    9  C13 UNL     1      -2.454   4.332  84.492  1.00  0.00     0.071 A 
HETATM   10  C14 UNL     1      -3.062   3.607  85.511  1.00  0.00     0.057 A 
ENDROOT
BRANCH   6  11
HETATM   11  N2  UNL     1      -1.602   6.975  82.254  1.00  0.00    -0.288 N 
HETATM   12  C6  UNL     1      -2.731   7.658  81.727  1.00  0.00     0.258 C 
HETATM   13  O4  UNL     1      -3.875   7.168  81.965  1.00  0.00    -0.267 OA
ATOM     14  H2  UNL     1      -0.666   7.341  82.083  1.00  0.00     0.172 HD
BRANCH  12  15
HETATM   15  C7  UNL     1      -2.594   8.864  80.950  1.00  0.00     0.032 A 
HETATM   16  C8  UNL     1      -1.445   9.162  80.270  1.00  0.00     0.017 A 
HETATM   17  C9  UNL     1      -1.329  10.342  79.517  1.00  0.00     0.001 A 
HETATM   18  C10 UNL     1      -2.428  11.174  79.501  1.00  0.00     0.000 A 
HETATM   19  C11 UNL     1      -3.596  10.916  80.166  1.00  0.00     0.001 A 
HETATM   20  C12 UNL     1      -3.655   9.738  80.892  1.00  0.00     0.017 A 
ENDBRANCH  12  15
ENDBRANCH   6  11
BRANCH   1  21
HETATM   21  S1  UNL     1      -3.468   1.377  87.057  1.00  0.00     0.256 S 
HETATM   22  O1  UNL     1      -2.837   0.031  87.161  1.00  0.00    -0.201 OA
HETATM   23  O2  UNL     1      -4.935   1.225  86.768  1.00  0.00    -0.201 OA
BRANCH  21  24
HETATM   24  N1  UNL     1      -3.263   2.299  88.523  1.00  0.00    -0.324 N 
ATOM     25  H12 UNL     1      -2.393   2.317  89.056  1.00  0.00     0.169 HD
ATOM     26  H11 UNL     1      -4.112   2.808  88.770  1.00  0.00     0.169 HD
ENDBRANCH  21  24
ENDBRANCH   1  21
TORSDOF 4
ENDMDL
