MODEL 7
REMARK VINA RESULT: -7.613464277      4.157      5.246
REMARK  4 active torsions:
REMARK  status: ('A' for Active; 'I' for Inactive)
REMARK    1  A    between atoms: N1_1  and  S1_4 
REMARK    2  A    between atoms: S1_4  and  C1_7 
REMARK    3  A    between atoms: C5_12  and  N2_13 
REMARK       I    between atoms: N2_13  and  C6_15 
REMARK    4  A    between atoms: C6_15  and  C7_17 
ROOT
HETATM    1  C1  UNL     1      -2.181   2.485  86.064  1.00  0.00     0.081 A 
HETATM    2  C2  UNL     1      -0.826   2.370  85.815  1.00  0.00     0.028 A 
HETATM    3  C3  UNL     1      -0.149   3.266  85.018  1.00  0.00     0.041 A 
HETATM    4  C4  UNL     1      -0.796   4.331  84.424  1.00  0.00     0.106 A 
HETATM    5  O3  UNL     1      -0.432   5.318  83.641  1.00  0.00    -0.277 OA
HETATM    6  C5  UNL     1      -1.470   6.060  83.371  1.00  0.00     0.232 A 
HETATM    7  N3  UNL     1      -2.554   5.558  83.989  1.00  0.00    -0.319 N 
ATOM      8  H3  UNL     1      -3.502   5.935  83.955  1.00  0.00     0.169 HD
HETATM    9  C13 UNL     1      -2.148   4.458  84.665  1.00  0.00     0.071 A 
HETATM   10  C14 UNL     1      -2.827   3.549  85.470  1.00  0.00     0.057 A 
ENDROOT
BRANCH   6  11
HETATM   11  N2  UNL     1      -1.437   7.230  82.538  1.00  0.00    -0.288 N 
HETATM   12  C6  UNL     1      -2.575   7.614  81.779  1.00  0.00     0.258 C 
HETATM   13  O4  UNL     1      -3.609   6.887  81.868  1.00  0.00    -0.267 OA
ATOM     14  H2  UNL     1      -0.587   7.792  82.491  1.00  0.00     0.172 HD
BRANCH  12  15
HETATM   15  C7  UNL     1      -2.567   8.783  80.936  1.00  0.00     0.032 A 
HETATM   16  C8  UNL     1      -3.621   9.655  80.896  1.00  0.00     0.017 A 
HETATM   17  C9  UNL     1      -3.595  10.790  80.069  1.00  0.00     0.001 A 
HETATM   18  C10 UNL     1      -2.461  10.974  79.308  1.00  0.00     0.000 A 
HETATM   19  C11 UNL     1      -1.385  10.129  79.317  1.00  0.00     0.001 A 
HETATM   20  C12 UNL     1      -1.463   9.025  80.151  1.00  0.00     0.017 A 
ENDBRANCH  12  15
ENDBRANCH   6  11
BRANCH   1  21
HETATM   21  S1  UNL     1      -3.021   1.335  87.079  1.00  0.00     0.256 S 
HETATM   22  O1  UNL     1      -2.673   1.561  88.509  1.00  0.00    -0.201 OA
HETATM   23  O2  UNL     1      -2.635  -0.062  86.681  1.00  0.00    -0.201 OA
BRANCH  21  24
HETATM   24  N1  UNL     1      -4.724   1.566  86.787  1.00  0.00    -0.324 N 
ATOM     25  H12 UNL     1      -5.417   0.824  86.894  1.00  0.00     0.169 HD
ATOM     26  H11 UNL     1      -4.932   2.523  86.502  1.00  0.00     0.169 HD
ENDBRANCH  21  24
ENDBRANCH   1  21
TORSDOF 4
ENDMDL
