MODEL 1
REMARK VINA RESULT: -7.898662725      0.000      0.000
REMARK  4 active torsions:
REMARK  status: ('A' for Active; 'I' for Inactive)
REMARK    1  A    between atoms: N1_1  and  S1_4 
REMARK    2  A    between atoms: S1_4  and  C1_7 
REMARK    3  A    between atoms: C5_12  and  N2_13 
REMARK       I    between atoms: N2_13  and  C6_15 
REMARK    4  A    between atoms: C6_15  and  C7_17 
ROOT
HETATM    1  C1  UNL     1      -2.772   2.414  85.692  1.00  0.00     0.081 A 
HETATM    2  C2  UNL     1      -3.248   3.703  85.537  1.00  0.00     0.028 A 
HETATM    3  C3  UNL     1      -2.786   4.540  84.545  1.00  0.00     0.041 A 
HETATM    4  C4  UNL     1      -1.819   4.129  83.650  1.00  0.00     0.106 A 
HETATM    5  O3  UNL     1      -1.201   4.679  82.633  1.00  0.00    -0.277 OA
HETATM    6  C5  UNL     1      -0.358   3.825  82.125  1.00  0.00     0.232 A 
HETATM    7  N3  UNL     1      -0.413   2.673  82.818  1.00  0.00    -0.319 N 
ATOM      8  H3  UNL     1       0.137   1.831  82.642  1.00  0.00     0.169 HD
HETATM    9  C13 UNL     1      -1.336   2.844  83.793  1.00  0.00     0.071 A 
HETATM   10  C14 UNL     1      -1.805   2.004  84.798  1.00  0.00     0.057 A 
ENDROOT
BRANCH   6  11
HETATM   11  N2  UNL     1       0.489   4.093  80.996  1.00  0.00    -0.288 N 
HETATM   12  C6  UNL     1       1.860   3.718  81.012  1.00  0.00     0.258 C 
HETATM   13  O4  UNL     1       2.296   3.142  82.053  1.00  0.00    -0.267 OA
ATOM     14  H2  UNL     1       0.103   4.558  80.175  1.00  0.00     0.172 HD
BRANCH  12  15
HETATM   15  C7  UNL     1       2.730   3.976  79.893  1.00  0.00     0.032 A 
HETATM   16  C8  UNL     1       2.257   4.073  78.613  1.00  0.00     0.017 A 
HETATM   17  C9  UNL     1       3.121   4.325  77.534  1.00  0.00     0.001 A 
HETATM   18  C10 UNL     1       4.459   4.469  77.835  1.00  0.00     0.000 A 
HETATM   19  C11 UNL     1       4.975   4.380  79.099  1.00  0.00     0.001 A 
HETATM   20  C12 UNL     1       4.078   4.130  80.125  1.00  0.00     0.017 A 
ENDBRANCH  12  15
ENDBRANCH   6  11
BRANCH   1  21
HETATM   21  S1  UNL     1      -3.371   1.368  86.959  1.00  0.00     0.256 S 
HETATM   22  O1  UNL     1      -2.681   0.049  86.906  1.00  0.00    -0.201 OA
HETATM   23  O2  UNL     1      -4.852   1.170  86.787  1.00  0.00    -0.201 OA
BRANCH  21  24
HETATM   24  N1  UNL     1      -3.072   2.191  88.466  1.00  0.00    -0.324 N 
ATOM     25  H12 UNL     1      -3.806   2.639  89.016  1.00  0.00     0.169 HD
ATOM     26  H11 UNL     1      -2.084   2.165  88.720  1.00  0.00     0.169 HD
ENDBRANCH  21  24
ENDBRANCH   1  21
TORSDOF 4
ENDMDL
