MODEL 2
REMARK VINA RESULT: -7.859663506      0.560      1.164
REMARK  4 active torsions:
REMARK  status: ('A' for Active; 'I' for Inactive)
REMARK    1  A    between atoms: N1_1  and  S1_4 
REMARK    2  A    between atoms: S1_4  and  C1_7 
REMARK    3  A    between atoms: C5_12  and  N2_13 
REMARK       I    between atoms: N2_13  and  C6_15 
REMARK    4  A    between atoms: C6_15  and  C7_17 
ROOT
HETATM    1  C1  UNL     1      -2.737   2.544  85.941  1.00  0.00     0.081 A 
HETATM    2  C2  UNL     1      -3.356   3.742  85.636  1.00  0.00     0.028 A 
HETATM    3  C3  UNL     1      -2.845   4.613  84.699  1.00  0.00     0.041 A 
HETATM    4  C4  UNL     1      -1.681   4.329  84.014  1.00  0.00     0.106 A 
HETATM    5  O3  UNL     1      -0.973   4.941  83.095  1.00  0.00    -0.277 OA
HETATM    6  C5  UNL     1       0.063   4.210  82.791  1.00  0.00     0.232 A 
HETATM    7  N3  UNL     1       0.048   3.082  83.523  1.00  0.00    -0.319 N 
ATOM      8  H3  UNL     1       0.735   2.328  83.493  1.00  0.00     0.169 HD
HETATM    9  C13 UNL     1      -1.054   3.136  84.308  1.00  0.00     0.071 A 
HETATM   10  C14 UNL     1      -1.574   2.261  85.256  1.00  0.00     0.057 A 
ENDROOT
BRANCH   6  11
HETATM   11  N2  UNL     1       1.056   4.574  81.819  1.00  0.00    -0.288 N 
HETATM   12  C6  UNL     1       1.795   3.577  81.127  1.00  0.00     0.258 C 
HETATM   13  O4  UNL     1       1.541   2.366  81.402  1.00  0.00    -0.267 OA
ATOM     14  H2  UNL     1       1.233   5.559  81.623  1.00  0.00     0.172 HD
BRANCH  12  15
HETATM   15  C7  UNL     1       2.795   3.916  80.147  1.00  0.00     0.032 A 
HETATM   16  C8  UNL     1       4.120   4.027  80.471  1.00  0.00     0.017 A 
HETATM   17  C9  UNL     1       5.082   4.358  79.503  1.00  0.00     0.001 A 
HETATM   18  C10 UNL     1       4.621   4.561  78.220  1.00  0.00     0.000 A 
HETATM   19  C11 UNL     1       3.307   4.460  77.851  1.00  0.00     0.001 A 
HETATM   20  C12 UNL     1       2.401   4.131  78.846  1.00  0.00     0.017 A 
ENDBRANCH  12  15
ENDBRANCH   6  11
BRANCH   1  21
HETATM   21  S1  UNL     1      -3.403   1.453  87.134  1.00  0.00     0.256 S 
HETATM   22  O1  UNL     1      -2.688   0.147  87.092  1.00  0.00    -0.201 OA
HETATM   23  O2  UNL     1      -4.865   1.236  86.856  1.00  0.00    -0.201 OA
BRANCH  21  24
HETATM   24  N1  UNL     1      -3.221   2.236  88.681  1.00  0.00    -0.324 N 
ATOM     25  H12 UNL     1      -2.635   1.868  89.430  1.00  0.00     0.169 HD
ATOM     26  H11 UNL     1      -3.770   3.095  88.735  1.00  0.00     0.169 HD
ENDBRANCH  21  24
ENDBRANCH   1  21
TORSDOF 4
ENDMDL
