MODEL 4
REMARK VINA RESULT: -7.811971994      3.522      8.620
REMARK  4 active torsions:
REMARK  status: ('A' for Active; 'I' for Inactive)
REMARK    1  A    between atoms: N1_1  and  S1_4 
REMARK    2  A    between atoms: S1_4  and  C1_7 
REMARK    3  A    between atoms: C5_12  and  N2_13 
REMARK       I    between atoms: N2_13  and  C6_15 
REMARK    4  A    between atoms: C6_15  and  C7_17 
ROOT
HETATM    1  C1  UNL     1       3.070   4.385  79.334  1.00  0.00     0.081 A 
HETATM    2  C2  UNL     1       2.005   5.018  78.721  1.00  0.00     0.028 A 
HETATM    3  C3  UNL     1       0.724   4.946  79.220  1.00  0.00     0.041 A 
HETATM    4  C4  UNL     1       0.438   4.233  80.367  1.00  0.00     0.106 A 
HETATM    5  O3  UNL     1      -0.647   3.989  81.062  1.00  0.00    -0.277 OA
HETATM    6  C5  UNL     1      -0.345   3.239  82.084  1.00  0.00     0.232 A 
HETATM    7  N3  UNL     1       0.974   2.974  82.074  1.00  0.00    -0.319 N 
ATOM      8  H3  UNL     1       1.486   2.411  82.754  1.00  0.00     0.169 HD
HETATM    9  C13 UNL     1       1.492   3.597  80.990  1.00  0.00     0.071 A 
HETATM   10  C14 UNL     1       2.784   3.672  80.480  1.00  0.00     0.057 A 
ENDROOT
BRANCH   6  11
HETATM   11  N2  UNL     1      -1.293   2.777  83.061  1.00  0.00    -0.288 N 
HETATM   12  C6  UNL     1      -1.062   2.979  84.448  1.00  0.00     0.258 C 
HETATM   13  O4  UNL     1       0.004   3.577  84.782  1.00  0.00    -0.267 OA
ATOM     14  H2  UNL     1      -2.140   2.300  82.755  1.00  0.00     0.172 HD
BRANCH  12  15
HETATM   15  C7  UNL     1      -1.996   2.527  85.447  1.00  0.00     0.032 A 
HETATM   16  C8  UNL     1      -1.815   1.358  86.134  1.00  0.00     0.017 A 
HETATM   17  C9  UNL     1      -2.736   0.932  87.106  1.00  0.00     0.001 A 
HETATM   18  C10 UNL     1      -3.823   1.751  87.325  1.00  0.00     0.000 A 
HETATM   19  C11 UNL     1      -4.045   2.927  86.662  1.00  0.00     0.001 A 
HETATM   20  C12 UNL     1      -3.104   3.299  85.715  1.00  0.00     0.017 A 
ENDBRANCH  12  15
ENDBRANCH   6  11
BRANCH   1  21
HETATM   21  S1  UNL     1       4.690   4.489  78.683  1.00  0.00     0.256 S 
HETATM   22  O1  UNL     1       4.715   3.977  77.284  1.00  0.00    -0.201 OA
HETATM   23  O2  UNL     1       5.626   3.676  79.533  1.00  0.00    -0.201 OA
BRANCH  21  24
HETATM   24  N1  UNL     1       5.151   6.168  78.762  1.00  0.00    -0.324 N 
ATOM     25  H12 UNL     1       6.113   6.479  78.901  1.00  0.00     0.169 HD
ATOM     26  H11 UNL     1       4.346   6.786  78.653  1.00  0.00     0.169 HD
ENDBRANCH  21  24
ENDBRANCH   1  21
TORSDOF 4
ENDMDL
