MODEL 19
REMARK VINA RESULT: -7.145821082      4.811      6.167
REMARK  4 active torsions:
REMARK  status: ('A' for Active; 'I' for Inactive)
REMARK    1  A    between atoms: N1_1  and  S1_4 
REMARK    2  A    between atoms: S1_4  and  C1_7 
REMARK    3  A    between atoms: C5_12  and  N2_13 
REMARK       I    between atoms: N2_13  and  C6_15 
REMARK    4  A    between atoms: C6_15  and  C7_17 
ROOT
HETATM    1  C1  UNL     1      -1.272   2.992  84.768  1.00  0.00     0.081 A 
HETATM    2  C2  UNL     1      -0.154   3.709  85.150  1.00  0.00     0.028 A 
HETATM    3  C3  UNL     1       0.133   4.952  84.631  1.00  0.00     0.041 A 
HETATM    4  C4  UNL     1      -0.689   5.547  83.696  1.00  0.00     0.106 A 
HETATM    5  O3  UNL     1      -0.680   6.683  83.041  1.00  0.00    -0.277 OA
HETATM    6  C5  UNL     1      -1.723   6.740  82.261  1.00  0.00     0.232 A 
HETATM    7  N3  UNL     1      -2.449   5.616  82.397  1.00  0.00    -0.319 N 
ATOM      8  H3  UNL     1      -3.316   5.390  81.909  1.00  0.00     0.169 HD
HETATM    9  C13 UNL     1      -1.810   4.842  83.306  1.00  0.00     0.071 A 
HETATM   10  C14 UNL     1      -2.093   3.587  83.833  1.00  0.00     0.057 A 
ENDROOT
BRANCH   6  11
HETATM   11  N2  UNL     1      -2.031   7.846  81.397  1.00  0.00    -0.288 N 
HETATM   12  C6  UNL     1      -3.373   8.280  81.222  1.00  0.00     0.258 C 
HETATM   13  O4  UNL     1      -4.276   7.655  81.855  1.00  0.00    -0.267 OA
ATOM     14  H2  UNL     1      -1.278   8.326  80.904  1.00  0.00     0.172 HD
BRANCH  12  15
HETATM   15  C7  UNL     1      -3.708   9.386  80.362  1.00  0.00     0.032 A 
HETATM   16  C8  UNL     1      -3.297  10.664  80.630  1.00  0.00     0.017 A 
HETATM   17  C9  UNL     1      -3.633  11.730  79.780  1.00  0.00     0.001 A 
HETATM   18  C10 UNL     1      -4.391  11.420  78.671  1.00  0.00     0.000 A 
HETATM   19  C11 UNL     1      -4.823  10.159  78.364  1.00  0.00     0.001 A 
HETATM   20  C12 UNL     1      -4.463   9.145  79.237  1.00  0.00     0.017 A 
ENDBRANCH  12  15
ENDBRANCH   6  11
BRANCH   1  21
HETATM   21  S1  UNL     1      -1.617   1.415  85.440  1.00  0.00     0.256 S 
HETATM   22  O1  UNL     1      -0.510   0.987  86.341  1.00  0.00    -0.201 OA
HETATM   23  O2  UNL     1      -1.772   0.417  84.325  1.00  0.00    -0.201 OA
BRANCH  21  24
HETATM   24  N1  UNL     1      -3.127   1.559  86.298  1.00  0.00    -0.324 N 
ATOM     25  H12 UNL     1      -4.008   1.180  85.950  1.00  0.00     0.169 HD
ATOM     26  H11 UNL     1      -3.014   2.063  87.178  1.00  0.00     0.169 HD
ENDBRANCH  21  24
ENDBRANCH   1  21
TORSDOF 4
ENDMDL
