MODEL 10
REMARK VINA RESULT: -4.216654540      2.124      2.753
REMARK  1 active torsions:
REMARK  status: ('A' for Active; 'I' for Inactive)
REMARK    1  A    between atoms: O1_1  and  N1_3 
ROOT
HETATM    1  N1  UNL     1      -5.127   1.710  15.416  1.00  0.00    -0.251 N 
HETATM    2  C1  UNL     1      -4.617   2.808  14.637  1.00  0.00     0.183 C 
HETATM    3  C2  UNL     1      -5.687   3.840  14.562  1.00  0.00    -0.008 C 
HETATM    4  C3  UNL     1      -6.389   4.093  15.655  1.00  0.00    -0.022 C 
HETATM    5  C4  UNL     1      -6.150   3.391  16.944  1.00  0.00     0.098 C 
HETATM    6  C5  UNL     1      -5.838   1.976  16.607  1.00  0.00     0.104 C 
HETATM    7  S1  UNL     1      -6.322   0.788  17.617  1.00  0.00    -0.063 SA
ENDROOT
BRANCH   1   8
HETATM    8  O1  UNL     1      -4.918   0.453  14.995  1.00  0.00    -0.286 OA
ATOM      9  H1  UNL     1      -4.148  -0.016  15.293  1.00  0.00     0.244 HD
ENDBRANCH   1   8
TORSDOF 1
ENDMDL
