MODEL 6
REMARK VINA RESULT: -4.355092711      3.393      4.234
REMARK  1 active torsions:
REMARK  status: ('A' for Active; 'I' for Inactive)
REMARK    1  A    between atoms: O1_1  and  N1_3 
ROOT
HETATM    1  N1  UNL     1      -2.139   4.701  16.362  1.00  0.00    -0.251 N 
HETATM    2  C1  UNL     1      -1.501   5.399  17.447  1.00  0.00     0.183 C 
HETATM    3  C2  UNL     1      -2.240   6.675  17.657  1.00  0.00    -0.008 C 
HETATM    4  C3  UNL     1      -3.562   6.649  17.591  1.00  0.00    -0.022 C 
HETATM    5  C4  UNL     1      -4.328   5.403  17.320  1.00  0.00     0.098 C 
HETATM    6  C5  UNL     1      -3.548   4.633  16.315  1.00  0.00     0.104 C 
HETATM    7  S1  UNL     1      -4.340   3.742  15.200  1.00  0.00    -0.063 SA
ENDROOT
BRANCH   1   8
HETATM    8  O1  UNL     1      -1.381   4.129  15.414  1.00  0.00    -0.286 OA
ATOM      9  H1  UNL     1      -1.764   3.932  14.568  1.00  0.00     0.244 HD
ENDBRANCH   1   8
TORSDOF 1
ENDMDL
