MODEL 11
REMARK VINA RESULT: -4.210190679      3.480      4.403
REMARK  1 active torsions:
REMARK  status: ('A' for Active; 'I' for Inactive)
REMARK    1  A    between atoms: O1_1  and  N1_3 
ROOT
HETATM    1  N1  UNL     1      -2.633   4.536  16.925  1.00  0.00    -0.251 N 
HETATM    2  C1  UNL     1      -1.526   5.287  17.457  1.00  0.00     0.183 C 
HETATM    3  C2  UNL     1      -1.690   6.700  17.018  1.00  0.00    -0.008 C 
HETATM    4  C3  UNL     1      -2.903   7.227  17.048  1.00  0.00    -0.022 C 
HETATM    5  C4  UNL     1      -4.098   6.466  17.501  1.00  0.00     0.098 C 
HETATM    6  C5  UNL     1      -3.935   5.077  16.996  1.00  0.00     0.104 C 
HETATM    7  S1  UNL     1      -5.256   4.229  16.547  1.00  0.00    -0.063 SA
ENDROOT
BRANCH   1   8
HETATM    8  O1  UNL     1      -2.405   3.336  16.369  1.00  0.00    -0.286 OA
ATOM      9  H1  UNL     1      -2.842   3.109  15.557  1.00  0.00     0.244 HD
ENDBRANCH   1   8
TORSDOF 1
ENDMDL
