MODEL 15
REMARK VINA RESULT: -4.026048431      4.303      4.833
REMARK  1 active torsions:
REMARK  status: ('A' for Active; 'I' for Inactive)
REMARK    1  A    between atoms: O1_1  and  N1_3 
ROOT
HETATM    1  N1  UNL     1      -1.966   5.035  15.650  1.00  0.00    -0.251 N 
HETATM    2  C1  UNL     1      -2.350   4.753  17.009  1.00  0.00     0.183 C 
HETATM    3  C2  UNL     1      -2.045   5.963  17.822  1.00  0.00    -0.008 C 
HETATM    4  C3  UNL     1      -2.322   7.149  17.304  1.00  0.00    -0.022 C 
HETATM    5  C4  UNL     1      -2.922   7.316  15.953  1.00  0.00     0.098 C 
HETATM    6  C5  UNL     1      -2.301   6.283  15.081  1.00  0.00     0.104 C 
HETATM    7  S1  UNL     1      -2.030   6.623  13.508  1.00  0.00    -0.063 SA
ENDROOT
BRANCH   1   8
HETATM    8  O1  UNL     1      -1.297   4.106  14.951  1.00  0.00    -0.286 OA
ATOM      9  H1  UNL     1      -0.408   4.287  14.670  1.00  0.00     0.244 HD
ENDBRANCH   1   8
TORSDOF 1
ENDMDL
