MODEL 3
REMARK VINA RESULT: -4.716805481      1.895      2.691
REMARK  1 active torsions:
REMARK  status: ('A' for Active; 'I' for Inactive)
REMARK    1  A    between atoms: O1_1  and  N1_3 
ROOT
HETATM    1  N1  UNL     1      -4.557   2.333  16.360  1.00  0.00    -0.251 N 
HETATM    2  C1  UNL     1      -3.970   3.596  15.995  1.00  0.00     0.183 C 
HETATM    3  C2  UNL     1      -5.002   4.374  15.255  1.00  0.00    -0.008 C 
HETATM    4  C3  UNL     1      -6.247   4.344  15.703  1.00  0.00    -0.022 C 
HETATM    5  C4  UNL     1      -6.649   3.571  16.908  1.00  0.00     0.098 C 
HETATM    6  C5  UNL     1      -5.869   2.304  16.881  1.00  0.00     0.104 C 
HETATM    7  S1  UNL     1      -6.550   0.934  17.451  1.00  0.00    -0.063 SA
ENDROOT
BRANCH   1   8
HETATM    8  O1  UNL     1      -3.846   1.207  16.197  1.00  0.00    -0.286 OA
ATOM      9  H1  UNL     1      -3.307   0.890  16.912  1.00  0.00     0.244 HD
ENDBRANCH   1   8
TORSDOF 1
ENDMDL
