MODEL 11
REMARK VINA RESULT: -4.471361898      4.188      4.750
REMARK  1 active torsions:
REMARK  status: ('A' for Active; 'I' for Inactive)
REMARK    1  A    between atoms: O1_1  and  C1_3 
ROOT
HETATM    1  C1  UNL     1      -4.232   4.922  17.156  1.00  0.00     0.181 C 
HETATM    2  C2  UNL     1      -3.779   5.961  18.090  1.00  0.00     0.010 C 
HETATM    3  C3  UNL     1      -2.814   6.838  17.964  1.00  0.00    -0.001 C 
HETATM    4  C4  UNL     1      -1.906   7.012  16.804  1.00  0.00    -0.000 C 
HETATM    5  C5  UNL     1      -2.225   6.723  15.528  1.00  0.00     0.001 C 
HETATM    6  C6  UNL     1      -3.523   6.190  15.073  1.00  0.00     0.018 C 
HETATM    7  C7  UNL     1      -4.339   5.442  15.776  1.00  0.00     0.022 C 
HETATM    8  S1  UNL     1      -5.845   4.980  14.879  1.00  0.00    -0.054 SA
ENDROOT
BRANCH   1   9
HETATM    9  O1  UNL     1      -5.416   4.316  17.565  1.00  0.00    -0.387 OA
ATOM     10  H1  UNL     1      -5.328   3.376  17.667  1.00  0.00     0.210 HD
ENDBRANCH   1   9
TORSDOF 1
ENDMDL
