MODEL 8
REMARK VINA RESULT: -4.550521016      4.146      4.510
REMARK  1 active torsions:
REMARK  status: ('A' for Active; 'I' for Inactive)
REMARK    1  A    between atoms: O1_1  and  C1_3 
ROOT
HETATM    1  C1  UNL     1      -1.875   5.081  15.635  1.00  0.00     0.181 C 
HETATM    2  C2  UNL     1      -1.489   5.025  17.050  1.00  0.00     0.010 C 
HETATM    3  C3  UNL     1      -1.950   5.701  18.073  1.00  0.00    -0.001 C 
HETATM    4  C4  UNL     1      -3.020   6.730  18.058  1.00  0.00    -0.000 C 
HETATM    5  C5  UNL     1      -4.043   6.763  17.183  1.00  0.00     0.001 C 
HETATM    6  C6  UNL     1      -4.270   5.788  16.100  1.00  0.00     0.018 C 
HETATM    7  C7  UNL     1      -3.345   5.101  15.474  1.00  0.00     0.022 C 
HETATM    8  S1  UNL     1      -4.008   3.997  14.198  1.00  0.00    -0.054 SA
ENDROOT
BRANCH   1   9
HETATM    9  O1  UNL     1      -1.294   4.065  14.882  1.00  0.00    -0.387 OA
ATOM     10  H1  UNL     1      -0.483   4.337  14.468  1.00  0.00     0.210 HD
ENDBRANCH   1   9
TORSDOF 1
ENDMDL
