MODEL 20
REMARK VINA RESULT: -4.243941443      2.180      2.939
REMARK  1 active torsions:
REMARK  status: ('A' for Active; 'I' for Inactive)
REMARK    1  A    between atoms: O1_1  and  C1_3 
ROOT
HETATM    1  C1  UNL     1      -5.913   1.213  16.416  1.00  0.00     0.181 C 
HETATM    2  C2  UNL     1      -4.836   1.470  15.452  1.00  0.00     0.010 C 
HETATM    3  C3  UNL     1      -4.695   2.449  14.593  1.00  0.00    -0.001 C 
HETATM    4  C4  UNL     1      -5.620   3.588  14.373  1.00  0.00    -0.000 C 
HETATM    5  C5  UNL     1      -6.423   4.119  15.313  1.00  0.00     0.001 C 
HETATM    6  C6  UNL     1      -6.516   3.662  16.712  1.00  0.00     0.018 C 
HETATM    7  C7  UNL     1      -6.297   2.443  17.142  1.00  0.00     0.022 C 
HETATM    8  S1  UNL     1      -6.507   2.262  18.933  1.00  0.00    -0.054 SA
ENDROOT
BRANCH   1   9
HETATM    9  O1  UNL     1      -5.609   0.177  17.294  1.00  0.00    -0.387 OA
ATOM     10  H1  UNL     1      -5.711   0.429  18.204  1.00  0.00     0.210 HD
ENDBRANCH   1   9
TORSDOF 1
ENDMDL
