MODEL 13
REMARK VINA RESULT: -4.390284991      4.205      4.541
REMARK  1 active torsions:
REMARK  status: ('A' for Active; 'I' for Inactive)
REMARK    1  A    between atoms: O1_1  and  C1_3 
ROOT
HETATM    1  C1  UNL     1      -2.889   4.426  16.270  1.00  0.00     0.181 C 
HETATM    2  C2  UNL     1      -3.714   5.015  17.332  1.00  0.00     0.010 C 
HETATM    3  C3  UNL     1      -3.598   6.168  17.943  1.00  0.00    -0.001 C 
HETATM    4  C4  UNL     1      -2.567   7.208  17.704  1.00  0.00    -0.000 C 
HETATM    5  C5  UNL     1      -1.947   7.421  16.528  1.00  0.00     0.001 C 
HETATM    6  C6  UNL     1      -2.188   6.661  15.288  1.00  0.00     0.018 C 
HETATM    7  C7  UNL     1      -2.581   5.412  15.212  1.00  0.00     0.022 C 
HETATM    8  S1  UNL     1      -2.772   4.819  13.509  1.00  0.00    -0.054 SA
ENDROOT
BRANCH   1   9
HETATM    9  O1  UNL     1      -3.448   3.267  15.740  1.00  0.00    -0.387 OA
ATOM     10  H1  UNL     1      -4.131   3.450  15.105  1.00  0.00     0.210 HD
ENDBRANCH   1   9
TORSDOF 1
ENDMDL
