MODEL 2
REMARK VINA RESULT: -5.155836352      2.116      2.694
REMARK  1 active torsions:
REMARK  status: ('A' for Active; 'I' for Inactive)
REMARK    1  A    between atoms: O1_1  and  C1_3 
ROOT
HETATM    1  C1  UNL     1      -4.460   2.298  15.991  1.00  0.00     0.181 C 
HETATM    2  C2  UNL     1      -3.620   3.470  16.266  1.00  0.00     0.010 C 
HETATM    3  C3  UNL     1      -3.927   4.744  16.247  1.00  0.00    -0.001 C 
HETATM    4  C4  UNL     1      -5.247   5.344  15.934  1.00  0.00    -0.000 C 
HETATM    5  C5  UNL     1      -6.434   4.747  16.153  1.00  0.00     0.001 C 
HETATM    6  C6  UNL     1      -6.619   3.407  16.739  1.00  0.00     0.018 C 
HETATM    7  C7  UNL     1      -5.777   2.405  16.655  1.00  0.00     0.022 C 
HETATM    8  S1  UNL     1      -6.350   0.910  17.505  1.00  0.00    -0.054 SA
ENDROOT
BRANCH   1   9
HETATM    9  O1  UNL     1      -3.826   1.100  16.308  1.00  0.00    -0.387 OA
ATOM     10  H1  UNL     1      -4.040   0.794  17.181  1.00  0.00     0.210 HD
ENDBRANCH   1   9
TORSDOF 1
ENDMDL
