MODEL 11
REMARK VINA RESULT: -8.834617521      1.911      2.672
REMARK  14 active torsions:
REMARK  status: ('A' for Active; 'I' for Inactive)
REMARK    1  A    between atoms: C2_2  and  C4_4 
REMARK    2  A    between atoms: C4_4  and  C5_5 
REMARK    3  A    between atoms: C5_5  and  N1_6 
REMARK    4  A    between atoms: C5_5  and  C21_33 
REMARK       I    between atoms: N1_6  and  C6_8 
REMARK    5  A    between atoms: C6_8  and  C7_10 
REMARK    6  A    between atoms: C7_10  and  C8_11 
REMARK    7  A    between atoms: C7_10  and  N2_15 
REMARK    8  A    between atoms: C8_11  and  C9_12 
REMARK    9  A    between atoms: N2_15  and  P1_17 
REMARK   10  A    between atoms: P1_17  and  C12_20 
REMARK   11  A    between atoms: C12_20  and  N3_21 
REMARK       I    between atoms: N3_21  and  C13_23 
REMARK   12  A    between atoms: C13_23  and  O5_25 
REMARK   13  A    between atoms: O5_25  and  C14_26 
REMARK   14  A    between atoms: C14_26  and  C15_27 
ROOT
HETATM    1  N2  UNL     1      51.876  18.648  -3.688  1.00  0.00    -0.332 N 
ATOM      2  H2  UNL     1      51.078  19.211  -3.393  1.00  0.00     0.164 HD
ENDROOT
BRANCH   1   3
HETATM    3  C7  UNL     1      52.736  18.049  -2.770  1.00  0.00     0.178 C 
BRANCH   3   4
HETATM    4  C6  UNL     1      53.274  16.728  -3.071  1.00  0.00     0.241 C 
HETATM    5  N1  UNL     1      52.411  15.628  -3.349  1.00  0.00    -0.345 N 
ATOM      6  H1  UNL     1      51.401  15.771  -3.336  1.00  0.00     0.163 HD
HETATM    7  O1  UNL     1      54.501  16.493  -3.102  1.00  0.00    -0.271 OA
BRANCH   5   8
HETATM    8  C5  UNL     1      52.943  14.297  -3.653  1.00  0.00     0.185 C 
BRANCH   8   9
HETATM    9  C4  UNL     1      52.355  13.359  -2.657  1.00  0.00     0.040 C 
BRANCH   9  10
HETATM   10  C2  UNL     1      53.283  12.868  -1.592  1.00  0.00    -0.020 C 
HETATM   11  C1  UNL     1      54.385  12.079  -2.316  1.00  0.00     0.009 C 
HETATM   12  C3  UNL     1      52.654  11.945  -0.608  1.00  0.00     0.009 C 
ENDBRANCH   9  10
ENDBRANCH   8   9
BRANCH   8  13
HETATM   13  C21 UNL     1      52.585  13.958  -5.033  1.00  0.00     0.196 C 
HETATM   14  O6  UNL     1      51.590  14.465  -5.638  1.00  0.00    -0.646 OA
HETATM   15  O7  UNL     1      53.359  13.040  -5.728  1.00  0.00    -0.646 OA
ENDBRANCH   8  13
ENDBRANCH   5   8
ENDBRANCH   3   4
BRANCH   3  16
HETATM   16  C8  UNL     1      52.040  18.084  -1.402  1.00  0.00     0.038 C 
BRANCH  16  17
HETATM   17  C9  UNL     1      52.792  18.900  -0.408  1.00  0.00    -0.020 C 
HETATM   18  C10 UNL     1      54.069  19.481  -0.914  1.00  0.00     0.009 C 
HETATM   19  C11 UNL     1      53.134  17.982   0.757  1.00  0.00     0.009 C 
ENDBRANCH  16  17
ENDBRANCH   3  16
ENDBRANCH   1   3
BRANCH   1  20
HETATM   20  P1  UNL     1      52.234  18.389  -5.320  1.00  0.00     0.246 P 
HETATM   21  O2  UNL     1      52.193  19.888  -5.617  1.00  0.00    -0.648 OA
HETATM   22  O3  UNL     1      53.861  18.439  -5.824  1.00  0.00    -0.648 OA
BRANCH  20  23
HETATM   23  C12 UNL     1      51.022  17.840  -6.414  1.00  0.00     0.190 C 
BRANCH  23  24
HETATM   24  N3  UNL     1      50.355  18.790  -7.269  1.00  0.00    -0.305 N 
HETATM   25  C13 UNL     1      50.074  18.563  -8.642  1.00  0.00     0.365 C 
HETATM   26  O4  UNL     1      50.438  17.459  -9.120  1.00  0.00    -0.238 OA
ATOM     27  H3  UNL     1      50.066  19.681  -6.863  1.00  0.00     0.170 HD
BRANCH  25  28
HETATM   28  O5  UNL     1      49.439  19.473  -9.455  1.00  0.00    -0.299 OA
BRANCH  28  29
HETATM   29  C14 UNL     1      49.175  19.271 -10.826  1.00  0.00     0.219 C 
BRANCH  29  30
HETATM   30  C15 UNL     1      47.802  19.677 -11.139  1.00  0.00    -0.034 A 
HETATM   31  C16 UNL     1      47.618  20.484 -12.264  1.00  0.00     0.009 A 
HETATM   32  C17 UNL     1      46.361  20.911 -12.637  1.00  0.00     0.001 A 
HETATM   33  C18 UNL     1      45.270  20.532 -11.884  1.00  0.00     0.000 A 
HETATM   34  C19 UNL     1      45.468  19.735 -10.777  1.00  0.00     0.001 A 
HETATM   35  C20 UNL     1      46.715  19.295 -10.381  1.00  0.00     0.009 A 
ENDBRANCH  29  30
ENDBRANCH  28  29
ENDBRANCH  25  28
ENDBRANCH  23  24
ENDBRANCH  20  23
ENDBRANCH   1  20
TORSDOF 14
ENDMDL
