MODEL 6
REMARK VINA RESULT: -9.021941595      2.732     11.020
REMARK  14 active torsions:
REMARK  status: ('A' for Active; 'I' for Inactive)
REMARK    1  A    between atoms: C2_2  and  C4_4 
REMARK    2  A    between atoms: C4_4  and  C5_5 
REMARK    3  A    between atoms: C5_5  and  N1_6 
REMARK    4  A    between atoms: C5_5  and  C21_33 
REMARK       I    between atoms: N1_6  and  C6_8 
REMARK    5  A    between atoms: C6_8  and  C7_10 
REMARK    6  A    between atoms: C7_10  and  C8_11 
REMARK    7  A    between atoms: C7_10  and  N2_15 
REMARK    8  A    between atoms: C8_11  and  C9_12 
REMARK    9  A    between atoms: N2_15  and  P1_17 
REMARK   10  A    between atoms: P1_17  and  C12_20 
REMARK   11  A    between atoms: C12_20  and  N3_21 
REMARK       I    between atoms: N3_21  and  C13_23 
REMARK   12  A    between atoms: C13_23  and  O5_25 
REMARK   13  A    between atoms: O5_25  and  C14_26 
REMARK   14  A    between atoms: C14_26  and  C15_27 
ROOT
HETATM    1  N2  UNL     1      48.991  18.766  -8.581  1.00  0.00    -0.332 N 
ATOM      2  H2  UNL     1      48.119  18.907  -8.070  1.00  0.00     0.164 HD
ENDROOT
BRANCH   1   3
HETATM    3  C7  UNL     1      49.049  18.829  -9.971  1.00  0.00     0.178 C 
BRANCH   3   4
HETATM    4  C6  UNL     1      49.202  20.130 -10.609  1.00  0.00     0.241 C 
HETATM    5  N1  UNL     1      48.714  20.365 -11.928  1.00  0.00    -0.345 N 
ATOM      6  H1  UNL     1      48.251  19.608 -12.430  1.00  0.00     0.163 HD
HETATM    7  O1  UNL     1      49.758  21.096 -10.043  1.00  0.00    -0.271 OA
BRANCH   5   8
HETATM    8  C5  UNL     1      48.862  21.670 -12.576  1.00  0.00     0.185 C 
BRANCH   8   9
HETATM    9  C4  UNL     1      49.845  21.495 -13.682  1.00  0.00     0.040 C 
BRANCH   9  10
HETATM   10  C2  UNL     1      50.914  22.536 -13.777  1.00  0.00    -0.020 C 
HETATM   11  C1  UNL     1      51.628  22.294 -15.116  1.00  0.00     0.009 C 
HETATM   12  C3  UNL     1      51.945  22.455 -12.707  1.00  0.00     0.009 C 
ENDBRANCH   9  10
ENDBRANCH   8   9
BRANCH   8  13
HETATM   13  C21 UNL     1      47.545  22.105 -13.052  1.00  0.00     0.196 C 
HETATM   14  O6  UNL     1      47.143  23.309 -12.981  1.00  0.00    -0.646 OA
HETATM   15  O7  UNL     1      46.683  21.172 -13.609  1.00  0.00    -0.646 OA
ENDBRANCH   8  13
ENDBRANCH   5   8
ENDBRANCH   3   4
BRANCH   3  16
HETATM   16  C8  UNL     1      47.833  18.066 -10.515  1.00  0.00     0.038 C 
BRANCH  16  17
HETATM   17  C9  UNL     1      46.600  18.333  -9.722  1.00  0.00    -0.020 C 
HETATM   18  C10 UNL     1      45.902  17.113  -9.222  1.00  0.00     0.009 C 
HETATM   19  C11 UNL     1      45.634  19.076 -10.634  1.00  0.00     0.009 C 
ENDBRANCH  16  17
ENDBRANCH   3  16
ENDBRANCH   1   3
BRANCH   1  20
HETATM   20  P1  UNL     1      50.450  18.441  -7.790  1.00  0.00     0.246 P 
HETATM   21  O2  UNL     1      49.735  17.650  -6.694  1.00  0.00    -0.648 OA
HETATM   22  O3  UNL     1      51.276  16.995  -8.149  1.00  0.00    -0.648 OA
BRANCH  20  23
HETATM   23  C12 UNL     1      51.221  19.644  -6.828  1.00  0.00     0.190 C 
BRANCH  23  24
HETATM   24  N3  UNL     1      51.428  19.403  -5.421  1.00  0.00    -0.305 N 
HETATM   25  C13 UNL     1      52.601  18.815  -4.881  1.00  0.00     0.365 C 
HETATM   26  O4  UNL     1      53.501  18.493  -5.696  1.00  0.00    -0.238 OA
ATOM     27  H3  UNL     1      50.686  19.672  -4.774  1.00  0.00     0.170 HD
BRANCH  25  28
HETATM   28  O5  UNL     1      52.795  18.585  -3.538  1.00  0.00    -0.299 OA
BRANCH  28  29
HETATM   29  C14 UNL     1      53.962  18.935  -2.829  1.00  0.00     0.219 C 
BRANCH  29  30
HETATM   30  C15 UNL     1      53.814  18.586  -1.413  1.00  0.00    -0.034 A 
HETATM   31  C16 UNL     1      54.894  18.867  -0.572  1.00  0.00     0.009 A 
HETATM   32  C17 UNL     1      54.842  18.576   0.775  1.00  0.00     0.001 A 
HETATM   33  C18 UNL     1      53.704  17.999   1.297  1.00  0.00     0.000 A 
HETATM   34  C19 UNL     1      52.648  17.728   0.454  1.00  0.00     0.001 A 
HETATM   35  C20 UNL     1      52.673  18.007  -0.898  1.00  0.00     0.009 A 
ENDBRANCH  29  30
ENDBRANCH  28  29
ENDBRANCH  25  28
ENDBRANCH  23  24
ENDBRANCH  20  23
ENDBRANCH   1  20
TORSDOF 14
ENDMDL
