MODEL 5
REMARK VINA RESULT: -9.130191179      3.407     10.658
REMARK  14 active torsions:
REMARK  status: ('A' for Active; 'I' for Inactive)
REMARK    1  A    between atoms: C2_2  and  C4_4 
REMARK    2  A    between atoms: C4_4  and  C5_5 
REMARK    3  A    between atoms: C5_5  and  N1_6 
REMARK    4  A    between atoms: C5_5  and  C21_33 
REMARK       I    between atoms: N1_6  and  C6_8 
REMARK    5  A    between atoms: C6_8  and  C7_10 
REMARK    6  A    between atoms: C7_10  and  C8_11 
REMARK    7  A    between atoms: C7_10  and  N2_15 
REMARK    8  A    between atoms: C8_11  and  C9_12 
REMARK    9  A    between atoms: N2_15  and  P1_17 
REMARK   10  A    between atoms: P1_17  and  C12_20 
REMARK   11  A    between atoms: C12_20  and  N3_21 
REMARK       I    between atoms: N3_21  and  C13_23 
REMARK   12  A    between atoms: C13_23  and  O5_25 
REMARK   13  A    between atoms: O5_25  and  C14_26 
REMARK   14  A    between atoms: C14_26  and  C15_27 
ROOT
HETATM    1  N2  UNL     1      50.362  18.821  -9.707  1.00  0.00    -0.332 N 
ATOM      2  H2  UNL     1      50.905  18.100 -10.183  1.00  0.00     0.164 HD
ENDROOT
BRANCH   1   3
HETATM    3  C7  UNL     1      49.401  19.580 -10.370  1.00  0.00     0.178 C 
BRANCH   3   4
HETATM    4  C6  UNL     1      48.150  18.942 -10.761  1.00  0.00     0.241 C 
HETATM    5  N1  UNL     1      47.497  19.288 -11.980  1.00  0.00    -0.345 N 
ATOM      6  H1  UNL     1      47.915  19.994 -12.587  1.00  0.00     0.163 HD
HETATM    7  O1  UNL     1      47.592  18.069 -10.061  1.00  0.00    -0.271 OA
BRANCH   5   8
HETATM    8  C5  UNL     1      46.240  18.651 -12.382  1.00  0.00     0.185 C 
BRANCH   8   9
HETATM    9  C4  UNL     1      45.139  19.545 -11.929  1.00  0.00     0.040 C 
BRANCH   9  10
HETATM   10  C2  UNL     1      43.919  18.863 -11.396  1.00  0.00    -0.020 C 
HETATM   11  C1  UNL     1      42.968  19.980 -10.942  1.00  0.00     0.009 C 
HETATM   12  C3  UNL     1      44.172  17.991 -10.216  1.00  0.00     0.009 C 
ENDBRANCH   9  10
ENDBRANCH   8   9
BRANCH   8  13
HETATM   13  C21 UNL     1      46.258  18.464 -13.835  1.00  0.00     0.196 C 
HETATM   14  O6  UNL     1      46.759  19.310 -14.640  1.00  0.00    -0.646 OA
HETATM   15  O7  UNL     1      45.704  17.313 -14.378  1.00  0.00    -0.646 OA
ENDBRANCH   8  13
ENDBRANCH   5   8
ENDBRANCH   3   4
BRANCH   3  16
HETATM   16  C8  UNL     1      50.094  20.255 -11.563  1.00  0.00     0.038 C 
BRANCH  16  17
HETATM   17  C9  UNL     1      50.887  21.448 -11.152  1.00  0.00    -0.020 C 
HETATM   18  C10 UNL     1      50.082  22.569 -10.587  1.00  0.00     0.009 C 
HETATM   19  C11 UNL     1      51.591  21.968 -12.397  1.00  0.00     0.009 C 
ENDBRANCH  16  17
ENDBRANCH   3  16
ENDBRANCH   1   3
BRANCH   1  20
HETATM   20  P1  UNL     1      50.578  19.166  -8.065  1.00  0.00     0.246 P 
HETATM   21  O2  UNL     1      51.996  19.680  -8.311  1.00  0.00    -0.648 OA
HETATM   22  O3  UNL     1      50.219  20.732  -7.500  1.00  0.00    -0.648 OA
BRANCH  20  23
HETATM   23  C12 UNL     1      50.912  17.910  -6.935  1.00  0.00     0.190 C 
BRANCH  23  24
HETATM   24  N3  UNL     1      51.110  18.240  -5.545  1.00  0.00    -0.305 N 
HETATM   25  C13 UNL     1      52.383  18.441  -4.950  1.00  0.00     0.365 C 
HETATM   26  O4  UNL     1      53.384  18.320  -5.699  1.00  0.00    -0.238 OA
ATOM     27  H3  UNL     1      50.284  18.335  -4.953  1.00  0.00     0.170 HD
BRANCH  25  28
HETATM   28  O5  UNL     1      52.567  18.754  -3.623  1.00  0.00    -0.299 OA
BRANCH  28  29
HETATM   29  C14 UNL     1      53.826  18.877  -2.999  1.00  0.00     0.219 C 
BRANCH  29  30
HETATM   30  C15 UNL     1      53.715  18.554  -1.573  1.00  0.00    -0.034 A 
HETATM   31  C16 UNL     1      54.799  18.892  -0.759  1.00  0.00     0.009 A 
HETATM   32  C17 UNL     1      54.780  18.629   0.595  1.00  0.00     0.001 A 
HETATM   33  C18 UNL     1      53.673  18.022   1.149  1.00  0.00     0.000 A 
HETATM   34  C19 UNL     1      52.614  17.695   0.331  1.00  0.00     0.001 A 
HETATM   35  C20 UNL     1      52.605  17.945  -1.026  1.00  0.00     0.009 A 
ENDBRANCH  29  30
ENDBRANCH  28  29
ENDBRANCH  25  28
ENDBRANCH  23  24
ENDBRANCH  20  23
ENDBRANCH   1  20
TORSDOF 14
ENDMDL
