MODEL 3
REMARK VINA RESULT: -9.444277957      3.199     11.028
REMARK  14 active torsions:
REMARK  status: ('A' for Active; 'I' for Inactive)
REMARK    1  A    between atoms: C2_2  and  C4_4 
REMARK    2  A    between atoms: C4_4  and  C5_5 
REMARK    3  A    between atoms: C5_5  and  N1_6 
REMARK    4  A    between atoms: C5_5  and  C21_33 
REMARK       I    between atoms: N1_6  and  C6_8 
REMARK    5  A    between atoms: C6_8  and  C7_10 
REMARK    6  A    between atoms: C7_10  and  C8_11 
REMARK    7  A    between atoms: C7_10  and  N2_15 
REMARK    8  A    between atoms: C8_11  and  C9_12 
REMARK    9  A    between atoms: N2_15  and  P1_17 
REMARK   10  A    between atoms: P1_17  and  C12_20 
REMARK   11  A    between atoms: C12_20  and  N3_21 
REMARK       I    between atoms: N3_21  and  C13_23 
REMARK   12  A    between atoms: C13_23  and  O5_25 
REMARK   13  A    between atoms: O5_25  and  C14_26 
REMARK   14  A    between atoms: C14_26  and  C15_27 
ROOT
HETATM    1  N2  UNL     1      49.918  19.481 -10.381  1.00  0.00    -0.332 N 
ATOM      2  H2  UNL     1      50.063  18.532 -10.725  1.00  0.00     0.164 HD
ENDROOT
BRANCH   1   3
HETATM    3  C7  UNL     1      49.558  20.526 -11.228  1.00  0.00     0.178 C 
BRANCH   3   4
HETATM    4  C6  UNL     1      48.420  20.345 -12.121  1.00  0.00     0.241 C 
HETATM    5  N1  UNL     1      47.205  21.062 -11.919  1.00  0.00    -0.345 N 
ATOM      6  H1  UNL     1      47.133  21.712 -11.136  1.00  0.00     0.163 HD
HETATM    7  O1  UNL     1      48.449  19.566 -13.098  1.00  0.00    -0.271 OA
BRANCH   5   8
HETATM    8  C5  UNL     1      46.057  20.888 -12.813  1.00  0.00     0.185 C 
BRANCH   8   9
HETATM    9  C4  UNL     1      44.892  20.531 -11.955  1.00  0.00     0.040 C 
BRANCH   9  10
HETATM   10  C2  UNL     1      44.588  19.071 -11.840  1.00  0.00    -0.020 C 
HETATM   11  C1  UNL     1      45.151  18.623 -10.482  1.00  0.00     0.009 C 
HETATM   12  C3  UNL     1      45.231  18.227 -12.884  1.00  0.00     0.009 C 
ENDBRANCH   9  10
ENDBRANCH   8   9
BRANCH   8  13
HETATM   13  C21 UNL     1      45.852  22.134 -13.556  1.00  0.00     0.196 C 
HETATM   14  O6  UNL     1      46.662  23.112 -13.511  1.00  0.00    -0.646 OA
HETATM   15  O7  UNL     1      44.725  22.271 -14.354  1.00  0.00    -0.646 OA
ENDBRANCH   8  13
ENDBRANCH   5   8
ENDBRANCH   3   4
BRANCH   3  16
HETATM   16  C8  UNL     1      50.820  20.952 -11.992  1.00  0.00     0.038 C 
BRANCH  16  17
HETATM   17  C9  UNL     1      50.598  22.180 -12.806  1.00  0.00    -0.020 C 
HETATM   18  C10 UNL     1      51.535  22.346 -13.954  1.00  0.00     0.009 C 
HETATM   19  C11 UNL     1      50.789  23.372 -11.880  1.00  0.00     0.009 C 
ENDBRANCH  16  17
ENDBRANCH   3  16
ENDBRANCH   1   3
BRANCH   1  20
HETATM   20  P1  UNL     1      50.103  19.879  -8.747  1.00  0.00     0.246 P 
HETATM   21  O2  UNL     1      51.603  20.110  -8.924  1.00  0.00    -0.648 OA
HETATM   22  O3  UNL     1      50.011  21.516  -8.284  1.00  0.00    -0.648 OA
BRANCH  20  23
HETATM   23  C12 UNL     1      50.134  18.654  -7.538  1.00  0.00     0.190 C 
BRANCH  23  24
HETATM   24  N3  UNL     1      50.692  18.950  -6.241  1.00  0.00    -0.305 N 
HETATM   25  C13 UNL     1      52.054  18.744  -5.897  1.00  0.00     0.365 C 
HETATM   26  O4  UNL     1      52.800  18.275  -6.792  1.00  0.00    -0.238 OA
ATOM     27  H3  UNL     1      50.071  19.332  -5.528  1.00  0.00     0.170 HD
BRANCH  25  28
HETATM   28  O5  UNL     1      52.582  19.027  -4.658  1.00  0.00    -0.299 OA
BRANCH  28  29
HETATM   29  C14 UNL     1      53.699  18.373  -4.099  1.00  0.00     0.219 C 
BRANCH  29  30
HETATM   30  C15 UNL     1      53.672  18.490  -2.638  1.00  0.00    -0.034 A 
HETATM   31  C16 UNL     1      52.751  17.692  -1.954  1.00  0.00     0.009 A 
HETATM   32  C17 UNL     1      52.657  17.733  -0.578  1.00  0.00     0.001 A 
HETATM   33  C18 UNL     1      53.488  18.576   0.129  1.00  0.00     0.000 A 
HETATM   34  C19 UNL     1      54.389  19.357  -0.561  1.00  0.00     0.001 A 
HETATM   35  C20 UNL     1      54.504  19.336  -1.936  1.00  0.00     0.009 A 
ENDBRANCH  29  30
ENDBRANCH  28  29
ENDBRANCH  25  28
ENDBRANCH  23  24
ENDBRANCH  20  23
ENDBRANCH   1  20
TORSDOF 14
ENDMDL
