MODEL 8
REMARK VINA RESULT: -7.309700124      5.073      9.323
REMARK  5 active torsions:
REMARK  status: ('A' for Active; 'I' for Inactive)
REMARK    1  A    between atoms: C10_14  and  N3_15 
REMARK    2  A    between atoms: N3_15  and  C11_17 
REMARK    3  A    between atoms: C11_17  and  C13_19 
REMARK    4  A    between atoms: C13_19  and  C14_20 
REMARK    5  A    between atoms: C13_19  and  N4_26 
ROOT
HETATM    1  C1  UNL     1      27.356  76.354  40.529  1.00  0.00     0.092 C 
HETATM    2  C2  UNL     1      27.056  76.989  41.838  1.00  0.00     0.116 A 
HETATM    3  N1  UNL     1      27.061  76.427  43.042  1.00  0.00    -0.286 N 
ATOM      4  H1  UNL     1      27.280  75.448  43.222  1.00  0.00     0.188 HD
HETATM    5  N2  UNL     1      26.742  77.307  43.975  1.00  0.00    -0.282 N 
ATOM      6  H2  UNL     1      26.674  77.133  44.978  1.00  0.00     0.188 HD
HETATM    7  C3  UNL     1      26.523  78.481  43.344  1.00  0.00     0.154 A 
HETATM    8  C4  UNL     1      26.169  79.693  43.869  1.00  0.00     0.025 A 
HETATM    9  C5  UNL     1      25.969  79.911  45.192  1.00  0.00     0.016 A 
HETATM   10  C6  UNL     1      25.613  81.121  45.716  1.00  0.00     0.001 A 
HETATM   11  C7  UNL     1      25.456  82.162  44.837  1.00  0.00     0.001 A 
HETATM   12  C8  UNL     1      25.648  81.996  43.472  1.00  0.00     0.016 A 
HETATM   13  C9  UNL     1      26.005  80.759  42.979  1.00  0.00     0.023 A 
HETATM   14  C10 UNL     1      26.207  80.539  41.646  1.00  0.00     0.128 A 
HETATM   15  N5  UNL     1      26.553  79.312  41.233  1.00  0.00    -0.275 N 
ATOM     16  H5  UNL     1      26.697  79.172  40.232  1.00  0.00     0.189 HD
HETATM   17  N6  UNL     1      26.719  78.279  42.026  1.00  0.00    -0.223 N 
ENDROOT
BRANCH  14  18
HETATM   18  N3  UNL     1      26.066  81.553  40.697  1.00  0.00    -0.368 N 
ATOM     19  H3  UNL     1      26.550  82.438  40.844  1.00  0.00     0.161 HD
BRANCH  18  20
HETATM   20  C11 UNL     1      25.241  81.385  39.494  1.00  0.00     0.117 C 
HETATM   21  C12 UNL     1      25.434  79.979  38.989  1.00  0.00     0.034 C 
BRANCH  20  22
HETATM   22  C13 UNL     1      23.840  81.769  39.791  1.00  0.00     0.277 C 
BRANCH  22  23
HETATM   23  C14 UNL     1      22.885  80.650  39.711  1.00  0.00    -0.023 A 
HETATM   24  C15 UNL     1      22.140  80.495  38.565  1.00  0.00     0.009 A 
HETATM   25  C16 UNL     1      21.221  79.474  38.399  1.00  0.00     0.001 A 
HETATM   26  C17 UNL     1      21.063  78.587  39.441  1.00  0.00     0.000 A 
HETATM   27  C18 UNL     1      21.775  78.685  40.611  1.00  0.00     0.001 A 
HETATM   28  C19 UNL     1      22.687  79.736  40.718  1.00  0.00     0.009 A 
ENDBRANCH  22  23
BRANCH  22  29
HETATM   29  N4  UNL     1      23.473  82.922  39.045  1.00  0.00     0.090 N 
HETATM   30  C20 UNL     1      24.583  83.415  38.217  1.00  0.00     0.310 C 
HETATM   31  C21 UNL     1      22.825  83.983  39.750  1.00  0.00     0.310 C 
ENDBRANCH  22  29
ENDBRANCH  20  22
ENDBRANCH  18  20
ENDBRANCH  14  18
TORSDOF 5
ENDMDL
