MODEL 11
REMARK VINA RESULT: -7.198264729      0.962      2.038
REMARK  5 active torsions:
REMARK  status: ('A' for Active; 'I' for Inactive)
REMARK    1  A    between atoms: C10_14  and  N3_15 
REMARK    2  A    between atoms: N3_15  and  C11_17 
REMARK    3  A    between atoms: C11_17  and  C13_19 
REMARK    4  A    between atoms: C13_19  and  C14_20 
REMARK    5  A    between atoms: C13_19  and  N4_26 
ROOT
HETATM    1  C1  UNL     1      24.413  80.939  49.866  1.00  0.00     0.092 C 
HETATM    2  C2  UNL     1      24.476  81.349  48.439  1.00  0.00     0.116 A 
HETATM    3  N1  UNL     1      23.913  82.406  47.865  1.00  0.00    -0.286 N 
ATOM      4  H1  UNL     1      23.344  83.096  48.355  1.00  0.00     0.188 HD
HETATM    5  N2  UNL     1      24.189  82.445  46.573  1.00  0.00    -0.282 N 
ATOM      6  H2  UNL     1      23.880  83.151  45.905  1.00  0.00     0.188 HD
HETATM    7  C3  UNL     1      24.959  81.368  46.307  1.00  0.00     0.154 A 
HETATM    8  C4  UNL     1      25.503  80.963  45.120  1.00  0.00     0.025 A 
HETATM    9  C5  UNL     1      25.337  81.629  43.951  1.00  0.00     0.016 A 
HETATM   10  C6  UNL     1      25.879  81.225  42.764  1.00  0.00     0.001 A 
HETATM   11  C7  UNL     1      26.631  80.079  42.777  1.00  0.00     0.001 A 
HETATM   12  C8  UNL     1      26.834  79.357  43.946  1.00  0.00     0.016 A 
HETATM   13  C9  UNL     1      26.271  79.795  45.125  1.00  0.00     0.023 A 
HETATM   14  C10 UNL     1      26.438  79.124  46.304  1.00  0.00     0.128 A 
HETATM   15  N5  UNL     1      25.863  79.604  47.414  1.00  0.00    -0.275 N 
ATOM     16  H5  UNL     1      26.000  79.086  48.282  1.00  0.00     0.189 HD
HETATM   17  N6  UNL     1      25.133  80.696  47.463  1.00  0.00    -0.223 N 
ENDROOT
BRANCH  14  18
HETATM   18  N3  UNL     1      27.192  77.953  46.390  1.00  0.00    -0.368 N 
ATOM     19  H3  UNL     1      27.343  77.400  45.546  1.00  0.00     0.161 HD
BRANCH  18  20
HETATM   20  C11 UNL     1      27.774  77.492  47.657  1.00  0.00     0.117 C 
HETATM   21  C12 UNL     1      27.944  78.689  48.555  1.00  0.00     0.034 C 
BRANCH  20  22
HETATM   22  C13 UNL     1      26.949  76.390  48.212  1.00  0.00     0.277 C 
BRANCH  22  23
HETATM   23  C14 UNL     1      27.718  75.404  48.991  1.00  0.00    -0.023 A 
HETATM   24  C15 UNL     1      27.271  75.053  50.242  1.00  0.00     0.009 A 
HETATM   25  C16 UNL     1      27.927  74.134  51.044  1.00  0.00     0.001 A 
HETATM   26  C17 UNL     1      29.075  73.562  50.544  1.00  0.00     0.000 A 
HETATM   27  C18 UNL     1      29.575  73.868  49.303  1.00  0.00     0.001 A 
HETATM   28  C19 UNL     1      28.870  74.801  48.541  1.00  0.00     0.009 A 
ENDBRANCH  22  23
BRANCH  22  29
HETATM   29  N4  UNL     1      26.117  75.836  47.201  1.00  0.00     0.090 N 
HETATM   30  C20 UNL     1      24.696  75.875  47.578  1.00  0.00     0.310 C 
HETATM   31  C21 UNL     1      26.489  74.565  46.668  1.00  0.00     0.310 C 
ENDBRANCH  22  29
ENDBRANCH  20  22
ENDBRANCH  18  20
ENDBRANCH  14  18
TORSDOF 5
ENDMDL
