MODEL 2
REMARK VINA RESULT: -9.422776328      0.641      1.411
REMARK  5 active torsions:
REMARK  status: ('A' for Active; 'I' for Inactive)
REMARK    1  A    between atoms: C10_14  and  N3_15 
REMARK    2  A    between atoms: N3_15  and  C11_17 
REMARK    3  A    between atoms: C11_17  and  C13_19 
REMARK    4  A    between atoms: C13_19  and  C14_20 
REMARK    5  A    between atoms: C13_19  and  N4_26 
ROOT
HETATM    1  C1  UNL     1      24.636  81.162  49.882  1.00  0.00     0.092 C 
HETATM    2  C2  UNL     1      24.669  81.493  48.434  1.00  0.00     0.116 A 
HETATM    3  N1  UNL     1      24.163  82.560  47.826  1.00  0.00    -0.286 N 
ATOM      4  H1  UNL     1      23.669  83.316  48.300  1.00  0.00     0.188 HD
HETATM    5  N2  UNL     1      24.386  82.512  46.524  1.00  0.00    -0.282 N 
ATOM      6  H2  UNL     1      24.103  83.205  45.831  1.00  0.00     0.188 HD
HETATM    7  C3  UNL     1      25.061  81.366  46.287  1.00  0.00     0.154 A 
HETATM    8  C4  UNL     1      25.521  80.861  45.102  1.00  0.00     0.025 A 
HETATM    9  C5  UNL     1      25.355  81.478  43.907  1.00  0.00     0.016 A 
HETATM   10  C6  UNL     1      25.814  80.974  42.723  1.00  0.00     0.001 A 
HETATM   11  C7  UNL     1      26.478  79.775  42.769  1.00  0.00     0.001 A 
HETATM   12  C8  UNL     1      26.676  79.099  43.966  1.00  0.00     0.016 A 
HETATM   13  C9  UNL     1      26.198  79.639  45.141  1.00  0.00     0.023 A 
HETATM   14  C10 UNL     1      26.365  79.018  46.347  1.00  0.00     0.128 A 
HETATM   15  N5  UNL     1      25.875  79.596  47.451  1.00  0.00    -0.275 N 
ATOM     16  H5  UNL     1      26.010  79.113  48.340  1.00  0.00     0.189 HD
HETATM   17  N6  UNL     1      25.232  80.742  47.469  1.00  0.00    -0.223 N 
ENDROOT
BRANCH  14  18
HETATM   18  N3  UNL     1      27.031  77.797  46.466  1.00  0.00    -0.368 N 
ATOM     19  H3  UNL     1      27.474  77.394  45.641  1.00  0.00     0.161 HD
BRANCH  18  20
HETATM   20  C11 UNL     1      27.113  77.076  47.742  1.00  0.00     0.117 C 
HETATM   21  C12 UNL     1      25.827  76.314  47.931  1.00  0.00     0.034 C 
BRANCH  20  22
HETATM   22  C13 UNL     1      28.350  76.257  47.773  1.00  0.00     0.277 C 
BRANCH  22  23
HETATM   23  C14 UNL     1      28.108  74.819  47.988  1.00  0.00    -0.023 A 
HETATM   24  C15 UNL     1      28.168  74.321  49.268  1.00  0.00     0.009 A 
HETATM   25  C16 UNL     1      27.953  72.986  49.564  1.00  0.00     0.001 A 
HETATM   26  C17 UNL     1      27.670  72.140  48.515  1.00  0.00     0.000 A 
HETATM   27  C18 UNL     1      27.595  72.574  47.214  1.00  0.00     0.001 A 
HETATM   28  C19 UNL     1      27.821  73.931  46.979  1.00  0.00     0.009 A 
ENDBRANCH  22  23
BRANCH  22  29
HETATM   29  N4  UNL     1      29.307  76.839  48.649  1.00  0.00     0.090 N 
HETATM   30  C20 UNL     1      28.921  78.197  49.059  1.00  0.00     0.310 C 
HETATM   31  C21 UNL     1      30.679  76.772  48.260  1.00  0.00     0.310 C 
ENDBRANCH  22  29
ENDBRANCH  20  22
ENDBRANCH  18  20
ENDBRANCH  14  18
TORSDOF 5
ENDMDL
