MODEL 10
REMARK VINA RESULT: -7.255570136      2.961      6.761
REMARK  5 active torsions:
REMARK  status: ('A' for Active; 'I' for Inactive)
REMARK    1  A    between atoms: C10_14  and  N3_15 
REMARK    2  A    between atoms: N3_15  and  C11_17 
REMARK    3  A    between atoms: C11_17  and  C13_19 
REMARK    4  A    between atoms: C13_19  and  C14_20 
REMARK    5  A    between atoms: C13_19  and  N4_26 
ROOT
HETATM    1  C1  UNL     1      27.217  75.647  46.812  1.00  0.00     0.092 C 
HETATM    2  C2  UNL     1      26.704  77.004  47.134  1.00  0.00     0.116 A 
HETATM    3  N1  UNL     1      26.329  77.480  48.316  1.00  0.00    -0.286 N 
ATOM      4  H1  UNL     1      26.347  76.947  49.186  1.00  0.00     0.188 HD
HETATM    5  N2  UNL     1      25.927  78.735  48.214  1.00  0.00    -0.282 N 
ATOM      6  H2  UNL     1      25.590  79.329  48.971  1.00  0.00     0.188 HD
HETATM    7  C3  UNL     1      26.049  79.078  46.914  1.00  0.00     0.154 A 
HETATM    8  C4  UNL     1      25.764  80.267  46.301  1.00  0.00     0.025 A 
HETATM    9  C5  UNL     1      25.281  81.352  46.954  1.00  0.00     0.016 A 
HETATM   10  C6  UNL     1      24.994  82.540  46.343  1.00  0.00     0.001 A 
HETATM   11  C7  UNL     1      25.215  82.618  44.992  1.00  0.00     0.001 A 
HETATM   12  C8  UNL     1      25.709  81.537  44.273  1.00  0.00     0.016 A 
HETATM   13  C9  UNL     1      25.985  80.354  44.924  1.00  0.00     0.023 A 
HETATM   14  C10 UNL     1      26.472  79.259  44.266  1.00  0.00     0.128 A 
HETATM   15  N5  UNL     1      26.720  78.140  44.959  1.00  0.00    -0.275 N 
ATOM     16  H5  UNL     1      27.082  77.335  44.447  1.00  0.00     0.189 HD
HETATM   17  N6  UNL     1      26.529  78.006  46.252  1.00  0.00    -0.223 N 
ENDROOT
BRANCH  14  18
HETATM   18  N3  UNL     1      26.722  79.269  42.894  1.00  0.00    -0.368 N 
ATOM     19  H3  UNL     1      27.687  79.210  42.567  1.00  0.00     0.161 HD
BRANCH  18  20
HETATM   20  C11 UNL     1      25.640  79.363  41.905  1.00  0.00     0.117 C 
HETATM   21  C12 UNL     1      26.078  80.317  40.824  1.00  0.00     0.034 C 
BRANCH  20  22
HETATM   22  C13 UNL     1      25.268  78.003  41.443  1.00  0.00     0.277 C 
BRANCH  22  23
HETATM   23  C14 UNL     1      26.423  77.131  41.165  1.00  0.00    -0.023 A 
HETATM   24  C15 UNL     1      27.058  77.238  39.950  1.00  0.00     0.009 A 
HETATM   25  C16 UNL     1      28.150  76.462  39.603  1.00  0.00     0.001 A 
HETATM   26  C17 UNL     1      28.601  75.550  40.530  1.00  0.00     0.000 A 
HETATM   27  C18 UNL     1      28.013  75.393  41.761  1.00  0.00     0.001 A 
HETATM   28  C19 UNL     1      26.916  76.204  42.053  1.00  0.00     0.009 A 
ENDBRANCH  22  23
BRANCH  22  29
HETATM   29  N4  UNL     1      24.313  78.081  40.393  1.00  0.00     0.090 N 
HETATM   30  C20 UNL     1      23.242  79.042  40.697  1.00  0.00     0.310 C 
HETATM   31  C21 UNL     1      23.793  76.852  39.884  1.00  0.00     0.310 C 
ENDBRANCH  22  29
ENDBRANCH  20  22
ENDBRANCH  18  20
ENDBRANCH  14  18
TORSDOF 5
ENDMDL
