MODEL 12
REMARK VINA RESULT: -7.184067955      5.031     10.462
REMARK  5 active torsions:
REMARK  status: ('A' for Active; 'I' for Inactive)
REMARK    1  A    between atoms: C10_14  and  N3_15 
REMARK    2  A    between atoms: N3_15  and  C11_17 
REMARK    3  A    between atoms: C11_17  and  C13_19 
REMARK    4  A    between atoms: C13_19  and  C14_20 
REMARK    5  A    between atoms: C13_19  and  N4_26 
ROOT
HETATM    1  C1  UNL     1      27.251  76.317  40.235  1.00  0.00     0.092 C 
HETATM    2  C2  UNL     1      27.033  76.892  41.588  1.00  0.00     0.116 A 
HETATM    3  N1  UNL     1      27.144  76.285  42.764  1.00  0.00    -0.286 N 
ATOM      4  H1  UNL     1      27.404  75.306  42.888  1.00  0.00     0.188 HD
HETATM    5  N2  UNL     1      26.873  77.119  43.754  1.00  0.00    -0.282 N 
ATOM      6  H2  UNL     1      26.886  76.905  44.751  1.00  0.00     0.188 HD
HETATM    7  C3  UNL     1      26.574  78.309  43.188  1.00  0.00     0.154 A 
HETATM    8  C4  UNL     1      26.227  79.488  43.786  1.00  0.00     0.025 A 
HETATM    9  C5  UNL     1      26.122  79.649  45.128  1.00  0.00     0.016 A 
HETATM   10  C6  UNL     1      25.774  80.827  45.726  1.00  0.00     0.001 A 
HETATM   11  C7  UNL     1      25.521  81.895  44.904  1.00  0.00     0.001 A 
HETATM   12  C8  UNL     1      25.614  81.787  43.523  1.00  0.00     0.016 A 
HETATM   13  C9  UNL     1      25.967  80.582  42.955  1.00  0.00     0.023 A 
HETATM   14  C10 UNL     1      26.073  80.419  41.602  1.00  0.00     0.128 A 
HETATM   15  N5  UNL     1      26.420  79.220  41.116  1.00  0.00    -0.275 N 
ATOM     16  H5  UNL     1      26.492  79.122  40.103  1.00  0.00     0.189 HD
HETATM   17  N6  UNL     1      26.675  78.162  41.852  1.00  0.00    -0.223 N 
ENDROOT
BRANCH  14  18
HETATM   18  N3  UNL     1      25.832  81.463  40.709  1.00  0.00    -0.368 N 
ATOM     19  H3  UNL     1      26.411  82.301  40.760  1.00  0.00     0.161 HD
BRANCH  18  20
HETATM   20  C11 UNL     1      24.771  81.393  39.696  1.00  0.00     0.117 C 
HETATM   21  C12 UNL     1      23.477  81.074  40.398  1.00  0.00     0.034 C 
BRANCH  20  22
HETATM   22  C13 UNL     1      24.768  82.639  38.890  1.00  0.00     0.277 C 
BRANCH  22  23
HETATM   23  C14 UNL     1      23.419  83.138  38.569  1.00  0.00    -0.023 A 
HETATM   24  C15 UNL     1      22.968  84.277  39.192  1.00  0.00     0.009 A 
HETATM   25  C16 UNL     1      21.717  84.819  38.951  1.00  0.00     0.001 A 
HETATM   26  C17 UNL     1      20.908  84.171  38.044  1.00  0.00     0.000 A 
HETATM   27  C18 UNL     1      21.299  83.030  37.388  1.00  0.00     0.001 A 
HETATM   28  C19 UNL     1      22.571  82.532  37.672  1.00  0.00     0.009 A 
ENDBRANCH  22  23
BRANCH  22  29
HETATM   29  N4  UNL     1      25.638  82.508  37.774  1.00  0.00     0.090 N 
HETATM   30  C20 UNL     1      25.662  83.727  36.952  1.00  0.00     0.310 C 
HETATM   31  C21 UNL     1      25.510  81.332  36.974  1.00  0.00     0.310 C 
ENDBRANCH  22  29
ENDBRANCH  20  22
ENDBRANCH  18  20
ENDBRANCH  14  18
TORSDOF 5
ENDMDL
