MODEL 1
REMARK VINA RESULT: -9.846323155      0.000      0.000
REMARK  5 active torsions:
REMARK  status: ('A' for Active; 'I' for Inactive)
REMARK    1  A    between atoms: C10_14  and  N3_15 
REMARK    2  A    between atoms: N3_15  and  C11_17 
REMARK    3  A    between atoms: C11_17  and  C13_19 
REMARK    4  A    between atoms: C13_19  and  C14_20 
REMARK    5  A    between atoms: C13_19  and  N4_26 
ROOT
HETATM    1  C1  UNL     1      24.668  81.208  49.922  1.00  0.00     0.092 C 
HETATM    2  C2  UNL     1      24.686  81.526  48.471  1.00  0.00     0.116 A 
HETATM    3  N1  UNL     1      24.179  82.590  47.857  1.00  0.00    -0.286 N 
ATOM      4  H1  UNL     1      23.694  83.353  48.330  1.00  0.00     0.188 HD
HETATM    5  N2  UNL     1      24.387  82.528  46.554  1.00  0.00    -0.282 N 
ATOM      6  H2  UNL     1      24.100  83.216  45.858  1.00  0.00     0.188 HD
HETATM    7  C3  UNL     1      25.053  81.376  46.321  1.00  0.00     0.154 A 
HETATM    8  C4  UNL     1      25.498  80.857  45.136  1.00  0.00     0.025 A 
HETATM    9  C5  UNL     1      25.322  81.463  43.937  1.00  0.00     0.016 A 
HETATM   10  C6  UNL     1      25.766  80.945  42.753  1.00  0.00     0.001 A 
HETATM   11  C7  UNL     1      26.423  79.743  42.803  1.00  0.00     0.001 A 
HETATM   12  C8  UNL     1      26.631  79.078  44.004  1.00  0.00     0.016 A 
HETATM   13  C9  UNL     1      26.169  79.632  45.179  1.00  0.00     0.023 A 
HETATM   14  C10 UNL     1      26.346  79.021  46.389  1.00  0.00     0.128 A 
HETATM   15  N5  UNL     1      25.871  79.613  47.493  1.00  0.00    -0.275 N 
ATOM     16  H5  UNL     1      26.014  79.138  48.385  1.00  0.00     0.189 HD
HETATM   17  N6  UNL     1      25.235  80.763  47.507  1.00  0.00    -0.223 N 
ENDROOT
BRANCH  14  18
HETATM   18  N3  UNL     1      27.007  77.799  46.513  1.00  0.00    -0.368 N 
ATOM     19  H3  UNL     1      27.618  77.489  45.758  1.00  0.00     0.161 HD
BRANCH  18  20
HETATM   20  C11 UNL     1      26.851  76.944  47.697  1.00  0.00     0.117 C 
HETATM   21  C12 UNL     1      25.640  76.073  47.486  1.00  0.00     0.034 C 
BRANCH  20  22
HETATM   22  C13 UNL     1      28.119  76.221  47.961  1.00  0.00     0.277 C 
BRANCH  22  23
HETATM   23  C14 UNL     1      28.004  75.172  48.989  1.00  0.00    -0.023 A 
HETATM   24  C15 UNL     1      28.143  73.857  48.612  1.00  0.00     0.009 A 
HETATM   25  C16 UNL     1      28.052  72.806  49.508  1.00  0.00     0.001 A 
HETATM   26  C17 UNL     1      27.811  73.116  50.828  1.00  0.00     0.000 A 
HETATM   27  C18 UNL     1      27.663  74.407  51.270  1.00  0.00     0.001 A 
HETATM   28  C19 UNL     1      27.765  75.424  50.320  1.00  0.00     0.009 A 
ENDBRANCH  22  23
BRANCH  22  29
HETATM   29  N4  UNL     1      29.182  77.144  48.166  1.00  0.00     0.090 N 
HETATM   30  C20 UNL     1      30.484  76.468  48.259  1.00  0.00     0.310 C 
HETATM   31  C21 UNL     1      29.016  78.119  49.196  1.00  0.00     0.310 C 
ENDBRANCH  22  29
ENDBRANCH  20  22
ENDBRANCH  18  20
ENDBRANCH  14  18
TORSDOF 5
ENDMDL
