MODEL 6
REMARK VINA RESULT: -6.209987164      2.638      6.578
REMARK  4 active torsions:
REMARK  status: ('A' for Active; 'I' for Inactive)
REMARK    1  A    between atoms: C2_2  and  O1_3 
REMARK    2  A    between atoms: O1_3  and  C3_4 
REMARK    3  A    between atoms: C7_10  and  S1_11 
REMARK    4  A    between atoms: S1_11  and  N2_12 
ROOT
HETATM    1  C3  UNL     1      52.437  40.940  89.977  1.00  0.00     0.070 A 
HETATM    2  C4  UNL     1      51.150  41.436  90.029  1.00  0.00     0.039 A 
HETATM    3  C5  UNL     1      50.757  42.519  89.297  1.00  0.00     0.034 A 
HETATM    4  C6  UNL     1      51.637  43.200  88.441  1.00  0.00     0.051 A 
HETATM    5  N1  UNL     1      51.357  44.237  87.706  1.00  0.00    -0.339 N 
ATOM      6  H1  UNL     1      50.417  44.632  87.719  1.00  0.00     0.167 HD
HETATM    7  C7  UNL     1      52.291  44.777  86.946  1.00  0.00     0.192 A 
HETATM    8  S2  UNL     1      53.645  43.785  87.268  1.00  0.00    -0.057 SA
HETATM    9  C8  UNL     1      52.916  42.713  88.385  1.00  0.00     0.037 A 
HETATM   10  C9  UNL     1      53.321  41.601  89.135  1.00  0.00     0.058 A 
ENDROOT
BRANCH   7  11
HETATM   11  S1  UNL     1      52.153  46.178  85.870  1.00  0.00     0.279 S 
HETATM   12  O2  UNL     1      52.685  45.800  84.538  1.00  0.00    -0.199 OA
HETATM   13  O3  UNL     1      52.962  47.323  86.407  1.00  0.00    -0.199 OA
BRANCH  11  14
HETATM   14  N2  UNL     1      50.495  46.643  85.815  1.00  0.00    -0.323 N 
ATOM     15  H22 UNL     1      49.719  46.029  85.568  1.00  0.00     0.169 HD
ATOM     16  H21 UNL     1      50.437  47.628  86.071  1.00  0.00     0.169 HD
ENDBRANCH  11  14
ENDBRANCH   7  11
BRANCH   1  17
HETATM   17  O1  UNL     1      52.835  39.839  90.722  1.00  0.00    -0.351 OA
BRANCH  17  18
HETATM   18  C2  UNL     1      53.966  39.999  91.558  1.00  0.00     0.171 C 
HETATM   19  C1  UNL     1      53.688  40.932  92.708  1.00  0.00     0.034 C 
ENDBRANCH  17  18
ENDBRANCH   1  17
TORSDOF 4
ENDMDL
