MODEL 2
REMARK VINA RESULT: -6.312282873      3.608      6.799
REMARK  4 active torsions:
REMARK  status: ('A' for Active; 'I' for Inactive)
REMARK    1  A    between atoms: C2_2  and  O1_3 
REMARK    2  A    between atoms: O1_3  and  C3_4 
REMARK    3  A    between atoms: C7_10  and  S1_11 
REMARK    4  A    between atoms: S1_11  and  N2_12 
ROOT
HETATM    1  C3  UNL     1      52.518  41.589  89.675  1.00  0.00     0.070 A 
HETATM    2  C4  UNL     1      53.399  40.742  89.033  1.00  0.00     0.039 A 
HETATM    3  C5  UNL     1      53.653  40.832  87.695  1.00  0.00     0.034 A 
HETATM    4  C6  UNL     1      53.034  41.795  86.881  1.00  0.00     0.051 A 
HETATM    5  N1  UNL     1      53.210  41.958  85.603  1.00  0.00    -0.339 N 
ATOM      6  H1  UNL     1      53.854  41.351  85.095  1.00  0.00     0.167 HD
HETATM    7  C7  UNL     1      52.557  42.910  84.964  1.00  0.00     0.192 A 
HETATM    8  S2  UNL     1      51.638  43.626  86.215  1.00  0.00    -0.057 SA
HETATM    9  C8  UNL     1      52.159  42.638  87.512  1.00  0.00     0.037 A 
HETATM   10  C9  UNL     1      51.897  42.548  88.885  1.00  0.00     0.058 A 
ENDROOT
BRANCH   7  11
HETATM   11  S1  UNL     1      52.629  43.324  83.243  1.00  0.00     0.279 S 
HETATM   12  O2  UNL     1      52.730  44.798  83.118  1.00  0.00    -0.199 OA
HETATM   13  O3  UNL     1      51.379  42.864  82.549  1.00  0.00    -0.199 OA
BRANCH  11  14
HETATM   14  N2  UNL     1      53.981  42.505  82.557  1.00  0.00    -0.323 N 
ATOM     15  H22 UNL     1      54.274  41.556  82.789  1.00  0.00     0.169 HD
ATOM     16  H21 UNL     1      54.424  43.135  81.890  1.00  0.00     0.169 HD
ENDBRANCH  11  14
ENDBRANCH   7  11
BRANCH   1  17
HETATM   17  O1  UNL     1      52.261  41.497  91.035  1.00  0.00    -0.351 OA
BRANCH  17  18
HETATM   18  C2  UNL     1      53.033  40.570  91.777  1.00  0.00     0.171 C 
HETATM   19  C1  UNL     1      53.993  41.259  92.712  1.00  0.00     0.034 C 
ENDBRANCH  17  18
ENDBRANCH   1  17
TORSDOF 4
ENDMDL
