MODEL 4
REMARK VINA RESULT: -6.253737406      3.731      6.814
REMARK  4 active torsions:
REMARK  status: ('A' for Active; 'I' for Inactive)
REMARK    1  A    between atoms: C2_2  and  O1_3 
REMARK    2  A    between atoms: O1_3  and  C3_4 
REMARK    3  A    between atoms: C7_10  and  S1_11 
REMARK    4  A    between atoms: S1_11  and  N2_12 
ROOT
HETATM    1  C3  UNL     1      52.537  41.614  89.603  1.00  0.00     0.070 A 
HETATM    2  C4  UNL     1      53.433  40.774  88.971  1.00  0.00     0.039 A 
HETATM    3  C5  UNL     1      53.698  40.865  87.636  1.00  0.00     0.034 A 
HETATM    4  C6  UNL     1      53.077  41.820  86.814  1.00  0.00     0.051 A 
HETATM    5  N1  UNL     1      53.264  41.983  85.537  1.00  0.00    -0.339 N 
ATOM      6  H1  UNL     1      53.918  41.382  85.037  1.00  0.00     0.167 HD
HETATM    7  C7  UNL     1      52.606  42.927  84.890  1.00  0.00     0.192 A 
HETATM    8  S2  UNL     1      51.668  43.635  86.131  1.00  0.00    -0.057 SA
HETATM    9  C8  UNL     1      52.187  42.655  87.435  1.00  0.00     0.037 A 
HETATM   10  C9  UNL     1      51.914  42.565  88.806  1.00  0.00     0.058 A 
ENDROOT
BRANCH   7  11
HETATM   11  S1  UNL     1      52.691  43.338  83.169  1.00  0.00     0.279 S 
HETATM   12  O2  UNL     1      51.442  42.877  82.515  1.00  0.00    -0.199 OA
HETATM   13  O3  UNL     1      53.857  42.642  82.529  1.00  0.00    -0.199 OA
BRANCH  11  14
HETATM   14  N2  UNL     1      52.918  45.041  83.042  1.00  0.00    -0.323 N 
ATOM     15  H22 UNL     1      53.630  45.499  82.473  1.00  0.00     0.169 HD
ATOM     16  H21 UNL     1      52.221  45.496  83.631  1.00  0.00     0.169 HD
ENDBRANCH  11  14
ENDBRANCH   7  11
BRANCH   1  17
HETATM   17  O1  UNL     1      52.268  41.521  90.961  1.00  0.00    -0.351 OA
BRANCH  17  18
HETATM   18  C2  UNL     1      53.003  40.564  91.702  1.00  0.00     0.171 C 
HETATM   19  C1  UNL     1      53.947  41.214  92.680  1.00  0.00     0.034 C 
ENDBRANCH  17  18
ENDBRANCH   1  17
TORSDOF 4
ENDMDL
