MODEL 4
REMARK VINA RESULT: -5.118411075      3.388      4.590
REMARK  2 active torsions:
REMARK  status: ('A' for Active; 'I' for Inactive)
REMARK    1  A    between atoms: C2_7  and  S1_8 
REMARK    2  A    between atoms: S1_8  and  N4_9 
ROOT
HETATM    1  N1  UNL     1       8.476 -37.885 -75.385  1.00  0.00    -0.073 NA
HETATM    2  C1  UNL     1       9.142 -38.868 -76.191  1.00  0.00     0.175 A 
HETATM    3  N2  UNL     1      10.423 -38.919 -76.539  1.00  0.00    -0.281 N 
ATOM      4  H2  UNL     1      11.064 -38.192 -76.221  1.00  0.00     0.188 HD
HETATM    5  N3  UNL     1      10.849 -39.863 -77.262  1.00  0.00    -0.281 N 
ATOM      6  H3  UNL     1      11.833 -39.901 -77.528  1.00  0.00     0.188 HD
HETATM    7  C2  UNL     1      10.010 -40.808 -77.672  1.00  0.00     0.208 A 
HETATM    8  S2  UNL     1       8.547 -40.275 -76.965  1.00  0.00    -0.023 SA
ENDROOT
BRANCH   7   9
HETATM    9  S1  UNL     1      10.279 -42.231 -78.668  1.00  0.00     0.280 S 
HETATM   10  O1  UNL     1      10.993 -43.231 -77.805  1.00  0.00    -0.199 OA
HETATM   11  O2  UNL     1       8.994 -42.815 -79.143  1.00  0.00    -0.199 OA
BRANCH   9  12
HETATM   12  N4  UNL     1      11.299 -41.879 -80.013  1.00  0.00    -0.323 N 
ATOM     13  H42 UNL     1      11.154 -41.084 -80.635  1.00  0.00     0.169 HD
ATOM     14  H41 UNL     1      12.053 -42.561 -80.099  1.00  0.00     0.169 HD
ENDBRANCH   9  12
ENDBRANCH   7   9
TORSDOF 2
ENDMDL
