MODEL 6
REMARK VINA RESULT: -5.004639309      4.306      5.597
REMARK  2 active torsions:
REMARK  status: ('A' for Active; 'I' for Inactive)
REMARK    1  A    between atoms: C2_7  and  S1_8 
REMARK    2  A    between atoms: S1_8  and  N4_9 
ROOT
HETATM    1  N1  UNL     1      10.848 -39.253 -76.227  1.00  0.00    -0.073 NA
HETATM    2  C1  UNL     1      11.038 -40.227 -77.263  1.00  0.00     0.175 A 
HETATM    3  N2  UNL     1      12.177 -40.734 -77.720  1.00  0.00    -0.281 N 
ATOM      4  H2  UNL     1      13.065 -40.429 -77.321  1.00  0.00     0.188 HD
HETATM    5  N3  UNL     1      12.166 -41.592 -78.647  1.00  0.00    -0.281 N 
ATOM      6  H3  UNL     1      13.041 -41.980 -78.997  1.00  0.00     0.188 HD
HETATM    7  C2  UNL     1      11.007 -41.987 -79.164  1.00  0.00     0.208 A 
HETATM    8  S2  UNL     1       9.906 -41.056 -78.246  1.00  0.00    -0.023 SA
ENDROOT
BRANCH   7   9
HETATM    9  S1  UNL     1      10.651 -43.144 -80.439  1.00  0.00     0.280 S 
HETATM   10  O1  UNL     1       9.244 -43.616 -80.211  1.00  0.00    -0.199 OA
HETATM   11  O2  UNL     1      10.751 -42.518 -81.786  1.00  0.00    -0.199 OA
BRANCH   9  12
HETATM   12  N4  UNL     1      11.685 -44.521 -80.350  1.00  0.00    -0.323 N 
ATOM     13  H42 UNL     1      12.010 -44.923 -79.472  1.00  0.00     0.169 HD
ATOM     14  H41 UNL     1      11.922 -44.870 -81.278  1.00  0.00     0.169 HD
ENDBRANCH   9  12
ENDBRANCH   7   9
TORSDOF 2
ENDMDL
