MODEL 10
REMARK VINA RESULT: -4.865501600      4.178      5.576
REMARK  2 active torsions:
REMARK  status: ('A' for Active; 'I' for Inactive)
REMARK    1  A    between atoms: C2_7  and  S1_8 
REMARK    2  A    between atoms: S1_8  and  N4_9 
ROOT
HETATM    1  N1  UNL     1      10.876 -39.484 -76.316  1.00  0.00    -0.073 NA
HETATM    2  C1  UNL     1      10.968 -40.447 -77.376  1.00  0.00     0.175 A 
HETATM    3  N2  UNL     1      12.027 -41.147 -77.765  1.00  0.00    -0.281 N 
ATOM      4  H2  UNL     1      12.919 -41.027 -77.285  1.00  0.00     0.188 HD
HETATM    5  N3  UNL     1      11.935 -41.961 -78.727  1.00  0.00    -0.281 N 
ATOM      6  H3  UNL     1      12.749 -42.498 -79.024  1.00  0.00     0.188 HD
HETATM    7  C2  UNL     1      10.770 -42.114 -79.348  1.00  0.00     0.208 A 
HETATM    8  S2  UNL     1       9.789 -41.018 -78.479  1.00  0.00    -0.023 SA
ENDROOT
BRANCH   7   9
HETATM    9  S1  UNL     1      10.314 -43.145 -80.697  1.00  0.00     0.280 S 
HETATM   10  O1  UNL     1      10.695 -42.410 -81.949  1.00  0.00    -0.199 OA
HETATM   11  O2  UNL     1      11.030 -44.450 -80.652  1.00  0.00    -0.199 OA
BRANCH   9  12
HETATM   12  N4  UNL     1       8.611 -43.409 -80.744  1.00  0.00    -0.323 N 
ATOM     13  H42 UNL     1       8.184 -44.334 -80.700  1.00  0.00     0.169 HD
ATOM     14  H41 UNL     1       8.099 -42.530 -80.821  1.00  0.00     0.169 HD
ENDBRANCH   9  12
ENDBRANCH   7   9
TORSDOF 2
ENDMDL
