MODEL 5
REMARK VINA RESULT: -6.474690633      2.702      6.431
REMARK  5 active torsions:
REMARK  status: ('A' for Active; 'I' for Inactive)
REMARK    1  A    between atoms: O1_2  and  C2_3 
REMARK    2  A    between atoms: C5_8  and  N2_9 
REMARK    3  A    between atoms: C10_17  and  N4_18 
REMARK    4  A    between atoms: N4_18  and  C11_20 
REMARK    5  A    between atoms: C19_29  and  O3_30 
ROOT
HETATM    1  C2  UNL     1     -25.149  -9.334   2.696  1.00  0.00     0.103 A 
HETATM    2  C3  UNL     1     -25.437 -10.378   3.540  1.00  0.00     0.070 A 
HETATM    3  C4  UNL     1     -24.591 -11.457   3.675  1.00  0.00     0.066 A 
HETATM    4  N1  UNL     1     -24.900 -12.457   4.503  1.00  0.00    -0.191 N 
ATOM      5  H1  UNL     1     -25.774 -12.392   5.024  1.00  0.00     0.184 HD
HETATM    6  C5  UNL     1     -24.127 -13.553   4.695  1.00  0.00     0.682 A 
HETATM    7  N3  UNL     1     -22.990 -13.622   4.009  1.00  0.00    -0.176 N 
ATOM      8  H3  UNL     1     -22.387 -14.435   4.134  1.00  0.00     0.186 HD
HETATM    9  C10 UNL     1     -22.605 -12.644   3.146  1.00  0.00     0.130 A 
HETATM   10  C17 UNL     1     -23.408 -11.539   2.968  1.00  0.00     0.038 A 
HETATM   11  C18 UNL     1     -23.109 -10.490   2.115  1.00  0.00     0.057 A 
HETATM   12  C19 UNL     1     -23.972  -9.402   1.983  1.00  0.00     0.102 A 
ENDROOT
BRANCH   9  13
HETATM   13  N4  UNL     1     -21.388 -12.752   2.431  1.00  0.00    -0.370 N 
ATOM     14  H4  UNL     1     -20.762 -11.952   2.342  1.00  0.00     0.161 HD
BRANCH  13  15
HETATM   15  C11 UNL     1     -21.052 -14.027   1.829  1.00  0.00     0.086 C 
HETATM   16  C12 UNL     1     -20.079 -14.804   2.718  1.00  0.00     0.055 C 
HETATM   17  C13 UNL     1     -19.996 -16.202   2.124  1.00  0.00     0.274 C 
HETATM   18  N5  UNL     1     -19.734 -16.075   0.720  1.00  0.00     0.084 N 
HETATM   19  C14 UNL     1     -18.835 -17.147   0.320  1.00  0.00     0.309 C 
HETATM   20  C15 UNL     1     -19.228 -14.788   0.330  1.00  0.00     0.274 C 
HETATM   21  C16 UNL     1     -20.298 -13.740   0.539  1.00  0.00     0.055 C 
ENDBRANCH  13  15
ENDBRANCH   9  13
BRANCH   6  22
HETATM   22  N2  UNL     1     -24.579 -14.526   5.594  1.00  0.00    -0.213 N 
HETATM   23  C6  UNL     1     -23.672 -15.480   6.179  1.00  0.00     0.167 C 
HETATM   24  C7  UNL     1     -24.355 -16.276   7.274  1.00  0.00     0.188 C 
HETATM   25  O2  UNL     1     -25.219 -15.565   8.030  1.00  0.00    -0.388 OA
HETATM   26  C8  UNL     1     -26.005 -14.616   7.479  1.00  0.00     0.188 C 
HETATM   27  C9  UNL     1     -25.957 -14.616   5.969  1.00  0.00     0.167 C 
ENDBRANCH   6  22
BRANCH  12  28
HETATM   28  O3  UNL     1     -23.635  -8.355   1.107  1.00  0.00    -0.353 OA
HETATM   29  C20 UNL     1     -22.733  -7.368   1.557  1.00  0.00     0.210 C 
ENDBRANCH  12  28
BRANCH   1  30
HETATM   30  O1  UNL     1     -26.024  -8.275   2.589  1.00  0.00    -0.353 OA
HETATM   31  C1  UNL     1     -25.990  -7.249   3.541  1.00  0.00     0.210 C 
ENDBRANCH   1  30
TORSDOF 5
ENDMDL
