MODEL 4
REMARK VINA RESULT: -6.911084957      1.095      1.205
REMARK  5 active torsions:
REMARK  status: ('A' for Active; 'I' for Inactive)
REMARK    1  A    between atoms: O1_2  and  C2_3 
REMARK    2  A    between atoms: C5_8  and  N2_9 
REMARK    3  A    between atoms: C10_17  and  N4_18 
REMARK    4  A    between atoms: N4_18  and  C11_20 
REMARK    5  A    between atoms: C19_29  and  O3_30 
ROOT
HETATM    1  C2  UNL     1     -19.954 -14.671   2.045  1.00  0.00     0.103 A 
HETATM    2  C3  UNL     1     -20.593 -15.023   3.208  1.00  0.00     0.070 A 
HETATM    3  C4  UNL     1     -21.679 -14.319   3.680  1.00  0.00     0.066 A 
HETATM    4  N1  UNL     1     -22.278 -14.686   4.816  1.00  0.00    -0.191 N 
ATOM      5  H1  UNL     1     -21.906 -15.496   5.312  1.00  0.00     0.184 HD
HETATM    6  C5  UNL     1     -23.348 -14.051   5.352  1.00  0.00     0.682 A 
HETATM    7  N3  UNL     1     -23.821 -12.997   4.693  1.00  0.00    -0.176 N 
ATOM      8  H3  UNL     1     -24.626 -12.500   5.072  1.00  0.00     0.186 HD
HETATM    9  C10 UNL     1     -23.266 -12.561   3.530  1.00  0.00     0.130 A 
HETATM   10  C17 UNL     1     -22.179 -13.224   3.005  1.00  0.00     0.038 A 
HETATM   11  C18 UNL     1     -21.541 -12.862   1.831  1.00  0.00     0.057 A 
HETATM   12  C19 UNL     1     -20.441 -13.580   1.359  1.00  0.00     0.102 A 
ENDROOT
BRANCH   9  13
HETATM   13  N4  UNL     1     -23.797 -11.434   2.857  1.00  0.00    -0.370 N 
ATOM     14  H4  UNL     1     -24.250 -11.535   1.949  1.00  0.00     0.161 HD
BRANCH  13  15
HETATM   15  C11 UNL     1     -23.680 -10.135   3.489  1.00  0.00     0.086 C 
HETATM   16  C12 UNL     1     -24.619  -9.126   2.825  1.00  0.00     0.055 C 
HETATM   17  C13 UNL     1     -24.601  -7.891   3.712  1.00  0.00     0.274 C 
HETATM   18  N5  UNL     1     -23.232  -7.539   3.956  1.00  0.00     0.084 N 
HETATM   19  C14 UNL     1     -23.125  -6.087   3.975  1.00  0.00     0.309 C 
HETATM   20  C15 UNL     1     -22.300  -8.126   3.034  1.00  0.00     0.274 C 
HETATM   21  C16 UNL     1     -22.271  -9.624   3.230  1.00  0.00     0.055 C 
ENDBRANCH  13  15
ENDBRANCH   9  13
BRANCH   6  22
HETATM   22  N2  UNL     1     -23.873 -14.546   6.552  1.00  0.00    -0.213 N 
HETATM   23  C6  UNL     1     -25.083 -14.007   7.115  1.00  0.00     0.167 C 
HETATM   24  C7  UNL     1     -25.558 -14.847   8.284  1.00  0.00     0.188 C 
HETATM   25  O2  UNL     1     -25.380 -16.177   8.128  1.00  0.00    -0.388 OA
HETATM   26  C8  UNL     1     -24.276 -16.664   7.524  1.00  0.00     0.188 C 
HETATM   27  C9  UNL     1     -23.230 -15.604   7.269  1.00  0.00     0.167 C 
ENDBRANCH   6  22
BRANCH  12  28
HETATM   28  O3  UNL     1     -19.819 -13.183   0.163  1.00  0.00    -0.353 OA
HETATM   29  C20 UNL     1     -20.481 -13.439  -1.056  1.00  0.00     0.210 C 
ENDBRANCH  12  28
BRANCH   1  30
HETATM   30  O1  UNL     1     -18.870 -15.401   1.607  1.00  0.00    -0.353 OA
HETATM   31  C1  UNL     1     -19.072 -16.521   0.793  1.00  0.00     0.210 C 
ENDBRANCH   1  30
TORSDOF 5
ENDMDL
