MODEL 3
REMARK VINA RESULT: -7.141009432      1.350      6.023
REMARK  5 active torsions:
REMARK  status: ('A' for Active; 'I' for Inactive)
REMARK    1  A    between atoms: O1_2  and  C2_3 
REMARK    2  A    between atoms: C5_8  and  N2_9 
REMARK    3  A    between atoms: C10_17  and  N4_18 
REMARK    4  A    between atoms: N4_18  and  C11_20 
REMARK    5  A    between atoms: C19_29  and  O3_30 
ROOT
HETATM    1  C2  UNL     1     -24.117 -15.499   7.360  1.00  0.00     0.103 A 
HETATM    2  C3  UNL     1     -23.241 -15.708   6.323  1.00  0.00     0.070 A 
HETATM    3  C4  UNL     1     -22.821 -14.678   5.510  1.00  0.00     0.066 A 
HETATM    4  N1  UNL     1     -21.969 -14.914   4.509  1.00  0.00    -0.191 N 
ATOM      5  H1  UNL     1     -21.646 -15.872   4.373  1.00  0.00     0.184 HD
HETATM    6  C5  UNL     1     -21.506 -13.963   3.663  1.00  0.00     0.682 A 
HETATM    7  N3  UNL     1     -21.937 -12.719   3.854  1.00  0.00    -0.176 N 
ATOM      8  H3  UNL     1     -21.605 -11.982   3.233  1.00  0.00     0.186 HD
HETATM    9  C10 UNL     1     -22.805 -12.399   4.850  1.00  0.00     0.130 A 
HETATM   10  C17 UNL     1     -23.260 -13.384   5.699  1.00  0.00     0.038 A 
HETATM   11  C18 UNL     1     -24.144 -13.164   6.742  1.00  0.00     0.057 A 
HETATM   12  C19 UNL     1     -24.566 -14.212   7.560  1.00  0.00     0.102 A 
ENDROOT
BRANCH   9  13
HETATM   13  N4  UNL     1     -23.242 -11.063   5.022  1.00  0.00    -0.370 N 
ATOM     14  H4  UNL     1     -23.545 -10.727   5.937  1.00  0.00     0.161 HD
BRANCH  13  15
HETATM   15  C11 UNL     1     -23.249 -10.185   3.869  1.00  0.00     0.086 C 
HETATM   16  C12 UNL     1     -23.247  -8.719   4.307  1.00  0.00     0.055 C 
HETATM   17  C13 UNL     1     -23.004  -7.906   3.045  1.00  0.00     0.274 C 
HETATM   18  N5  UNL     1     -23.928  -8.351   2.044  1.00  0.00     0.084 N 
HETATM   19  C14 UNL     1     -24.359  -7.196   1.268  1.00  0.00     0.309 C 
HETATM   20  C15 UNL     1     -25.048  -9.088   2.561  1.00  0.00     0.274 C 
HETATM   21  C16 UNL     1     -24.566 -10.399   3.138  1.00  0.00     0.055 C 
ENDBRANCH  13  15
ENDBRANCH   9  13
BRANCH   6  22
HETATM   22  N2  UNL     1     -20.617 -14.356   2.656  1.00  0.00    -0.213 N 
HETATM   23  C6  UNL     1     -19.866 -15.580   2.760  1.00  0.00     0.167 C 
HETATM   24  C7  UNL     1     -19.150 -15.889   1.460  1.00  0.00     0.188 C 
HETATM   25  O2  UNL     1     -19.849 -15.579   0.346  1.00  0.00    -0.388 OA
HETATM   26  C8  UNL     1     -20.613 -14.468   0.294  1.00  0.00     0.188 C 
HETATM   27  C9  UNL     1     -20.415 -13.560   1.484  1.00  0.00     0.167 C 
ENDBRANCH   6  22
BRANCH  12  28
HETATM   28  O3  UNL     1     -25.464 -13.950   8.610  1.00  0.00    -0.353 OA
HETATM   29  C20 UNL     1     -26.847 -14.036   8.348  1.00  0.00     0.210 C 
ENDBRANCH  12  28
BRANCH   1  30
HETATM   30  O1  UNL     1     -24.514 -16.556   8.149  1.00  0.00    -0.353 OA
HETATM   31  C1  UNL     1     -25.497 -17.438   7.684  1.00  0.00     0.210 C 
ENDBRANCH   1  30
TORSDOF 5
ENDMDL
