MODEL 2
REMARK VINA RESULT: -7.363576358      1.998      5.694
REMARK  5 active torsions:
REMARK  status: ('A' for Active; 'I' for Inactive)
REMARK    1  A    between atoms: O1_2  and  C2_3 
REMARK    2  A    between atoms: C5_8  and  N2_9 
REMARK    3  A    between atoms: C10_17  and  N4_18 
REMARK    4  A    between atoms: N4_18  and  C11_20 
REMARK    5  A    between atoms: C19_29  and  O3_30 
ROOT
HETATM    1  C2  UNL     1     -20.030 -14.257   1.033  1.00  0.00     0.103 A 
HETATM    2  C3  UNL     1     -20.695 -13.072   1.230  1.00  0.00     0.070 A 
HETATM    3  C4  UNL     1     -21.386 -12.813   2.393  1.00  0.00     0.066 A 
HETATM    4  N1  UNL     1     -22.024 -11.651   2.554  1.00  0.00    -0.191 N 
ATOM      5  H1  UNL     1     -21.981 -10.974   1.793  1.00  0.00     0.184 HD
HETATM    6  C5  UNL     1     -22.726 -11.314   3.662  1.00  0.00     0.682 A 
HETATM    7  N3  UNL     1     -22.773 -12.209   4.646  1.00  0.00    -0.176 N 
ATOM      8  H3  UNL     1     -23.293 -11.983   5.493  1.00  0.00     0.186 HD
HETATM    9  C10 UNL     1     -22.149 -13.414   4.558  1.00  0.00     0.130 A 
HETATM   10  C17 UNL     1     -21.440 -13.733   3.421  1.00  0.00     0.038 A 
HETATM   11  C18 UNL     1     -20.772 -14.930   3.231  1.00  0.00     0.057 A 
HETATM   12  C19 UNL     1     -20.076 -15.186   2.050  1.00  0.00     0.102 A 
ENDROOT
BRANCH   9  13
HETATM   13  N4  UNL     1     -22.222 -14.342   5.626  1.00  0.00    -0.370 N 
ATOM     14  H4  UNL     1     -21.381 -14.800   5.977  1.00  0.00     0.161 HD
BRANCH  13  15
HETATM   15  C11 UNL     1     -23.519 -14.625   6.207  1.00  0.00     0.086 C 
HETATM   16  C12 UNL     1     -23.698 -13.865   7.522  1.00  0.00     0.055 C 
HETATM   17  C13 UNL     1     -25.160 -14.034   7.907  1.00  0.00     0.274 C 
HETATM   18  N5  UNL     1     -25.479 -15.430   7.839  1.00  0.00     0.084 N 
HETATM   19  C14 UNL     1     -26.397 -15.746   8.925  1.00  0.00     0.309 C 
HETATM   20  C15 UNL     1     -24.334 -16.297   7.847  1.00  0.00     0.274 C 
HETATM   21  C16 UNL     1     -23.544 -16.101   6.573  1.00  0.00     0.055 C 
ENDBRANCH  13  15
ENDBRANCH   9  13
BRANCH   6  22
HETATM   22  N2  UNL     1     -23.348 -10.061   3.691  1.00  0.00    -0.213 N 
HETATM   23  C6  UNL     1     -22.589  -8.857   3.911  1.00  0.00     0.167 C 
HETATM   24  C7  UNL     1     -23.445  -7.627   3.680  1.00  0.00     0.188 C 
HETATM   25  O2  UNL     1     -24.320  -7.736   2.657  1.00  0.00    -0.388 OA
HETATM   26  C8  UNL     1     -24.963  -8.897   2.414  1.00  0.00     0.188 C 
HETATM   27  C9  UNL     1     -24.760  -9.922   3.505  1.00  0.00     0.167 C 
ENDBRANCH   6  22
BRANCH  12  28
HETATM   28  O3  UNL     1     -19.408 -16.413   1.893  1.00  0.00    -0.353 OA
HETATM   29  C20 UNL     1     -19.995 -17.397   1.070  1.00  0.00     0.210 C 
ENDBRANCH  12  28
BRANCH   1  30
HETATM   30  O1  UNL     1     -19.352 -14.478  -0.146  1.00  0.00    -0.353 OA
HETATM   31  C1  UNL     1     -19.480 -13.566  -1.201  1.00  0.00     0.210 C 
ENDBRANCH   1  30
TORSDOF 5
ENDMDL
