MODEL 1
REMARK VINA RESULT: -7.837024583      0.000      0.000
REMARK  5 active torsions:
REMARK  status: ('A' for Active; 'I' for Inactive)
REMARK    1  A    between atoms: O1_2  and  C2_3 
REMARK    2  A    between atoms: C5_8  and  N2_9 
REMARK    3  A    between atoms: C10_17  and  N4_18 
REMARK    4  A    between atoms: N4_18  and  C11_20 
REMARK    5  A    between atoms: C19_29  and  O3_30 
ROOT
HETATM    1  C2  UNL     1     -19.722 -15.361   1.316  1.00  0.00     0.103 A 
HETATM    2  C3  UNL     1     -20.362 -15.532   2.518  1.00  0.00     0.070 A 
HETATM    3  C4  UNL     1     -21.135 -14.538   3.077  1.00  0.00     0.066 A 
HETATM    4  N1  UNL     1     -21.744 -14.736   4.248  1.00  0.00    -0.191 N 
ATOM      5  H1  UNL     1     -21.617 -15.638   4.706  1.00  0.00     0.184 HD
HETATM    6  C5  UNL     1     -22.520 -13.814   4.868  1.00  0.00     0.682 A 
HETATM    7  N3  UNL     1     -22.676 -12.643   4.258  1.00  0.00    -0.176 N 
ATOM      8  H3  UNL     1     -23.255 -11.930   4.700  1.00  0.00     0.186 HD
HETATM    9  C10 UNL     1     -22.088 -12.365   3.064  1.00  0.00     0.130 A 
HETATM   10  C17 UNL     1     -21.304 -13.319   2.452  1.00  0.00     0.038 A 
HETATM   11  C18 UNL     1     -20.662 -13.137   1.240  1.00  0.00     0.057 A 
HETATM   12  C19 UNL     1     -19.880 -14.148   0.681  1.00  0.00     0.102 A 
ENDROOT
BRANCH   9  13
HETATM   13  N4  UNL     1     -22.276 -11.105   2.444  1.00  0.00    -0.370 N 
ATOM     14  H4  UNL     1     -21.756 -10.855   1.603  1.00  0.00     0.161 HD
BRANCH  13  15
HETATM   15  C11 UNL     1     -23.222 -10.180   3.035  1.00  0.00     0.086 C 
HETATM   16  C12 UNL     1     -24.172  -9.628   1.970  1.00  0.00     0.055 C 
HETATM   17  C13 UNL     1     -25.259  -8.881   2.727  1.00  0.00     0.274 C 
HETATM   18  N5  UNL     1     -24.624  -7.986   3.651  1.00  0.00     0.084 N 
HETATM   19  C14 UNL     1     -25.403  -6.758   3.713  1.00  0.00     0.309 C 
HETATM   20  C15 UNL     1     -23.242  -7.722   3.358  1.00  0.00     0.274 C 
HETATM   21  C16 UNL     1     -22.435  -8.985   3.550  1.00  0.00     0.055 C 
ENDBRANCH  13  15
ENDBRANCH   9  13
BRANCH   6  22
HETATM   22  N2  UNL     1     -23.095 -14.159   6.097  1.00  0.00    -0.213 N 
HETATM   23  C6  UNL     1     -23.798 -13.185   6.891  1.00  0.00     0.167 C 
HETATM   24  C7  UNL     1     -24.509 -13.846   8.055  1.00  0.00     0.188 C 
HETATM   25  O2  UNL     1     -25.049 -15.051   7.771  1.00  0.00    -0.388 OA
HETATM   26  C8  UNL     1     -24.416 -15.922   6.958  1.00  0.00     0.188 C 
HETATM   27  C9  UNL     1     -23.009 -15.490   6.616  1.00  0.00     0.167 C 
ENDBRANCH   6  22
BRANCH  12  28
HETATM   28  O3  UNL     1     -19.243 -13.927  -0.553  1.00  0.00    -0.353 OA
HETATM   29  C20 UNL     1     -19.856 -13.057  -1.478  1.00  0.00     0.210 C 
ENDBRANCH  12  28
BRANCH   1  30
HETATM   30  O1  UNL     1     -18.957 -16.380   0.792  1.00  0.00    -0.353 OA
HETATM   31  C1  UNL     1     -19.428 -17.697   0.842  1.00  0.00     0.210 C 
ENDBRANCH   1  30
TORSDOF 5
ENDMDL
