MODEL 6
REMARK VINA RESULT: -6.460530433      1.278      1.505
REMARK  5 active torsions:
REMARK  status: ('A' for Active; 'I' for Inactive)
REMARK    1  A    between atoms: O1_2  and  C2_3 
REMARK    2  A    between atoms: C5_8  and  N2_9 
REMARK    3  A    between atoms: C10_17  and  N4_18 
REMARK    4  A    between atoms: N4_18  and  C11_20 
REMARK    5  A    between atoms: C19_29  and  O3_30 
ROOT
HETATM    1  C2  UNL     1     -19.998 -14.808   1.982  1.00  0.00     0.103 A 
HETATM    2  C3  UNL     1     -20.675 -15.144   3.128  1.00  0.00     0.070 A 
HETATM    3  C4  UNL     1     -21.586 -14.289   3.709  1.00  0.00     0.066 A 
HETATM    4  N1  UNL     1     -22.227 -14.645   4.826  1.00  0.00    -0.191 N 
ATOM      5  H1  UNL     1     -22.019 -15.560   5.224  1.00  0.00     0.184 HD
HETATM    6  C5  UNL     1     -23.135 -13.867   5.463  1.00  0.00     0.682 A 
HETATM    7  N3  UNL     1     -23.395 -12.677   4.930  1.00  0.00    -0.176 N 
ATOM      8  H3  UNL     1     -24.075 -12.070   5.386  1.00  0.00     0.186 HD
HETATM    9  C10 UNL     1     -22.783 -12.242   3.795  1.00  0.00     0.130 A 
HETATM   10  C17 UNL     1     -21.864 -13.052   3.165  1.00  0.00     0.038 A 
HETATM   11  C18 UNL     1     -21.186 -12.705   2.009  1.00  0.00     0.057 A 
HETATM   12  C19 UNL     1     -20.264 -13.576   1.427  1.00  0.00     0.102 A 
ENDROOT
BRANCH   9  13
HETATM   13  N4  UNL     1     -23.085 -10.968   3.257  1.00  0.00    -0.370 N 
ATOM     14  H4  UNL     1     -22.384 -10.443   2.733  1.00  0.00     0.161 HD
BRANCH  13  15
HETATM   15  C11 UNL     1     -24.412 -10.425   3.469  1.00  0.00     0.086 C 
HETATM   16  C12 UNL     1     -25.440 -11.161   2.608  1.00  0.00     0.055 C 
HETATM   17  C13 UNL     1     -26.803 -10.690   3.090  1.00  0.00     0.274 C 
HETATM   18  N5  UNL     1     -26.793  -9.256   3.121  1.00  0.00     0.084 N 
HETATM   19  C14 UNL     1     -28.103  -8.777   2.705  1.00  0.00     0.309 C 
HETATM   20  C15 UNL     1     -25.741  -8.658   2.347  1.00  0.00     0.274 C 
HETATM   21  C16 UNL     1     -24.405  -8.988   2.971  1.00  0.00     0.055 C 
ENDBRANCH  13  15
ENDBRANCH   9  13
BRANCH   6  22
HETATM   22  N2  UNL     1     -23.728 -14.369   6.627  1.00  0.00    -0.213 N 
HETATM   23  C6  UNL     1     -25.006 -13.885   7.081  1.00  0.00     0.167 C 
HETATM   24  C7  UNL     1     -25.530 -14.729   8.226  1.00  0.00     0.188 C 
HETATM   25  O2  UNL     1     -25.273 -16.051   8.112  1.00  0.00    -0.388 OA
HETATM   26  C8  UNL     1     -24.101 -16.489   7.607  1.00  0.00     0.188 C 
HETATM   27  C9  UNL     1     -23.092 -15.381   7.414  1.00  0.00     0.167 C 
ENDBRANCH   6  22
BRANCH  12  28
HETATM   28  O3  UNL     1     -19.596 -13.189   0.252  1.00  0.00    -0.353 OA
HETATM   29  C20 UNL     1     -20.243 -13.386  -0.985  1.00  0.00     0.210 C 
ENDBRANCH  12  28
BRANCH   1  30
HETATM   30  O1  UNL     1     -19.094 -15.691   1.433  1.00  0.00    -0.353 OA
HETATM   31  C1  UNL     1     -19.513 -16.977   1.070  1.00  0.00     0.210 C 
ENDBRANCH   1  30
TORSDOF 5
ENDMDL
