MODEL 1
REMARK VINA RESULT: -7.359123068      0.000      0.000
REMARK  6 active torsions:
REMARK  status: ('A' for Active; 'I' for Inactive)
REMARK    1  A    between atoms: N5_13  and  C6_14 
REMARK    2  A    between atoms: C7_16  and  C8_17 
REMARK    3  A    between atoms: C8_17  and  O2_18 
REMARK    4  A    between atoms: O2_18  and  P1_19 
REMARK    5  A    between atoms: C9_23  and  O6_24 
REMARK    6  A    between atoms: C10_26  and  O7_27 
ROOT
HETATM    1  C6  UNL     1      -7.972   3.467 -34.501  1.00  0.00     0.262 C 
HETATM    2  O1  UNL     1      -6.980   4.018 -33.746  1.00  0.00    -0.353 OA
HETATM    3  C7  UNL     1      -5.772   3.850 -34.381  1.00  0.00     0.180 C 
HETATM    4  C9  UNL     1      -6.042   3.645 -35.836  1.00  0.00     0.182 C 
HETATM    5  C10 UNL     1      -7.431   3.099 -35.844  1.00  0.00     0.198 C 
ENDROOT
BRANCH   1   6
HETATM    6  N5  UNL     1      -9.121   4.352 -34.610  1.00  0.00    -0.297 N 
HETATM    7  C3  UNL     1      -9.252   5.628 -34.179  1.00  0.00     0.142 A 
HETATM    8  N3  UNL     1      -8.405   6.449 -33.542  1.00  0.00    -0.336 N 
HETATM    9  C4  UNL     1     -10.518   6.093 -34.493  1.00  0.00     0.119 A 
HETATM   10  C2  UNL     1      -8.767   7.696 -33.211  1.00  0.00     0.183 A 
ATOM     11  H3  UNL     1      -7.470   6.119 -33.305  1.00  0.00     0.168 HD
HETATM   12  N2  UNL     1     -10.000   8.125 -33.526  1.00  0.00    -0.339 N 
HETATM   13  C1  UNL     1     -10.918   7.380 -34.162  1.00  0.00     0.148 A 
ATOM     14  H2  UNL     1     -10.256   9.077 -33.265  1.00  0.00     0.167 HD
HETATM   15  N1  UNL     1     -12.208   7.886 -34.469  1.00  0.00    -0.080 NA
HETATM   16  N4  UNL     1     -11.141   5.092 -35.112  1.00  0.00    -0.346 N 
HETATM   17  C5  UNL     1     -10.300   4.046 -35.182  1.00  0.00     0.188 A 
ATOM     18  H4  UNL     1     -12.095   5.115 -35.471  1.00  0.00     0.167 HD
ENDBRANCH   1   6
BRANCH   5  19
HETATM   19  O7  UNL     1      -7.482   1.735 -36.109  1.00  0.00    -0.388 OA
ATOM     20  H7  UNL     1      -8.035   1.513 -36.848  1.00  0.00     0.210 HD
ENDBRANCH   5  19
BRANCH   3  21
HETATM   21  C8  UNL     1      -4.979   5.148 -34.172  1.00  0.00     0.217 C 
BRANCH  21  22
HETATM   22  O2  UNL     1      -5.619   6.148 -34.902  1.00  0.00    -0.280 OA
BRANCH  22  23
HETATM   23  P1  UNL     1      -4.788   7.598 -34.869  1.00  0.00     0.422 P 
HETATM   24  O3  UNL     1      -5.255   8.428 -33.690  1.00  0.00    -0.617 OA
HETATM   25  O4  UNL     1      -4.963   8.444 -36.316  1.00  0.00    -0.617 OA
HETATM   26  O5  UNL     1      -3.135   7.281 -34.633  1.00  0.00    -0.617 OA
ENDBRANCH  22  23
ENDBRANCH  21  22
ENDBRANCH   3  21
BRANCH   4  27
HETATM   27  O6  UNL     1      -5.200   2.706 -36.420  1.00  0.00    -0.390 OA
ATOM     28  H6  UNL     1      -5.657   2.098 -36.989  1.00  0.00     0.210 HD
ENDBRANCH   4  27
TORSDOF 6
ENDMDL
