MODEL 2
REMARK VINA RESULT: -7.349045081      6.354      8.205
REMARK  6 active torsions:
REMARK  status: ('A' for Active; 'I' for Inactive)
REMARK    1  A    between atoms: N5_13  and  C6_14 
REMARK    2  A    between atoms: C7_16  and  C8_17 
REMARK    3  A    between atoms: C8_17  and  O2_18 
REMARK    4  A    between atoms: O2_18  and  P1_19 
REMARK    5  A    between atoms: C9_23  and  O6_24 
REMARK    6  A    between atoms: C10_26  and  O7_27 
ROOT
HETATM    1  C6  UNL     1      -0.280   8.526 -34.588  1.00  0.00     0.262 C 
HETATM    2  O1  UNL     1      -1.479   9.087 -34.911  1.00  0.00    -0.353 OA
HETATM    3  C7  UNL     1      -1.378   9.717 -36.130  1.00  0.00     0.180 C 
HETATM    4  C9  UNL     1      -0.229   9.110 -36.867  1.00  0.00     0.182 C 
HETATM    5  C10 UNL     1       0.634   8.586 -35.768  1.00  0.00     0.198 C 
ENDROOT
BRANCH   1   6
HETATM    6  N5  UNL     1      -0.437   7.164 -34.100  1.00  0.00    -0.297 N 
HETATM    7  C3  UNL     1      -1.371   6.668 -33.257  1.00  0.00     0.142 A 
HETATM    8  N3  UNL     1      -2.404   7.244 -32.626  1.00  0.00    -0.336 N 
HETATM    9  C4  UNL     1      -1.145   5.316 -33.064  1.00  0.00     0.119 A 
HETATM   10  C2  UNL     1      -3.208   6.534 -31.823  1.00  0.00     0.183 A 
ATOM     11  H3  UNL     1      -2.581   8.240 -32.760  1.00  0.00     0.168 HD
HETATM   12  N2  UNL     1      -2.970   5.224 -31.651  1.00  0.00    -0.339 N 
HETATM   13  C1  UNL     1      -1.963   4.558 -32.238  1.00  0.00     0.148 A 
ATOM     14  H2  UNL     1      -3.594   4.702 -31.036  1.00  0.00     0.167 HD
HETATM   15  N1  UNL     1      -1.758   3.170 -32.019  1.00  0.00    -0.080 NA
HETATM   16  N4  UNL     1      -0.075   5.007 -33.794  1.00  0.00    -0.346 N 
HETATM   17  C5  UNL     1       0.350   6.119 -34.416  1.00  0.00     0.188 A 
ATOM     18  H4  UNL     1       0.350   4.083 -33.867  1.00  0.00     0.167 HD
ENDBRANCH   1   6
BRANCH   5  19
HETATM   19  O7  UNL     1       1.771   9.356 -35.551  1.00  0.00    -0.388 OA
ATOM     20  H7  UNL     1       1.598  10.289 -35.525  1.00  0.00     0.210 HD
ENDBRANCH   5  19
BRANCH   3  21
HETATM   21  C8  UNL     1      -2.689   9.442 -36.880  1.00  0.00     0.217 C 
BRANCH  21  22
HETATM   22  O2  UNL     1      -3.699  10.140 -36.219  1.00  0.00    -0.280 OA
BRANCH  22  23
HETATM   23  P1  UNL     1      -5.125  10.180 -37.089  1.00  0.00     0.422 P 
HETATM   24  O3  UNL     1      -5.191  11.454 -37.906  1.00  0.00    -0.617 OA
HETATM   25  O4  UNL     1      -6.468  10.033 -36.081  1.00  0.00    -0.617 OA
HETATM   26  O5  UNL     1      -5.138   8.882 -38.187  1.00  0.00    -0.617 OA
ENDBRANCH  22  23
ENDBRANCH  21  22
ENDBRANCH   3  21
BRANCH   4  27
HETATM   27  O6  UNL     1       0.505  10.039 -37.595  1.00  0.00    -0.390 OA
ATOM     28  H6  UNL     1       0.133  10.221 -38.450  1.00  0.00     0.210 HD
ENDBRANCH   4  27
TORSDOF 6
ENDMDL
