MODEL 7
REMARK VINA RESULT: -7.256743228      3.585      5.868
REMARK  6 active torsions:
REMARK  status: ('A' for Active; 'I' for Inactive)
REMARK    1  A    between atoms: N5_13  and  C6_14 
REMARK    2  A    between atoms: C7_16  and  C8_17 
REMARK    3  A    between atoms: C8_17  and  O2_18 
REMARK    4  A    between atoms: O2_18  and  P1_19 
REMARK    5  A    between atoms: C9_23  and  O6_24 
REMARK    6  A    between atoms: C10_26  and  O7_27 
ROOT
HETATM    1  C6  UNL     1     -10.292   5.324 -34.646  1.00  0.00     0.262 C 
HETATM    2  O1  UNL     1     -10.516   6.413 -35.434  1.00  0.00    -0.353 OA
HETATM    3  C7  UNL     1     -11.549   7.154 -34.910  1.00  0.00     0.180 C 
HETATM    4  C9  UNL     1     -11.662   6.824 -33.458  1.00  0.00     0.182 C 
HETATM    5  C10 UNL     1     -11.075   5.454 -33.381  1.00  0.00     0.198 C 
ENDROOT
BRANCH   1   6
HETATM    6  N5  UNL     1      -8.874   5.133 -34.381  1.00  0.00    -0.297 N 
HETATM    7  C3  UNL     1      -8.047   4.170 -34.847  1.00  0.00     0.142 A 
HETATM    8  N3  UNL     1      -8.256   3.128 -35.664  1.00  0.00    -0.336 N 
HETATM    9  C4  UNL     1      -6.774   4.371 -34.340  1.00  0.00     0.119 A 
HETATM   10  C2  UNL     1      -7.260   2.292 -35.989  1.00  0.00     0.183 A 
ATOM     11  H3  UNL     1      -9.189   2.968 -36.044  1.00  0.00     0.168 HD
HETATM   12  N2  UNL     1      -6.034   2.507 -35.485  1.00  0.00    -0.339 N 
HETATM   13  C1  UNL     1      -5.726   3.521 -34.661  1.00  0.00     0.148 A 
ATOM     14  H2  UNL     1      -5.291   1.859 -35.744  1.00  0.00     0.167 HD
HETATM   15  N1  UNL     1      -4.410   3.699 -34.158  1.00  0.00    -0.080 NA
HETATM   16  N4  UNL     1      -6.845   5.456 -33.571  1.00  0.00    -0.346 N 
HETATM   17  C5  UNL     1      -8.107   5.913 -33.597  1.00  0.00     0.188 A 
ATOM     18  H4  UNL     1      -6.071   5.869 -33.051  1.00  0.00     0.167 HD
ENDBRANCH   1   6
BRANCH   5  19
HETATM   19  O7  UNL     1     -12.031   4.457 -33.214  1.00  0.00    -0.388 OA
ATOM     20  H7  UNL     1     -12.923   4.784 -33.219  1.00  0.00     0.210 HD
ENDBRANCH   5  19
BRANCH   3  21
HETATM   21  C8  UNL     1     -11.167   8.631 -35.086  1.00  0.00     0.217 C 
BRANCH  21  22
HETATM   22  O2  UNL     1     -10.369   8.720 -36.226  1.00  0.00    -0.280 OA
BRANCH  22  23
HETATM   23  P1  UNL     1      -9.785  10.265 -36.481  1.00  0.00     0.422 P 
HETATM   24  O3  UNL     1     -10.728  11.024 -37.393  1.00  0.00    -0.617 OA
HETATM   25  O4  UNL     1      -8.221  10.240 -37.108  1.00  0.00    -0.617 OA
HETATM   26  O5  UNL     1      -9.752  11.094 -34.997  1.00  0.00    -0.617 OA
ENDBRANCH  22  23
ENDBRANCH  21  22
ENDBRANCH   3  21
BRANCH   4  27
HETATM   27  O6  UNL     1     -12.978   6.762 -33.013  1.00  0.00    -0.390 OA
ATOM     28  H6  UNL     1     -13.049   6.578 -32.084  1.00  0.00     0.210 HD
ENDBRANCH   4  27
TORSDOF 6
ENDMDL
