MODEL 7
REMARK VINA RESULT: -6.416747516      2.695      4.662
REMARK  1 active torsions:
REMARK  status: ('A' for Active; 'I' for Inactive)
REMARK    1  A    between atoms: C3_7  and  C4_8 
ROOT
HETATM    1  O1  UNL     1      16.347   3.983  10.732  1.00  0.00    -0.238 OA
HETATM    2  C1  UNL     1      16.618   3.761  11.962  1.00  0.00     0.368 C 
HETATM    3  N1  UNL     1      17.877   4.112  12.558  1.00  0.00    -0.270 N 
ATOM      4  H1  UNL     1      18.676   4.559  12.109  1.00  0.00     0.174 HD
HETATM    5  C2  UNL     1      17.761   3.698  13.912  1.00  0.00     0.260 C 
HETATM    6  O2  UNL     1      18.459   4.090  14.870  1.00  0.00    -0.270 OA
HETATM    7  C3  UNL     1      16.672   2.733  13.950  1.00  0.00     0.259 C 
HETATM    8  O3  UNL     1      15.813   3.172  12.925  1.00  0.00    -0.284 OA
ENDROOT
BRANCH   7   9
HETATM    9  C4  UNL     1      16.003   2.605  15.254  1.00  0.00    -0.020 A 
HETATM   10  C5  UNL     1      15.026   3.512  15.615  1.00  0.00     0.010 A 
HETATM   11  C6  UNL     1      14.359   3.449  16.821  1.00  0.00     0.001 A 
HETATM   12  C7  UNL     1      14.652   2.452  17.729  1.00  0.00     0.000 A 
HETATM   13  C8  UNL     1      15.628   1.545  17.368  1.00  0.00     0.001 A 
HETATM   14  C9  UNL     1      16.297   1.611  16.155  1.00  0.00     0.010 A 
ENDBRANCH   7   9
TORSDOF 1
ENDMDL
