MODEL 1
REMARK VINA RESULT: -6.557237966      0.000      0.000
REMARK  1 active torsions:
REMARK  status: ('A' for Active; 'I' for Inactive)
REMARK    1  A    between atoms: C3_7  and  C4_8 
ROOT
HETATM    1  O1  UNL     1      13.322   1.354  17.073  1.00  0.00    -0.238 OA
HETATM    2  C1  UNL     1      14.483   1.700  16.663  1.00  0.00     0.368 C 
HETATM    3  N1  UNL     1      15.692   1.097  17.150  1.00  0.00    -0.270 N 
ATOM      4  H1  UNL     1      15.784   0.357  17.846  1.00  0.00     0.174 HD
HETATM    5  C2  UNL     1      16.733   1.762  16.447  1.00  0.00     0.260 C 
HETATM    6  O2  UNL     1      17.903   1.356  16.296  1.00  0.00    -0.270 OA
HETATM    7  C3  UNL     1      16.158   3.001  15.946  1.00  0.00     0.259 C 
HETATM    8  O3  UNL     1      14.809   2.667  15.724  1.00  0.00    -0.284 OA
ENDROOT
BRANCH   7   9
HETATM    9  C4  UNL     1      16.822   3.558  14.757  1.00  0.00    -0.020 A 
HETATM   10  C5  UNL     1      16.482   3.091  13.502  1.00  0.00     0.010 A 
HETATM   11  C6  UNL     1      17.065   3.570  12.347  1.00  0.00     0.001 A 
HETATM   12  C7  UNL     1      18.030   4.553  12.407  1.00  0.00     0.000 A 
HETATM   13  C8  UNL     1      18.370   5.019  13.662  1.00  0.00     0.001 A 
HETATM   14  C9  UNL     1      17.783   4.537  14.821  1.00  0.00     0.010 A 
ENDBRANCH   7   9
TORSDOF 1
ENDMDL
