MODEL 4
REMARK VINA RESULT: -6.442251524      1.725      1.931
REMARK  1 active torsions:
REMARK  status: ('A' for Active; 'I' for Inactive)
REMARK    1  A    between atoms: C3_7  and  C4_8 
ROOT
HETATM    1  O1  UNL     1      15.091   0.422  17.398  1.00  0.00    -0.238 OA
HETATM    2  C1  UNL     1      15.777   1.091  16.551  1.00  0.00     0.368 C 
HETATM    3  N1  UNL     1      16.447   0.480  15.437  1.00  0.00    -0.270 N 
ATOM      4  H1  UNL     1      16.466  -0.508  15.186  1.00  0.00     0.174 HD
HETATM    5  C2  UNL     1      17.078   1.559  14.763  1.00  0.00     0.260 C 
HETATM    6  O2  UNL     1      17.486   1.560  13.582  1.00  0.00    -0.270 OA
HETATM    7  C3  UNL     1      17.152   2.651  15.721  1.00  0.00     0.259 C 
HETATM    8  O3  UNL     1      16.010   2.457  16.522  1.00  0.00    -0.284 OA
ENDROOT
BRANCH   7   9
HETATM    9  C4  UNL     1      17.224   3.995  15.127  1.00  0.00    -0.020 A 
HETATM   10  C5  UNL     1      16.061   4.700  14.885  1.00  0.00     0.010 A 
HETATM   11  C6  UNL     1      16.057   5.964  14.332  1.00  0.00     0.001 A 
HETATM   12  C7  UNL     1      17.243   6.581  13.993  1.00  0.00     0.000 A 
HETATM   13  C8  UNL     1      18.406   5.876  14.236  1.00  0.00     0.001 A 
HETATM   14  C9  UNL     1      18.407   4.606  14.792  1.00  0.00     0.010 A 
ENDBRANCH   7   9
TORSDOF 1
ENDMDL
