MODEL 5
REMARK VINA RESULT: -6.426440530      2.630      4.641
REMARK  1 active torsions:
REMARK  status: ('A' for Active; 'I' for Inactive)
REMARK    1  A    between atoms: C3_7  and  C4_8 
ROOT
HETATM    1  O1  UNL     1      16.327   3.969  10.803  1.00  0.00    -0.238 OA
HETATM    2  C1  UNL     1      16.568   3.720  12.034  1.00  0.00     0.368 C 
HETATM    3  N1  UNL     1      17.841   3.983  12.647  1.00  0.00    -0.270 N 
ATOM      4  H1  UNL     1      18.673   4.380  12.211  1.00  0.00     0.174 HD
HETATM    5  C2  UNL     1      17.682   3.568  13.997  1.00  0.00     0.260 C 
HETATM    6  O2  UNL     1      18.393   3.906  14.966  1.00  0.00    -0.270 OA
HETATM    7  C3  UNL     1      16.532   2.676  14.015  1.00  0.00     0.259 C 
HETATM    8  O3  UNL     1      15.715   3.178  12.984  1.00  0.00    -0.284 OA
ENDROOT
BRANCH   7   9
HETATM    9  C4  UNL     1      15.841   2.582  15.310  1.00  0.00    -0.020 A 
HETATM   10  C5  UNL     1      16.051   1.482  16.120  1.00  0.00     0.010 A 
HETATM   11  C6  UNL     1      15.435   1.331  17.345  1.00  0.00     0.001 A 
HETATM   12  C7  UNL     1      14.569   2.297  17.815  1.00  0.00     0.000 A 
HETATM   13  C8  UNL     1      14.361   3.396  17.006  1.00  0.00     0.001 A 
HETATM   14  C9  UNL     1      14.980   3.545  15.775  1.00  0.00     0.010 A 
ENDBRANCH   7   9
TORSDOF 1
ENDMDL
