MODEL 2
REMARK VINA RESULT: -6.550077853      0.103      1.307
REMARK  1 active torsions:
REMARK  status: ('A' for Active; 'I' for Inactive)
REMARK    1  A    between atoms: C3_7  and  C4_8 
ROOT
HETATM    1  O1  UNL     1      13.332   1.356  17.070  1.00  0.00    -0.238 OA
HETATM    2  C1  UNL     1      14.491   1.699  16.652  1.00  0.00     0.368 C 
HETATM    3  N1  UNL     1      15.701   1.088  17.128  1.00  0.00    -0.270 N 
ATOM      4  H1  UNL     1      15.795   0.345  17.819  1.00  0.00     0.174 HD
HETATM    5  C2  UNL     1      16.739   1.751  16.420  1.00  0.00     0.260 C 
HETATM    6  O2  UNL     1      17.907   1.340  16.257  1.00  0.00    -0.270 OA
HETATM    7  C3  UNL     1      16.167   2.995  15.929  1.00  0.00     0.259 C 
HETATM    8  O3  UNL     1      14.814   2.669  15.715  1.00  0.00    -0.284 OA
ENDROOT
BRANCH   7   9
HETATM    9  C4  UNL     1      16.825   3.554  14.737  1.00  0.00    -0.020 A 
HETATM   10  C5  UNL     1      17.757   4.563  14.879  1.00  0.00     0.010 A 
HETATM   11  C6  UNL     1      18.411   5.130  13.804  1.00  0.00     0.001 A 
HETATM   12  C7  UNL     1      18.149   4.697  12.521  1.00  0.00     0.000 A 
HETATM   13  C8  UNL     1      17.218   3.687  12.380  1.00  0.00     0.001 A 
HETATM   14  C9  UNL     1      16.562   3.120  13.461  1.00  0.00     0.010 A 
ENDBRANCH   7   9
TORSDOF 1
ENDMDL
