MODEL 3
REMARK VINA RESULT: -6.608188688      2.682      5.895
REMARK  3 active torsions:
REMARK  status: ('A' for Active; 'I' for Inactive)
REMARK    1  A    between atoms: O1_2  and  C2_3 
REMARK    2  A    between atoms: C5_6  and  C6_7 
REMARK    3  A    between atoms: C9_15  and  O5_16 
ROOT
HETATM    1  C2  UNL     1      -4.300   1.619  15.708  1.00  0.00     0.070 A 
HETATM    2  C3  UNL     1      -3.924   2.899  15.452  1.00  0.00     0.037 A 
HETATM    3  C4  UNL     1      -3.757   3.282  14.115  1.00  0.00     0.016 A 
HETATM    4  C5  UNL     1      -3.961   2.405  13.081  1.00  0.00     0.014 A 
HETATM    5  C9  UNL     1      -4.343   1.110  13.358  1.00  0.00     0.080 A 
HETATM    6  C11 UNL     1      -4.509   0.730  14.675  1.00  0.00     0.074 A 
ENDROOT
BRANCH   4   7
HETATM    7  C6  UNL     1      -3.770   2.853  11.701  1.00  0.00     0.261 C 
HETATM    8  O2  UNL     1      -4.382   4.104  11.432  1.00  0.00    -0.284 OA
HETATM    9  C7  UNL     1      -3.757   4.614  10.302  1.00  0.00     0.368 C 
HETATM   10  O3  UNL     1      -4.209   5.463   9.466  1.00  0.00    -0.238 OA
HETATM   11  N1  UNL     1      -2.468   4.021  10.201  1.00  0.00    -0.270 N 
HETATM   12  C8  UNL     1      -2.359   3.131  11.332  1.00  0.00     0.260 C 
ATOM     13  H1  UNL     1      -1.767   4.190   9.480  1.00  0.00     0.174 HD
HETATM   14  O4  UNL     1      -1.292   2.715  11.849  1.00  0.00    -0.270 OA
ENDBRANCH   4   7
BRANCH   5  15
HETATM   15  O5  UNL     1      -4.540   0.256  12.287  1.00  0.00    -0.355 OA
HETATM   16  C10 UNL     1      -3.604  -0.731  11.905  1.00  0.00     0.210 C 
ENDBRANCH   5  15
BRANCH   1  17
HETATM   17  O1  UNL     1      -4.471   1.222  17.043  1.00  0.00    -0.356 OA
HETATM   18  C1  UNL     1      -5.729   1.258  17.656  1.00  0.00     0.210 C 
ENDBRANCH   1  17
TORSDOF 3
ENDMDL
