MODEL 7
REMARK VINA RESULT: -6.269883169      2.380      5.585
REMARK  3 active torsions:
REMARK  status: ('A' for Active; 'I' for Inactive)
REMARK    1  A    between atoms: O1_2  and  C2_3 
REMARK    2  A    between atoms: C5_6  and  C6_7 
REMARK    3  A    between atoms: C9_15  and  O5_16 
ROOT
HETATM    1  C2  UNL     1      -4.979   1.220  15.449  1.00  0.00     0.070 A 
HETATM    2  C3  UNL     1      -4.402   0.641  14.364  1.00  0.00     0.037 A 
HETATM    3  C4  UNL     1      -3.815   1.477  13.406  1.00  0.00     0.016 A 
HETATM    4  C5  UNL     1      -3.812   2.842  13.540  1.00  0.00     0.014 A 
HETATM    5  C9  UNL     1      -4.403   3.412  14.648  1.00  0.00     0.080 A 
HETATM    6  C11 UNL     1      -4.982   2.591  15.593  1.00  0.00     0.074 A 
ENDROOT
BRANCH   4   7
HETATM    7  C6  UNL     1      -3.189   3.672  12.510  1.00  0.00     0.261 C 
HETATM    8  O2  UNL     1      -1.961   3.142  12.036  1.00  0.00    -0.284 OA
HETATM    9  C7  UNL     1      -1.729   3.730  10.799  1.00  0.00     0.368 C 
HETATM   10  O3  UNL     1      -0.616   3.892  10.200  1.00  0.00    -0.238 OA
HETATM   11  N1  UNL     1      -2.978   4.151  10.265  1.00  0.00    -0.270 N 
HETATM   12  C8  UNL     1      -3.967   3.781  11.250  1.00  0.00     0.260 C 
ATOM     13  H1  UNL     1      -3.141   4.616   9.372  1.00  0.00     0.174 HD
HETATM   14  O4  UNL     1      -5.193   3.604  11.040  1.00  0.00    -0.270 OA
ENDBRANCH   4   7
BRANCH   5  15
HETATM   15  O5  UNL     1      -4.379   4.793  14.747  1.00  0.00    -0.355 OA
HETATM   16  C10 UNL     1      -5.548   5.587  14.737  1.00  0.00     0.210 C 
ENDBRANCH   5  15
BRANCH   1  17
HETATM   17  O1  UNL     1      -5.572   0.394  16.416  1.00  0.00    -0.356 OA
HETATM   18  C1  UNL     1      -6.144   0.930  17.576  1.00  0.00     0.210 C 
ENDBRANCH   1  17
TORSDOF 3
ENDMDL
