MODEL 6
REMARK VINA RESULT: -6.359607050      2.441      5.474
REMARK  3 active torsions:
REMARK  status: ('A' for Active; 'I' for Inactive)
REMARK    1  A    between atoms: O1_2  and  C2_3 
REMARK    2  A    between atoms: C5_6  and  C6_7 
REMARK    3  A    between atoms: C9_15  and  O5_16 
ROOT
HETATM    1  C2  UNL     1      -6.214   2.388  16.304  1.00  0.00     0.070 A 
HETATM    2  C3  UNL     1      -5.402   1.385  15.880  1.00  0.00     0.037 A 
HETATM    3  C4  UNL     1      -4.672   1.581  14.702  1.00  0.00     0.016 A 
HETATM    4  C5  UNL     1      -4.761   2.745  13.981  1.00  0.00     0.014 A 
HETATM    5  C9  UNL     1      -5.590   3.753  14.426  1.00  0.00     0.080 A 
HETATM    6  C11 UNL     1      -6.310   3.561  15.587  1.00  0.00     0.074 A 
ENDROOT
BRANCH   4   7
HETATM    7  C6  UNL     1      -3.980   2.901  12.754  1.00  0.00     0.261 C 
HETATM    8  O2  UNL     1      -2.852   2.043  12.700  1.00  0.00    -0.284 OA
HETATM    9  C7  UNL     1      -2.494   1.947  11.361  1.00  0.00     0.368 C 
HETATM   10  O3  UNL     1      -1.356   1.651  10.869  1.00  0.00    -0.238 OA
HETATM   11  N1  UNL     1      -3.639   2.242  10.572  1.00  0.00    -0.270 N 
HETATM   12  C8  UNL     1      -4.699   2.519  11.512  1.00  0.00     0.260 C 
ATOM     13  H1  UNL     1      -3.699   2.255   9.554  1.00  0.00     0.174 HD
HETATM   14  O4  UNL     1      -5.932   2.441  11.285  1.00  0.00    -0.270 OA
ENDBRANCH   4   7
BRANCH   5  15
HETATM   15  O5  UNL     1      -5.652   4.911  13.671  1.00  0.00    -0.355 OA
HETATM   16  C10 UNL     1      -5.055   6.127  14.074  1.00  0.00     0.210 C 
ENDBRANCH   5  15
BRANCH   1  17
HETATM   17  O1  UNL     1      -6.952   2.204  17.484  1.00  0.00    -0.356 OA
HETATM   18  C1  UNL     1      -6.474   2.660  18.718  1.00  0.00     0.210 C 
ENDBRANCH   1  17
TORSDOF 3
ENDMDL
