MODEL 12
REMARK VINA RESULT: -5.826954392      3.173      5.126
REMARK  1 active torsions:
REMARK  status: ('A' for Active; 'I' for Inactive)
REMARK    1  A    between atoms: C3_7  and  C4_8 
ROOT
HETATM    1  O1  UNL     1      -1.089   4.862  12.287  1.00  0.00    -0.260 OA
HETATM    2  C1  UNL     1      -2.220   4.717  12.764  1.00  0.00     0.287 C 
HETATM    3  N1  UNL     1      -3.387   4.309  12.109  1.00  0.00    -0.287 N 
ATOM      4  H1  UNL     1      -3.442   4.192  11.098  1.00  0.00     0.172 HD
HETATM    5  C2  UNL     1      -4.476   4.074  12.967  1.00  0.00     0.243 C 
HETATM    6  O2  UNL     1      -5.415   3.259  12.702  1.00  0.00    -0.271 OA
HETATM    7  C3  UNL     1      -4.462   4.844  14.215  1.00  0.00     0.182 C 
HETATM    8  S1  UNL     1      -2.645   5.009  14.465  1.00  0.00    -0.050 SA
ENDROOT
BRANCH   7   9
HETATM    9  C4  UNL     1      -5.078   4.131  15.347  1.00  0.00    -0.035 A 
HETATM   10  C5  UNL     1      -4.419   3.053  15.894  1.00  0.00     0.009 A 
HETATM   11  C6  UNL     1      -4.962   2.342  16.970  1.00  0.00     0.001 A 
HETATM   12  C7  UNL     1      -6.162   2.745  17.465  1.00  0.00     0.000 A 
HETATM   13  C8  UNL     1      -6.850   3.816  16.945  1.00  0.00     0.001 A 
HETATM   14  C9  UNL     1      -6.280   4.498  15.877  1.00  0.00     0.009 A 
ENDBRANCH   7   9
TORSDOF 1
ENDMDL
