MODEL 18
REMARK VINA RESULT: -5.572880449      3.273      5.241
REMARK  1 active torsions:
REMARK  status: ('A' for Active; 'I' for Inactive)
REMARK    1  A    between atoms: C3_7  and  C4_8 
ROOT
HETATM    1  O1  UNL     1      -2.562   6.094  12.581  1.00  0.00    -0.260 OA
HETATM    2  C1  UNL     1      -3.496   5.754  13.316  1.00  0.00     0.287 C 
HETATM    3  N1  UNL     1      -4.854   6.059  13.183  1.00  0.00    -0.287 N 
ATOM      4  H1  UNL     1      -5.208   6.719  12.491  1.00  0.00     0.172 HD
HETATM    5  C2  UNL     1      -5.689   5.377  14.085  1.00  0.00     0.243 C 
HETATM    6  O2  UNL     1      -6.907   5.101  13.844  1.00  0.00    -0.271 OA
HETATM    7  C3  UNL     1      -5.054   4.993  15.351  1.00  0.00     0.182 C 
HETATM    8  S1  UNL     1      -3.321   4.756  14.777  1.00  0.00    -0.050 SA
ENDROOT
BRANCH   7   9
HETATM    9  C4  UNL     1      -5.589   3.743  15.915  1.00  0.00    -0.035 A 
HETATM   10  C5  UNL     1      -5.036   2.544  15.522  1.00  0.00     0.009 A 
HETATM   11  C6  UNL     1      -5.508   1.328  16.029  1.00  0.00     0.001 A 
HETATM   12  C7  UNL     1      -6.531   1.360  16.925  1.00  0.00     0.000 A 
HETATM   13  C8  UNL     1      -7.108   2.536  17.341  1.00  0.00     0.001 A 
HETATM   14  C9  UNL     1      -6.613   3.724  16.816  1.00  0.00     0.009 A 
ENDBRANCH   7   9
TORSDOF 1
ENDMDL
