MODEL 5
REMARK VINA RESULT: -6.165682743      1.381      1.396
REMARK  1 active torsions:
REMARK  status: ('A' for Active; 'I' for Inactive)
REMARK    1  A    between atoms: C3_7  and  C4_8 
ROOT
HETATM    1  O1  UNL     1      -7.574   0.943  17.319  1.00  0.00    -0.260 OA
HETATM    2  C1  UNL     1      -6.620   1.535  16.802  1.00  0.00     0.287 C 
HETATM    3  N1  UNL     1      -5.510   0.984  16.154  1.00  0.00    -0.287 N 
ATOM      4  H1  UNL     1      -5.316  -0.018  16.142  1.00  0.00     0.172 HD
HETATM    5  C2  UNL     1      -4.685   1.929  15.519  1.00  0.00     0.243 C 
HETATM    6  O2  UNL     1      -3.965   1.665  14.504  1.00  0.00    -0.271 OA
HETATM    7  C3  UNL     1      -4.706   3.270  16.113  1.00  0.00     0.182 C 
HETATM    8  S1  UNL     1      -6.428   3.302  16.762  1.00  0.00    -0.050 SA
ENDROOT
BRANCH   7   9
HETATM    9  C4  UNL     1      -4.504   4.346  15.128  1.00  0.00    -0.035 A 
HETATM   10  C5  UNL     1      -3.244   4.882  14.975  1.00  0.00     0.009 A 
HETATM   11  C6  UNL     1      -3.000   5.906  14.052  1.00  0.00     0.001 A 
HETATM   12  C7  UNL     1      -4.043   6.361  13.308  1.00  0.00     0.000 A 
HETATM   13  C8  UNL     1      -5.314   5.852  13.433  1.00  0.00     0.001 A 
HETATM   14  C9  UNL     1      -5.518   4.836  14.359  1.00  0.00     0.009 A 
ENDBRANCH   7   9
TORSDOF 1
ENDMDL
