MODEL 14
REMARK VINA RESULT: -5.796205157      3.094      5.128
REMARK  1 active torsions:
REMARK  status: ('A' for Active; 'I' for Inactive)
REMARK    1  A    between atoms: C3_7  and  C4_8 
ROOT
HETATM    1  O1  UNL     1      -1.198   5.059  12.465  1.00  0.00    -0.260 OA
HETATM    2  C1  UNL     1      -2.317   4.821  12.932  1.00  0.00     0.287 C 
HETATM    3  N1  UNL     1      -3.460   4.381  12.256  1.00  0.00    -0.287 N 
ATOM      4  H1  UNL     1      -3.511   4.318  11.239  1.00  0.00     0.172 HD
HETATM    5  C2  UNL     1      -4.530   4.033  13.098  1.00  0.00     0.243 C 
HETATM    6  O2  UNL     1      -5.420   3.180  12.788  1.00  0.00    -0.271 OA
HETATM    7  C3  UNL     1      -4.558   4.732  14.389  1.00  0.00     0.182 C 
HETATM    8  S1  UNL     1      -2.754   4.991  14.647  1.00  0.00    -0.050 SA
ENDROOT
BRANCH   7   9
HETATM    9  C4  UNL     1      -5.126   3.921  15.478  1.00  0.00    -0.035 A 
HETATM   10  C5  UNL     1      -6.337   4.289  16.021  1.00  0.00     0.009 A 
HETATM   11  C6  UNL     1      -6.920   3.551  17.058  1.00  0.00     0.001 A 
HETATM   12  C7  UNL     1      -6.257   2.458  17.518  1.00  0.00     0.000 A 
HETATM   13  C8  UNL     1      -5.047   2.059  17.002  1.00  0.00     0.001 A 
HETATM   14  C9  UNL     1      -4.499   2.816  15.973  1.00  0.00     0.009 A 
ENDBRANCH   7   9
TORSDOF 1
ENDMDL
