MODEL 4
REMARK VINA RESULT: -6.195713650      1.365      1.780
REMARK  1 active torsions:
REMARK  status: ('A' for Active; 'I' for Inactive)
REMARK    1  A    between atoms: C3_7  and  C4_8 
ROOT
HETATM    1  O1  UNL     1      -7.607   0.939  17.302  1.00  0.00    -0.260 OA
HETATM    2  C1  UNL     1      -6.638   1.523  16.805  1.00  0.00     0.287 C 
HETATM    3  N1  UNL     1      -5.525   0.961  16.170  1.00  0.00    -0.287 N 
ATOM      4  H1  UNL     1      -5.345  -0.043  16.154  1.00  0.00     0.172 HD
HETATM    5  C2  UNL     1      -4.678   1.900  15.555  1.00  0.00     0.243 C 
HETATM    6  O2  UNL     1      -3.946   1.633  14.550  1.00  0.00    -0.271 OA
HETATM    7  C3  UNL     1      -4.690   3.237  16.159  1.00  0.00     0.182 C 
HETATM    8  S1  UNL     1      -6.422   3.287  16.782  1.00  0.00    -0.050 SA
ENDROOT
BRANCH   7   9
HETATM    9  C4  UNL     1      -4.458   4.317  15.186  1.00  0.00    -0.035 A 
HETATM   10  C5  UNL     1      -5.523   4.797  14.456  1.00  0.00     0.009 A 
HETATM   11  C6  UNL     1      -5.355   5.824  13.519  1.00  0.00     0.001 A 
HETATM   12  C7  UNL     1      -4.108   6.337  13.348  1.00  0.00     0.000 A 
HETATM   13  C8  UNL     1      -3.021   5.884  14.057  1.00  0.00     0.001 A 
HETATM   14  C9  UNL     1      -3.227   4.865  14.978  1.00  0.00     0.009 A 
ENDBRANCH   7   9
TORSDOF 1
ENDMDL
