MODEL 1
REMARK VINA RESULT: -6.492105591      0.000      0.000
REMARK  1 active torsions:
REMARK  status: ('A' for Active; 'I' for Inactive)
REMARK    1  A    between atoms: C3_7  and  C4_8 
ROOT
HETATM    1  O1  UNL     1      -7.911   1.225  17.172  1.00  0.00    -0.260 OA
HETATM    2  C1  UNL     1      -6.804   1.684  16.867  1.00  0.00     0.287 C 
HETATM    3  N1  UNL     1      -5.542   1.152  17.149  1.00  0.00    -0.287 N 
ATOM      4  H1  UNL     1      -5.403   0.348  17.761  1.00  0.00     0.172 HD
HETATM    5  C2  UNL     1      -4.480   1.820  16.514  1.00  0.00     0.243 C 
HETATM    6  O2  UNL     1      -3.379   1.261  16.210  1.00  0.00    -0.271 OA
HETATM    7  C3  UNL     1      -4.727   3.235  16.215  1.00  0.00     0.182 C 
HETATM    8  S1  UNL     1      -6.550   3.192  15.962  1.00  0.00    -0.050 SA
ENDROOT
BRANCH   7   9
HETATM    9  C4  UNL     1      -4.046   3.701  14.996  1.00  0.00    -0.035 A 
HETATM   10  C5  UNL     1      -3.029   4.623  15.110  1.00  0.00     0.009 A 
HETATM   11  C6  UNL     1      -2.350   5.097  13.981  1.00  0.00     0.001 A 
HETATM   12  C7  UNL     1      -2.722   4.621  12.764  1.00  0.00     0.000 A 
HETATM   13  C8  UNL     1      -3.731   3.701  12.609  1.00  0.00     0.001 A 
HETATM   14  C9  UNL     1      -4.382   3.253  13.752  1.00  0.00     0.009 A 
ENDBRANCH   7   9
TORSDOF 1
ENDMDL
