MODEL 9
REMARK VINA RESULT: -10.708808258      5.114     12.555
REMARK  10 active torsions:
REMARK  status: ('A' for Active; 'I' for Inactive)
REMARK    1  A    between atoms: O1_1  and  C1_3 
REMARK    2  A    between atoms: C1_3  and  C2_4 
REMARK    3  A    between atoms: C1_3  and  C4_13 
REMARK    4  A    between atoms: C1_3  and  C10_21 
REMARK    5  A    between atoms: C2_4  and  N1_5 
REMARK    6  A    between atoms: C10_21  and  C11_24 
REMARK    7  A    between atoms: C14_27  and  C15_28 
REMARK    8  A    between atoms: C18_31  and  O2_32 
REMARK    9  A    between atoms: O2_32  and  C19_33 
REMARK   10  A    between atoms: C19_33  and  C20_34 
ROOT
HETATM    1  C10 UNL     1      73.296  41.582  36.924  1.00  0.00     0.322 C 
HETATM    2  F3  UNL     1      73.168  41.462  35.510  1.00  0.00    -0.195 F 
HETATM    3  F4  UNL     1      74.509  41.212  37.322  1.00  0.00    -0.195 F 
ENDROOT
BRANCH   1   4
HETATM    4  C1  UNL     1      72.873  43.014  37.202  1.00  0.00     0.177 C 
BRANCH   4   5
HETATM    5  O1  UNL     1      71.597  42.819  37.789  1.00  0.00    -0.377 OA
ATOM      6  H1  UNL     1      71.748  42.201  38.494  1.00  0.00     0.211 HD
ENDBRANCH   4   5
BRANCH   4   7
HETATM    7  C2  UNL     1      72.593  43.755  35.914  1.00  0.00     0.201 C 
BRANCH   7   8
HETATM    8  N1  UNL     1      71.633  44.801  36.049  1.00  0.00    -0.268 N 
HETATM    9  C3  UNL     1      71.953  46.077  36.334  1.00  0.00     0.220 A 
HETATM   10  N2  UNL     1      70.819  46.795  36.389  1.00  0.00    -0.279 N 
HETATM   11  N3  UNL     1      69.808  45.993  36.144  1.00  0.00    -0.227 N 
ATOM     12  H2  UNL     1      70.755  47.794  36.586  1.00  0.00     0.189 HD
HETATM   13  N4  UNL     1      70.316  44.805  35.943  1.00  0.00    -0.225 N 
ATOM     14  H3  UNL     1      68.821  46.247  36.115  1.00  0.00     0.210 HD
ATOM     15  H4  UNL     1      69.759  43.977  35.729  1.00  0.00     0.210 HD
ENDBRANCH   7   8
ENDBRANCH   4   7
BRANCH   4  16
HETATM   16  C4  UNL     1      73.697  43.763  38.138  1.00  0.00     0.023 A 
HETATM   17  C5  UNL     1      73.369  44.105  39.445  1.00  0.00     0.017 A 
HETATM   18  C6  UNL     1      74.225  44.752  40.290  1.00  0.00     0.043 A 
HETATM   19  C7  UNL     1      75.487  45.108  39.892  1.00  0.00     0.119 A 
HETATM   20  F1  UNL     1      76.300  45.753  40.777  1.00  0.00    -0.206 F 
HETATM   21  C8  UNL     1      75.856  44.796  38.625  1.00  0.00     0.085 A 
HETATM   22  C9  UNL     1      74.995  44.143  37.764  1.00  0.00     0.128 A 
HETATM   23  F2  UNL     1      75.416  43.872  36.515  1.00  0.00    -0.205 F 
ENDBRANCH   4  16
ENDBRANCH   1   4
BRANCH   1  24
HETATM   24  C11 UNL     1      72.300  40.581  37.418  1.00  0.00     0.085 A 
HETATM   25  C12 UNL     1      72.424  40.037  38.683  1.00  0.00     0.032 A 
HETATM   26  C13 UNL     1      71.514  39.117  39.153  1.00  0.00     0.016 A 
HETATM   27  C14 UNL     1      70.459  38.724  38.361  1.00  0.00    -0.011 A 
HETATM   28  C23 UNL     1      70.346  39.272  37.102  1.00  0.00     0.100 A 
HETATM   29  N5  UNL     1      71.256  40.165  36.685  1.00  0.00    -0.363 N 
ATOM     30  H5  UNL     1      71.147  40.553  35.748  1.00  0.00     0.165 HD
BRANCH  27  31
HETATM   31  C15 UNL     1      69.508  37.743  38.898  1.00  0.00    -0.025 A 
HETATM   32  C16 UNL     1      69.741  36.396  38.700  1.00  0.00     0.015 A 
HETATM   33  C17 UNL     1      68.871  35.450  39.189  1.00  0.00     0.037 A 
HETATM   34  C18 UNL     1      67.728  35.836  39.902  1.00  0.00     0.069 A 
HETATM   35  C21 UNL     1      67.550  37.200  40.067  1.00  0.00     0.037 A 
HETATM   36  C22 UNL     1      68.400  38.149  39.589  1.00  0.00     0.015 A 
BRANCH  34  37
HETATM   37  O2  UNL     1      66.912  34.974  40.362  1.00  0.00    -0.342 OA
BRANCH  37  38
HETATM   38  C19 UNL     1      66.134  34.054  40.845  1.00  0.00     0.293 C 
BRANCH  38  39
HETATM   39  C20 UNL     1      66.734  32.665  41.058  1.00  0.00     0.408 C 
HETATM   40  F5  UNL     1      68.037  32.764  41.499  1.00  0.00    -0.169 F 
HETATM   41  F6  UNL     1      66.003  32.022  42.032  1.00  0.00    -0.169 F 
HETATM   42  F7  UNL     1      66.692  31.944  39.869  1.00  0.00    -0.169 F 
ENDBRANCH  38  39
ENDBRANCH  37  38
ENDBRANCH  34  37
ENDBRANCH  27  31
ENDBRANCH   1  24
TORSDOF 10
ENDMDL
