MODEL 6
REMARK VINA RESULT: -10.761899785      5.213     12.476
REMARK  10 active torsions:
REMARK  status: ('A' for Active; 'I' for Inactive)
REMARK    1  A    between atoms: O1_1  and  C1_3 
REMARK    2  A    between atoms: C1_3  and  C2_4 
REMARK    3  A    between atoms: C1_3  and  C4_13 
REMARK    4  A    between atoms: C1_3  and  C10_21 
REMARK    5  A    between atoms: C2_4  and  N1_5 
REMARK    6  A    between atoms: C10_21  and  C11_24 
REMARK    7  A    between atoms: C14_27  and  C15_28 
REMARK    8  A    between atoms: C18_31  and  O2_32 
REMARK    9  A    between atoms: O2_32  and  C19_33 
REMARK   10  A    between atoms: C19_33  and  C20_34 
ROOT
HETATM    1  C10 UNL     1      73.236  41.431  37.056  1.00  0.00     0.322 C 
HETATM    2  F3  UNL     1      73.149  41.271  35.643  1.00  0.00    -0.195 F 
HETATM    3  F4  UNL     1      74.421  41.029  37.506  1.00  0.00    -0.195 F 
ENDROOT
BRANCH   1   4
HETATM    4  C1  UNL     1      72.859  42.885  37.277  1.00  0.00     0.177 C 
BRANCH   4   5
HETATM    5  O1  UNL     1      71.589  42.754  37.896  1.00  0.00    -0.377 OA
ATOM      6  H1  UNL     1      71.702  43.135  38.758  1.00  0.00     0.211 HD
ENDBRANCH   4   5
BRANCH   4   7
HETATM    7  C2  UNL     1      72.574  43.575  35.961  1.00  0.00     0.201 C 
BRANCH   7   8
HETATM    8  N1  UNL     1      71.654  44.659  36.068  1.00  0.00    -0.268 N 
HETATM    9  C3  UNL     1      72.023  45.937  36.269  1.00  0.00     0.220 A 
HETATM   10  N2  UNL     1      70.915  46.695  36.319  1.00  0.00    -0.279 N 
HETATM   11  N3  UNL     1      69.871  45.914  36.153  1.00  0.00    -0.227 N 
ATOM     12  H2  UNL     1      70.888  47.705  36.461  1.00  0.00     0.189 HD
HETATM   13  N4  UNL     1      70.334  44.701  36.005  1.00  0.00    -0.225 N 
ATOM     14  H3  UNL     1      68.892  46.199  36.142  1.00  0.00     0.210 HD
ATOM     15  H4  UNL     1      69.745  43.881  35.857  1.00  0.00     0.210 HD
ENDBRANCH   7   8
ENDBRANCH   4   7
BRANCH   4  16
HETATM   16  C4  UNL     1      73.722  43.652  38.162  1.00  0.00     0.023 A 
HETATM   17  C5  UNL     1      73.423  44.076  39.451  1.00  0.00     0.017 A 
HETATM   18  C6  UNL     1      74.313  44.734  40.252  1.00  0.00     0.043 A 
HETATM   19  C7  UNL     1      75.583  45.019  39.822  1.00  0.00     0.119 A 
HETATM   20  F1  UNL     1      76.430  45.679  40.663  1.00  0.00    -0.206 F 
HETATM   21  C8  UNL     1      75.925  44.625  38.570  1.00  0.00     0.085 A 
HETATM   22  C9  UNL     1      75.029  43.960  37.755  1.00  0.00     0.128 A 
HETATM   23  F2  UNL     1      75.425  43.605  36.519  1.00  0.00    -0.205 F 
ENDBRANCH   4  16
ENDBRANCH   1   4
BRANCH   1  24
HETATM   24  C11 UNL     1      72.188  40.483  37.547  1.00  0.00     0.085 A 
HETATM   25  C12 UNL     1      72.332  39.849  38.767  1.00  0.00     0.032 A 
HETATM   26  C13 UNL     1      71.374  38.977  39.233  1.00  0.00     0.016 A 
HETATM   27  C14 UNL     1      70.249  38.723  38.482  1.00  0.00    -0.011 A 
HETATM   28  C23 UNL     1      70.115  39.359  37.267  1.00  0.00     0.100 A 
HETATM   29  N5  UNL     1      71.074  40.201  36.851  1.00  0.00    -0.363 N 
ATOM     30  H5  UNL     1      70.948  40.658  35.948  1.00  0.00     0.165 HD
BRANCH  27  31
HETATM   31  C15 UNL     1      69.249  37.789  39.014  1.00  0.00    -0.025 A 
HETATM   32  C16 UNL     1      69.464  36.429  38.898  1.00  0.00     0.015 A 
HETATM   33  C17 UNL     1      68.549  35.527  39.385  1.00  0.00     0.037 A 
HETATM   34  C18 UNL     1      67.375  35.970  40.011  1.00  0.00     0.069 A 
HETATM   35  C21 UNL     1      67.217  37.344  40.095  1.00  0.00     0.037 A 
HETATM   36  C22 UNL     1      68.113  38.251  39.618  1.00  0.00     0.015 A 
BRANCH  34  37
HETATM   37  O2  UNL     1      66.517  35.149  40.467  1.00  0.00    -0.342 OA
BRANCH  37  38
HETATM   38  C19 UNL     1      65.617  34.363  40.975  1.00  0.00     0.293 C 
BRANCH  38  39
HETATM   39  C20 UNL     1      64.407  35.015  41.643  1.00  0.00     0.408 C 
HETATM   40  F5  UNL     1      64.005  36.128  40.933  1.00  0.00    -0.169 F 
HETATM   41  F6  UNL     1      63.369  34.110  41.638  1.00  0.00    -0.169 F 
HETATM   42  F7  UNL     1      64.725  35.378  42.948  1.00  0.00    -0.169 F 
ENDBRANCH  38  39
ENDBRANCH  37  38
ENDBRANCH  34  37
ENDBRANCH  27  31
ENDBRANCH   1  24
TORSDOF 10
ENDMDL
