MODEL 14
REMARK VINA RESULT: -10.384207359      3.001     10.734
REMARK  10 active torsions:
REMARK  status: ('A' for Active; 'I' for Inactive)
REMARK    1  A    between atoms: O1_1  and  C1_3 
REMARK    2  A    between atoms: C1_3  and  C2_4 
REMARK    3  A    between atoms: C1_3  and  C4_13 
REMARK    4  A    between atoms: C1_3  and  C10_21 
REMARK    5  A    between atoms: C2_4  and  N1_5 
REMARK    6  A    between atoms: C10_21  and  C11_24 
REMARK    7  A    between atoms: C14_27  and  C15_28 
REMARK    8  A    between atoms: C18_31  and  O2_32 
REMARK    9  A    between atoms: O2_32  and  C19_33 
REMARK   10  A    between atoms: C19_33  and  C20_34 
ROOT
HETATM    1  C10 UNL     1      68.987  35.743  38.830  1.00  0.00     0.322 C 
HETATM    2  F3  UNL     1      68.633  35.145  37.586  1.00  0.00    -0.195 F 
HETATM    3  F4  UNL     1      70.242  35.448  39.156  1.00  0.00    -0.195 F 
ENDROOT
BRANCH   1   4
HETATM    4  C1  UNL     1      68.641  37.209  38.634  1.00  0.00     0.177 C 
BRANCH   4   5
HETATM    5  O1  UNL     1      67.913  37.484  39.819  1.00  0.00    -0.377 OA
ATOM      6  H1  UNL     1      68.447  38.113  40.289  1.00  0.00     0.211 HD
ENDBRANCH   4   5
BRANCH   4   7
HETATM    7  C2  UNL     1      67.635  37.382  37.518  1.00  0.00     0.201 C 
BRANCH   7   8
HETATM    8  N1  UNL     1      66.768  38.500  37.693  1.00  0.00    -0.268 N 
HETATM    9  C3  UNL     1      65.487  38.525  37.281  1.00  0.00     0.220 A 
HETATM   10  N2  UNL     1      64.963  39.720  37.601  1.00  0.00    -0.279 N 
HETATM   11  N3  UNL     1      65.890  40.431  38.202  1.00  0.00    -0.227 N 
ATOM     12  H2  UNL     1      64.007  40.023  37.411  1.00  0.00     0.189 HD
HETATM   13  N4  UNL     1      66.962  39.685  38.248  1.00  0.00    -0.225 N 
ATOM     14  H3  UNL     1      65.792  41.380  38.563  1.00  0.00     0.210 HD
ATOM     15  H4  UNL     1      67.845  39.981  38.663  1.00  0.00     0.210 HD
ENDBRANCH   7   8
ENDBRANCH   4   7
BRANCH   4  16
HETATM   16  C4  UNL     1      69.760  38.135  38.559  1.00  0.00     0.023 A 
HETATM   17  C5  UNL     1      70.435  38.711  39.629  1.00  0.00     0.017 A 
HETATM   18  C6  UNL     1      71.526  39.520  39.483  1.00  0.00     0.043 A 
HETATM   19  C7  UNL     1      72.032  39.818  38.245  1.00  0.00     0.119 A 
HETATM   20  F1  UNL     1      73.122  40.632  38.157  1.00  0.00    -0.206 F 
HETATM   21  C8  UNL     1      71.408  39.280  37.167  1.00  0.00     0.085 A 
HETATM   22  C9  UNL     1      70.304  38.461  37.308  1.00  0.00     0.128 A 
HETATM   23  F2  UNL     1      69.723  37.968  36.199  1.00  0.00    -0.205 F 
ENDBRANCH   4  16
ENDBRANCH   1   4
BRANCH   1  24
HETATM   24  C11 UNL     1      68.065  35.057  39.786  1.00  0.00     0.085 A 
HETATM   25  C12 UNL     1      68.536  34.057  40.618  1.00  0.00     0.032 A 
HETATM   26  C13 UNL     1      67.700  33.418  41.505  1.00  0.00     0.016 A 
HETATM   27  C14 UNL     1      66.372  33.770  41.577  1.00  0.00    -0.011 A 
HETATM   28  C23 UNL     1      65.912  34.766  40.743  1.00  0.00     0.100 A 
HETATM   29  N5  UNL     1      66.762  35.362  39.893  1.00  0.00    -0.363 N 
ATOM     30  H5  UNL     1      66.394  36.095  39.287  1.00  0.00     0.165 HD
BRANCH  27  31
HETATM   31  C15 UNL     1      65.512  33.067  42.537  1.00  0.00    -0.025 A 
HETATM   32  C16 UNL     1      64.634  32.103  42.081  1.00  0.00     0.015 A 
HETATM   33  C17 UNL     1      63.815  31.426  42.953  1.00  0.00     0.037 A 
HETATM   34  C18 UNL     1      63.855  31.700  44.327  1.00  0.00     0.069 A 
HETATM   35  C21 UNL     1      64.755  32.677  44.722  1.00  0.00     0.037 A 
HETATM   36  C22 UNL     1      65.572  33.357  43.872  1.00  0.00     0.015 A 
BRANCH  34  37
HETATM   37  O2  UNL     1      63.105  31.084  45.148  1.00  0.00    -0.342 OA
BRANCH  37  38
HETATM   38  C19 UNL     1      62.396  30.428  46.017  1.00  0.00     0.293 C 
BRANCH  38  39
HETATM   39  C20 UNL     1      63.076  29.275  46.753  1.00  0.00     0.408 C 
HETATM   40  F5  UNL     1      62.139  28.492  47.395  1.00  0.00    -0.169 F 
HETATM   41  F6  UNL     1      63.722  28.489  45.824  1.00  0.00    -0.169 F 
HETATM   42  F7  UNL     1      63.987  29.775  47.678  1.00  0.00    -0.169 F 
ENDBRANCH  38  39
ENDBRANCH  37  38
ENDBRANCH  34  37
ENDBRANCH  27  31
ENDBRANCH   1  24
TORSDOF 10
ENDMDL
