MODEL 12
REMARK VINA RESULT: -10.465524836      1.036      1.517
REMARK  10 active torsions:
REMARK  status: ('A' for Active; 'I' for Inactive)
REMARK    1  A    between atoms: O1_1  and  C1_3 
REMARK    2  A    between atoms: C1_3  and  C2_4 
REMARK    3  A    between atoms: C1_3  and  C4_13 
REMARK    4  A    between atoms: C1_3  and  C10_21 
REMARK    5  A    between atoms: C2_4  and  N1_5 
REMARK    6  A    between atoms: C10_21  and  C11_24 
REMARK    7  A    between atoms: C14_27  and  C15_28 
REMARK    8  A    between atoms: C18_31  and  O2_32 
REMARK    9  A    between atoms: O2_32  and  C19_33 
REMARK   10  A    between atoms: C19_33  and  C20_34 
ROOT
HETATM    1  C10 UNL     1      66.067  32.400  41.629  1.00  0.00     0.322 C 
HETATM    2  F3  UNL     1      67.133  31.965  42.469  1.00  0.00    -0.195 F 
HETATM    3  F4  UNL     1      65.848  31.525  40.652  1.00  0.00    -0.195 F 
ENDROOT
BRANCH   1   4
HETATM    4  C1  UNL     1      64.931  32.665  42.601  1.00  0.00     0.177 C 
BRANCH   4   5
HETATM    5  O1  UNL     1      63.844  32.866  41.713  1.00  0.00    -0.377 OA
ATOM      6  H1  UNL     1      63.496  31.996  41.560  1.00  0.00     0.211 HD
ENDBRANCH   4   5
BRANCH   4   7
HETATM    7  C2  UNL     1      65.112  33.998  43.293  1.00  0.00     0.201 C 
BRANCH   7   8
HETATM    8  N1  UNL     1      63.922  34.782  43.350  1.00  0.00    -0.268 N 
HETATM    9  C3  UNL     1      63.148  34.888  44.446  1.00  0.00     0.220 A 
HETATM   10  N2  UNL     1      62.115  35.697  44.158  1.00  0.00    -0.279 N 
HETATM   11  N3  UNL     1      62.234  36.093  42.911  1.00  0.00    -0.227 N 
ATOM     12  H2  UNL     1      61.366  35.960  44.799  1.00  0.00     0.189 HD
HETATM   13  N4  UNL     1      63.320  35.535  42.445  1.00  0.00    -0.225 N 
ATOM     14  H3  UNL     1      61.603  36.715  42.406  1.00  0.00     0.210 HD
ATOM     15  H4  UNL     1      63.665  35.666  41.494  1.00  0.00     0.210 HD
ENDBRANCH   7   8
ENDBRANCH   4   7
BRANCH   4  16
HETATM   16  C4  UNL     1      64.587  31.580  43.508  1.00  0.00     0.023 A 
HETATM   17  C5  UNL     1      65.471  30.807  44.251  1.00  0.00     0.017 A 
HETATM   18  C6  UNL     1      65.070  29.849  45.138  1.00  0.00     0.043 A 
HETATM   19  C7  UNL     1      63.742  29.589  45.354  1.00  0.00     0.119 A 
HETATM   20  F1  UNL     1      63.397  28.621  46.250  1.00  0.00    -0.206 F 
HETATM   21  C8  UNL     1      62.838  30.318  44.653  1.00  0.00     0.085 A 
HETATM   22  C9  UNL     1      63.237  31.288  43.753  1.00  0.00     0.128 A 
HETATM   23  F2  UNL     1      62.292  31.969  43.079  1.00  0.00    -0.205 F 
ENDBRANCH   4  16
ENDBRANCH   1   4
BRANCH   1  24
HETATM   24  C11 UNL     1      66.623  33.655  41.036  1.00  0.00     0.085 A 
HETATM   25  C12 UNL     1      67.986  33.801  40.854  1.00  0.00     0.032 A 
HETATM   26  C13 UNL     1      68.511  34.949  40.307  1.00  0.00     0.016 A 
HETATM   27  C14 UNL     1      67.678  35.978  39.931  1.00  0.00    -0.011 A 
HETATM   28  C23 UNL     1      66.322  35.824  40.118  1.00  0.00     0.100 A 
HETATM   29  N5  UNL     1      65.853  34.687  40.655  1.00  0.00    -0.363 N 
ATOM     30  H5  UNL     1      64.844  34.601  40.782  1.00  0.00     0.165 HD
BRANCH  27  31
HETATM   31  C15 UNL     1      68.276  37.186  39.349  1.00  0.00    -0.025 A 
HETATM   32  C16 UNL     1      67.605  38.390  39.451  1.00  0.00     0.015 A 
HETATM   33  C17 UNL     1      68.136  39.540  38.918  1.00  0.00     0.037 A 
HETATM   34  C18 UNL     1      69.373  39.514  38.258  1.00  0.00     0.069 A 
HETATM   35  C21 UNL     1      69.995  38.278  38.187  1.00  0.00     0.037 A 
HETATM   36  C22 UNL     1      69.483  37.130  38.709  1.00  0.00     0.015 A 
BRANCH  34  37
HETATM   37  O2  UNL     1      69.879  40.569  37.758  1.00  0.00    -0.342 OA
BRANCH  37  38
HETATM   38  C19 UNL     1      70.427  41.605  37.199  1.00  0.00     0.293 C 
BRANCH  38  39
HETATM   39  C20 UNL     1      71.934  41.787  37.375  1.00  0.00     0.408 C 
HETATM   40  F5  UNL     1      72.594  41.527  36.192  1.00  0.00    -0.169 F 
HETATM   41  F6  UNL     1      72.174  43.100  37.717  1.00  0.00    -0.169 F 
HETATM   42  F7  UNL     1      72.399  40.936  38.372  1.00  0.00    -0.169 F 
ENDBRANCH  38  39
ENDBRANCH  37  38
ENDBRANCH  34  37
ENDBRANCH  27  31
ENDBRANCH   1  24
TORSDOF 10
ENDMDL
