MODEL 1
REMARK VINA RESULT: -6.537863601      0.000      0.000
REMARK  3 active torsions:
REMARK  status: ('A' for Active; 'I' for Inactive)
REMARK    1  A    between atoms: O1_2  and  C2_3 
REMARK    2  A    between atoms: C5_6  and  C6_7 
REMARK    3  A    between atoms: C9_15  and  O4_16 
ROOT
HETATM    1  C2  UNL     1      -4.169   1.644  15.647  1.00  0.00     0.070 A 
HETATM    2  C3  UNL     1      -3.665   2.903  15.456  1.00  0.00     0.037 A 
HETATM    3  C4  UNL     1      -3.454   3.331  14.152  1.00  0.00     0.016 A 
HETATM    4  C5  UNL     1      -3.733   2.533  13.066  1.00  0.00     0.014 A 
HETATM    5  C9  UNL     1      -4.243   1.257  13.263  1.00  0.00     0.080 A 
HETATM    6  C11 UNL     1      -4.451   0.838  14.561  1.00  0.00     0.074 A 
ENDROOT
BRANCH   4   7
HETATM    7  C6  UNL     1      -3.484   3.038  11.719  1.00  0.00     0.259 C 
HETATM    8  O2  UNL     1      -3.668   4.432  11.581  1.00  0.00    -0.307 OA
HETATM    9  C7  UNL     1      -2.997   4.812  10.427  1.00  0.00     0.218 C 
HETATM   10  S1  UNL     1      -3.281   6.125   9.471  1.00  0.00    -0.033 SA
HETATM   11  N1  UNL     1      -1.974   3.846  10.184  1.00  0.00    -0.295 N 
HETATM   12  C8  UNL     1      -2.084   2.883  11.254  1.00  0.00     0.258 C 
ATOM     13  H1  UNL     1      -1.305   3.838   9.414  1.00  0.00     0.171 HD
HETATM   14  O3  UNL     1      -1.197   2.106  11.680  1.00  0.00    -0.270 OA
ENDBRANCH   4   7
BRANCH   5  15
HETATM   15  O4  UNL     1      -4.506   0.499  12.149  1.00  0.00    -0.355 OA
HETATM   16  C10 UNL     1      -3.805  -0.655  11.774  1.00  0.00     0.210 C 
ENDBRANCH   5  15
BRANCH   1  17
HETATM   17  O1  UNL     1      -4.397   1.172  16.952  1.00  0.00    -0.356 OA
HETATM   18  C1  UNL     1      -5.667   1.292  17.527  1.00  0.00     0.210 C 
ENDBRANCH   1  17
TORSDOF 3
ENDMDL
