MODEL 2
REMARK VINA RESULT: -6.427837361      1.285      1.300
REMARK  3 active torsions:
REMARK  status: ('A' for Active; 'I' for Inactive)
REMARK    1  A    between atoms: O1_2  and  C2_3 
REMARK    2  A    between atoms: C5_6  and  C6_7 
REMARK    3  A    between atoms: C9_15  and  O4_16 
ROOT
HETATM    1  C2  UNL     1      -4.786   1.458  15.957  1.00  0.00     0.070 A 
HETATM    2  C3  UNL     1      -5.002   2.809  15.896  1.00  0.00     0.037 A 
HETATM    3  C4  UNL     1      -4.736   3.460  14.699  1.00  0.00     0.016 A 
HETATM    4  C5  UNL     1      -4.265   2.791  13.592  1.00  0.00     0.014 A 
HETATM    5  C9  UNL     1      -4.046   1.421  13.657  1.00  0.00     0.080 A 
HETATM    6  C11 UNL     1      -4.314   0.781  14.849  1.00  0.00     0.074 A 
ENDROOT
BRANCH   4   7
HETATM    7  C6  UNL     1      -3.998   3.532  12.363  1.00  0.00     0.259 C 
HETATM    8  O2  UNL     1      -4.855   4.636  12.155  1.00  0.00    -0.307 OA
HETATM    9  C7  UNL     1      -4.228   5.462  11.233  1.00  0.00     0.218 C 
HETATM   10  S1  UNL     1      -4.920   6.559  10.215  1.00  0.00    -0.033 SA
HETATM   11  N1  UNL     1      -2.826   5.205  11.306  1.00  0.00    -0.295 N 
HETATM   12  C8  UNL     1      -2.668   4.186  12.316  1.00  0.00     0.258 C 
ATOM     13  H1  UNL     1      -2.089   5.648  10.758  1.00  0.00     0.171 HD
HETATM   14  O3  UNL     1      -1.642   3.926  12.989  1.00  0.00    -0.270 OA
ENDBRANCH   4   7
BRANCH   5  15
HETATM   15  O4  UNL     1      -3.577   0.799  12.527  1.00  0.00    -0.355 OA
HETATM   16  C10 UNL     1      -4.161  -0.320  11.920  1.00  0.00     0.210 C 
ENDBRANCH   5  15
BRANCH   1  17
HETATM   17  O1  UNL     1      -5.043   0.761  17.151  1.00  0.00    -0.356 OA
HETATM   18  C1  UNL     1      -6.095   1.163  17.983  1.00  0.00     0.210 C 
ENDBRANCH   1  17
TORSDOF 3
ENDMDL
