MODEL 3
REMARK VINA RESULT: -6.427006749      1.850      2.992
REMARK  3 active torsions:
REMARK  status: ('A' for Active; 'I' for Inactive)
REMARK    1  A    between atoms: O1_2  and  C2_3 
REMARK    2  A    between atoms: C5_6  and  C6_7 
REMARK    3  A    between atoms: C9_15  and  O4_16 
ROOT
HETATM    1  C2  UNL     1      -5.107   1.267  15.786  1.00  0.00     0.070 A 
HETATM    2  C3  UNL     1      -4.364   0.674  14.801  1.00  0.00     0.037 A 
HETATM    3  C4  UNL     1      -3.854   1.479  13.792  1.00  0.00     0.016 A 
HETATM    4  C5  UNL     1      -4.076   2.837  13.758  1.00  0.00     0.014 A 
HETATM    5  C9  UNL     1      -4.831   3.437  14.758  1.00  0.00     0.080 A 
HETATM    6  C11 UNL     1      -5.333   2.629  15.758  1.00  0.00     0.074 A 
ENDROOT
BRANCH   4   7
HETATM    7  C6  UNL     1      -3.519   3.631  12.667  1.00  0.00     0.259 C 
HETATM    8  O2  UNL     1      -2.213   3.250  12.283  1.00  0.00    -0.307 OA
HETATM    9  C7  UNL     1      -2.003   3.765  11.012  1.00  0.00     0.218 C 
HETATM   10  S1  UNL     1      -0.568   4.127  10.286  1.00  0.00    -0.033 SA
HETATM   11  N1  UNL     1      -3.281   3.942  10.401  1.00  0.00    -0.295 N 
HETATM   12  C8  UNL     1      -4.247   3.505  11.381  1.00  0.00     0.258 C 
ATOM     13  H1  UNL     1      -3.472   4.302   9.466  1.00  0.00     0.171 HD
HETATM   14  O3  UNL     1      -5.421   3.112  11.179  1.00  0.00    -0.270 OA
ENDBRANCH   4   7
BRANCH   5  15
HETATM   15  O4  UNL     1      -5.024   4.793  14.682  1.00  0.00    -0.355 OA
HETATM   16  C10 UNL     1      -6.131   5.480  15.196  1.00  0.00     0.210 C 
ENDBRANCH   5  15
BRANCH   1  17
HETATM   17  O1  UNL     1      -5.640   0.485  16.827  1.00  0.00    -0.356 OA
HETATM   18  C1  UNL     1      -6.244   1.104  17.928  1.00  0.00     0.210 C 
ENDBRANCH   1  17
TORSDOF 3
ENDMDL
