MODEL 5
REMARK VINA RESULT: -6.167705059      3.064      6.113
REMARK  2 active torsions:
REMARK  status: ('A' for Active; 'I' for Inactive)
REMARK    1  A    between atoms: C3_8  and  C4_9 
REMARK    2  A    between atoms: C4_9  and  C5_10 
ROOT
HETATM    1  O1  UNL     1      -3.713   5.254  13.307  1.00  0.00    -0.272 OA
HETATM    2  C1  UNL     1      -3.501   3.987  13.267  1.00  0.00     0.237 C 
HETATM    3  N1  UNL     1      -2.450   3.408  12.503  1.00  0.00    -0.311 N 
ATOM      4  H1  UNL     1      -1.533   3.845  12.404  1.00  0.00     0.170 HD
HETATM    5  C2  UNL     1      -2.781   2.190  11.898  1.00  0.00     0.141 C 
HETATM    6  S1  UNL     1      -2.014   1.435  10.700  1.00  0.00    -0.052 SA
HETATM    7  S2  UNL     1      -4.243   1.624  12.733  1.00  0.00    -0.086 SA
HETATM    8  C3  UNL     1      -4.296   2.982  13.990  1.00  0.00     0.151 C 
ENDROOT
BRANCH   8   9
HETATM    9  C4  UNL     1      -5.683   3.320  14.343  1.00  0.00     0.063 C 
BRANCH   9  10
HETATM   10  C5  UNL     1      -5.983   2.975  15.751  1.00  0.00    -0.057 A 
HETATM   11  C6  UNL     1      -6.515   3.844  16.674  1.00  0.00     0.007 A 
HETATM   12  C7  UNL     1      -6.748   3.461  17.986  1.00  0.00     0.001 A 
HETATM   13  C8  UNL     1      -6.456   2.190  18.426  1.00  0.00     0.000 A 
HETATM   14  C9  UNL     1      -5.925   1.304  17.524  1.00  0.00     0.001 A 
HETATM   15  C10 UNL     1      -5.696   1.687  16.224  1.00  0.00     0.007 A 
ENDBRANCH   9  10
ENDBRANCH   8   9
TORSDOF 2
ENDMDL
