MODEL 7
REMARK VINA RESULT: -6.095796529      3.063      5.775
REMARK  2 active torsions:
REMARK  status: ('A' for Active; 'I' for Inactive)
REMARK    1  A    between atoms: C3_8  and  C4_9 
REMARK    2  A    between atoms: C4_9  and  C5_10 
ROOT
HETATM    1  O1  UNL     1      -4.724   0.475  11.955  1.00  0.00    -0.272 OA
HETATM    2  C1  UNL     1      -4.760   1.757  12.030  1.00  0.00     0.237 C 
HETATM    3  N1  UNL     1      -4.767   2.594  10.879  1.00  0.00    -0.311 N 
ATOM      4  H1  UNL     1      -5.269   2.354  10.023  1.00  0.00     0.170 HD
HETATM    5  C2  UNL     1      -4.029   3.775  11.021  1.00  0.00     0.141 C 
HETATM    6  S1  UNL     1      -3.511   4.767   9.864  1.00  0.00    -0.052 SA
HETATM    7  S2  UNL     1      -3.772   3.971  12.767  1.00  0.00    -0.086 SA
HETATM    8  C3  UNL     1      -4.800   2.521  13.286  1.00  0.00     0.151 C 
ENDROOT
BRANCH   8   9
HETATM    9  C4  UNL     1      -4.251   1.892  14.497  1.00  0.00     0.063 C 
BRANCH   9  10
HETATM   10  C5  UNL     1      -5.141   2.092  15.663  1.00  0.00    -0.057 A 
HETATM   11  C6  UNL     1      -5.414   1.138  16.614  1.00  0.00     0.007 A 
HETATM   12  C7  UNL     1      -6.278   1.386  17.668  1.00  0.00     0.001 A 
HETATM   13  C8  UNL     1      -6.905   2.603  17.812  1.00  0.00     0.000 A 
HETATM   14  C9  UNL     1      -6.650   3.573  16.877  1.00  0.00     0.001 A 
HETATM   15  C10 UNL     1      -5.792   3.323  15.833  1.00  0.00     0.007 A 
ENDBRANCH   9  10
ENDBRANCH   8   9
TORSDOF 2
ENDMDL
