MODEL 4
REMARK VINA RESULT: -6.197221050      3.116      5.917
REMARK  2 active torsions:
REMARK  status: ('A' for Active; 'I' for Inactive)
REMARK    1  A    between atoms: C3_8  and  C4_9 
REMARK    2  A    between atoms: C4_9  and  C5_10 
ROOT
HETATM    1  O1  UNL     1      -4.762   0.584  11.901  1.00  0.00    -0.272 OA
HETATM    2  C1  UNL     1      -4.791   1.867  11.963  1.00  0.00     0.237 C 
HETATM    3  N1  UNL     1      -4.784   2.693  10.804  1.00  0.00    -0.311 N 
ATOM      4  H1  UNL     1      -5.279   2.447   9.947  1.00  0.00     0.170 HD
HETATM    5  C2  UNL     1      -4.039   3.871  10.941  1.00  0.00     0.141 C 
HETATM    6  S1  UNL     1      -3.505   4.848   9.779  1.00  0.00    -0.052 SA
HETATM    7  S2  UNL     1      -3.796   4.082  12.688  1.00  0.00    -0.086 SA
HETATM    8  C3  UNL     1      -4.837   2.643  13.212  1.00  0.00     0.151 C 
ENDROOT
BRANCH   8   9
HETATM    9  C4  UNL     1      -4.303   2.023  14.434  1.00  0.00     0.063 C 
BRANCH   9  10
HETATM   10  C5  UNL     1      -5.208   2.227  15.586  1.00  0.00    -0.057 A 
HETATM   11  C6  UNL     1      -5.890   3.392  15.850  1.00  0.00     0.007 A 
HETATM   12  C7  UNL     1      -6.703   3.523  16.965  1.00  0.00     0.001 A 
HETATM   13  C8  UNL     1      -6.867   2.491  17.861  1.00  0.00     0.000 A 
HETATM   14  C9  UNL     1      -6.197   1.319  17.620  1.00  0.00     0.001 A 
HETATM   15  C10 UNL     1      -5.392   1.192  16.514  1.00  0.00     0.007 A 
ENDBRANCH   9  10
ENDBRANCH   8   9
TORSDOF 2
ENDMDL
