MODEL 18
REMARK VINA RESULT: -5.705597633      2.851      3.593
REMARK  2 active torsions:
REMARK  status: ('A' for Active; 'I' for Inactive)
REMARK    1  A    between atoms: C3_8  and  C4_9 
REMARK    2  A    between atoms: C4_9  and  C5_10 
ROOT
HETATM    1  O1  UNL     1      -2.802   2.069  16.120  1.00  0.00    -0.272 OA
HETATM    2  C1  UNL     1      -3.932   2.679  16.175  1.00  0.00     0.237 C 
HETATM    3  N1  UNL     1      -4.988   2.264  17.033  1.00  0.00    -0.311 N 
ATOM      4  H1  UNL     1      -4.826   1.898  17.972  1.00  0.00     0.170 HD
HETATM    5  C2  UNL     1      -6.267   2.401  16.481  1.00  0.00     0.141 C 
HETATM    6  S1  UNL     1      -7.641   1.725  16.978  1.00  0.00    -0.052 SA
HETATM    7  S2  UNL     1      -6.074   3.495  15.095  1.00  0.00    -0.086 SA
HETATM    8  C3  UNL     1      -4.282   3.865  15.378  1.00  0.00     0.151 C 
ENDROOT
BRANCH   8   9
HETATM    9  C4  UNL     1      -3.579   4.075  14.103  1.00  0.00     0.063 C 
BRANCH   9  10
HETATM   10  C5  UNL     1      -2.960   5.418  14.040  1.00  0.00    -0.057 A 
HETATM   11  C6  UNL     1      -1.826   5.726  13.327  1.00  0.00     0.007 A 
HETATM   12  C7  UNL     1      -1.285   7.002  13.333  1.00  0.00     0.001 A 
HETATM   13  C8  UNL     1      -1.860   8.023  14.055  1.00  0.00     0.000 A 
HETATM   14  C9  UNL     1      -2.994   7.742  14.774  1.00  0.00     0.001 A 
HETATM   15  C10 UNL     1      -3.527   6.476  14.766  1.00  0.00     0.007 A 
ENDBRANCH   9  10
ENDBRANCH   8   9
TORSDOF 2
ENDMDL
