MODEL 4
REMARK VINA RESULT: -6.047604180      3.743      6.721
REMARK  4 active torsions:
REMARK  status: ('A' for Active; 'I' for Inactive)
REMARK    1  A    between atoms: O1_2  and  C2_3 
REMARK    2  A    between atoms: C5_6  and  C6_7 
REMARK    3  A    between atoms: C6_7  and  C7_8 
REMARK    4  A    between atoms: C10_16  and  O3_17 
ROOT
HETATM    1  C2  UNL     1      15.533   1.750  16.011  1.00  0.00     0.070 A 
HETATM    2  C3  UNL     1      16.867   1.421  15.904  1.00  0.00     0.037 A 
HETATM    3  C4  UNL     1      17.797   2.355  15.497  1.00  0.00     0.013 A 
HETATM    4  C5  UNL     1      17.450   3.652  15.182  1.00  0.00    -0.023 A 
HETATM    5  C10 UNL     1      16.112   3.976  15.291  1.00  0.00     0.077 A 
HETATM    6  C12 UNL     1      15.179   3.045  15.697  1.00  0.00     0.074 A 
ENDROOT
BRANCH   4   7
HETATM    7  C6  UNL     1      18.443   4.668  14.740  1.00  0.00     0.066 C 
BRANCH   7   8
HETATM    8  C7  UNL     1      18.435   4.789  13.254  1.00  0.00     0.151 C 
HETATM    9  S1  UNL     1      19.266   6.345  12.726  1.00  0.00    -0.086 SA
HETATM   10  C8  UNL     1      20.838   5.615  12.335  1.00  0.00     0.141 C 
HETATM   11  S2  UNL     1      22.143   6.407  11.845  1.00  0.00    -0.052 SA
HETATM   12  N1  UNL     1      20.680   4.234  12.544  1.00  0.00    -0.311 N 
HETATM   13  C9  UNL     1      19.353   3.807  12.623  1.00  0.00     0.237 C 
ATOM     14  H1  UNL     1      21.471   3.596  12.632  1.00  0.00     0.170 HD
HETATM   15  O2  UNL     1      18.898   2.683  12.211  1.00  0.00    -0.272 OA
ENDBRANCH   7   8
ENDBRANCH   4   7
BRANCH   5  16
HETATM   16  O3  UNL     1      15.754   5.287  14.972  1.00  0.00    -0.355 OA
HETATM   17  C11 UNL     1      14.688   5.493  14.067  1.00  0.00     0.210 C 
ENDBRANCH   5  16
BRANCH   1  18
HETATM   18  O1  UNL     1      14.575   0.814  16.422  1.00  0.00    -0.356 OA
HETATM   19  C1  UNL     1      13.593   1.155  17.365  1.00  0.00     0.210 C 
ENDBRANCH   1  18
TORSDOF 4
ENDMDL
