MODEL 2
REMARK VINA RESULT: -6.215223188      3.683      6.156
REMARK  4 active torsions:
REMARK  status: ('A' for Active; 'I' for Inactive)
REMARK    1  A    between atoms: O1_2  and  C2_3 
REMARK    2  A    between atoms: C5_6  and  C6_7 
REMARK    3  A    between atoms: C6_7  and  C7_8 
REMARK    4  A    between atoms: C10_16  and  O3_17 
ROOT
HETATM    1  C2  UNL     1      16.185   1.084  15.750  1.00  0.00     0.070 A 
HETATM    2  C3  UNL     1      16.425   2.411  16.030  1.00  0.00     0.037 A 
HETATM    3  C4  UNL     1      17.064   3.225  15.117  1.00  0.00     0.013 A 
HETATM    4  C5  UNL     1      17.491   2.762  13.890  1.00  0.00    -0.023 A 
HETATM    5  C10 UNL     1      17.248   1.432  13.614  1.00  0.00     0.077 A 
HETATM    6  C12 UNL     1      16.609   0.614  14.524  1.00  0.00     0.074 A 
ENDROOT
BRANCH   4   7
HETATM    7  C6  UNL     1      18.183   3.628  12.898  1.00  0.00     0.066 C 
BRANCH   7   8
HETATM    8  C7  UNL     1      17.195   4.476  12.171  1.00  0.00     0.151 C 
HETATM    9  S1  UNL     1      17.862   6.172  11.911  1.00  0.00    -0.086 SA
HETATM   10  C8  UNL     1      18.398   5.926  10.235  1.00  0.00     0.141 C 
HETATM   11  S2  UNL     1      19.165   7.005   9.329  1.00  0.00    -0.052 SA
HETATM   12  N1  UNL     1      18.009   4.619   9.897  1.00  0.00    -0.311 N 
HETATM   13  C9  UNL     1      17.059   4.058  10.753  1.00  0.00     0.237 C 
ATOM     14  H1  UNL     1      18.390   4.121   9.093  1.00  0.00     0.170 HD
HETATM   15  O2  UNL     1      16.126   3.247  10.415  1.00  0.00    -0.272 OA
ENDBRANCH   7   8
ENDBRANCH   4   7
BRANCH   5  16
HETATM   16  O3  UNL     1      17.678   0.958  12.374  1.00  0.00    -0.355 OA
HETATM   17  C11 UNL     1      16.893  -0.017  11.716  1.00  0.00     0.210 C 
ENDBRANCH   5  16
BRANCH   1  18
HETATM   18  O1  UNL     1      15.538   0.244  16.664  1.00  0.00    -0.356 OA
HETATM   19  C1  UNL     1      14.796   0.775  17.730  1.00  0.00     0.210 C 
ENDBRANCH   1  18
TORSDOF 4
ENDMDL
