MODEL 3
REMARK VINA RESULT: -6.059346585      3.571      6.193
REMARK  4 active torsions:
REMARK  status: ('A' for Active; 'I' for Inactive)
REMARK    1  A    between atoms: O1_2  and  C2_3 
REMARK    2  A    between atoms: C5_6  and  C6_7 
REMARK    3  A    between atoms: C6_7  and  C7_8 
REMARK    4  A    between atoms: C10_16  and  O3_17 
ROOT
HETATM    1  C2  UNL     1      16.305   1.308  15.727  1.00  0.00     0.070 A 
HETATM    2  C3  UNL     1      15.750   2.528  15.408  1.00  0.00     0.037 A 
HETATM    3  C4  UNL     1      15.830   3.031  14.126  1.00  0.00     0.013 A 
HETATM    4  C5  UNL     1      16.461   2.350  13.106  1.00  0.00    -0.023 A 
HETATM    5  C10 UNL     1      17.015   1.128  13.430  1.00  0.00     0.077 A 
HETATM    6  C12 UNL     1      16.937   0.621  14.711  1.00  0.00     0.074 A 
ENDROOT
BRANCH   4   7
HETATM    7  C6  UNL     1      16.556   2.882  11.720  1.00  0.00     0.066 C 
BRANCH   7   8
HETATM    8  C7  UNL     1      16.979   4.312  11.741  1.00  0.00     0.151 C 
HETATM    9  S1  UNL     1      18.788   4.448  12.058  1.00  0.00    -0.086 SA
HETATM   10  C8  UNL     1      19.276   4.666  10.363  1.00  0.00     0.141 C 
HETATM   11  S2  UNL     1      20.784   4.797   9.832  1.00  0.00    -0.052 SA
HETATM   12  N1  UNL     1      18.082   4.696   9.623  1.00  0.00    -0.311 N 
HETATM   13  C9  UNL     1      16.933   4.914  10.385  1.00  0.00     0.237 C 
ATOM     14  H1  UNL     1      18.057   4.569   8.611  1.00  0.00     0.170 HD
HETATM   15  O2  UNL     1      15.893   5.563  10.012  1.00  0.00    -0.272 OA
ENDBRANCH   7   8
ENDBRANCH   4   7
BRANCH   5  16
HETATM   16  O3  UNL     1      17.655   0.435  12.402  1.00  0.00    -0.355 OA
HETATM   17  C11 UNL     1      17.027  -0.716  11.873  1.00  0.00     0.210 C 
ENDBRANCH   5  16
BRANCH   1  18
HETATM   18  O1  UNL     1      16.233   0.783  17.023  1.00  0.00    -0.356 OA
HETATM   19  C1  UNL     1      15.033   0.820  17.750  1.00  0.00     0.210 C 
ENDBRANCH   1  18
TORSDOF 4
ENDMDL
