MODEL 7
REMARK VINA RESULT: -6.053558748      2.907      4.749
REMARK  4 active torsions:
REMARK  status: ('A' for Active; 'I' for Inactive)
REMARK    1  A    between atoms: O1_2  and  C2_3 
REMARK    2  A    between atoms: C5_6  and  C6_7 
REMARK    3  A    between atoms: C6_7  and  C7_8 
REMARK    4  A    between atoms: C10_16  and  O4_17 
ROOT
HETATM    1  C2  UNL     1      -4.349  -0.063  11.819  1.00  0.00     0.070 A 
HETATM    2  C3  UNL     1      -4.761   0.922  10.926  1.00  0.00     0.037 A 
HETATM    3  C4  UNL     1      -4.900   2.229  11.346  1.00  0.00     0.013 A 
HETATM    4  C5  UNL     1      -4.643   2.616  12.646  1.00  0.00    -0.023 A 
HETATM    5  C10 UNL     1      -4.231   1.603  13.518  1.00  0.00     0.077 A 
HETATM    6  C12 UNL     1      -4.089   0.303  13.115  1.00  0.00     0.074 A 
ENDROOT
BRANCH   4   7
HETATM    7  C6  UNL     1      -4.775   3.997  13.144  1.00  0.00     0.066 C 
BRANCH   7   8
HETATM    8  C7  UNL     1      -3.760   4.887  12.504  1.00  0.00     0.153 C 
HETATM    9  S1  UNL     1      -4.169   6.653  12.845  1.00  0.00    -0.054 SA
HETATM   10  C8  UNL     1      -3.098   6.843  14.256  1.00  0.00     0.287 C 
HETATM   11  O2  UNL     1      -2.984   7.852  14.956  1.00  0.00    -0.260 OA
HETATM   12  N1  UNL     1      -2.428   5.609  14.382  1.00  0.00    -0.287 N 
HETATM   13  C9  UNL     1      -2.460   4.817  13.225  1.00  0.00     0.239 C 
ATOM     14  H1  UNL     1      -1.961   5.318  15.240  1.00  0.00     0.172 HD
HETATM   15  O3  UNL     1      -1.517   4.083  12.766  1.00  0.00    -0.272 OA
ENDBRANCH   7   8
ENDBRANCH   4   7
BRANCH   5  16
HETATM   16  O4  UNL     1      -3.969   1.962  14.818  1.00  0.00    -0.355 OA
HETATM   17  C11 UNL     1      -4.585   1.325  15.909  1.00  0.00     0.210 C 
ENDBRANCH   5  16
BRANCH   1  18
HETATM   18  O1  UNL     1      -4.200  -1.380  11.432  1.00  0.00    -0.356 OA
HETATM   19  C1  UNL     1      -2.948  -2.004  11.338  1.00  0.00     0.210 C 
ENDBRANCH   1  18
TORSDOF 4
ENDMDL
