MODEL 6
REMARK VINA RESULT: -6.089764258      3.054      6.178
REMARK  4 active torsions:
REMARK  status: ('A' for Active; 'I' for Inactive)
REMARK    1  A    between atoms: O1_2  and  C2_3 
REMARK    2  A    between atoms: C5_6  and  C6_7 
REMARK    3  A    between atoms: C6_7  and  C7_8 
REMARK    4  A    between atoms: C10_16  and  O4_17 
ROOT
HETATM    1  C2  UNL     1      -4.500   1.751  15.914  1.00  0.00     0.070 A 
HETATM    2  C3  UNL     1      -4.106   3.084  15.964  1.00  0.00     0.037 A 
HETATM    3  C4  UNL     1      -3.856   3.781  14.800  1.00  0.00     0.013 A 
HETATM    4  C5  UNL     1      -3.982   3.203  13.553  1.00  0.00    -0.023 A 
HETATM    5  C10 UNL     1      -4.381   1.862  13.537  1.00  0.00     0.077 A 
HETATM    6  C12 UNL     1      -4.632   1.159  14.683  1.00  0.00     0.074 A 
ENDROOT
BRANCH   4   7
HETATM    7  C6  UNL     1      -3.728   3.904  12.282  1.00  0.00     0.066 C 
BRANCH   7   8
HETATM    8  C7  UNL     1      -2.287   4.282  12.168  1.00  0.00     0.153 C 
HETATM    9  S1  UNL     1      -1.419   3.111  11.036  1.00  0.00    -0.054 SA
HETATM   10  C8  UNL     1      -1.551   4.112   9.568  1.00  0.00     0.287 C 
HETATM   11  O2  UNL     1      -1.167   3.803   8.437  1.00  0.00    -0.260 OA
HETATM   12  N1  UNL     1      -2.176   5.304   9.985  1.00  0.00    -0.287 N 
HETATM   13  C9  UNL     1      -2.123   5.526  11.369  1.00  0.00     0.239 C 
ATOM     14  H1  UNL     1      -2.627   5.949   9.338  1.00  0.00     0.172 HD
HETATM   15  O3  UNL     1      -1.954   6.646  11.965  1.00  0.00    -0.272 OA
ENDBRANCH   7   8
ENDBRANCH   4   7
BRANCH   5  16
HETATM   16  O4  UNL     1      -4.515   1.262  12.308  1.00  0.00    -0.355 OA
HETATM   17  C11 UNL     1      -4.054  -0.042  12.058  1.00  0.00     0.210 C 
ENDBRANCH   5  16
BRANCH   1  18
HETATM   18  O1  UNL     1      -4.758   1.024  17.059  1.00  0.00    -0.356 OA
HETATM   19  C1  UNL     1      -5.952   1.152  17.783  1.00  0.00     0.210 C 
ENDBRANCH   1  18
TORSDOF 4
ENDMDL
