MODEL 8
REMARK VINA RESULT: -6.031450342      3.105      6.346
REMARK  4 active torsions:
REMARK  status: ('A' for Active; 'I' for Inactive)
REMARK    1  A    between atoms: O1_2  and  C2_3 
REMARK    2  A    between atoms: C5_6  and  C6_7 
REMARK    3  A    between atoms: C6_7  and  C7_8 
REMARK    4  A    between atoms: C10_16  and  O4_17 
ROOT
HETATM    1  C2  UNL     1      -6.120   3.328  16.043  1.00  0.00     0.070 A 
HETATM    2  C3  UNL     1      -6.008   4.692  15.796  1.00  0.00     0.037 A 
HETATM    3  C4  UNL     1      -5.119   5.158  14.849  1.00  0.00     0.013 A 
HETATM    4  C5  UNL     1      -4.313   4.312  14.115  1.00  0.00    -0.023 A 
HETATM    5  C10 UNL     1      -4.450   2.946  14.387  1.00  0.00     0.077 A 
HETATM    6  C12 UNL     1      -5.327   2.470  15.322  1.00  0.00     0.074 A 
ENDROOT
BRANCH   4   7
HETATM    7  C6  UNL     1      -3.349   4.759  13.094  1.00  0.00     0.066 C 
BRANCH   7   8
HETATM    8  C7  UNL     1      -4.062   5.232  11.869  1.00  0.00     0.153 C 
HETATM    9  S1  UNL     1      -3.080   6.560  11.046  1.00  0.00    -0.054 SA
HETATM   10  C8  UNL     1      -2.257   5.506   9.869  1.00  0.00     0.287 C 
HETATM   11  O2  UNL     1      -1.406   5.854   9.047  1.00  0.00    -0.260 OA
HETATM   12  N1  UNL     1      -2.789   4.219  10.087  1.00  0.00    -0.287 N 
HETATM   13  C9  UNL     1      -4.003   4.211  10.789  1.00  0.00     0.239 C 
ATOM     14  H1  UNL     1      -2.331   3.368   9.763  1.00  0.00     0.172 HD
HETATM   15  O3  UNL     1      -5.007   3.442  10.586  1.00  0.00    -0.272 OA
ENDBRANCH   7   8
ENDBRANCH   4   7
BRANCH   5  16
HETATM   16  O4  UNL     1      -3.659   2.081  13.670  1.00  0.00    -0.355 OA
HETATM   17  C11 UNL     1      -4.197   1.012  12.932  1.00  0.00     0.210 C 
ENDBRANCH   5  16
BRANCH   1  18
HETATM   18  O1  UNL     1      -6.999   2.828  16.983  1.00  0.00    -0.356 OA
HETATM   19  C1  UNL     1      -7.225   1.455  17.153  1.00  0.00     0.210 C 
ENDBRANCH   1  18
TORSDOF 4
ENDMDL
