MODEL 2
REMARK VINA RESULT: -6.806869198      2.767      3.460
REMARK  4 active torsions:
REMARK  status: ('A' for Active; 'I' for Inactive)
REMARK    1  A    between atoms: O1_2  and  C2_3 
REMARK    2  A    between atoms: C5_6  and  C6_7 
REMARK    3  A    between atoms: C6_7  and  C7_8 
REMARK    4  A    between atoms: C10_16  and  O4_17 
ROOT
HETATM    1  C2  UNL     1      -2.122   7.225  14.056  1.00  0.00     0.070 A 
HETATM    2  C3  UNL     1      -3.239   7.483  14.844  1.00  0.00     0.037 A 
HETATM    3  C4  UNL     1      -4.151   6.483  15.109  1.00  0.00     0.013 A 
HETATM    4  C5  UNL     1      -4.004   5.202  14.616  1.00  0.00    -0.023 A 
HETATM    5  C10 UNL     1      -2.871   4.975  13.827  1.00  0.00     0.077 A 
HETATM    6  C12 UNL     1      -1.958   5.958  13.557  1.00  0.00     0.074 A 
ENDROOT
BRANCH   4   7
HETATM    7  C6  UNL     1      -4.949   4.099  14.869  1.00  0.00     0.066 C 
BRANCH   7   8
HETATM    8  C7  UNL     1      -4.754   3.547  16.244  1.00  0.00     0.153 C 
HETATM    9  S1  UNL     1      -6.386   3.383  17.090  1.00  0.00    -0.054 SA
HETATM   10  C8  UNL     1      -6.649   1.665  16.695  1.00  0.00     0.287 C 
HETATM   11  O2  UNL     1      -7.645   0.995  16.977  1.00  0.00    -0.260 OA
HETATM   12  N1  UNL     1      -5.489   1.260  16.006  1.00  0.00    -0.287 N 
HETATM   13  C9  UNL     1      -4.385   2.106  16.192  1.00  0.00     0.239 C 
ATOM     14  H1  UNL     1      -5.453   0.425  15.422  1.00  0.00     0.172 HD
HETATM   15  O3  UNL     1      -3.159   1.759  16.316  1.00  0.00    -0.272 OA
ENDBRANCH   7   8
ENDBRANCH   4   7
BRANCH   5  16
HETATM   16  O4  UNL     1      -2.700   3.708  13.323  1.00  0.00    -0.355 OA
HETATM   17  C11 UNL     1      -2.702   3.446  11.943  1.00  0.00     0.210 C 
ENDBRANCH   5  16
BRANCH   1  18
HETATM   18  O1  UNL     1      -1.190   8.203  13.771  1.00  0.00    -0.356 OA
HETATM   19  C1  UNL     1      -1.008   9.334  14.580  1.00  0.00     0.210 C 
ENDBRANCH   1  18
TORSDOF 4
ENDMDL
