MODEL 1
REMARK VINA RESULT: -5.575031109      0.000      0.000
REMARK  0 active torsions:
REMARK  status: ('A' for Active; 'I' for Inactive)
ROOT
HETATM    1  C1  UNL     1       7.759  -9.472  28.255  1.00  0.00     0.158 C 
HETATM    2  N1  UNL     1       6.485  -8.781  28.127  1.00  0.00    -0.332 N 
HETATM    3  C2  UNL     1       5.745  -8.306  29.144  1.00  0.00     0.184 A 
HETATM    4  N2  UNL     1       4.654  -7.745  28.578  1.00  0.00    -0.345 N 
ATOM      5  H2  UNL     1       3.894  -7.293  29.088  1.00  0.00     0.167 HD
HETATM    6  C3  UNL     1       4.722  -7.874  27.235  1.00  0.00     0.146 A 
HETATM    7  C4  UNL     1       3.924  -7.506  26.180  1.00  0.00     0.278 A 
HETATM    8  O1  UNL     1       2.845  -6.896  26.447  1.00  0.00    -0.265 OA
HETATM    9  N3  UNL     1       4.288  -7.792  24.927  1.00  0.00    -0.295 N 
ATOM     10  H3  UNL     1       3.674  -7.508  24.164  1.00  0.00     0.171 HD
HETATM   11  C5  UNL     1       5.441  -8.445  24.622  1.00  0.00     0.196 A 
HETATM   12  N4  UNL     1       5.783  -8.726  23.274  1.00  0.00    -0.063 NA
HETATM   13  N5  UNL     1       6.225  -8.806  25.655  1.00  0.00    -0.314 N 
ATOM     14  H5  UNL     1       7.097  -9.299  25.461  1.00  0.00     0.170 HD
HETATM   15  C6  UNL     1       5.896  -8.538  26.945  1.00  0.00     0.143 A 
ENDROOT
TORSDOF 0
ENDMDL
