MODEL 4
REMARK VINA RESULT: -5.165489956      7.591      8.894
REMARK  0 active torsions:
REMARK  status: ('A' for Active; 'I' for Inactive)
ROOT
HETATM    1  C1  UNL     1       3.493  -3.793  23.319  1.00  0.00     0.158 C 
HETATM    2  N1  UNL     1       2.959  -2.717  22.497  1.00  0.00    -0.332 N 
HETATM    3  C2  UNL     1       2.770  -1.447  22.896  1.00  0.00     0.184 A 
HETATM    4  N2  UNL     1       2.264  -0.794  21.827  1.00  0.00    -0.345 N 
ATOM      5  H2  UNL     1       2.010   0.194  21.807  1.00  0.00     0.167 HD
HETATM    6  C3  UNL     1       2.145  -1.650  20.788  1.00  0.00     0.146 A 
HETATM    7  C4  UNL     1       1.705  -1.550  19.491  1.00  0.00     0.278 A 
HETATM    8  O1  UNL     1       1.295  -0.417  19.097  1.00  0.00    -0.265 OA
HETATM    9  N3  UNL     1       1.716  -2.621  18.691  1.00  0.00    -0.295 N 
ATOM     10  H3  UNL     1       1.382  -2.517  17.733  1.00  0.00     0.171 HD
HETATM   11  C5  UNL     1       2.152  -3.843  19.097  1.00  0.00     0.196 A 
HETATM   12  N4  UNL     1       2.144  -4.949  18.209  1.00  0.00    -0.063 NA
HETATM   13  N5  UNL     1       2.584  -3.942  20.367  1.00  0.00    -0.314 N 
ATOM     14  H5  UNL     1       2.918  -4.845  20.704  1.00  0.00     0.170 HD
HETATM   15  C6  UNL     1       2.591  -2.883  21.217  1.00  0.00     0.143 A 
ENDROOT
TORSDOF 0
ENDMDL
