MODEL 2
REMARK VINA RESULT: -5.531264877      6.519      6.866
REMARK  0 active torsions:
REMARK  status: ('A' for Active; 'I' for Inactive)
ROOT
HETATM    1  C1  UNL     1      10.204  -1.324  23.431  1.00  0.00     0.158 C 
HETATM    2  N1  UNL     1       9.903  -1.850  24.754  1.00  0.00    -0.332 N 
HETATM    3  C2  UNL     1      10.630  -1.636  25.865  1.00  0.00     0.184 A 
HETATM    4  N2  UNL     1       9.995  -2.301  26.856  1.00  0.00    -0.345 N 
ATOM      5  H2  UNL     1      10.300  -2.337  27.829  1.00  0.00     0.167 HD
HETATM    6  C3  UNL     1       8.897  -2.914  26.361  1.00  0.00     0.146 A 
HETATM    7  C4  UNL     1       7.904  -3.703  26.885  1.00  0.00     0.278 A 
HETATM    8  O1  UNL     1       7.960  -3.969  28.123  1.00  0.00    -0.265 OA
HETATM    9  N3  UNL     1       6.925  -4.165  26.101  1.00  0.00    -0.295 N 
ATOM     10  H3  UNL     1       6.202  -4.751  26.518  1.00  0.00     0.171 HD
HETATM   11  C5  UNL     1       6.850  -3.889  24.772  1.00  0.00     0.196 A 
HETATM   12  N4  UNL     1       5.790  -4.404  23.982  1.00  0.00    -0.063 NA
HETATM   13  N5  UNL     1       7.822  -3.115  24.256  1.00  0.00    -0.314 N 
ATOM     14  H5  UNL     1       7.796  -2.889  23.262  1.00  0.00     0.170 HD
HETATM   15  C6  UNL     1       8.837  -2.624  25.013  1.00  0.00     0.143 A 
ENDROOT
TORSDOF 0
ENDMDL
