MODEL 12
REMARK VINA RESULT: -4.889781255      7.447      7.854
REMARK  0 active torsions:
REMARK  status: ('A' for Active; 'I' for Inactive)
ROOT
HETATM    1  C1  UNL     1       7.971  -3.982  27.833  1.00  0.00     0.158 C 
HETATM    2  N1  UNL     1       8.107  -3.511  26.463  1.00  0.00    -0.332 N 
HETATM    3  C2  UNL     1       7.201  -3.677  25.483  1.00  0.00     0.184 A 
HETATM    4  N2  UNL     1       7.728  -3.089  24.387  1.00  0.00    -0.345 N 
ATOM      5  H2  UNL     1       7.280  -3.045  23.471  1.00  0.00     0.167 HD
HETATM    6  C3  UNL     1       8.939  -2.571  24.688  1.00  0.00     0.146 A 
HETATM    7  C4  UNL     1       9.903  -1.882  23.994  1.00  0.00     0.278 A 
HETATM    8  O1  UNL     1       9.679  -1.635  22.771  1.00  0.00    -0.265 OA
HETATM    9  N3  UNL     1      11.028  -1.498  24.604  1.00  0.00    -0.295 N 
ATOM     10  H3  UNL     1      11.726  -0.989  24.062  1.00  0.00     0.171 HD
HETATM   11  C5  UNL     1      11.284  -1.754  25.914  1.00  0.00     0.196 A 
HETATM   12  N4  UNL     1      12.495  -1.325  26.515  1.00  0.00    -0.063 NA
HETATM   13  N5  UNL     1      10.341  -2.429  26.596  1.00  0.00    -0.314 N 
ATOM     14  H5  UNL     1      10.502  -2.639  27.582  1.00  0.00     0.170 HD
HETATM   15  C6  UNL     1       9.182  -2.841  26.019  1.00  0.00     0.143 A 
ENDROOT
TORSDOF 0
ENDMDL
