MODEL 4
REMARK VINA RESULT: -5.875583849      2.793      5.868
REMARK  3 active torsions:
REMARK  status: ('A' for Active; 'I' for Inactive)
REMARK    1  A    between atoms: C3_8  and  S1_9 
REMARK    2  A    between atoms: S1_9  and  C4_10 
REMARK    3  A    between atoms: C4_10  and  C5_11 
ROOT
HETATM    1  N1  UNL     1       4.191  -5.211  26.475  1.00  0.00    -0.063 NA
HETATM    2  C1  UNL     1       4.928  -4.146  25.908  1.00  0.00     0.196 A 
HETATM    3  N2  UNL     1       5.915  -3.538  26.622  1.00  0.00    -0.314 N 
ATOM      4  H2  UNL     1       6.125  -3.876  27.562  1.00  0.00     0.170 HD
HETATM    5  C2  UNL     1       6.619  -2.507  26.127  1.00  0.00     0.142 A 
HETATM    6  N3  UNL     1       7.642  -1.790  26.699  1.00  0.00    -0.321 N 
ATOM      7  H3  UNL     1       8.041  -1.925  27.629  1.00  0.00     0.169 HD
HETATM    8  C3  UNL     1       8.003  -0.892  25.805  1.00  0.00     0.147 A 
HETATM    9  N4  UNL     1       7.235  -1.021  24.678  1.00  0.00    -0.329 N 
ATOM     10  H4  UNL     1       7.312  -0.449  23.836  1.00  0.00     0.168 HD
HETATM   11  C6  UNL     1       6.369  -2.019  24.865  1.00  0.00     0.147 A 
HETATM   12  C7  UNL     1       5.376  -2.626  24.125  1.00  0.00     0.278 A 
HETATM   13  O3  UNL     1       5.152  -2.201  22.991  1.00  0.00    -0.265 OA
HETATM   14  N5  UNL     1       4.695  -3.673  24.690  1.00  0.00    -0.295 N 
ATOM     15  H5  UNL     1       3.961  -4.116  24.138  1.00  0.00     0.171 HD
ENDROOT
BRANCH   8  16
HETATM   16  S1  UNL     1       9.329   0.280  25.957  1.00  0.00    -0.083 SA
BRANCH  16  17
HETATM   17  C4  UNL     1      10.548   0.153  24.631  1.00  0.00     0.195 C 
BRANCH  17  18
HETATM   18  C5  UNL     1       9.958   0.400  23.306  1.00  0.00     0.182 C 
HETATM   19  O1  UNL     1       9.518  -0.616  22.696  1.00  0.00    -0.647 OA
HETATM   20  O2  UNL     1       9.881   1.655  22.749  1.00  0.00    -0.647 OA
ENDBRANCH  17  18
ENDBRANCH  16  17
ENDBRANCH   8  16
TORSDOF 3
ENDMDL
