MODEL 2
REMARK VINA RESULT: -5.993458471      3.976      6.926
REMARK  3 active torsions:
REMARK  status: ('A' for Active; 'I' for Inactive)
REMARK    1  A    between atoms: C3_8  and  S1_9 
REMARK    2  A    between atoms: S1_9  and  C4_10 
REMARK    3  A    between atoms: C4_10  and  C5_11 
ROOT
HETATM    1  N1  UNL     1       2.655  -6.921  27.865  1.00  0.00    -0.063 NA
HETATM    2  C1  UNL     1       3.697  -5.975  27.726  1.00  0.00     0.196 A 
HETATM    3  N2  UNL     1       3.783  -5.210  26.603  1.00  0.00    -0.314 N 
ATOM      4  H2  UNL     1       3.074  -5.316  25.877  1.00  0.00     0.170 HD
HETATM    5  C2  UNL     1       4.774  -4.320  26.423  1.00  0.00     0.142 A 
HETATM    6  N3  UNL     1       5.006  -3.470  25.368  1.00  0.00    -0.321 N 
ATOM      7  H3  UNL     1       4.448  -3.380  24.518  1.00  0.00     0.169 HD
HETATM    8  C3  UNL     1       6.094  -2.795  25.677  1.00  0.00     0.147 A 
HETATM    9  N4  UNL     1       6.560  -3.195  26.902  1.00  0.00    -0.329 N 
ATOM     10  H4  UNL     1       7.388  -2.829  27.373  1.00  0.00     0.168 HD
HETATM   11  C6  UNL     1       5.750  -4.143  27.376  1.00  0.00     0.147 A 
HETATM   12  C7  UNL     1       5.676  -4.907  28.522  1.00  0.00     0.278 A 
HETATM   13  O3  UNL     1       6.542  -4.749  29.384  1.00  0.00    -0.265 OA
HETATM   14  N5  UNL     1       4.641  -5.797  28.642  1.00  0.00    -0.295 N 
ATOM     15  H5  UNL     1       4.593  -6.360  29.492  1.00  0.00     0.171 HD
ENDROOT
BRANCH   8  16
HETATM   16  S1  UNL     1       6.844  -1.500  24.720  1.00  0.00    -0.083 SA
BRANCH  16  17
HETATM   17  C4  UNL     1       8.198  -0.671  25.581  1.00  0.00     0.195 C 
BRANCH  17  18
HETATM   18  C5  UNL     1       9.215  -0.152  24.651  1.00  0.00     0.182 C 
HETATM   19  O1  UNL     1       9.032  -0.412  23.428  1.00  0.00    -0.647 OA
HETATM   20  O2  UNL     1      10.304   0.574  25.070  1.00  0.00    -0.647 OA
ENDBRANCH  17  18
ENDBRANCH  16  17
ENDBRANCH   8  16
TORSDOF 3
ENDMDL
