MODEL 5
REMARK VINA RESULT: -5.857819374      5.810      6.655
REMARK  3 active torsions:
REMARK  status: ('A' for Active; 'I' for Inactive)
REMARK    1  A    between atoms: C3_8  and  S1_9 
REMARK    2  A    between atoms: S1_9  and  C4_10 
REMARK    3  A    between atoms: C4_10  and  C5_11 
ROOT
HETATM    1  N1  UNL     1       2.393   0.218  17.896  1.00  0.00    -0.063 NA
HETATM    2  C1  UNL     1       2.802   0.020  19.235  1.00  0.00     0.196 A 
HETATM    3  N2  UNL     1       3.120  -1.227  19.678  1.00  0.00    -0.314 N 
ATOM      4  H2  UNL     1       3.078  -2.009  19.024  1.00  0.00     0.170 HD
HETATM    5  C2  UNL     1       3.487  -1.459  20.950  1.00  0.00     0.142 A 
HETATM    6  N3  UNL     1       3.845  -2.639  21.557  1.00  0.00    -0.321 N 
ATOM      7  H3  UNL     1       3.885  -3.563  21.126  1.00  0.00     0.169 HD
HETATM    8  C3  UNL     1       4.127  -2.334  22.807  1.00  0.00     0.147 A 
HETATM    9  N4  UNL     1       3.956  -0.990  23.010  1.00  0.00    -0.329 N 
ATOM     10  H4  UNL     1       4.109  -0.496  23.890  1.00  0.00     0.168 HD
HETATM   11  C6  UNL     1       3.557  -0.434  21.865  1.00  0.00     0.147 A 
HETATM   12  C7  UNL     1       3.242   0.838  21.433  1.00  0.00     0.278 A 
HETATM   13  O3  UNL     1       3.310   1.762  22.244  1.00  0.00    -0.265 OA
HETATM   14  N5  UNL     1       2.875   1.005  20.123  1.00  0.00    -0.295 N 
ATOM     15  H5  UNL     1       2.642   1.947  19.810  1.00  0.00     0.171 HD
ENDROOT
BRANCH   8  16
HETATM   16  S1  UNL     1       4.715  -3.447  24.061  1.00  0.00    -0.083 SA
BRANCH  16  17
HETATM   17  C4  UNL     1       3.551  -4.776  24.436  1.00  0.00     0.195 C 
BRANCH  17  18
HETATM   18  C5  UNL     1       2.157  -4.389  24.163  1.00  0.00     0.182 C 
HETATM   19  O1  UNL     1       1.736  -4.620  22.994  1.00  0.00    -0.647 OA
HETATM   20  O2  UNL     1       1.347  -3.810  25.111  1.00  0.00    -0.647 OA
ENDBRANCH  17  18
ENDBRANCH  16  17
ENDBRANCH   8  16
TORSDOF 3
ENDMDL
