MODEL 1
REMARK VINA RESULT: -7.326132328      0.000      0.000
REMARK  4 active torsions:
REMARK  status: ('A' for Active; 'I' for Inactive)
REMARK    1  A    between atoms: C4_10  and  S1_11 
REMARK    2  A    between atoms: S1_11  and  C5_12 
REMARK    3  A    between atoms: C5_12  and  C6_13 
REMARK    4  A    between atoms: C5_12  and  C7_16 
ROOT
HETATM    1  N1  UNL     1       8.381  -7.380  28.271  1.00  0.00    -0.063 NA
HETATM    2  C1  UNL     1       7.544  -6.264  27.931  1.00  0.00     0.196 A 
HETATM    3  N2  UNL     1       7.338  -5.323  28.870  1.00  0.00    -0.295 N 
ATOM      4  H2  UNL     1       7.767  -5.412  29.791  1.00  0.00     0.171 HD
HETATM    5  C2  UNL     1       6.549  -4.251  28.578  1.00  0.00     0.278 A 
HETATM    6  O1  UNL     1       6.345  -3.362  29.445  1.00  0.00    -0.265 OA
HETATM    7  C3  UNL     1       5.998  -4.188  27.318  1.00  0.00     0.147 A 
HETATM    8  N3  UNL     1       5.195  -3.265  26.768  1.00  0.00    -0.329 N 
ATOM      9  H3  UNL     1       4.863  -2.425  27.242  1.00  0.00     0.168 HD
HETATM   10  C4  UNL     1       4.890  -3.601  25.503  1.00  0.00     0.147 A 
HETATM   11  N4  UNL     1       5.537  -4.786  25.273  1.00  0.00    -0.321 N 
ATOM     12  H4  UNL     1       5.508  -5.310  24.398  1.00  0.00     0.169 HD
HETATM   13  C13 UNL     1       6.215  -5.154  26.372  1.00  0.00     0.142 A 
HETATM   14  N5  UNL     1       7.004  -6.203  26.697  1.00  0.00    -0.314 N 
ATOM     15  H5  UNL     1       7.188  -6.940  26.016  1.00  0.00     0.170 HD
ENDROOT
BRANCH  10  16
HETATM   16  S1  UNL     1       3.868  -2.705  24.356  1.00  0.00    -0.073 SA
BRANCH  16  17
HETATM   17  C5  UNL     1       4.767  -1.312  23.703  1.00  0.00     0.189 C 
BRANCH  17  18
HETATM   18  C6  UNL     1       6.188  -1.684  23.461  1.00  0.00     0.192 C 
HETATM   19  O2  UNL     1       7.105  -0.927  23.847  1.00  0.00    -0.647 OA
HETATM   20  O3  UNL     1       6.433  -2.881  22.804  1.00  0.00    -0.647 OA
ENDBRANCH  17  18
BRANCH  17  21
HETATM   21  C7  UNL     1       4.217  -0.847  22.391  1.00  0.00    -0.034 A 
HETATM   22  C8  UNL     1       4.119   0.492  22.099  1.00  0.00     0.009 A 
HETATM   23  C9  UNL     1       3.610   0.959  20.898  1.00  0.00     0.001 A 
HETATM   24  C10 UNL     1       3.177   0.078  19.931  1.00  0.00     0.000 A 
HETATM   25  C11 UNL     1       3.275  -1.269  20.220  1.00  0.00     0.001 A 
HETATM   26  C12 UNL     1       3.785  -1.737  21.428  1.00  0.00     0.009 A 
ENDBRANCH  17  21
ENDBRANCH  16  17
ENDBRANCH  10  16
TORSDOF 4
ENDMDL
