MODEL 3
REMARK VINA RESULT: -7.183350110      1.455      1.944
REMARK  4 active torsions:
REMARK  status: ('A' for Active; 'I' for Inactive)
REMARK    1  A    between atoms: C4_10  and  S1_11 
REMARK    2  A    between atoms: S1_11  and  C5_12 
REMARK    3  A    between atoms: C5_12  and  C6_13 
REMARK    4  A    between atoms: C5_12  and  C7_16 
ROOT
HETATM    1  N1  UNL     1       8.574  -7.158  28.279  1.00  0.00    -0.063 NA
HETATM    2  C1  UNL     1       7.644  -6.147  27.867  1.00  0.00     0.196 A 
HETATM    3  N2  UNL     1       7.460  -5.092  28.680  1.00  0.00    -0.295 N 
ATOM      4  H2  UNL     1       7.972  -5.024  29.560  1.00  0.00     0.171 HD
HETATM    5  C2  UNL     1       6.583  -4.113  28.317  1.00  0.00     0.278 A 
HETATM    6  O1  UNL     1       6.400  -3.119  29.067  1.00  0.00    -0.265 OA
HETATM    7  C3  UNL     1       5.922  -4.262  27.119  1.00  0.00     0.147 A 
HETATM    8  N3  UNL     1       5.018  -3.469  26.523  1.00  0.00    -0.329 N 
ATOM      9  H3  UNL     1       4.676  -2.587  26.905  1.00  0.00     0.168 HD
HETATM   10  C4  UNL     1       4.626  -4.000  25.353  1.00  0.00     0.147 A 
HETATM   11  N4  UNL     1       5.324  -5.172  25.231  1.00  0.00    -0.321 N 
ATOM     12  H4  UNL     1       5.253  -5.818  24.445  1.00  0.00     0.169 HD
HETATM   13  C13 UNL     1       6.117  -5.342  26.301  1.00  0.00     0.142 A 
HETATM   14  N5  UNL     1       6.995  -6.293  26.693  1.00  0.00    -0.314 N 
ATOM     15  H5  UNL     1       7.166  -7.110  26.107  1.00  0.00     0.170 HD
ENDROOT
BRANCH  10  16
HETATM   16  S1  UNL     1       3.455  -3.332  24.194  1.00  0.00    -0.073 SA
BRANCH  16  17
HETATM   17  C5  UNL     1       4.309  -2.418  22.926  1.00  0.00     0.189 C 
BRANCH  17  18
HETATM   18  C6  UNL     1       4.089  -3.053  21.598  1.00  0.00     0.192 C 
HETATM   19  O2  UNL     1       2.925  -3.241  21.181  1.00  0.00    -0.647 OA
HETATM   20  O3  UNL     1       5.212  -3.415  20.867  1.00  0.00    -0.647 OA
ENDBRANCH  17  18
BRANCH  17  21
HETATM   21  C7  UNL     1       3.820  -1.009  22.814  1.00  0.00    -0.034 A 
HETATM   22  C8  UNL     1       4.388  -0.130  21.925  1.00  0.00     0.009 A 
HETATM   23  C9  UNL     1       3.964   1.183  21.797  1.00  0.00     0.001 A 
HETATM   24  C10 UNL     1       2.933   1.664  22.574  1.00  0.00     0.000 A 
HETATM   25  C11 UNL     1       2.357   0.783  23.469  1.00  0.00     0.001 A 
HETATM   26  C12 UNL     1       2.785  -0.535  23.596  1.00  0.00     0.009 A 
ENDBRANCH  17  21
ENDBRANCH  16  17
ENDBRANCH  10  16
TORSDOF 4
ENDMDL
