MODEL 2
REMARK VINA RESULT: -7.295408258      0.022      1.003
REMARK  4 active torsions:
REMARK  status: ('A' for Active; 'I' for Inactive)
REMARK    1  A    between atoms: C4_10  and  S1_11 
REMARK    2  A    between atoms: S1_11  and  C5_12 
REMARK    3  A    between atoms: C5_12  and  C6_13 
REMARK    4  A    between atoms: C5_12  and  C7_16 
ROOT
HETATM    1  N1  UNL     1       8.381  -7.380  28.272  1.00  0.00    -0.063 NA
HETATM    2  C1  UNL     1       7.543  -6.265  27.933  1.00  0.00     0.196 A 
HETATM    3  N2  UNL     1       7.328  -5.330  28.876  1.00  0.00    -0.295 N 
ATOM      4  H2  UNL     1       7.752  -5.422  29.799  1.00  0.00     0.171 HD
HETATM    5  C2  UNL     1       6.537  -4.259  28.586  1.00  0.00     0.278 A 
HETATM    6  O1  UNL     1       6.325  -3.375  29.456  1.00  0.00    -0.265 OA
HETATM    7  C3  UNL     1       5.992  -4.192  27.323  1.00  0.00     0.147 A 
HETATM    8  N3  UNL     1       5.189  -3.268  26.773  1.00  0.00    -0.329 N 
ATOM      9  H3  UNL     1       4.851  -2.431  27.251  1.00  0.00     0.168 HD
HETATM   10  C4  UNL     1       4.892  -3.599  25.506  1.00  0.00     0.147 A 
HETATM   11  N4  UNL     1       5.544  -4.780  25.273  1.00  0.00    -0.321 N 
ATOM     12  H4  UNL     1       5.522  -5.299  24.395  1.00  0.00     0.169 HD
HETATM   13  C13 UNL     1       6.218  -5.151  26.373  1.00  0.00     0.142 A 
HETATM   14  N5  UNL     1       7.009  -6.200  26.696  1.00  0.00    -0.314 N 
ATOM     15  H5  UNL     1       7.199  -6.932  26.013  1.00  0.00     0.170 HD
ENDROOT
BRANCH  10  16
HETATM   16  S1  UNL     1       3.873  -2.700  24.358  1.00  0.00    -0.073 SA
BRANCH  16  17
HETATM   17  C5  UNL     1       4.775  -1.307  23.708  1.00  0.00     0.189 C 
BRANCH  17  18
HETATM   18  C6  UNL     1       6.192  -1.684  23.455  1.00  0.00     0.192 C 
HETATM   19  O2  UNL     1       7.115  -0.932  23.836  1.00  0.00    -0.647 OA
HETATM   20  O3  UNL     1       6.427  -2.880  22.793  1.00  0.00    -0.647 OA
ENDBRANCH  17  18
BRANCH  17  21
HETATM   21  C7  UNL     1       4.218  -0.830  22.403  1.00  0.00    -0.034 A 
HETATM   22  C8  UNL     1       3.799  -1.720  21.445  1.00  0.00     0.009 A 
HETATM   23  C9  UNL     1       3.283  -1.315  20.224  1.00  0.00     0.001 A 
HETATM   24  C10 UNL     1       3.169   0.025  19.923  1.00  0.00     0.000 A 
HETATM   25  C11 UNL     1       3.588   0.923  20.884  1.00  0.00     0.001 A 
HETATM   26  C12 UNL     1       4.107   0.514  22.110  1.00  0.00     0.009 A 
ENDBRANCH  17  21
ENDBRANCH  16  17
ENDBRANCH  10  16
TORSDOF 4
ENDMDL
