MODEL 3
REMARK VINA RESULT: -6.365673189      3.539      6.630
REMARK  3 active torsions:
REMARK  status: ('A' for Active; 'I' for Inactive)
REMARK       I    between atoms: N1_2  and  C2_4 
REMARK    1  A    between atoms: C2_4  and  C3_6 
REMARK    2  A    between atoms: C3_6  and  S1_7 
REMARK    3  A    between atoms: S1_7  and  C4_8 
ROOT
HETATM    1  C4  UNL     1       3.989  -0.551  22.926  1.00  0.00     0.147 A 
HETATM    2  N2  UNL     1       3.530  -1.153  24.042  1.00  0.00    -0.329 N 
ATOM      3  H2  UNL     1       2.746  -0.822  24.603  1.00  0.00     0.168 HD
HETATM    4  C5  UNL     1       4.270  -2.273  24.311  1.00  0.00     0.147 A 
HETATM    5  C6  UNL     1       4.247  -3.230  25.287  1.00  0.00     0.278 A 
HETATM    6  O2  UNL     1       3.384  -3.162  26.190  1.00  0.00    -0.265 OA
HETATM    7  N3  UNL     1       5.130  -4.240  25.288  1.00  0.00    -0.295 N 
ATOM      8  H3  UNL     1       5.097  -4.946  26.023  1.00  0.00     0.171 HD
HETATM    9  C7  UNL     1       6.074  -4.321  24.302  1.00  0.00     0.196 A 
HETATM   10  N4  UNL     1       7.008  -5.376  24.304  1.00  0.00    -0.063 NA
HETATM   11  N5  UNL     1       6.081  -3.360  23.342  1.00  0.00    -0.314 N 
ATOM     12  H5  UNL     1       6.786  -3.422  22.607  1.00  0.00     0.170 HD
HETATM   13  C8  UNL     1       5.222  -2.341  23.302  1.00  0.00     0.142 A 
HETATM   14  N6  UNL     1       5.004  -1.278  22.496  1.00  0.00    -0.321 N 
ATOM     15  H6  UNL     1       5.552  -1.064  21.662  1.00  0.00     0.169 HD
ENDROOT
BRANCH   1  16
HETATM   16  S1  UNL     1       3.330   0.932  22.242  1.00  0.00    -0.085 SA
BRANCH  16  17
HETATM   17  C3  UNL     1       3.907   1.299  20.586  1.00  0.00     0.185 C 
BRANCH  17  18
HETATM   18  C2  UNL     1       2.763   1.427  19.634  1.00  0.00     0.226 C 
HETATM   19  N1  UNL     1       1.696   2.278  20.027  1.00  0.00    -0.365 N 
HETATM   20  C1  UNL     1       0.535   2.443  19.150  1.00  0.00     0.149 C 
ATOM     21  H1  UNL     1       1.738   2.772  20.918  1.00  0.00     0.161 HD
HETATM   22  O1  UNL     1       2.745   0.817  18.553  1.00  0.00    -0.273 OA
ENDBRANCH  17  18
ENDBRANCH  16  17
ENDBRANCH   1  16
TORSDOF 3
ENDMDL
