MODEL 1
REMARK VINA RESULT: -6.403422235      0.000      0.000
REMARK  3 active torsions:
REMARK  status: ('A' for Active; 'I' for Inactive)
REMARK       I    between atoms: N1_2  and  C2_4 
REMARK    1  A    between atoms: C2_4  and  C3_6 
REMARK    2  A    between atoms: C3_6  and  S1_7 
REMARK    3  A    between atoms: S1_7  and  C4_8 
ROOT
HETATM    1  C4  UNL     1       4.617  -1.783  22.011  1.00  0.00     0.147 A 
HETATM    2  N2  UNL     1       4.628  -3.044  21.532  1.00  0.00    -0.329 N 
ATOM      3  H2  UNL     1       5.102  -3.832  21.973  1.00  0.00     0.168 HD
HETATM    4  C5  UNL     1       3.911  -3.112  20.368  1.00  0.00     0.147 A 
HETATM    5  C6  UNL     1       3.603  -4.108  19.485  1.00  0.00     0.278 A 
HETATM    6  O2  UNL     1       4.022  -5.267  19.699  1.00  0.00    -0.265 OA
HETATM    7  N3  UNL     1       2.857  -3.862  18.396  1.00  0.00    -0.295 N 
ATOM      8  H3  UNL     1       2.636  -4.618  17.748  1.00  0.00     0.171 HD
HETATM    9  C7  UNL     1       2.395  -2.598  18.157  1.00  0.00     0.196 A 
HETATM   10  N4  UNL     1       1.618  -2.335  17.012  1.00  0.00    -0.063 NA
HETATM   11  N5  UNL     1       2.712  -1.622  19.047  1.00  0.00    -0.314 N 
ATOM     12  H5  UNL     1       2.367  -0.679  18.867  1.00  0.00     0.170 HD
HETATM   13  C8  UNL     1       3.449  -1.821  20.141  1.00  0.00     0.142 A 
HETATM   14  N6  UNL     1       3.905  -1.064  21.164  1.00  0.00    -0.321 N 
ATOM     15  H6  UNL     1       3.722  -0.066  21.268  1.00  0.00     0.169 HD
ENDROOT
BRANCH   1  16
HETATM   16  S1  UNL     1       5.438  -1.260  23.479  1.00  0.00    -0.085 SA
BRANCH  16  17
HETATM   17  C3  UNL     1       6.391  -2.544  24.287  1.00  0.00     0.185 C 
BRANCH  17  18
HETATM   18  C2  UNL     1       5.500  -3.501  25.010  1.00  0.00     0.226 C 
HETATM   19  N1  UNL     1       5.520  -3.446  26.429  1.00  0.00    -0.365 N 
HETATM   20  C1  UNL     1       4.682  -4.361  27.206  1.00  0.00     0.149 C 
ATOM     21  H1  UNL     1       6.118  -2.771  26.906  1.00  0.00     0.161 HD
HETATM   22  O1  UNL     1       4.779  -4.306  24.400  1.00  0.00    -0.273 OA
ENDBRANCH  17  18
ENDBRANCH  16  17
ENDBRANCH   1  16
TORSDOF 3
ENDMDL
