MODEL 2
REMARK VINA RESULT: -6.373253183      2.089      7.048
REMARK  3 active torsions:
REMARK  status: ('A' for Active; 'I' for Inactive)
REMARK       I    between atoms: N1_2  and  C2_4 
REMARK    1  A    between atoms: C2_4  and  C3_6 
REMARK    2  A    between atoms: C3_6  and  S1_7 
REMARK    3  A    between atoms: S1_7  and  C4_8 
ROOT
HETATM    1  C4  UNL     1       5.987  -4.006  22.973  1.00  0.00     0.147 A 
HETATM    2  N2  UNL     1       4.940  -3.531  23.678  1.00  0.00    -0.329 N 
ATOM      3  H2  UNL     1       4.219  -2.913  23.307  1.00  0.00     0.168 HD
HETATM    4  C5  UNL     1       4.987  -4.000  24.963  1.00  0.00     0.147 A 
HETATM    5  C6  UNL     1       4.206  -3.843  26.074  1.00  0.00     0.278 A 
HETATM    6  O2  UNL     1       3.183  -3.126  26.006  1.00  0.00    -0.265 OA
HETATM    7  N3  UNL     1       4.517  -4.447  27.231  1.00  0.00    -0.295 N 
ATOM      8  H3  UNL     1       3.922  -4.320  28.049  1.00  0.00     0.171 HD
HETATM    9  C7  UNL     1       5.633  -5.233  27.312  1.00  0.00     0.196 A 
HETATM   10  N4  UNL     1       5.967  -5.863  28.527  1.00  0.00    -0.063 NA
HETATM   11  N5  UNL     1       6.396  -5.377  26.197  1.00  0.00    -0.314 N 
ATOM     12  H5  UNL     1       7.228  -5.963  26.259  1.00  0.00     0.170 HD
HETATM   13  C8  UNL     1       6.124  -4.796  25.028  1.00  0.00     0.142 A 
HETATM   14  N6  UNL     1       6.686  -4.763  23.798  1.00  0.00    -0.321 N 
ATOM     15  H6  UNL     1       7.540  -5.259  23.541  1.00  0.00     0.169 HD
ENDROOT
BRANCH   1  16
HETATM   16  S1  UNL     1       6.313  -3.628  21.284  1.00  0.00    -0.085 SA
BRANCH  16  17
HETATM   17  C3  UNL     1       5.272  -4.505  20.119  1.00  0.00     0.185 C 
BRANCH  17  18
HETATM   18  C2  UNL     1       3.951  -3.823  19.960  1.00  0.00     0.226 C 
HETATM   19  N1  UNL     1       3.603  -3.401  18.650  1.00  0.00    -0.365 N 
HETATM   20  C1  UNL     1       2.330  -2.716  18.419  1.00  0.00     0.149 C 
ATOM     21  H1  UNL     1       4.239  -3.574  17.871  1.00  0.00     0.161 HD
HETATM   22  O1  UNL     1       3.196  -3.633  20.927  1.00  0.00    -0.273 OA
ENDBRANCH  17  18
ENDBRANCH  16  17
ENDBRANCH   1  16
TORSDOF 3
ENDMDL
