MODEL 5
REMARK VINA RESULT: -7.226042314      1.986      2.604
REMARK  3 active torsions:
REMARK  status: ('A' for Active; 'I' for Inactive)
REMARK    1  A    between atoms: C3_8  and  S1_9 
REMARK    2  A    between atoms: S1_9  and  C4_10 
REMARK    3  A    between atoms: C4_10  and  C5_11 
ROOT
HETATM    1  N1  UNL     1      -3.784  -3.322  65.885  1.00  0.00    -0.063 NA
HETATM    2  C1  UNL     1      -3.684  -4.288  66.907  1.00  0.00     0.196 A 
HETATM    3  N2  UNL     1      -3.649  -5.611  66.658  1.00  0.00    -0.314 N 
ATOM      4  H2  UNL     1      -3.719  -5.920  65.688  1.00  0.00     0.170 HD
HETATM    5  C2  UNL     1      -3.528  -6.545  67.612  1.00  0.00     0.142 A 
HETATM    6  N3  UNL     1      -3.471  -7.892  67.617  1.00  0.00    -0.321 N 
ATOM      7  H3  UNL     1      -3.524  -8.465  66.775  1.00  0.00     0.169 HD
HETATM    8  C3  UNL     1      -3.340  -8.393  68.854  1.00  0.00     0.146 A 
HETATM    9  N4  UNL     1      -3.317  -7.296  69.670  1.00  0.00    -0.329 N 
ATOM     10  H4  UNL     1      -3.226  -7.326  70.685  1.00  0.00     0.168 HD
HETATM   11  C11 UNL     1      -3.431  -6.184  68.951  1.00  0.00     0.147 A 
HETATM   12  C12 UNL     1      -3.468  -4.825  69.218  1.00  0.00     0.278 A 
HETATM   13  O1  UNL     1      -3.381  -4.454  70.443  1.00  0.00    -0.265 OA
HETATM   14  N5  UNL     1      -3.591  -3.938  68.221  1.00  0.00    -0.295 N 
ATOM     15  H5  UNL     1      -3.616  -2.946  68.459  1.00  0.00     0.171 HD
ENDROOT
BRANCH   8  16
HETATM   16  S1  UNL     1      -3.245 -10.103  69.384  1.00  0.00    -0.089 SA
BRANCH  16  17
HETATM   17  C4  UNL     1      -1.553 -10.695  69.367  1.00  0.00     0.124 C 
BRANCH  17  18
HETATM   18  C5  UNL     1      -0.881 -10.504  70.686  1.00  0.00    -0.010 A 
HETATM   19  C6  UNL     1       0.057  -9.525  70.885  1.00  0.00     0.011 A 
HETATM   20  C7  UNL     1       0.713  -9.395  72.087  1.00  0.00     0.001 A 
HETATM   21  C8  UNL     1       0.406 -10.280  73.109  1.00  0.00     0.003 A 
HETATM   22  C9  UNL     1      -0.542 -11.275  72.927  1.00  0.00     0.043 A 
HETATM   23  C10 UNL     1      -1.187 -11.391  71.717  1.00  0.00     0.123 A 
HETATM   24  F1  UNL     1      -2.135 -12.360  71.548  1.00  0.00    -0.206 F 
ENDBRANCH  17  18
ENDBRANCH  16  17
ENDBRANCH   8  16
TORSDOF 3
ENDMDL
