MODEL 7
REMARK VINA RESULT: -7.062187813      4.628      5.042
REMARK  3 active torsions:
REMARK  status: ('A' for Active; 'I' for Inactive)
REMARK    1  A    between atoms: C3_8  and  S1_9 
REMARK    2  A    between atoms: S1_9  and  C4_10 
REMARK    3  A    between atoms: C4_10  and  C5_11 
ROOT
HETATM    1  N1  UNL     1      -5.292 -12.235  65.908  1.00  0.00    -0.063 NA
HETATM    2  C1  UNL     1      -5.236 -12.081  67.308  1.00  0.00     0.196 A 
HETATM    3  N2  UNL     1      -4.167 -12.449  68.039  1.00  0.00    -0.314 N 
ATOM      4  H2  UNL     1      -3.377 -12.876  67.555  1.00  0.00     0.170 HD
HETATM    5  C2  UNL     1      -4.082 -12.288  69.368  1.00  0.00     0.142 A 
HETATM    6  N3  UNL     1      -3.148 -12.568  70.298  1.00  0.00    -0.321 N 
ATOM      7  H3  UNL     1      -2.252 -13.006  70.088  1.00  0.00     0.169 HD
HETATM    8  C3  UNL     1      -3.531 -12.206  71.531  1.00  0.00     0.146 A 
HETATM    9  N4  UNL     1      -4.779 -11.673  71.363  1.00  0.00    -0.329 N 
ATOM     10  H4  UNL     1      -5.359 -11.298  72.113  1.00  0.00     0.168 HD
HETATM   11  C11 UNL     1      -5.129 -11.715  70.081  1.00  0.00     0.147 A 
HETATM   12  C12 UNL     1      -6.234 -11.334  69.339  1.00  0.00     0.278 A 
HETATM   13  O1  UNL     1      -7.220 -10.801  69.963  1.00  0.00    -0.265 OA
HETATM   14  N5  UNL     1      -6.261 -11.521  68.011  1.00  0.00    -0.295 N 
ATOM     15  H5  UNL     1      -7.094 -11.229  67.500  1.00  0.00     0.171 HD
ENDROOT
BRANCH   8  16
HETATM   16  S1  UNL     1      -2.663 -12.386  73.090  1.00  0.00    -0.089 SA
BRANCH  16  17
HETATM   17  C4  UNL     1      -0.911 -12.660  72.829  1.00  0.00     0.124 C 
BRANCH  17  18
HETATM   18  C5  UNL     1      -0.247 -11.476  72.208  1.00  0.00    -0.010 A 
HETATM   19  C6  UNL     1      -0.100 -11.360  70.850  1.00  0.00     0.011 A 
HETATM   20  C7  UNL     1       0.565 -10.293  70.291  1.00  0.00     0.001 A 
HETATM   21  C8  UNL     1       1.091  -9.325  71.132  1.00  0.00     0.003 A 
HETATM   22  C9  UNL     1       0.949  -9.424  72.507  1.00  0.00     0.043 A 
HETATM   23  C10 UNL     1       0.282 -10.499  73.049  1.00  0.00     0.123 A 
HETATM   24  F1  UNL     1       0.127 -10.584  74.404  1.00  0.00    -0.206 F 
ENDBRANCH  17  18
ENDBRANCH  16  17
ENDBRANCH   8  16
TORSDOF 3
ENDMDL
