MODEL 6
REMARK VINA RESULT: -7.137291132      4.277      4.792
REMARK  3 active torsions:
REMARK  status: ('A' for Active; 'I' for Inactive)
REMARK    1  A    between atoms: C3_8  and  S1_9 
REMARK    2  A    between atoms: S1_9  and  C4_10 
REMARK    3  A    between atoms: C4_10  and  C5_11 
ROOT
HETATM    1  N1  UNL     1      -7.511 -11.877  69.901  1.00  0.00    -0.063 NA
HETATM    2  C1  UNL     1      -6.126 -11.739  69.671  1.00  0.00     0.196 A 
HETATM    3  N2  UNL     1      -5.309 -11.090  70.522  1.00  0.00    -0.314 N 
ATOM      4  H2  UNL     1      -5.719 -10.665  71.354  1.00  0.00     0.170 HD
HETATM    5  C2  UNL     1      -3.986 -10.969  70.337  1.00  0.00     0.142 A 
HETATM    6  N3  UNL     1      -2.983 -10.384  71.021  1.00  0.00    -0.321 N 
ATOM      7  H3  UNL     1      -3.114  -9.879  71.898  1.00  0.00     0.169 HD
HETATM    8  C3  UNL     1      -1.795 -10.540  70.420  1.00  0.00     0.146 A 
HETATM    9  N4  UNL     1      -2.071 -11.260  69.291  1.00  0.00    -0.329 N 
ATOM     10  H4  UNL     1      -1.379 -11.553  68.602  1.00  0.00     0.168 HD
HETATM   11  C11 UNL     1      -3.372 -11.524  69.220  1.00  0.00     0.147 A 
HETATM   12  C12 UNL     1      -4.205 -12.193  68.337  1.00  0.00     0.278 A 
HETATM   13  O1  UNL     1      -3.674 -12.719  67.295  1.00  0.00    -0.265 OA
HETATM   14  N5  UNL     1      -5.521 -12.281  68.577  1.00  0.00    -0.295 N 
ATOM     15  H5  UNL     1      -6.101 -12.779  67.902  1.00  0.00     0.171 HD
ENDROOT
BRANCH   8  16
HETATM   16  S1  UNL     1      -0.181  -9.936  70.916  1.00  0.00    -0.089 SA
BRANCH  16  17
HETATM   17  C4  UNL     1       0.760 -11.211  71.753  1.00  0.00     0.124 C 
BRANCH  17  18
HETATM   18  C5  UNL     1      -0.104 -12.061  72.625  1.00  0.00    -0.010 A 
HETATM   19  C6  UNL     1      -0.712 -13.196  72.153  1.00  0.00     0.011 A 
HETATM   20  C7  UNL     1      -1.552 -13.940  72.948  1.00  0.00     0.001 A 
HETATM   21  C8  UNL     1      -1.778 -13.521  74.250  1.00  0.00     0.003 A 
HETATM   22  C9  UNL     1      -1.170 -12.378  74.744  1.00  0.00     0.043 A 
HETATM   23  C10 UNL     1      -0.333 -11.645  73.935  1.00  0.00     0.123 A 
HETATM   24  F1  UNL     1       0.281 -10.530  74.431  1.00  0.00    -0.206 F 
ENDBRANCH  17  18
ENDBRANCH  16  17
ENDBRANCH   8  16
TORSDOF 3
ENDMDL
