MODEL 4
REMARK VINA RESULT: -7.241101286      4.231      4.918
REMARK  3 active torsions:
REMARK  status: ('A' for Active; 'I' for Inactive)
REMARK    1  A    between atoms: C3_8  and  S1_9 
REMARK    2  A    between atoms: S1_9  and  C4_10 
REMARK    3  A    between atoms: C4_10  and  C5_11 
ROOT
HETATM    1  N1  UNL     1      -5.839 -10.874  65.694  1.00  0.00    -0.063 NA
HETATM    2  C1  UNL     1      -5.494 -11.457  66.931  1.00  0.00     0.196 A 
HETATM    3  N2  UNL     1      -5.113 -10.729  67.998  1.00  0.00    -0.314 N 
ATOM      4  H2  UNL     1      -5.054  -9.716  67.893  1.00  0.00     0.170 HD
HETATM    5  C2  UNL     1      -4.805 -11.260  69.190  1.00  0.00     0.142 A 
HETATM    6  N3  UNL     1      -4.407 -10.759  70.376  1.00  0.00    -0.321 N 
ATOM      7  H3  UNL     1      -4.261  -9.765  70.551  1.00  0.00     0.169 HD
HETATM    8  C3  UNL     1      -4.223 -11.714  71.298  1.00  0.00     0.146 A 
HETATM    9  N4  UNL     1      -4.518 -12.881  70.650  1.00  0.00    -0.329 N 
ATOM     10  H4  UNL     1      -4.478 -13.808  71.072  1.00  0.00     0.168 HD
HETATM   11  C11 UNL     1      -4.866 -12.634  69.391  1.00  0.00     0.147 A 
HETATM   12  C12 UNL     1      -5.255 -13.392  68.299  1.00  0.00     0.278 A 
HETATM   13  O1  UNL     1      -5.322 -14.665  68.448  1.00  0.00    -0.265 OA
HETATM   14  N5  UNL     1      -5.550 -12.804  67.131  1.00  0.00    -0.295 N 
ATOM     15  H5  UNL     1      -5.831 -13.396  66.351  1.00  0.00     0.171 HD
ENDROOT
BRANCH   8  16
HETATM   16  S1  UNL     1      -3.679 -11.562  73.000  1.00  0.00    -0.089 SA
BRANCH  16  17
HETATM   17  C4  UNL     1      -1.992 -12.134  73.196  1.00  0.00     0.124 C 
BRANCH  17  18
HETATM   18  C5  UNL     1      -1.001 -11.130  72.706  1.00  0.00    -0.010 A 
HETATM   19  C6  UNL     1      -1.060 -10.618  71.435  1.00  0.00     0.011 A 
HETATM   20  C7  UNL     1      -0.108  -9.737  70.974  1.00  0.00     0.001 A 
HETATM   21  C8  UNL     1       0.923  -9.371  71.824  1.00  0.00     0.003 A 
HETATM   22  C9  UNL     1       0.997  -9.876  73.113  1.00  0.00     0.043 A 
HETATM   23  C10 UNL     1       0.037 -10.757  73.557  1.00  0.00     0.123 A 
HETATM   24  F1  UNL     1       0.102 -11.238  74.834  1.00  0.00    -0.206 F 
ENDBRANCH  17  18
ENDBRANCH  16  17
ENDBRANCH   8  16
TORSDOF 3
ENDMDL
