MODEL 2
REMARK VINA RESULT: -7.670821722      1.465      1.775
REMARK  5 active torsions:
REMARK  status: ('A' for Active; 'I' for Inactive)
REMARK    1  A    between atoms: O1_2  and  C2_3 
REMARK    2  A    between atoms: C5_6  and  C6_7 
REMARK    3  A    between atoms: C6_7  and  C7_9 
REMARK    4  A    between atoms: C7_9  and  S1_10 
REMARK    5  A    between atoms: S1_10  and  C8_11 
ROOT
HETATM    1  C8  UNL     1       5.304  -4.433  24.444  1.00  0.00     0.146 A 
HETATM    2  N1  UNL     1       6.261  -3.861  25.206  1.00  0.00    -0.321 N 
ATOM      3  H1  UNL     1       7.035  -3.296  24.855  1.00  0.00     0.169 HD
HETATM    4  C9  UNL     1       6.032  -4.156  26.517  1.00  0.00     0.142 A 
HETATM    5  N2  UNL     1       6.660  -3.849  27.659  1.00  0.00    -0.314 N 
ATOM      6  H2  UNL     1       7.501  -3.273  27.621  1.00  0.00     0.170 HD
HETATM    7  C10 UNL     1       6.214  -4.281  28.865  1.00  0.00     0.196 A 
HETATM    8  N3  UNL     1       6.900  -3.941  30.066  1.00  0.00    -0.063 NA
HETATM    9  N4  UNL     1       5.103  -5.044  28.907  1.00  0.00    -0.295 N 
ATOM     10  H4  UNL     1       4.756  -5.377  29.807  1.00  0.00     0.171 HD
HETATM   11  C11 UNL     1       4.447  -5.372  27.785  1.00  0.00     0.278 A 
HETATM   12  O3  UNL     1       3.393  -6.095  27.823  1.00  0.00    -0.265 OA
HETATM   13  C12 UNL     1       4.901  -4.934  26.569  1.00  0.00     0.147 A 
HETATM   14  N5  UNL     1       4.484  -5.082  25.287  1.00  0.00    -0.329 N 
ATOM     15  H5  UNL     1       3.662  -5.614  25.003  1.00  0.00     0.168 HD
ENDROOT
BRANCH   1  16
HETATM   16  S1  UNL     1       5.166  -4.335  22.645  1.00  0.00    -0.086 SA
BRANCH  16  17
HETATM   17  C7  UNL     1       5.805  -2.729  22.138  1.00  0.00     0.166 C 
BRANCH  17  18
HETATM   18  C6  UNL     1       4.993  -1.609  22.634  1.00  0.00     0.169 C 
HETATM   19  O2  UNL     1       4.939  -1.362  23.850  1.00  0.00    -0.291 OA
BRANCH  18  20
HETATM   20  C5  UNL     1       4.251  -0.789  21.701  1.00  0.00     0.011 A 
HETATM   21  C4  UNL     1       4.095   0.575  21.925  1.00  0.00     0.018 A 
HETATM   22  C3  UNL     1       3.387   1.337  21.029  1.00  0.00     0.037 A 
HETATM   23  C2  UNL     1       2.810   0.809  19.893  1.00  0.00     0.068 A 
HETATM   24  C14 UNL     1       2.982  -0.541  19.700  1.00  0.00     0.037 A 
HETATM   25  C13 UNL     1       3.674  -1.340  20.558  1.00  0.00     0.018 A 
BRANCH  23  26
HETATM   26  O1  UNL     1       2.101   1.622  19.012  1.00  0.00    -0.356 OA
HETATM   27  C1  UNL     1       0.887   2.241  19.371  1.00  0.00     0.210 C 
ENDBRANCH  23  26
ENDBRANCH  18  20
ENDBRANCH  17  18
ENDBRANCH  16  17
ENDBRANCH   1  16
TORSDOF 5
ENDMDL
