MODEL 1
REMARK VINA RESULT: -7.697015916      0.000      0.000
REMARK  5 active torsions:
REMARK  status: ('A' for Active; 'I' for Inactive)
REMARK    1  A    between atoms: O1_2  and  C2_3 
REMARK    2  A    between atoms: C5_6  and  C6_7 
REMARK    3  A    between atoms: C6_7  and  C7_9 
REMARK    4  A    between atoms: C7_9  and  S1_10 
REMARK    5  A    between atoms: S1_10  and  C8_11 
ROOT
HETATM    1  C8  UNL     1       5.097  -4.968  23.962  1.00  0.00     0.146 A 
HETATM    2  N1  UNL     1       6.170  -5.746  24.222  1.00  0.00    -0.321 N 
ATOM      3  H1  UNL     1       6.702  -6.271  23.527  1.00  0.00     0.169 HD
HETATM    4  C9  UNL     1       6.432  -5.722  25.560  1.00  0.00     0.142 A 
HETATM    5  N2  UNL     1       7.358  -6.303  26.333  1.00  0.00    -0.314 N 
ATOM      6  H2  UNL     1       8.054  -6.910  25.900  1.00  0.00     0.170 HD
HETATM    7  C10 UNL     1       7.401  -6.110  27.675  1.00  0.00     0.196 A 
HETATM    8  N3  UNL     1       8.396  -6.738  28.476  1.00  0.00    -0.063 NA
HETATM    9  N4  UNL     1       6.477  -5.307  28.242  1.00  0.00    -0.295 N 
ATOM     10  H4  UNL     1       6.496  -5.152  29.250  1.00  0.00     0.171 HD
HETATM   11  C11 UNL     1       5.534  -4.708  27.500  1.00  0.00     0.278 A 
HETATM   12  O3  UNL     1       4.657  -3.946  28.036  1.00  0.00    -0.265 OA
HETATM   13  C12 UNL     1       5.494  -4.906  26.145  1.00  0.00     0.147 A 
HETATM   14  N5  UNL     1       4.698  -4.464  25.141  1.00  0.00    -0.329 N 
ATOM     15  H5  UNL     1       3.904  -3.836  25.264  1.00  0.00     0.168 HD
ENDROOT
BRANCH   1  16
HETATM   16  S1  UNL     1       4.357  -4.673  22.340  1.00  0.00    -0.086 SA
BRANCH  16  17
HETATM   17  C7  UNL     1       5.172  -3.234  21.624  1.00  0.00     0.166 C 
BRANCH  17  18
HETATM   18  C6  UNL     1       4.702  -1.967  22.201  1.00  0.00     0.169 C 
HETATM   19  O2  UNL     1       4.848  -1.733  23.412  1.00  0.00    -0.291 OA
BRANCH  18  20
HETATM   20  C5  UNL     1       4.064  -0.982  21.353  1.00  0.00     0.011 A 
HETATM   21  C4  UNL     1       3.386  -1.370  20.203  1.00  0.00     0.018 A 
HETATM   22  C3  UNL     1       2.788  -0.422  19.411  1.00  0.00     0.037 A 
HETATM   23  C2  UNL     1       2.826   0.925  19.702  1.00  0.00     0.068 A 
HETATM   24  C14 UNL     1       3.503   1.277  20.845  1.00  0.00     0.037 A 
HETATM   25  C13 UNL     1       4.112   0.376  21.664  1.00  0.00     0.018 A 
BRANCH  23  26
HETATM   26  O1  UNL     1       2.203   1.851  18.868  1.00  0.00    -0.356 OA
HETATM   27  C1  UNL     1       0.941   2.402  19.165  1.00  0.00     0.210 C 
ENDBRANCH  23  26
ENDBRANCH  18  20
ENDBRANCH  17  18
ENDBRANCH  16  17
ENDBRANCH   1  16
TORSDOF 5
ENDMDL
