MODEL 3
REMARK VINA RESULT: -7.651699596      4.866      8.100
REMARK  5 active torsions:
REMARK  status: ('A' for Active; 'I' for Inactive)
REMARK    1  A    between atoms: O1_2  and  C2_3 
REMARK    2  A    between atoms: C5_6  and  C6_7 
REMARK    3  A    between atoms: C6_7  and  C7_9 
REMARK    4  A    between atoms: C7_9  and  S1_10 
REMARK    5  A    between atoms: S1_10  and  C8_11 
ROOT
HETATM    1  C8  UNL     1       5.282  -3.008  21.029  1.00  0.00     0.146 A 
HETATM    2  N1  UNL     1       4.890  -3.634  19.898  1.00  0.00    -0.321 N 
ATOM      3  H1  UNL     1       5.330  -4.464  19.499  1.00  0.00     0.169 HD
HETATM    4  C9  UNL     1       3.814  -2.982  19.371  1.00  0.00     0.142 A 
HETATM    5  N2  UNL     1       3.054  -3.176  18.285  1.00  0.00    -0.314 N 
ATOM      6  H2  UNL     1       3.263  -3.962  17.670  1.00  0.00     0.170 HD
HETATM    7  C10 UNL     1       2.014  -2.361  17.978  1.00  0.00     0.196 A 
HETATM    8  N3  UNL     1       1.221  -2.589  16.819  1.00  0.00    -0.063 NA
HETATM    9  N4  UNL     1       1.745  -1.323  18.796  1.00  0.00    -0.295 N 
ATOM     10  H4  UNL     1       0.966  -0.701  18.578  1.00  0.00     0.171 HD
HETATM   11  C11 UNL     1       2.483  -1.096  19.892  1.00  0.00     0.278 A 
HETATM   12  O3  UNL     1       2.228  -0.113  20.669  1.00  0.00    -0.265 OA
HETATM   13  C12 UNL     1       3.533  -1.923  20.199  1.00  0.00     0.147 A 
HETATM   14  N5  UNL     1       4.447  -1.969  21.198  1.00  0.00    -0.329 N 
ATOM     15  H5  UNL     1       4.494  -1.308  21.972  1.00  0.00     0.168 HD
ENDROOT
BRANCH   1  16
HETATM   16  S1  UNL     1       6.661  -3.487  22.093  1.00  0.00    -0.086 SA
BRANCH  16  17
HETATM   17  C7  UNL     1       6.152  -3.210  23.800  1.00  0.00     0.166 C 
BRANCH  17  18
HETATM   18  C6  UNL     1       6.109  -1.786  24.158  1.00  0.00     0.169 C 
HETATM   19  O2  UNL     1       5.090  -1.111  23.937  1.00  0.00    -0.291 OA
BRANCH  18  20
HETATM   20  C5  UNL     1       7.261  -1.164  24.775  1.00  0.00     0.011 A 
HETATM   21  C4  UNL     1       7.499  -1.306  26.138  1.00  0.00     0.018 A 
HETATM   22  C3  UNL     1       8.597  -0.709  26.705  1.00  0.00     0.037 A 
HETATM   23  C2  UNL     1       9.496   0.042  25.978  1.00  0.00     0.068 A 
HETATM   24  C14 UNL     1       9.234   0.164  24.635  1.00  0.00     0.037 A 
HETATM   25  C13 UNL     1       8.160  -0.408  24.024  1.00  0.00     0.018 A 
BRANCH  23  26
HETATM   26  O1  UNL     1      10.597   0.630  26.598  1.00  0.00    -0.356 OA
HETATM   27  C1  UNL     1      11.756   0.994  25.884  1.00  0.00     0.210 C 
ENDBRANCH  23  26
ENDBRANCH  18  20
ENDBRANCH  17  18
ENDBRANCH  16  17
ENDBRANCH   1  16
TORSDOF 5
ENDMDL
