MODEL 3
REMARK VINA RESULT: -8.592788783      1.706      2.102
REMARK  7 active torsions:
REMARK  status: ('A' for Active; 'I' for Inactive)
REMARK    1  A    between atoms: N1_1  and  S1_4 
REMARK    2  A    between atoms: S1_4  and  C1_7 
REMARK    3  A    between atoms: C4_10  and  C5_11 
REMARK    4  A    between atoms: C5_11  and  C6_12 
REMARK    5  A    between atoms: C6_12  and  S2_13 
REMARK    6  A    between atoms: S2_13  and  C7_14 
REMARK    7  A    between atoms: C9_20  and  N4_21 
ROOT
HETATM    1  C7  UNL     1      72.396  -1.265 104.214  1.00  0.00     0.146 A 
HETATM    2  N2  UNL     1      73.306  -0.979 105.163  1.00  0.00    -0.320 N 
ATOM      3  H2  UNL     1      73.252  -1.303 106.129  1.00  0.00     0.169 HD
HETATM    4  C8  UNL     1      74.300  -0.207 104.670  1.00  0.00     0.155 A 
HETATM    5  N3  UNL     1      75.414   0.336 105.192  1.00  0.00    -0.174 N 
ATOM      6  H3  UNL     1      75.651   0.191 106.173  1.00  0.00     0.186 HD
HETATM    7  C9  UNL     1      76.201   1.067 104.401  1.00  0.00     0.680 A 
HETATM    8  N5  UNL     1      75.916   1.282 103.092  1.00  0.00    -0.154 N 
ATOM      9  H5  UNL     1      76.537   1.847 102.511  1.00  0.00     0.187 HD
HETATM   10  C10 UNL     1      74.819   0.747 102.581  1.00  0.00     0.290 A 
HETATM   11  O3  UNL     1      74.528   0.931 101.358  1.00  0.00    -0.265 OA
HETATM   12  C11 UNL     1      73.957  -0.018 103.325  1.00  0.00     0.148 A 
HETATM   13  N6  UNL     1      72.809  -0.669 103.093  1.00  0.00    -0.329 N 
ATOM     14  H6  UNL     1      72.324  -0.704 102.196  1.00  0.00     0.168 HD
ENDROOT
BRANCH   1  15
HETATM   15  S2  UNL     1      70.925  -2.271 104.500  1.00  0.00    -0.093 SA
BRANCH  15  16
HETATM   16  C6  UNL     1      69.730  -2.019 103.151  1.00  0.00     0.087 C 
BRANCH  16  17
HETATM   17  C5  UNL     1      70.286  -2.713 101.927  1.00  0.00     0.049 C 
BRANCH  17  18
HETATM   18  C4  UNL     1      69.368  -2.625 100.773  1.00  0.00    -0.057 A 
HETATM   19  C3  UNL     1      69.439  -3.489  99.721  1.00  0.00     0.009 A 
HETATM   20  C2  UNL     1      68.551  -3.362  98.660  1.00  0.00     0.026 A 
HETATM   21  C1  UNL     1      67.593  -2.381  98.640  1.00  0.00     0.079 A 
HETATM   22  C13 UNL     1      67.515  -1.498  99.705  1.00  0.00     0.026 A 
HETATM   23  C12 UNL     1      68.413  -1.635 100.767  1.00  0.00     0.009 A 
BRANCH  21  24
HETATM   24  S1  UNL     1      66.463  -2.225  97.295  1.00  0.00     0.256 S 
HETATM   25  O1  UNL     1      66.658  -0.907  96.576  1.00  0.00    -0.201 OA
HETATM   26  O2  UNL     1      65.056  -2.309  97.813  1.00  0.00    -0.201 OA
BRANCH  24  27
HETATM   27  N1  UNL     1      66.688  -3.480  96.149  1.00  0.00    -0.324 N 
ATOM     28  H12 UNL     1      66.812  -3.348  95.145  1.00  0.00     0.169 HD
ATOM     29  H11 UNL     1      66.674  -4.366  96.654  1.00  0.00     0.169 HD
ENDBRANCH  24  27
ENDBRANCH  21  24
ENDBRANCH  17  18
ENDBRANCH  16  17
ENDBRANCH  15  16
ENDBRANCH   1  15
BRANCH   7  30
HETATM   30  N4  UNL     1      77.274   1.602 104.868  1.00  0.00    -0.234 N 
ATOM     31  H42 UNL     1      77.580   1.305 105.795  1.00  0.00     0.174 HD
ATOM     32  H41 UNL     1      77.787   2.292 104.318  1.00  0.00     0.174 HD
ENDBRANCH   7  30
TORSDOF 7
ENDMDL
