MODEL 6
REMARK VINA RESULT: -8.463756060      4.054      4.989
REMARK  7 active torsions:
REMARK  status: ('A' for Active; 'I' for Inactive)
REMARK    1  A    between atoms: N1_1  and  S1_4 
REMARK    2  A    between atoms: S1_4  and  C1_7 
REMARK    3  A    between atoms: C4_10  and  C5_11 
REMARK    4  A    between atoms: C5_11  and  C6_12 
REMARK    5  A    between atoms: C6_12  and  S2_13 
REMARK    6  A    between atoms: S2_13  and  C7_14 
REMARK    7  A    between atoms: C9_20  and  N4_21 
ROOT
HETATM    1  C7  UNL     1      70.324  -3.675 104.457  1.00  0.00     0.146 A 
HETATM    2  N2  UNL     1      70.206  -2.623 105.288  1.00  0.00    -0.320 N 
ATOM      3  H2  UNL     1      69.959  -1.679 104.991  1.00  0.00     0.169 HD
HETATM    4  C8  UNL     1      70.459  -2.980 106.566  1.00  0.00     0.155 A 
HETATM    5  N3  UNL     1      70.475  -2.323 107.739  1.00  0.00    -0.174 N 
ATOM      6  H3  UNL     1      70.263  -1.326 107.779  1.00  0.00     0.186 HD
HETATM    7  C9  UNL     1      70.774  -3.000 108.849  1.00  0.00     0.680 A 
HETATM    8  N5  UNL     1      71.064  -4.326 108.835  1.00  0.00    -0.154 N 
ATOM      9  H5  UNL     1      71.289  -4.818 109.700  1.00  0.00     0.187 HD
HETATM   10  C10 UNL     1      71.047  -4.970 107.679  1.00  0.00     0.290 A 
HETATM   11  O3  UNL     1      71.313  -6.212 107.636  1.00  0.00    -0.265 OA
HETATM   12  C11 UNL     1      70.749  -4.349 106.493  1.00  0.00     0.148 A 
HETATM   13  N6  UNL     1      70.657  -4.725 105.210  1.00  0.00    -0.329 N 
ATOM     14  H6  UNL     1      70.817  -5.671 104.862  1.00  0.00     0.168 HD
ENDROOT
BRANCH   1  15
HETATM   15  S2  UNL     1      70.065  -3.583 102.673  1.00  0.00    -0.093 SA
BRANCH  15  16
HETATM   16  C6  UNL     1      70.060  -1.845 102.135  1.00  0.00     0.087 C 
BRANCH  16  17
HETATM   17  C5  UNL     1      68.659  -1.314 102.351  1.00  0.00     0.049 C 
BRANCH  17  18
HETATM   18  C4  UNL     1      68.092  -0.724 101.122  1.00  0.00    -0.057 A 
HETATM   19  C3  UNL     1      68.220   0.601 100.827  1.00  0.00     0.009 A 
HETATM   20  C2  UNL     1      67.667   1.106  99.656  1.00  0.00     0.026 A 
HETATM   21  C1  UNL     1      66.988   0.300  98.778  1.00  0.00     0.079 A 
HETATM   22  C13 UNL     1      66.852  -1.047  99.072  1.00  0.00     0.026 A 
HETATM   23  C12 UNL     1      67.413  -1.545 100.251  1.00  0.00     0.009 A 
BRANCH  21  24
HETATM   24  S1  UNL     1      66.292   0.941  97.290  1.00  0.00     0.256 S 
HETATM   25  O1  UNL     1      65.237   0.004  96.740  1.00  0.00    -0.201 OA
HETATM   26  O2  UNL     1      67.377   1.125  96.269  1.00  0.00    -0.201 OA
BRANCH  24  27
HETATM   27  N1  UNL     1      65.546   2.461  97.560  1.00  0.00    -0.324 N 
ATOM     28  H12 UNL     1      64.695   2.614  98.101  1.00  0.00     0.169 HD
ATOM     29  H11 UNL     1      66.107   3.169  97.084  1.00  0.00     0.169 HD
ENDBRANCH  24  27
ENDBRANCH  21  24
ENDBRANCH  17  18
ENDBRANCH  16  17
ENDBRANCH  15  16
ENDBRANCH   1  15
BRANCH   7  30
HETATM   30  N4  UNL     1      70.799  -2.402 109.988  1.00  0.00    -0.234 N 
ATOM     31  H42 UNL     1      69.917  -2.325 110.495  1.00  0.00     0.174 HD
ATOM     32  H41 UNL     1      71.674  -2.028 110.355  1.00  0.00     0.174 HD
ENDBRANCH   7  30
TORSDOF 7
ENDMDL
