MODEL 2
REMARK VINA RESULT: -8.879734832      1.258      1.742
REMARK  7 active torsions:
REMARK  status: ('A' for Active; 'I' for Inactive)
REMARK    1  A    between atoms: N1_1  and  S1_4 
REMARK    2  A    between atoms: S1_4  and  C1_7 
REMARK    3  A    between atoms: C4_10  and  C5_11 
REMARK    4  A    between atoms: C5_11  and  C6_12 
REMARK    5  A    between atoms: C6_12  and  S2_13 
REMARK    6  A    between atoms: S2_13  and  C7_14 
REMARK    7  A    between atoms: C9_20  and  N4_21 
ROOT
HETATM    1  C7  UNL     1      71.711  -1.638 103.939  1.00  0.00     0.146 A 
HETATM    2  N2  UNL     1      72.130  -1.137 102.762  1.00  0.00    -0.320 N 
ATOM      3  H2  UNL     1      71.647  -1.270 101.875  1.00  0.00     0.169 HD
HETATM    4  C8  UNL     1      73.276  -0.436 102.911  1.00  0.00     0.155 A 
HETATM    5  N3  UNL     1      74.078   0.241 102.070  1.00  0.00    -0.174 N 
ATOM      6  H3  UNL     1      73.859   0.298 101.076  1.00  0.00     0.186 HD
HETATM    7  C9  UNL     1      75.166   0.837 102.563  1.00  0.00     0.680 A 
HETATM    8  N5  UNL     1      75.490   0.782 103.880  1.00  0.00    -0.154 N 
ATOM      9  H5  UNL     1      76.329   1.247 104.228  1.00  0.00     0.187 HD
HETATM   10  C10 UNL     1      74.700   0.114 104.704  1.00  0.00     0.290 A 
HETATM   11  O3  UNL     1      74.978   0.047 105.943  1.00  0.00    -0.265 OA
HETATM   12  C11 UNL     1      73.562  -0.526 104.280  1.00  0.00     0.148 A 
HETATM   13  N6  UNL     1      72.599  -1.255 104.859  1.00  0.00    -0.329 N 
ATOM     14  H6  UNL     1      72.551  -1.482 105.852  1.00  0.00     0.168 HD
ENDROOT
BRANCH   1  15
HETATM   15  S2  UNL     1      70.218  -2.634 104.135  1.00  0.00    -0.093 SA
BRANCH  15  16
HETATM   16  C6  UNL     1      69.197  -2.524 102.633  1.00  0.00     0.087 C 
BRANCH  16  17
HETATM   17  C5  UNL     1      68.462  -1.203 102.688  1.00  0.00     0.049 C 
BRANCH  17  18
HETATM   18  C4  UNL     1      68.011  -0.761 101.354  1.00  0.00    -0.057 A 
HETATM   19  C3  UNL     1      67.814  -1.636 100.327  1.00  0.00     0.009 A 
HETATM   20  C2  UNL     1      67.388  -1.168  99.090  1.00  0.00     0.026 A 
HETATM   21  C1  UNL     1      67.157   0.167  98.869  1.00  0.00     0.079 A 
HETATM   22  C13 UNL     1      67.355   1.062  99.907  1.00  0.00     0.026 A 
HETATM   23  C12 UNL     1      67.783   0.580 101.147  1.00  0.00     0.009 A 
BRANCH  21  24
HETATM   24  S1  UNL     1      66.611   0.759  97.300  1.00  0.00     0.256 S 
HETATM   25  O1  UNL     1      65.816  -0.303  96.570  1.00  0.00    -0.201 OA
HETATM   26  O2  UNL     1      67.801   1.150  96.472  1.00  0.00    -0.201 OA
BRANCH  24  27
HETATM   27  N1  UNL     1      65.602   2.134  97.474  1.00  0.00    -0.324 N 
ATOM     28  H12 UNL     1      64.583   2.130  97.432  1.00  0.00     0.169 HD
ATOM     29  H11 UNL     1      66.206   2.943  97.626  1.00  0.00     0.169 HD
ENDBRANCH  24  27
ENDBRANCH  21  24
ENDBRANCH  17  18
ENDBRANCH  16  17
ENDBRANCH  15  16
ENDBRANCH   1  15
BRANCH   7  30
HETATM   30  N4  UNL     1      75.955   1.493 101.788  1.00  0.00    -0.234 N 
ATOM     31  H42 UNL     1      75.539   2.216 101.200  1.00  0.00     0.174 HD
ATOM     32  H41 UNL     1      76.954   1.287 101.775  1.00  0.00     0.174 HD
ENDBRANCH   7  30
TORSDOF 7
ENDMDL
