MODEL 1
REMARK VINA RESULT: -9.728521622      0.000      0.000
REMARK  7 active torsions:
REMARK  status: ('A' for Active; 'I' for Inactive)
REMARK    1  A    between atoms: N1_1  and  S1_4 
REMARK    2  A    between atoms: S1_4  and  C1_7 
REMARK    3  A    between atoms: C4_10  and  C5_11 
REMARK    4  A    between atoms: C5_11  and  C6_12 
REMARK    5  A    between atoms: C6_12  and  S2_13 
REMARK    6  A    between atoms: S2_13  and  C7_14 
REMARK    7  A    between atoms: C9_20  and  N4_21 
ROOT
HETATM    1  C7  UNL     1      72.272  -1.222 103.862  1.00  0.00     0.146 A 
HETATM    2  N2  UNL     1      73.146  -1.000 104.861  1.00  0.00    -0.320 N 
ATOM      3  H2  UNL     1      73.054  -1.382 105.802  1.00  0.00     0.169 HD
HETATM    4  C8  UNL     1      74.160  -0.206 104.454  1.00  0.00     0.155 A 
HETATM    5  N3  UNL     1      75.255   0.298 105.050  1.00  0.00    -0.174 N 
ATOM      6  H3  UNL     1      75.455   0.093 106.029  1.00  0.00     0.186 HD
HETATM    7  C9  UNL     1      76.075   1.072 104.336  1.00  0.00     0.680 A 
HETATM    8  N5  UNL     1      75.841   1.369 103.032  1.00  0.00    -0.154 N 
ATOM      9  H5  UNL     1      76.486   1.964 102.511  1.00  0.00     0.187 HD
HETATM   10  C10 UNL     1      74.763   0.872 102.448  1.00  0.00     0.290 A 
HETATM   11  O3  UNL     1      74.519   1.132 101.228  1.00  0.00    -0.265 OA
HETATM   12  C11 UNL     1      73.870   0.068 103.111  1.00  0.00     0.148 A 
HETATM   13  N6  UNL     1      72.729  -0.562 102.796  1.00  0.00    -0.329 N 
ATOM     14  H6  UNL     1      72.279  -0.539 101.881  1.00  0.00     0.168 HD
ENDROOT
BRANCH   1  15
HETATM   15  S2  UNL     1      70.787  -2.235 104.029  1.00  0.00    -0.093 SA
BRANCH  15  16
HETATM   16  C6  UNL     1      69.880  -2.272 102.452  1.00  0.00     0.087 C 
BRANCH  16  17
HETATM   17  C5  UNL     1      68.703  -1.332 102.591  1.00  0.00     0.049 C 
BRANCH  17  18
HETATM   18  C4  UNL     1      68.209  -0.862 101.282  1.00  0.00    -0.057 A 
HETATM   19  C3  UNL     1      67.875  -1.725 100.280  1.00  0.00     0.009 A 
HETATM   20  C2  UNL     1      67.414  -1.230  99.066  1.00  0.00     0.026 A 
HETATM   21  C1  UNL     1      67.283   0.117  98.843  1.00  0.00     0.079 A 
HETATM   22  C13 UNL     1      67.621   1.000  99.856  1.00  0.00     0.026 A 
HETATM   23  C12 UNL     1      68.083   0.492 101.073  1.00  0.00     0.009 A 
BRANCH  21  24
HETATM   24  S1  UNL     1      66.693   0.743  97.304  1.00  0.00     0.256 S 
HETATM   25  O1  UNL     1      65.870  -0.300  96.577  1.00  0.00    -0.201 OA
HETATM   26  O2  UNL     1      67.858   1.145  96.447  1.00  0.00    -0.201 OA
BRANCH  24  27
HETATM   27  N1  UNL     1      65.698   2.120  97.535  1.00  0.00    -0.324 N 
ATOM     28  H12 UNL     1      64.681   2.107  97.621  1.00  0.00     0.169 HD
ATOM     29  H11 UNL     1      66.306   2.938  97.571  1.00  0.00     0.169 HD
ENDBRANCH  24  27
ENDBRANCH  21  24
ENDBRANCH  17  18
ENDBRANCH  16  17
ENDBRANCH  15  16
ENDBRANCH   1  15
BRANCH   7  30
HETATM   30  N4  UNL     1      77.131   1.571 104.875  1.00  0.00    -0.234 N 
ATOM     31  H42 UNL     1      77.619   0.999 105.565  1.00  0.00     0.174 HD
ATOM     32  H41 UNL     1      77.455   2.501 104.609  1.00  0.00     0.174 HD
ENDBRANCH   7  30
TORSDOF 7
ENDMDL
