MODEL 4
REMARK VINA RESULT: -8.523290378      4.750      6.734
REMARK  7 active torsions:
REMARK  status: ('A' for Active; 'I' for Inactive)
REMARK    1  A    between atoms: N1_1  and  S1_4 
REMARK    2  A    between atoms: S1_4  and  C1_7 
REMARK    3  A    between atoms: C4_10  and  C5_11 
REMARK    4  A    between atoms: C5_11  and  C6_12 
REMARK    5  A    between atoms: C6_12  and  S2_13 
REMARK    6  A    between atoms: S2_13  and  C7_14 
REMARK    7  A    between atoms: C9_20  and  N4_21 
ROOT
HETATM    1  C7  UNL     1      69.729  -3.789 104.527  1.00  0.00     0.146 A 
HETATM    2  N2  UNL     1      68.712  -4.378 103.871  1.00  0.00    -0.320 N 
ATOM      3  H2  UNL     1      68.357  -4.072 102.965  1.00  0.00     0.169 HD
HETATM    4  C8  UNL     1      68.224  -5.427 104.569  1.00  0.00     0.155 A 
HETATM    5  N3  UNL     1      67.239  -6.317 104.358  1.00  0.00    -0.174 N 
ATOM      6  H3  UNL     1      66.674  -6.277 103.510  1.00  0.00     0.186 HD
HETATM    7  C9  UNL     1      67.015  -7.255 105.281  1.00  0.00     0.680 A 
HETATM    8  N5  UNL     1      67.745  -7.339 106.423  1.00  0.00    -0.154 N 
ATOM      9  H5  UNL     1      67.550  -8.067 107.111  1.00  0.00     0.187 HD
HETATM   10  C10 UNL     1      68.713  -6.461 106.627  1.00  0.00     0.290 A 
HETATM   11  O3  UNL     1      69.413  -6.516 107.687  1.00  0.00    -0.265 OA
HETATM   12  C11 UNL     1      69.009  -5.466 105.729  1.00  0.00     0.148 A 
HETATM   13  N6  UNL     1      69.899  -4.467 105.663  1.00  0.00    -0.329 N 
ATOM     14  H6  UNL     1      70.600  -4.257 106.374  1.00  0.00     0.168 HD
ENDROOT
BRANCH   1  15
HETATM   15  S2  UNL     1      70.630  -2.352 103.906  1.00  0.00    -0.093 SA
BRANCH  15  16
HETATM   16  C6  UNL     1      69.992  -1.879 102.269  1.00  0.00     0.087 C 
BRANCH  16  17
HETATM   17  C5  UNL     1      68.643  -1.230 102.486  1.00  0.00     0.049 C 
BRANCH  17  18
HETATM   18  C4  UNL     1      68.092  -0.664 101.239  1.00  0.00    -0.057 A 
HETATM   19  C3  UNL     1      67.835   0.668 101.096  1.00  0.00     0.009 A 
HETATM   20  C2  UNL     1      67.316   1.148  99.901  1.00  0.00     0.026 A 
HETATM   21  C1  UNL     1      67.051   0.312  98.846  1.00  0.00     0.079 A 
HETATM   22  C13 UNL     1      67.308  -1.042  98.983  1.00  0.00     0.026 A 
HETATM   23  C12 UNL     1      67.830  -1.515 100.190  1.00  0.00     0.009 A 
BRANCH  21  24
HETATM   24  S1  UNL     1      66.397   0.925  97.327  1.00  0.00     0.256 S 
HETATM   25  O1  UNL     1      65.362  -0.026  96.762  1.00  0.00    -0.201 OA
HETATM   26  O2  UNL     1      67.512   1.095  96.336  1.00  0.00    -0.201 OA
BRANCH  24  27
HETATM   27  N1  UNL     1      65.638   2.446  97.548  1.00  0.00    -0.324 N 
ATOM     28  H12 UNL     1      65.081   2.936  96.848  1.00  0.00     0.169 HD
ATOM     29  H11 UNL     1      65.848   2.760  98.496  1.00  0.00     0.169 HD
ENDBRANCH  24  27
ENDBRANCH  21  24
ENDBRANCH  17  18
ENDBRANCH  16  17
ENDBRANCH  15  16
ENDBRANCH   1  15
BRANCH   7  30
HETATM   30  N4  UNL     1      66.081  -8.123 105.113  1.00  0.00    -0.234 N 
ATOM     31  H42 UNL     1      65.293  -7.854 104.524  1.00  0.00     0.174 HD
ATOM     32  H41 UNL     1      66.143  -9.040 105.557  1.00  0.00     0.174 HD
ENDBRANCH   7  30
TORSDOF 7
ENDMDL
