MODEL 5
REMARK VINA RESULT: -8.497047995      4.005      5.698
REMARK  7 active torsions:
REMARK  status: ('A' for Active; 'I' for Inactive)
REMARK    1  A    between atoms: N1_1  and  S1_4 
REMARK    2  A    between atoms: S1_4  and  C1_7 
REMARK    3  A    between atoms: C4_10  and  C5_11 
REMARK    4  A    between atoms: C5_11  and  C6_12 
REMARK    5  A    between atoms: C6_12  and  S2_13 
REMARK    6  A    between atoms: S2_13  and  C7_14 
REMARK    7  A    between atoms: C9_20  and  N4_21 
ROOT
HETATM    1  C7  UNL     1      70.878  -2.885 104.759  1.00  0.00     0.146 A 
HETATM    2  N2  UNL     1      70.002  -3.859 104.448  1.00  0.00    -0.320 N 
ATOM      3  H2  UNL     1      69.518  -3.934 103.554  1.00  0.00     0.169 HD
HETATM    4  C8  UNL     1      69.849  -4.723 105.475  1.00  0.00     0.155 A 
HETATM    5  N3  UNL     1      69.112  -5.832 105.667  1.00  0.00    -0.174 N 
ATOM      6  H3  UNL     1      68.498  -6.181 104.932  1.00  0.00     0.186 HD
HETATM    7  C9  UNL     1      69.201  -6.465 106.838  1.00  0.00     0.680 A 
HETATM    8  N5  UNL     1      70.006  -6.029 107.841  1.00  0.00    -0.154 N 
ATOM      9  H5  UNL     1      70.053  -6.534 108.726  1.00  0.00     0.187 HD
HETATM   10  C10 UNL     1      70.729  -4.938 107.649  1.00  0.00     0.290 A 
HETATM   11  O3  UNL     1      71.492  -4.506 108.569  1.00  0.00    -0.265 OA
HETATM   12  C11 UNL     1      70.697  -4.228 106.475  1.00  0.00     0.148 A 
HETATM   13  N6  UNL     1      71.294  -3.125 106.004  1.00  0.00    -0.329 N 
ATOM     14  H6  UNL     1      71.966  -2.556 106.519  1.00  0.00     0.168 HD
ENDROOT
BRANCH   1  15
HETATM   15  S2  UNL     1      71.335  -1.546 103.638  1.00  0.00    -0.093 SA
BRANCH  15  16
HETATM   16  C6  UNL     1      70.448  -1.728 102.060  1.00  0.00     0.087 C 
BRANCH  16  17
HETATM   17  C5  UNL     1      69.016  -1.302 102.301  1.00  0.00     0.049 C 
BRANCH  17  18
HETATM   18  C4  UNL     1      68.395  -0.730 101.090  1.00  0.00    -0.057 A 
HETATM   19  C3  UNL     1      68.217   0.613 100.931  1.00  0.00     0.009 A 
HETATM   20  C2  UNL     1      67.627   1.100  99.771  1.00  0.00     0.026 A 
HETATM   21  C1  UNL     1      67.212   0.259  98.769  1.00  0.00     0.079 A 
HETATM   22  C13 UNL     1      67.388  -1.106  98.924  1.00  0.00     0.026 A 
HETATM   23  C12 UNL     1      67.984  -1.585 100.095  1.00  0.00     0.009 A 
BRANCH  21  24
HETATM   24  S1  UNL     1      66.468   0.879  97.295  1.00  0.00     0.256 S 
HETATM   25  O1  UNL     1      65.476  -0.116  96.732  1.00  0.00    -0.201 OA
HETATM   26  O2  UNL     1      67.535   1.154  96.275  1.00  0.00    -0.201 OA
BRANCH  24  27
HETATM   27  N1  UNL     1      65.624   2.341  97.595  1.00  0.00    -0.324 N 
ATOM     28  H12 UNL     1      64.684   2.411  97.984  1.00  0.00     0.169 HD
ATOM     29  H11 UNL     1      66.232   3.111  97.316  1.00  0.00     0.169 HD
ENDBRANCH  24  27
ENDBRANCH  21  24
ENDBRANCH  17  18
ENDBRANCH  16  17
ENDBRANCH  15  16
ENDBRANCH   1  15
BRANCH   7  30
HETATM   30  N4  UNL     1      68.511  -7.529 107.056  1.00  0.00    -0.234 N 
ATOM     31  H42 UNL     1      69.009  -8.345 107.413  1.00  0.00     0.174 HD
ATOM     32  H41 UNL     1      67.507  -7.538 106.875  1.00  0.00     0.174 HD
ENDBRANCH   7  30
TORSDOF 7
ENDMDL
