MODEL 2
REMARK VINA RESULT: -8.239965317      2.421      4.637
REMARK  2 active torsions:
REMARK  status: ('A' for Active; 'I' for Inactive)
REMARK    1  A    between atoms: C3_4  and  N1_5 
REMARK    2  A    between atoms: C9_13  and  C10_14 
ROOT
HETATM    1  O1  UNL     1     -13.340   1.900   8.761  1.00  0.00    -0.287 OA
HETATM    2  C1  UNL     1     -13.976   1.808   7.701  1.00  0.00     0.195 A 
HETATM    3  C2  UNL     1     -13.668   0.932   6.690  1.00  0.00     0.112 A 
HETATM    4  C3  UNL     1     -14.532   1.006   5.577  1.00  0.00     0.150 A 
HETATM    5  O3  UNL     1     -15.522   1.812   5.500  1.00  0.00    -0.291 OA
HETATM    6  C8  UNL     1     -15.880   2.696   6.452  1.00  0.00     0.110 A 
HETATM    7  C9  UNL     1     -16.911   3.584   6.451  1.00  0.00     0.016 A 
HETATM    8  C18 UNL     1     -17.038   4.375   7.566  1.00  0.00     0.065 A 
HETATM    9  S1  UNL     1     -15.761   3.877   8.560  1.00  0.00    -0.094 SA
HETATM   10  C19 UNL     1     -15.080   2.674   7.555  1.00  0.00     0.089 A 
ENDROOT
BRANCH   7  11
HETATM   11  C10 UNL     1     -17.908   3.695   5.344  1.00  0.00    -0.020 A 
HETATM   12  C11 UNL     1     -19.243   3.842   5.534  1.00  0.00     0.015 A 
HETATM   13  C12 UNL     1     -20.112   3.928   4.459  1.00  0.00     0.040 A 
HETATM   14  C13 UNL     1     -19.648   3.866   3.149  1.00  0.00     0.102 A 
HETATM   15  C14 UNL     1     -18.295   3.716   2.953  1.00  0.00     0.102 A 
HETATM   16  O5  UNL     1     -20.444   3.941   2.028  1.00  0.00    -0.346 OA
HETATM   17  C15 UNL     1     -17.443   3.633   4.029  1.00  0.00     0.052 A 
HETATM   18  O4  UNL     1     -17.870   3.656   1.630  1.00  0.00    -0.346 OA
HETATM   19  C16 UNL     1     -18.659   3.070   0.612  1.00  0.00     0.202 C 
HETATM   20  C17 UNL     1     -20.131   3.141   0.874  1.00  0.00     0.202 C 
ENDBRANCH   7  11
BRANCH   4  21
HETATM   21  N1  UNL     1     -14.165   0.079   4.561  1.00  0.00    -0.357 N 
HETATM   22  C4  UNL     1     -12.823  -0.518   4.491  1.00  0.00     0.151 C 
HETATM   23  C5  UNL     1     -13.004  -1.971   4.072  1.00  0.00     0.187 C 
HETATM   24  O2  UNL     1     -14.282  -2.367   4.468  1.00  0.00    -0.388 OA
HETATM   25  C6  UNL     1     -15.174  -1.858   3.489  1.00  0.00     0.187 C 
HETATM   26  C7  UNL     1     -15.134  -0.331   3.544  1.00  0.00     0.151 C 
ENDBRANCH   4  21
TORSDOF 2
ENDMDL
