MODEL 3
REMARK VINA RESULT: -8.212372072      2.692      5.880
REMARK  2 active torsions:
REMARK  status: ('A' for Active; 'I' for Inactive)
REMARK    1  A    between atoms: C3_4  and  N1_5 
REMARK    2  A    between atoms: C9_13  and  C10_14 
ROOT
HETATM    1  O1  UNL     1     -18.912   4.359   4.277  1.00  0.00    -0.287 OA
HETATM    2  C1  UNL     1     -18.000   3.774   4.876  1.00  0.00     0.195 A 
HETATM    3  C2  UNL     1     -17.658   4.013   6.184  1.00  0.00     0.112 A 
HETATM    4  C3  UNL     1     -16.586   3.226   6.655  1.00  0.00     0.150 A 
HETATM    5  O3  UNL     1     -15.975   2.359   5.941  1.00  0.00    -0.291 OA
HETATM    6  C8  UNL     1     -16.257   2.075   4.654  1.00  0.00     0.110 A 
HETATM    7  C9  UNL     1     -15.661   1.174   3.826  1.00  0.00     0.016 A 
HETATM    8  C18 UNL     1     -16.156   1.097   2.549  1.00  0.00     0.065 A 
HETATM    9  S1  UNL     1     -17.404   2.241   2.531  1.00  0.00    -0.094 SA
HETATM   10  C19 UNL     1     -17.286   2.805   4.140  1.00  0.00     0.089 A 
ENDROOT
BRANCH   7  11
HETATM   11  C10 UNL     1     -14.558   0.260   4.253  1.00  0.00    -0.020 A 
HETATM   12  C11 UNL     1     -13.512   0.641   5.028  1.00  0.00     0.015 A 
HETATM   13  C12 UNL     1     -12.518  -0.259   5.377  1.00  0.00     0.040 A 
HETATM   14  C13 UNL     1     -12.557  -1.580   4.947  1.00  0.00     0.102 A 
HETATM   15  C14 UNL     1     -13.617  -1.969   4.160  1.00  0.00     0.102 A 
HETATM   16  O5  UNL     1     -11.611  -2.534   5.247  1.00  0.00    -0.346 OA
HETATM   17  C15 UNL     1     -14.597  -1.066   3.822  1.00  0.00     0.052 A 
HETATM   18  O4  UNL     1     -13.619  -3.298   3.747  1.00  0.00    -0.346 OA
HETATM   19  C16 UNL     1     -12.423  -4.004   3.478  1.00  0.00     0.202 C 
HETATM   20  C17 UNL     1     -11.244  -3.514   4.259  1.00  0.00     0.202 C 
ENDBRANCH   7  11
BRANCH   4  21
HETATM   21  N1  UNL     1     -16.274   3.517   8.014  1.00  0.00    -0.357 N 
HETATM   22  C4  UNL     1     -15.592   2.549   8.886  1.00  0.00     0.151 C 
HETATM   23  C5  UNL     1     -14.617   3.340   9.749  1.00  0.00     0.187 C 
HETATM   24  O2  UNL     1     -14.286   4.502   9.052  1.00  0.00    -0.388 OA
HETATM   25  C6  UNL     1     -15.363   5.403   9.252  1.00  0.00     0.187 C 
HETATM   26  C7  UNL     1     -16.611   4.818   8.591  1.00  0.00     0.151 C 
ENDBRANCH   4  21
TORSDOF 2
ENDMDL
