MODEL 4
REMARK VINA RESULT: -7.975268564      1.307      1.690
REMARK  2 active torsions:
REMARK  status: ('A' for Active; 'I' for Inactive)
REMARK    1  A    between atoms: C3_4  and  N1_5 
REMARK    2  A    between atoms: C9_13  and  C10_14 
ROOT
HETATM    1  O1  UNL     1     -11.020  -0.117   6.929  1.00  0.00    -0.287 OA
HETATM    2  C1  UNL     1     -11.885   0.769   6.912  1.00  0.00     0.195 A 
HETATM    3  C2  UNL     1     -11.868   1.880   7.718  1.00  0.00     0.112 A 
HETATM    4  C3  UNL     1     -12.959   2.753   7.523  1.00  0.00     0.150 A 
HETATM    5  O3  UNL     1     -13.892   2.544   6.673  1.00  0.00    -0.291 OA
HETATM    6  C8  UNL     1     -13.971   1.477   5.854  1.00  0.00     0.110 A 
HETATM    7  C9  UNL     1     -14.923   1.179   4.927  1.00  0.00     0.016 A 
HETATM    8  C18 UNL     1     -14.751   0.010   4.230  1.00  0.00     0.065 A 
HETATM    9  S1  UNL     1     -13.312  -0.627   4.857  1.00  0.00    -0.094 SA
HETATM   10  C19 UNL     1     -12.944   0.594   5.996  1.00  0.00     0.089 A 
ENDROOT
BRANCH   7  11
HETATM   11  C10 UNL     1     -16.081   2.068   4.614  1.00  0.00    -0.020 A 
HETATM   12  C11 UNL     1     -16.775   2.771   5.545  1.00  0.00     0.015 A 
HETATM   13  C12 UNL     1     -17.847   3.570   5.183  1.00  0.00     0.040 A 
HETATM   14  C13 UNL     1     -18.250   3.680   3.856  1.00  0.00     0.102 A 
HETATM   15  C14 UNL     1     -17.549   2.969   2.911  1.00  0.00     0.102 A 
HETATM   16  O5  UNL     1     -19.303   4.449   3.415  1.00  0.00    -0.346 OA
HETATM   17  C15 UNL     1     -16.486   2.180   3.283  1.00  0.00     0.052 A 
HETATM   18  O4  UNL     1     -17.984   3.103   1.596  1.00  0.00    -0.346 OA
HETATM   19  C16 UNL     1     -19.347   3.290   1.270  1.00  0.00     0.202 C 
HETATM   20  C17 UNL     1     -20.136   3.973   2.342  1.00  0.00     0.202 C 
ENDBRANCH   7  11
BRANCH   4  21
HETATM   21  N1  UNL     1     -12.891   3.885   8.385  1.00  0.00    -0.357 N 
HETATM   22  C4  UNL     1     -11.615   4.520   8.745  1.00  0.00     0.151 C 
HETATM   23  C5  UNL     1     -11.859   6.023   8.771  1.00  0.00     0.187 C 
HETATM   24  O2  UNL     1     -12.932   6.290   7.920  1.00  0.00    -0.388 OA
HETATM   25  C6  UNL     1     -14.105   5.976   8.653  1.00  0.00     0.187 C 
HETATM   26  C7  UNL     1     -14.112   4.474   8.935  1.00  0.00     0.151 C 
ENDBRANCH   4  21
TORSDOF 2
ENDMDL
