MODEL 18
REMARK VINA RESULT: -7.283284255      3.020      5.925
REMARK  2 active torsions:
REMARK  status: ('A' for Active; 'I' for Inactive)
REMARK    1  A    between atoms: C3_4  and  N1_5 
REMARK    2  A    between atoms: C9_13  and  C10_14 
ROOT
HETATM    1  O1  UNL     1     -18.033   4.362   5.094  1.00  0.00    -0.287 OA
HETATM    2  C1  UNL     1     -17.201   3.571   5.558  1.00  0.00     0.195 A 
HETATM    3  C2  UNL     1     -16.754   3.594   6.856  1.00  0.00     0.112 A 
HETATM    4  C3  UNL     1     -15.805   2.595   7.159  1.00  0.00     0.150 A 
HETATM    5  O3  UNL     1     -15.387   1.733   6.312  1.00  0.00    -0.291 OA
HETATM    6  C8  UNL     1     -15.782   1.654   5.026  1.00  0.00     0.110 A 
HETATM    7  C9  UNL     1     -15.390   0.774   4.063  1.00  0.00     0.016 A 
HETATM    8  C18 UNL     1     -15.959   0.931   2.825  1.00  0.00     0.065 A 
HETATM    9  S1  UNL     1     -16.997   2.254   3.022  1.00  0.00    -0.094 SA
HETATM   10  C19 UNL     1     -16.699   2.596   4.670  1.00  0.00     0.089 A 
ENDROOT
BRANCH   7  11
HETATM   11  C10 UNL     1     -14.435  -0.348   4.307  1.00  0.00    -0.020 A 
HETATM   12  C11 UNL     1     -13.131  -0.179   4.641  1.00  0.00     0.015 A 
HETATM   13  C12 UNL     1     -12.298  -1.267   4.842  1.00  0.00     0.040 A 
HETATM   14  C13 UNL     1     -12.768  -2.569   4.708  1.00  0.00     0.102 A 
HETATM   15  C14 UNL     1     -14.089  -2.745   4.368  1.00  0.00     0.102 A 
HETATM   16  O5  UNL     1     -12.007  -3.703   4.888  1.00  0.00    -0.346 OA
HETATM   17  C15 UNL     1     -14.905  -1.655   4.172  1.00  0.00     0.052 A 
HETATM   18  O4  UNL     1     -14.520  -4.061   4.240  1.00  0.00    -0.346 OA
HETATM   19  C16 UNL     1     -13.671  -5.088   3.766  1.00  0.00     0.202 C 
HETATM   20  C17 UNL     1     -12.221  -4.850   4.045  1.00  0.00     0.202 C 
ENDBRANCH   7  11
BRANCH   4  21
HETATM   21  N1  UNL     1     -15.376   2.668   8.515  1.00  0.00    -0.357 N 
HETATM   22  C4  UNL     1     -14.329   1.787   9.054  1.00  0.00     0.151 C 
HETATM   23  C5  UNL     1     -13.484   2.629  10.000  1.00  0.00     0.187 C 
HETATM   24  O2  UNL     1     -13.593   3.959   9.591  1.00  0.00    -0.388 OA
HETATM   25  C6  UNL     1     -14.830   4.429  10.102  1.00  0.00     0.187 C 
HETATM   26  C7  UNL     1     -15.959   3.651   9.427  1.00  0.00     0.151 C 
ENDBRANCH   4  21
TORSDOF 2
ENDMDL
