MODEL 1
REMARK VINA RESULT: -8.240317171      0.000      0.000
REMARK  2 active torsions:
REMARK  status: ('A' for Active; 'I' for Inactive)
REMARK    1  A    between atoms: C3_4  and  N1_5 
REMARK    2  A    between atoms: C9_13  and  C10_14 
ROOT
HETATM    1  O1  UNL     1     -11.701   0.797   6.904  1.00  0.00    -0.287 OA
HETATM    2  C1  UNL     1     -12.696   1.519   6.751  1.00  0.00     0.195 A 
HETATM    3  C2  UNL     1     -12.938   2.663   7.470  1.00  0.00     0.112 A 
HETATM    4  C3  UNL     1     -14.136   3.322   7.122  1.00  0.00     0.150 A 
HETATM    5  O3  UNL     1     -14.939   2.905   6.218  1.00  0.00    -0.291 OA
HETATM    6  C8  UNL     1     -14.764   1.793   5.478  1.00  0.00     0.110 A 
HETATM    7  C9  UNL     1     -15.563   1.280   4.502  1.00  0.00     0.016 A 
HETATM    8  C18 UNL     1     -15.136   0.118   3.911  1.00  0.00     0.065 A 
HETATM    9  S1  UNL     1     -13.676  -0.223   4.699  1.00  0.00    -0.094 SA
HETATM   10  C19 UNL     1     -13.622   1.109   5.768  1.00  0.00     0.089 A 
ENDROOT
BRANCH   7  11
HETATM   11  C10 UNL     1     -16.819   1.936   4.030  1.00  0.00    -0.020 A 
HETATM   12  C11 UNL     1     -17.915   2.129   4.806  1.00  0.00     0.015 A 
HETATM   13  C12 UNL     1     -19.051   2.737   4.299  1.00  0.00     0.040 A 
HETATM   14  C13 UNL     1     -19.109   3.170   2.978  1.00  0.00     0.102 A 
HETATM   15  C14 UNL     1     -18.000   2.976   2.189  1.00  0.00     0.102 A 
HETATM   16  O5  UNL     1     -20.198   3.780   2.397  1.00  0.00    -0.346 OA
HETATM   17  C15 UNL     1     -16.878   2.372   2.705  1.00  0.00     0.052 A 
HETATM   18  O4  UNL     1     -18.098   3.420   0.874  1.00  0.00    -0.346 OA
HETATM   19  C16 UNL     1     -19.317   3.388   0.157  1.00  0.00     0.202 C 
HETATM   20  C17 UNL     1     -20.530   3.497   1.026  1.00  0.00     0.202 C 
ENDBRANCH   7  11
BRANCH   4  21
HETATM   21  N1  UNL     1     -14.337   4.499   7.899  1.00  0.00    -0.357 N 
HETATM   22  C4  UNL     1     -15.673   4.933   8.333  1.00  0.00     0.151 C 
HETATM   23  C5  UNL     1     -15.525   5.474   9.749  1.00  0.00     0.187 C 
HETATM   24  O2  UNL     1     -14.412   4.858  10.321  1.00  0.00    -0.388 OA
HETATM   25  C6  UNL     1     -13.278   5.548   9.821  1.00  0.00     0.187 C 
HETATM   26  C7  UNL     1     -13.198   5.319   8.312  1.00  0.00     0.151 C 
ENDBRANCH   4  21
TORSDOF 2
ENDMDL
