MODEL 7
REMARK VINA RESULT: -7.854392336      2.342      6.043
REMARK  2 active torsions:
REMARK  status: ('A' for Active; 'I' for Inactive)
REMARK    1  A    between atoms: C3_4  and  N1_5 
REMARK    2  A    between atoms: C9_13  and  C10_14 
ROOT
HETATM    1  O1  UNL     1     -18.826   4.424   4.215  1.00  0.00    -0.287 OA
HETATM    2  C1  UNL     1     -17.942   3.812   4.830  1.00  0.00     0.195 A 
HETATM    3  C2  UNL     1     -17.616   4.043   6.144  1.00  0.00     0.112 A 
HETATM    4  C3  UNL     1     -16.576   3.224   6.634  1.00  0.00     0.150 A 
HETATM    5  O3  UNL     1     -15.979   2.338   5.931  1.00  0.00    -0.291 OA
HETATM    6  C8  UNL     1     -16.248   2.061   4.640  1.00  0.00     0.110 A 
HETATM    7  C9  UNL     1     -15.665   1.141   3.824  1.00  0.00     0.016 A 
HETATM    8  C18 UNL     1     -16.141   1.076   2.538  1.00  0.00     0.065 A 
HETATM    9  S1  UNL     1     -17.353   2.258   2.497  1.00  0.00    -0.094 SA
HETATM   10  C19 UNL     1     -17.245   2.821   4.107  1.00  0.00     0.089 A 
ENDROOT
BRANCH   7  11
HETATM   11  C10 UNL     1     -14.598   0.195   4.270  1.00  0.00    -0.020 A 
HETATM   12  C11 UNL     1     -14.499  -1.092   3.852  1.00  0.00     0.015 A 
HETATM   13  C12 UNL     1     -13.488  -1.917   4.316  1.00  0.00     0.040 A 
HETATM   14  C13 UNL     1     -12.541  -1.457   5.224  1.00  0.00     0.102 A 
HETATM   15  C14 UNL     1     -12.639  -0.153   5.650  1.00  0.00     0.102 A 
HETATM   16  O5  UNL     1     -11.508  -2.211   5.735  1.00  0.00    -0.346 OA
HETATM   17  C15 UNL     1     -13.647   0.656   5.181  1.00  0.00     0.052 A 
HETATM   18  O4  UNL     1     -11.675   0.270   6.561  1.00  0.00    -0.346 OA
HETATM   19  C16 UNL     1     -11.119  -0.602   7.526  1.00  0.00     0.202 C 
HETATM   20  C17 UNL     1     -11.105  -2.038   7.105  1.00  0.00     0.202 C 
ENDBRANCH   7  11
BRANCH   4  21
HETATM   21  N1  UNL     1     -16.279   3.508   7.997  1.00  0.00    -0.357 N 
HETATM   22  C4  UNL     1     -15.585   2.545   8.865  1.00  0.00     0.151 C 
HETATM   23  C5  UNL     1     -14.631   3.344   9.742  1.00  0.00     0.187 C 
HETATM   24  O2  UNL     1     -14.315   4.519   9.059  1.00  0.00    -0.388 OA
HETATM   25  C6  UNL     1     -15.410   5.398   9.259  1.00  0.00     0.187 C 
HETATM   26  C7  UNL     1     -16.643   4.797   8.585  1.00  0.00     0.151 C 
ENDBRANCH   4  21
TORSDOF 2
ENDMDL
