MODEL 3
REMARK VINA RESULT: -7.568758258      0.185      1.966
REMARK  5 active torsions:
REMARK  status: ('A' for Active; 'I' for Inactive)
REMARK    1  A    between atoms: O1_1  and  C1_3 
REMARK    2  A    between atoms: C3_5  and  O2_6 
REMARK    3  A    between atoms: C5_9  and  C6_10 
REMARK    4  A    between atoms: C7_11  and  C8_12 
REMARK    5  A    between atoms: C11_15  and  O3_16 
ROOT
HETATM    1  C6  UNL     1      43.636  75.151  42.433  1.00  0.00     0.012 C 
HETATM    2  C7  UNL     1      44.447  76.145  42.654  1.00  0.00     0.014 C 
ENDROOT
BRANCH   1   3
HETATM    3  C5  UNL     1      43.930  73.808  42.875  1.00  0.00    -0.031 A 
HETATM    4  C4  UNL     1      44.215  73.505  44.170  1.00  0.00     0.048 A 
HETATM    5  C3  UNL     1      44.493  72.175  44.533  1.00  0.00     0.069 A 
HETATM    6  C2  UNL     1      44.475  71.184  43.575  1.00  0.00     0.073 A 
HETATM    7  C1  UNL     1      44.186  71.500  42.266  1.00  0.00     0.069 A 
HETATM    8  C14 UNL     1      43.917  72.803  41.933  1.00  0.00     0.048 A 
BRANCH   5   9
HETATM    9  O2  UNL     1      44.774  71.929  45.862  1.00  0.00    -0.361 OA
ATOM     10  H2  UNL     1      45.613  72.133  46.258  1.00  0.00     0.217 HD
ENDBRANCH   5   9
BRANCH   7  11
HETATM   11  O1  UNL     1      44.164  70.500  41.276  1.00  0.00    -0.361 OA
ATOM     12  H1  UNL     1      44.209  70.730  40.355  1.00  0.00     0.217 HD
ENDBRANCH   7  11
ENDBRANCH   1   3
BRANCH   2  13
HETATM   13  C8  UNL     1      44.161  77.531  42.206  1.00  0.00    -0.014 A 
HETATM   14  C9  UNL     1      43.224  77.806  41.243  1.00  0.00     0.016 A 
HETATM   15  C10 UNL     1      42.973  79.126  40.841  1.00  0.00     0.037 A 
HETATM   16  C11 UNL     1      43.685  80.148  41.427  1.00  0.00     0.067 A 
HETATM   17  C12 UNL     1      44.627  79.889  42.393  1.00  0.00     0.061 A 
HETATM   18  C13 UNL     1      44.857  78.589  42.773  1.00  0.00     0.046 A 
HETATM   19 CL1  UNL     1      46.050  78.215  44.003  1.00  0.00    -0.083 Cl
BRANCH  16  20
HETATM   20  O3  UNL     1      43.441  81.475  41.029  1.00  0.00    -0.361 OA
ATOM     21  H3  UNL     1      42.790  81.988  41.493  1.00  0.00     0.217 HD
ENDBRANCH  16  20
ENDBRANCH   2  13
TORSDOF 5
ENDMDL
