MODEL 2
REMARK VINA RESULT: -7.597231958      1.897      2.999
REMARK  5 active torsions:
REMARK  status: ('A' for Active; 'I' for Inactive)
REMARK    1  A    between atoms: O1_1  and  C1_3 
REMARK    2  A    between atoms: C3_5  and  O2_6 
REMARK    3  A    between atoms: C5_9  and  C6_10 
REMARK    4  A    between atoms: C7_11  and  C8_12 
REMARK    5  A    between atoms: C11_15  and  O3_16 
ROOT
HETATM    1  C6  UNL     1      45.145  75.242  42.409  1.00  0.00     0.012 C 
HETATM    2  C7  UNL     1      44.757  76.239  41.666  1.00  0.00     0.014 C 
ENDROOT
BRANCH   1   3
HETATM    3  C5  UNL     1      45.002  73.869  41.985  1.00  0.00    -0.031 A 
HETATM    4  C4  UNL     1      44.958  72.829  42.860  1.00  0.00     0.048 A 
HETATM    5  C3  UNL     1      44.818  71.515  42.380  1.00  0.00     0.069 A 
HETATM    6  C2  UNL     1      44.726  71.287  41.024  1.00  0.00     0.073 A 
HETATM    7  C1  UNL     1      44.772  72.345  40.144  1.00  0.00     0.069 A 
HETATM    8  C14 UNL     1      44.909  73.620  40.634  1.00  0.00     0.048 A 
BRANCH   5   9
HETATM    9  O2  UNL     1      44.779  70.502  43.316  1.00  0.00    -0.361 OA
ATOM     10  H2  UNL     1      45.436  70.400  43.995  1.00  0.00     0.217 HD
ENDBRANCH   5   9
BRANCH   7  11
HETATM   11  O1  UNL     1      44.680  72.129  38.757  1.00  0.00    -0.361 OA
ATOM     12  H1  UNL     1      44.958  72.799  38.143  1.00  0.00     0.217 HD
ENDBRANCH   7  11
ENDBRANCH   1   3
BRANCH   2  13
HETATM   13  C8  UNL     1      44.896  77.656  42.086  1.00  0.00    -0.014 A 
HETATM   14  C9  UNL     1      45.878  78.066  42.951  1.00  0.00     0.016 A 
HETATM   15  C10 UNL     1      45.985  79.413  43.330  1.00  0.00     0.037 A 
HETATM   16  C11 UNL     1      45.086  80.322  42.820  1.00  0.00     0.067 A 
HETATM   17  C12 UNL     1      44.097  79.927  41.952  1.00  0.00     0.061 A 
HETATM   18  C13 UNL     1      44.009  78.603  41.594  1.00  0.00     0.046 A 
HETATM   19 CL1  UNL     1      42.762  78.058  40.489  1.00  0.00    -0.083 Cl
BRANCH  16  20
HETATM   20  O3  UNL     1      45.186  81.675  43.195  1.00  0.00    -0.361 OA
ATOM     21  H3  UNL     1      45.633  81.903  44.001  1.00  0.00     0.217 HD
ENDBRANCH  16  20
ENDBRANCH   2  13
TORSDOF 5
ENDMDL
