MODEL 6
REMARK VINA RESULT: -7.521691214      2.101      7.315
REMARK  5 active torsions:
REMARK  status: ('A' for Active; 'I' for Inactive)
REMARK    1  A    between atoms: O1_1  and  C1_3 
REMARK    2  A    between atoms: C3_5  and  O2_6 
REMARK    3  A    between atoms: C5_9  and  C6_10 
REMARK    4  A    between atoms: C7_11  and  C8_12 
REMARK    5  A    between atoms: C11_15  and  O3_16 
ROOT
HETATM    1  C6  UNL     1      44.295  75.698  42.548  1.00  0.00     0.012 C 
HETATM    2  C7  UNL     1      45.238  74.804  42.638  1.00  0.00     0.014 C 
ENDROOT
BRANCH   1   3
HETATM    3  C5  UNL     1      44.575  77.114  42.594  1.00  0.00    -0.031 A 
HETATM    4  C4  UNL     1      45.700  77.625  43.161  1.00  0.00     0.048 A 
HETATM    5  C3  UNL     1      45.910  79.015  43.172  1.00  0.00     0.069 A 
HETATM    6  C2  UNL     1      44.974  79.855  42.607  1.00  0.00     0.073 A 
HETATM    7  C1  UNL     1      43.837  79.330  42.035  1.00  0.00     0.069 A 
HETATM    8  C14 UNL     1      43.652  77.970  42.035  1.00  0.00     0.048 A 
BRANCH   5   9
HETATM    9  O2  UNL     1      47.071  79.474  43.761  1.00  0.00    -0.361 OA
ATOM     10  H2  UNL     1      47.843  78.932  43.871  1.00  0.00     0.217 HD
ENDBRANCH   5   9
BRANCH   7  11
HETATM   11  O1  UNL     1      42.872  80.173  41.455  1.00  0.00    -0.361 OA
ATOM     12  H1  UNL     1      41.963  79.900  41.395  1.00  0.00     0.217 HD
ENDBRANCH   7  11
ENDBRANCH   1   3
BRANCH   2  13
HETATM   13  C8  UNL     1      44.968  73.345  42.594  1.00  0.00    -0.014 A 
HETATM   14  C9  UNL     1      44.613  72.636  43.712  1.00  0.00     0.016 A 
HETATM   15  C10 UNL     1      44.363  71.257  43.639  1.00  0.00     0.037 A 
HETATM   16  C11 UNL     1      44.480  70.622  42.424  1.00  0.00     0.067 A 
HETATM   17  C12 UNL     1      44.834  71.319  41.294  1.00  0.00     0.061 A 
HETATM   18  C13 UNL     1      45.075  72.668  41.387  1.00  0.00     0.046 A 
HETATM   19 CL1  UNL     1      45.529  73.594  39.969  1.00  0.00    -0.083 Cl
BRANCH  16  20
HETATM   20  O3  UNL     1      44.232  69.239  42.342  1.00  0.00    -0.361 OA
ATOM     21  H3  UNL     1      44.915  68.628  42.592  1.00  0.00     0.217 HD
ENDBRANCH  16  20
ENDBRANCH   2  13
TORSDOF 5
ENDMDL
