MODEL 7
REMARK VINA RESULT: -7.517729993      1.925      7.128
REMARK  5 active torsions:
REMARK  status: ('A' for Active; 'I' for Inactive)
REMARK    1  A    between atoms: O1_1  and  C1_3 
REMARK    2  A    between atoms: C3_5  and  O2_6 
REMARK    3  A    between atoms: C5_9  and  C6_10 
REMARK    4  A    between atoms: C7_11  and  C8_12 
REMARK    5  A    between atoms: C11_15  and  O3_16 
ROOT
HETATM    1  C6  UNL     1      44.821  75.696  41.991  1.00  0.00     0.012 C 
HETATM    2  C7  UNL     1      43.862  74.820  42.078  1.00  0.00     0.014 C 
ENDROOT
BRANCH   1   3
HETATM    3  C5  UNL     1      44.563  77.117  41.984  1.00  0.00    -0.031 A 
HETATM    4  C4  UNL     1      43.445  77.660  41.432  1.00  0.00     0.048 A 
HETATM    5  C3  UNL     1      43.256  79.053  41.459  1.00  0.00     0.069 A 
HETATM    6  C2  UNL     1      44.206  79.863  42.045  1.00  0.00     0.073 A 
HETATM    7  C1  UNL     1      45.335  79.305  42.601  1.00  0.00     0.069 A 
HETATM    8  C14 UNL     1      45.500  77.944  42.564  1.00  0.00     0.048 A 
BRANCH   5   9
HETATM    9  O2  UNL     1      42.102  79.545  40.884  1.00  0.00    -0.361 OA
ATOM     10  H2  UNL     1      41.252  79.488  41.303  1.00  0.00     0.217 HD
ENDBRANCH   5   9
BRANCH   7  11
HETATM   11  O1  UNL     1      46.314  80.118  43.202  1.00  0.00    -0.361 OA
ATOM     12  H1  UNL     1      46.772  79.827  43.983  1.00  0.00     0.217 HD
ENDBRANCH   7  11
ENDBRANCH   1   3
BRANCH   2  13
HETATM   13  C8  UNL     1      44.110  73.356  42.087  1.00  0.00    -0.014 A 
HETATM   14  C9  UNL     1      44.444  72.668  40.948  1.00  0.00     0.016 A 
HETATM   15  C10 UNL     1      44.673  71.284  40.987  1.00  0.00     0.037 A 
HETATM   16  C11 UNL     1      44.556  70.623  42.188  1.00  0.00     0.067 A 
HETATM   17  C12 UNL     1      44.222  71.298  43.337  1.00  0.00     0.061 A 
HETATM   18  C13 UNL     1      44.002  72.653  43.278  1.00  0.00     0.046 A 
HETATM   19 CL1  UNL     1      43.574  73.553  44.721  1.00  0.00    -0.083 Cl
BRANCH  16  20
HETATM   20  O3  UNL     1      44.783  69.235  42.236  1.00  0.00    -0.361 OA
ATOM     21  H3  UNL     1      45.089  68.786  41.457  1.00  0.00     0.217 HD
ENDBRANCH  16  20
ENDBRANCH   2  13
TORSDOF 5
ENDMDL
