MODEL 8
REMARK VINA RESULT: -7.480600849      1.919      7.265
REMARK  5 active torsions:
REMARK  status: ('A' for Active; 'I' for Inactive)
REMARK    1  A    between atoms: O1_1  and  C1_3 
REMARK    2  A    between atoms: C3_5  and  O2_6 
REMARK    3  A    between atoms: C5_9  and  C6_10 
REMARK    4  A    between atoms: C7_11  and  C8_12 
REMARK    5  A    between atoms: C11_15  and  O3_16 
ROOT
HETATM    1  C6  UNL     1      44.734  75.796  42.115  1.00  0.00     0.012 C 
HETATM    2  C7  UNL     1      43.809  74.914  41.866  1.00  0.00     0.014 C 
ENDROOT
BRANCH   1   3
HETATM    3  C5  UNL     1      44.480  77.215  42.043  1.00  0.00    -0.031 A 
HETATM    4  C4  UNL     1      45.314  78.142  42.586  1.00  0.00     0.048 A 
HETATM    5  C3  UNL     1      45.006  79.510  42.481  1.00  0.00     0.069 A 
HETATM    6  C2  UNL     1      43.859  79.906  41.828  1.00  0.00     0.073 A 
HETATM    7  C1  UNL     1      43.019  78.962  41.282  1.00  0.00     0.069 A 
HETATM    8  C14 UNL     1      43.338  77.632  41.395  1.00  0.00     0.048 A 
BRANCH   5   9
HETATM    9  O2  UNL     1      45.892  80.402  43.050  1.00  0.00    -0.361 OA
ATOM     10  H2  UNL     1      45.700  80.882  43.847  1.00  0.00     0.217 HD
ENDBRANCH   5   9
BRANCH   7  11
HETATM   11  O1  UNL     1      41.843  79.350  40.612  1.00  0.00    -0.361 OA
ATOM     12  H1  UNL     1      40.991  79.212  41.011  1.00  0.00     0.217 HD
ENDBRANCH   7  11
ENDBRANCH   1   3
BRANCH   2  13
HETATM   13  C8  UNL     1      44.054  73.451  41.935  1.00  0.00    -0.014 A 
HETATM   14  C9  UNL     1      44.473  72.732  40.845  1.00  0.00     0.016 A 
HETATM   15  C10 UNL     1      44.697  71.350  40.940  1.00  0.00     0.037 A 
HETATM   16  C11 UNL     1      44.489  70.722  42.147  1.00  0.00     0.067 A 
HETATM   17  C12 UNL     1      44.070  71.430  43.248  1.00  0.00     0.061 A 
HETATM   18  C13 UNL     1      43.856  72.782  43.134  1.00  0.00     0.046 A 
HETATM   19 CL1  UNL     1      43.320  73.721  44.514  1.00  0.00    -0.083 Cl
BRANCH  16  20
HETATM   20  O3  UNL     1      44.711  69.337  42.251  1.00  0.00    -0.361 OA
ATOM     21  H3  UNL     1      45.586  69.018  42.443  1.00  0.00     0.217 HD
ENDBRANCH  16  20
ENDBRANCH   2  13
TORSDOF 5
ENDMDL
