MODEL 1
REMARK VINA RESULT: -7.640894153      0.000      0.000
REMARK  5 active torsions:
REMARK  status: ('A' for Active; 'I' for Inactive)
REMARK    1  A    between atoms: O1_1  and  C1_3 
REMARK    2  A    between atoms: C3_5  and  O2_6 
REMARK    3  A    between atoms: C5_9  and  C6_10 
REMARK    4  A    between atoms: C7_11  and  C8_12 
REMARK    5  A    between atoms: C11_15  and  O3_16 
ROOT
HETATM    1  C6  UNL     1      43.636  75.174  42.232  1.00  0.00     0.012 C 
HETATM    2  C7  UNL     1      44.406  76.157  42.601  1.00  0.00     0.014 C 
ENDROOT
BRANCH   1   3
HETATM    3  C5  UNL     1      43.880  73.812  42.643  1.00  0.00    -0.031 A 
HETATM    4  C4  UNL     1      43.981  72.783  41.760  1.00  0.00     0.048 A 
HETATM    5  C3  UNL     1      44.220  71.479  42.227  1.00  0.00     0.069 A 
HETATM    6  C2  UNL     1      44.351  71.248  43.580  1.00  0.00     0.073 A 
HETATM    7  C1  UNL     1      44.247  72.295  44.468  1.00  0.00     0.069 A 
HETATM    8  C14 UNL     1      44.014  73.560  43.990  1.00  0.00     0.048 A 
BRANCH   5   9
HETATM    9  O2  UNL     1      44.314  70.476  41.283  1.00  0.00    -0.361 OA
ATOM     10  H2  UNL     1      43.909  70.535  40.426  1.00  0.00     0.217 HD
ENDBRANCH   5   9
BRANCH   7  11
HETATM   11  O1  UNL     1      44.377  72.077  45.852  1.00  0.00    -0.361 OA
ATOM     12  H1  UNL     1      44.429  72.810  46.455  1.00  0.00     0.217 HD
ENDBRANCH   7  11
ENDBRANCH   1   3
BRANCH   2  13
HETATM   13  C8  UNL     1      44.170  77.563  42.188  1.00  0.00    -0.014 A 
HETATM   14  C9  UNL     1      43.242  77.895  41.234  1.00  0.00     0.016 A 
HETATM   15  C10 UNL     1      43.040  79.233  40.864  1.00  0.00     0.037 A 
HETATM   16  C11 UNL     1      43.789  80.213  41.473  1.00  0.00     0.067 A 
HETATM   17  C12 UNL     1      44.722  79.897  42.431  1.00  0.00     0.061 A 
HETATM   18  C13 UNL     1      44.905  78.580  42.779  1.00  0.00     0.046 A 
HETATM   19 CL1  UNL     1      46.086  78.134  43.996  1.00  0.00    -0.083 Cl
BRANCH  16  20
HETATM   20  O3  UNL     1      43.593  81.558  41.108  1.00  0.00    -0.361 OA
ATOM     21  H3  UNL     1      44.244  81.994  40.570  1.00  0.00     0.217 HD
ENDBRANCH  16  20
ENDBRANCH   2  13
TORSDOF 5
ENDMDL
