MODEL 9
REMARK VINA RESULT: -7.283395480      2.429      6.954
REMARK  5 active torsions:
REMARK  status: ('A' for Active; 'I' for Inactive)
REMARK    1  A    between atoms: O1_1  and  C1_3 
REMARK    2  A    between atoms: C3_5  and  O2_6 
REMARK    3  A    between atoms: C5_9  and  C6_10 
REMARK    4  A    between atoms: C7_11  and  C8_12 
REMARK    5  A    between atoms: C11_15  and  O3_16 
ROOT
HETATM    1  C6  UNL     1      44.483  76.690  41.591  1.00  0.00     0.012 C 
HETATM    2  C7  UNL     1      44.970  75.553  41.999  1.00  0.00     0.014 C 
ENDROOT
BRANCH   1   3
HETATM    3  C5  UNL     1      44.846  77.945  42.208  1.00  0.00    -0.031 A 
HETATM    4  C4  UNL     1      44.286  79.131  41.848  1.00  0.00     0.048 A 
HETATM    5  C3  UNL     1      44.685  80.316  42.490  1.00  0.00     0.069 A 
HETATM    6  C2  UNL     1      45.642  80.272  43.480  1.00  0.00     0.073 A 
HETATM    7  C1  UNL     1      46.205  79.067  43.838  1.00  0.00     0.069 A 
HETATM    8  C14 UNL     1      45.801  77.921  43.199  1.00  0.00     0.048 A 
BRANCH   5   9
HETATM    9  O2  UNL     1      44.080  81.489  42.083  1.00  0.00    -0.361 OA
ATOM     10  H2  UNL     1      44.051  81.766  41.175  1.00  0.00     0.217 HD
ENDBRANCH   5   9
BRANCH   7  11
HETATM   11  O1  UNL     1      47.184  79.004  44.846  1.00  0.00    -0.361 OA
ATOM     12  H1  UNL     1      47.056  78.454  45.611  1.00  0.00     0.217 HD
ENDBRANCH   7  11
ENDBRANCH   1   3
BRANCH   2  13
HETATM   13  C8  UNL     1      44.607  74.255  41.377  1.00  0.00    -0.014 A 
HETATM   14  C9  UNL     1      45.207  73.806  40.228  1.00  0.00     0.016 A 
HETATM   15  C10 UNL     1      44.844  72.573  39.664  1.00  0.00     0.037 A 
HETATM   16  C11 UNL     1      43.874  71.817  40.280  1.00  0.00     0.067 A 
HETATM   17  C12 UNL     1      43.264  72.254  41.432  1.00  0.00     0.061 A 
HETATM   18  C13 UNL     1      43.633  73.463  41.969  1.00  0.00     0.046 A 
HETATM   19 CL1  UNL     1      42.880  74.056  43.437  1.00  0.00    -0.083 Cl
BRANCH  16  20
HETATM   20  O3  UNL     1      43.503  70.580  39.721  1.00  0.00    -0.361 OA
ATOM     21  H3  UNL     1      44.103  69.846  39.778  1.00  0.00     0.217 HD
ENDBRANCH  16  20
ENDBRANCH   2  13
TORSDOF 5
ENDMDL
