MODEL 5
REMARK VINA RESULT: -7.523077596      2.130      7.188
REMARK  5 active torsions:
REMARK  status: ('A' for Active; 'I' for Inactive)
REMARK    1  A    between atoms: O1_1  and  C1_3 
REMARK    2  A    between atoms: C3_5  and  O2_6 
REMARK    3  A    between atoms: C5_9  and  C6_10 
REMARK    4  A    between atoms: C7_11  and  C8_12 
REMARK    5  A    between atoms: C11_15  and  O3_16 
ROOT
HETATM    1  C6  UNL     1      44.233  75.681  42.535  1.00  0.00     0.012 C 
HETATM    2  C7  UNL     1      45.188  74.803  42.646  1.00  0.00     0.014 C 
ENDROOT
BRANCH   1   3
HETATM    3  C5  UNL     1      44.489  77.102  42.582  1.00  0.00    -0.031 A 
HETATM    4  C4  UNL     1      43.649  78.020  42.034  1.00  0.00     0.048 A 
HETATM    5  C3  UNL     1      43.959  79.389  42.115  1.00  0.00     0.069 A 
HETATM    6  C2  UNL     1      45.113  79.795  42.750  1.00  0.00     0.073 A 
HETATM    7  C1  UNL     1      45.959  78.859  43.301  1.00  0.00     0.069 A 
HETATM    8  C14 UNL     1      45.637  77.528  43.211  1.00  0.00     0.048 A 
BRANCH   5   9
HETATM    9  O2  UNL     1      43.068  80.273  41.541  1.00  0.00    -0.361 OA
ATOM     10  H2  UNL     1      43.328  80.928  40.904  1.00  0.00     0.217 HD
ENDBRANCH   5   9
BRANCH   7  11
HETATM   11  O1  UNL     1      47.141  79.256  43.952  1.00  0.00    -0.361 OA
ATOM     12  H1  UNL     1      47.234  79.154  44.893  1.00  0.00     0.217 HD
ENDBRANCH   7  11
ENDBRANCH   1   3
BRANCH   2  13
HETATM   13  C8  UNL     1      44.942  73.339  42.600  1.00  0.00    -0.014 A 
HETATM   14  C9  UNL     1      44.579  72.627  43.714  1.00  0.00     0.016 A 
HETATM   15  C10 UNL     1      44.352  71.244  43.640  1.00  0.00     0.037 A 
HETATM   16  C11 UNL     1      44.502  70.608  42.430  1.00  0.00     0.067 A 
HETATM   17  C12 UNL     1      44.865  71.308  41.304  1.00  0.00     0.061 A 
HETATM   18  C13 UNL     1      45.083  72.662  41.397  1.00  0.00     0.046 A 
HETATM   19 CL1  UNL     1      45.548  73.591  39.985  1.00  0.00    -0.083 Cl
BRANCH  16  20
HETATM   20  O3  UNL     1      44.277  69.222  42.346  1.00  0.00    -0.361 OA
ATOM     21  H3  UNL     1      43.510  68.901  41.887  1.00  0.00     0.217 HD
ENDBRANCH  16  20
ENDBRANCH   2  13
TORSDOF 5
ENDMDL
