MODEL 3
REMARK VINA RESULT: -8.114706624      1.529      2.440
REMARK  4 active torsions:
REMARK  status: ('A' for Active; 'I' for Inactive)
REMARK    1  A    between atoms: C1_2  and  C2_4 
REMARK    2  A    between atoms: C6_8  and  C7_9 
REMARK    3  A    between atoms: C8_10  and  C9_11 
REMARK    4  A    between atoms: C12_14  and  O3_15 
ROOT
HETATM    1  C7  UNL     1     -21.949   0.889 -25.398  1.00  0.00     0.012 C 
HETATM    2  C8  UNL     1     -20.984   0.807 -26.291  1.00  0.00     0.012 C 
ENDROOT
BRANCH   1   3
HETATM    3  C6  UNL     1     -21.748   1.191 -23.978  1.00  0.00    -0.035 A 
HETATM    4  C5  UNL     1     -21.556   2.521 -23.659  1.00  0.00     0.011 A 
HETATM    5  C4  UNL     1     -21.358   2.907 -22.354  1.00  0.00     0.002 A 
HETATM    6  C3  UNL     1     -21.355   1.944 -21.384  1.00  0.00     0.018 A 
HETATM    7  C2  UNL     1     -21.541   0.609 -21.666  1.00  0.00     0.041 A 
HETATM    8  C15 UNL     1     -21.740   0.255 -22.998  1.00  0.00     0.029 A 
BRANCH   7   9
HETATM    9  C1  UNL     1     -21.536  -0.409 -20.625  1.00  0.00     0.209 C 
HETATM   10  O1  UNL     1     -21.411  -0.100 -19.429  1.00  0.00    -0.644 OA
HETATM   11  O2  UNL     1     -21.673  -1.741 -20.982  1.00  0.00    -0.644 OA
ENDBRANCH   7   9
ENDBRANCH   1   3
BRANCH   2  12
HETATM   12  C9  UNL     1     -21.185   0.506 -27.710  1.00  0.00    -0.036 A 
HETATM   13  C10 UNL     1     -20.424   0.999 -28.734  1.00  0.00     0.014 A 
HETATM   14  C11 UNL     1     -20.641   0.695 -30.064  1.00  0.00     0.037 A 
HETATM   15  C12 UNL     1     -21.674  -0.146 -30.382  1.00  0.00     0.065 A 
HETATM   16  C13 UNL     1     -22.461  -0.661 -29.389  1.00  0.00     0.037 A 
HETATM   17  C14 UNL     1     -22.229  -0.346 -28.060  1.00  0.00     0.014 A 
BRANCH  15  18
HETATM   18  O3  UNL     1     -21.882  -0.444 -31.733  1.00  0.00    -0.361 OA
ATOM     19  H3  UNL     1     -22.707  -0.182 -32.123  1.00  0.00     0.217 HD
ENDBRANCH  15  18
ENDBRANCH   2  12
TORSDOF 4
ENDMDL
