MODEL 9
REMARK VINA RESULT: -7.721436901      1.535      7.812
REMARK  4 active torsions:
REMARK  status: ('A' for Active; 'I' for Inactive)
REMARK    1  A    between atoms: C1_2  and  C2_4 
REMARK    2  A    between atoms: C6_8  and  C7_9 
REMARK    3  A    between atoms: C8_10  and  C9_11 
REMARK    4  A    between atoms: C12_14  and  O3_15 
ROOT
HETATM    1  C7  UNL     1     -21.820  -0.475 -25.921  1.00  0.00     0.012 C 
HETATM    2  C8  UNL     1     -21.448   0.494 -25.110  1.00  0.00     0.012 C 
ENDROOT
BRANCH   1   3
HETATM    3  C6  UNL     1     -21.803  -0.391 -27.384  1.00  0.00    -0.035 A 
HETATM    4  C5  UNL     1     -20.850   0.444 -27.934  1.00  0.00     0.011 A 
HETATM    5  C4  UNL     1     -20.753   0.593 -29.299  1.00  0.00     0.002 A 
HETATM    6  C3  UNL     1     -21.619  -0.105 -30.092  1.00  0.00     0.018 A 
HETATM    7  C2  UNL     1     -22.581  -0.946 -29.578  1.00  0.00     0.041 A 
HETATM    8  C15 UNL     1     -22.651  -1.072 -28.192  1.00  0.00     0.029 A 
BRANCH   7   9
HETATM    9  C1  UNL     1     -23.500  -1.685 -30.432  1.00  0.00     0.209 C 
HETATM   10  O1  UNL     1     -23.143  -2.732 -30.999  1.00  0.00    -0.644 OA
HETATM   11  O2  UNL     1     -24.788  -1.210 -30.609  1.00  0.00    -0.644 OA
ENDBRANCH   7   9
ENDBRANCH   1   3
BRANCH   2  12
HETATM   12  C9  UNL     1     -21.465   0.411 -23.647  1.00  0.00    -0.036 A 
HETATM   13  C10 UNL     1     -21.124   1.427 -22.797  1.00  0.00     0.014 A 
HETATM   14  C11 UNL     1     -21.150   1.315 -21.421  1.00  0.00     0.037 A 
HETATM   15  C12 UNL     1     -21.539   0.122 -20.870  1.00  0.00     0.065 A 
HETATM   16  C13 UNL     1     -21.888  -0.921 -21.683  1.00  0.00     0.037 A 
HETATM   17  C14 UNL     1     -21.856  -0.791 -23.062  1.00  0.00     0.014 A 
BRANCH  15  18
HETATM   18  O3  UNL     1     -21.561   0.023 -19.475  1.00  0.00    -0.361 OA
ATOM     19  H3  UNL     1     -22.386  -0.196 -19.060  1.00  0.00     0.217 HD
ENDBRANCH  15  18
ENDBRANCH   2  12
TORSDOF 4
ENDMDL
