MODEL 12
REMARK VINA RESULT: -7.708914140      1.473      7.827
REMARK  4 active torsions:
REMARK  status: ('A' for Active; 'I' for Inactive)
REMARK    1  A    between atoms: C1_2  and  C2_4 
REMARK    2  A    between atoms: C6_8  and  C7_9 
REMARK    3  A    between atoms: C8_10  and  C9_11 
REMARK    4  A    between atoms: C12_14  and  O3_15 
ROOT
HETATM    1  C7  UNL     1     -21.262   0.399 -25.882  1.00  0.00     0.012 C 
HETATM    2  C8  UNL     1     -21.726  -0.514 -25.054  1.00  0.00     0.012 C 
ENDROOT
BRANCH   1   3
HETATM    3  C6  UNL     1     -21.314   0.303 -27.344  1.00  0.00    -0.035 A 
HETATM    4  C5  UNL     1     -20.521   1.195 -28.041  1.00  0.00     0.011 A 
HETATM    5  C4  UNL     1     -20.501   1.186 -29.417  1.00  0.00     0.002 A 
HETATM    6  C3  UNL     1     -21.280   0.276 -30.073  1.00  0.00     0.018 A 
HETATM    7  C2  UNL     1     -22.083  -0.627 -29.411  1.00  0.00     0.041 A 
HETATM    8  C15 UNL     1     -22.079  -0.589 -28.018  1.00  0.00     0.029 A 
BRANCH   7   9
HETATM    9  C1  UNL     1     -22.910  -1.592 -30.119  1.00  0.00     0.209 C 
HETATM   10  O1  UNL     1     -23.507  -1.278 -31.163  1.00  0.00    -0.644 OA
HETATM   11  O2  UNL     1     -23.027  -2.878 -29.618  1.00  0.00    -0.644 OA
ENDBRANCH   7   9
ENDBRANCH   1   3
BRANCH   2  12
HETATM   12  C9  UNL     1     -21.674  -0.418 -23.593  1.00  0.00    -0.036 A 
HETATM   13  C10 UNL     1     -21.952  -1.440 -22.728  1.00  0.00     0.014 A 
HETATM   14  C11 UNL     1     -21.895  -1.316 -21.353  1.00  0.00     0.037 A 
HETATM   15  C12 UNL     1     -21.539  -0.105 -20.821  1.00  0.00     0.065 A 
HETATM   16  C13 UNL     1     -21.253   0.944 -21.650  1.00  0.00     0.037 A 
HETATM   17  C14 UNL     1     -21.316   0.802 -23.027  1.00  0.00     0.014 A 
BRANCH  15  18
HETATM   18  O3  UNL     1     -21.485   0.006 -19.428  1.00  0.00    -0.361 OA
ATOM     19  H3  UNL     1     -20.954  -0.623 -18.954  1.00  0.00     0.217 HD
ENDBRANCH  15  18
ENDBRANCH   2  12
TORSDOF 4
ENDMDL
