MODEL 2
REMARK VINA RESULT: -8.144683555      1.517      2.652
REMARK  4 active torsions:
REMARK  status: ('A' for Active; 'I' for Inactive)
REMARK    1  A    between atoms: C1_2  and  C2_4 
REMARK    2  A    between atoms: C6_8  and  C7_9 
REMARK    3  A    between atoms: C8_10  and  C9_11 
REMARK    4  A    between atoms: C12_14  and  O3_15 
ROOT
HETATM    1  C7  UNL     1     -22.009   0.903 -25.385  1.00  0.00     0.012 C 
HETATM    2  C8  UNL     1     -21.056   0.683 -26.268  1.00  0.00     0.012 C 
ENDROOT
BRANCH   1   3
HETATM    3  C6  UNL     1     -21.781   1.202 -23.969  1.00  0.00    -0.035 A 
HETATM    4  C5  UNL     1     -21.566   2.530 -23.654  1.00  0.00     0.011 A 
HETATM    5  C4  UNL     1     -21.341   2.913 -22.352  1.00  0.00     0.002 A 
HETATM    6  C3  UNL     1     -21.336   1.951 -21.382  1.00  0.00     0.018 A 
HETATM    7  C2  UNL     1     -21.546   0.618 -21.660  1.00  0.00     0.041 A 
HETATM    8  C15 UNL     1     -21.771   0.266 -22.989  1.00  0.00     0.029 A 
BRANCH   7   9
HETATM    9  C1  UNL     1     -21.538  -0.400 -20.619  1.00  0.00     0.209 C 
HETATM   10  O1  UNL     1     -21.365  -0.095 -19.428  1.00  0.00    -0.644 OA
HETATM   11  O2  UNL     1     -21.728  -1.726 -20.971  1.00  0.00    -0.644 OA
ENDBRANCH   7   9
ENDBRANCH   1   3
BRANCH   2  12
HETATM   12  C9  UNL     1     -21.284   0.384 -27.684  1.00  0.00    -0.036 A 
HETATM   13  C10 UNL     1     -22.260  -0.445 -28.165  1.00  0.00     0.014 A 
HETATM   14  C11 UNL     1     -22.447  -0.707 -29.509  1.00  0.00     0.037 A 
HETATM   15  C12 UNL     1     -21.615  -0.104 -30.414  1.00  0.00     0.065 A 
HETATM   16  C13 UNL     1     -20.626   0.733 -29.976  1.00  0.00     0.037 A 
HETATM   17  C14 UNL     1     -20.451   0.984 -28.625  1.00  0.00     0.014 A 
BRANCH  15  18
HETATM   18  O3  UNL     1     -21.817  -0.378 -31.771  1.00  0.00    -0.361 OA
ATOM     19  H3  UNL     1     -21.065  -0.332 -32.349  1.00  0.00     0.217 HD
ENDBRANCH  15  18
ENDBRANCH   2  12
TORSDOF 4
ENDMDL
