MODEL 20
REMARK VINA RESULT: -7.230551786      1.778      8.038
REMARK  4 active torsions:
REMARK  status: ('A' for Active; 'I' for Inactive)
REMARK    1  A    between atoms: C1_2  and  C2_4 
REMARK    2  A    between atoms: C6_8  and  C7_9 
REMARK    3  A    between atoms: C8_10  and  C9_11 
REMARK    4  A    between atoms: C12_14  and  O3_15 
ROOT
HETATM    1  C7  UNL     1     -21.358  -0.312 -27.002  1.00  0.00     0.012 C 
HETATM    2  C8  UNL     1     -21.012   0.041 -25.781  1.00  0.00     0.012 C 
ENDROOT
BRANCH   1   3
HETATM    3  C6  UNL     1     -20.931   0.379 -28.223  1.00  0.00    -0.035 A 
HETATM    4  C5  UNL     1     -20.084   1.456 -28.048  1.00  0.00     0.011 A 
HETATM    5  C4  UNL     1     -19.628   2.171 -29.131  1.00  0.00     0.002 A 
HETATM    6  C3  UNL     1     -20.033   1.790 -30.379  1.00  0.00     0.018 A 
HETATM    7  C2  UNL     1     -20.877   0.722 -30.591  1.00  0.00     0.041 A 
HETATM    8  C15 UNL     1     -21.318   0.020 -29.471  1.00  0.00     0.029 A 
BRANCH   7   9
HETATM    9  C1  UNL     1     -21.302   0.324 -31.925  1.00  0.00     0.209 C 
HETATM   10  O1  UNL     1     -21.050   1.032 -32.914  1.00  0.00    -0.644 OA
HETATM   11  O2  UNL     1     -21.997  -0.864 -32.086  1.00  0.00    -0.644 OA
ENDBRANCH   7   9
ENDBRANCH   1   3
BRANCH   2  12
HETATM   12  C9  UNL     1     -21.438  -0.649 -24.562  1.00  0.00    -0.036 A 
HETATM   13  C10 UNL     1     -20.925  -1.833 -24.108  1.00  0.00     0.014 A 
HETATM   14  C11 UNL     1     -21.350  -2.459 -22.953  1.00  0.00     0.037 A 
HETATM   15  C12 UNL     1     -22.340  -1.866 -22.215  1.00  0.00     0.065 A 
HETATM   16  C13 UNL     1     -22.881  -0.681 -22.631  1.00  0.00     0.037 A 
HETATM   17  C14 UNL     1     -22.443  -0.067 -23.793  1.00  0.00     0.014 A 
BRANCH  15  18
HETATM   18  O3  UNL     1     -22.760  -2.511 -21.047  1.00  0.00    -0.361 OA
ATOM     19  H3  UNL     1     -23.567  -2.215 -20.643  1.00  0.00     0.217 HD
ENDBRANCH  15  18
ENDBRANCH   2  12
TORSDOF 4
ENDMDL
