MODEL 13
REMARK VINA RESULT: -7.440637960      1.303      7.984
REMARK  4 active torsions:
REMARK  status: ('A' for Active; 'I' for Inactive)
REMARK    1  A    between atoms: C1_2  and  C2_4 
REMARK    2  A    between atoms: C6_8  and  C7_9 
REMARK    3  A    between atoms: C8_10  and  C9_11 
REMARK    4  A    between atoms: C12_14  and  O3_15 
ROOT
HETATM    1  C7  UNL     1     -21.150   0.044 -26.191  1.00  0.00     0.012 C 
HETATM    2  C8  UNL     1     -21.412   0.947 -25.269  1.00  0.00     0.012 C 
ENDROOT
BRANCH   1   3
HETATM    3  C6  UNL     1     -21.059   0.322 -27.628  1.00  0.00    -0.035 A 
HETATM    4  C5  UNL     1     -20.206   1.344 -27.997  1.00  0.00     0.011 A 
HETATM    5  C4  UNL     1     -20.051   1.683 -29.321  1.00  0.00     0.002 A 
HETATM    6  C3  UNL     1     -20.759   0.984 -30.258  1.00  0.00     0.018 A 
HETATM    7  C2  UNL     1     -21.618  -0.040 -29.926  1.00  0.00     0.041 A 
HETATM    8  C15 UNL     1     -21.750  -0.356 -28.576  1.00  0.00     0.029 A 
BRANCH   7   9
HETATM    9  C1  UNL     1     -22.368  -0.778 -30.932  1.00  0.00     0.209 C 
HETATM   10  O1  UNL     1     -23.409  -1.388 -30.634  1.00  0.00    -0.644 OA
HETATM   11  O2  UNL     1     -21.909  -0.796 -32.239  1.00  0.00    -0.644 OA
ENDBRANCH   7   9
ENDBRANCH   1   3
BRANCH   2  12
HETATM   12  C9  UNL     1     -21.503   0.670 -23.833  1.00  0.00    -0.036 A 
HETATM   13  C10 UNL     1     -22.077  -0.442 -23.282  1.00  0.00     0.014 A 
HETATM   14  C11 UNL     1     -22.148  -0.673 -21.922  1.00  0.00     0.037 A 
HETATM   15  C12 UNL     1     -21.614   0.260 -21.072  1.00  0.00     0.065 A 
HETATM   16  C13 UNL     1     -21.030   1.387 -21.581  1.00  0.00     0.037 A 
HETATM   17  C14 UNL     1     -20.969   1.603 -22.948  1.00  0.00     0.014 A 
BRANCH  15  18
HETATM   18  O3  UNL     1     -21.693   0.012 -19.698  1.00  0.00    -0.361 OA
ATOM     19  H3  UNL     1     -22.149   0.647 -19.159  1.00  0.00     0.217 HD
ENDBRANCH  15  18
ENDBRANCH   2  12
TORSDOF 4
ENDMDL
