MODEL 1
REMARK VINA RESULT: -8.153824566      0.000      0.000
REMARK  4 active torsions:
REMARK  status: ('A' for Active; 'I' for Inactive)
REMARK    1  A    between atoms: C1_2  and  C2_4 
REMARK    2  A    between atoms: C6_8  and  C7_9 
REMARK    3  A    between atoms: C8_10  and  C9_11 
REMARK    4  A    between atoms: C12_14  and  O3_15 
ROOT
HETATM    1  C7  UNL     1     -21.016  -0.872 -25.384  1.00  0.00     0.012 C 
HETATM    2  C8  UNL     1     -21.970  -0.728 -26.281  1.00  0.00     0.012 C 
ENDROOT
BRANCH   1   3
HETATM    3  C6  UNL     1     -21.242  -1.178 -23.968  1.00  0.00    -0.035 A 
HETATM    4  C5  UNL     1     -21.435  -2.510 -23.656  1.00  0.00     0.011 A 
HETATM    5  C4  UNL     1     -21.656  -2.899 -22.356  1.00  0.00     0.002 A 
HETATM    6  C3  UNL     1     -21.679  -1.939 -21.384  1.00  0.00     0.018 A 
HETATM    7  C2  UNL     1     -21.491  -0.602 -21.659  1.00  0.00     0.041 A 
HETATM    8  C15 UNL     1     -21.270  -0.244 -22.986  1.00  0.00     0.029 A 
BRANCH   7   9
HETATM    9  C1  UNL     1     -21.518   0.413 -20.616  1.00  0.00     0.209 C 
HETATM   10  O1  UNL     1     -21.705   0.104 -19.427  1.00  0.00    -0.644 OA
HETATM   11  O2  UNL     1     -21.332   1.741 -20.962  1.00  0.00    -0.644 OA
ENDBRANCH   7   9
ENDBRANCH   1   3
BRANCH   2  12
HETATM   12  C9  UNL     1     -21.744  -0.423 -27.696  1.00  0.00    -0.036 A 
HETATM   13  C10 UNL     1     -20.736   0.366 -28.179  1.00  0.00     0.014 A 
HETATM   14  C11 UNL     1     -20.552   0.636 -29.521  1.00  0.00     0.037 A 
HETATM   15  C12 UNL     1     -21.422   0.084 -30.424  1.00  0.00     0.065 A 
HETATM   16  C13 UNL     1     -22.444  -0.711 -29.984  1.00  0.00     0.037 A 
HETATM   17  C14 UNL     1     -22.615  -0.970 -28.634  1.00  0.00     0.014 A 
BRANCH  15  18
HETATM   18  O3  UNL     1     -21.222   0.365 -31.779  1.00  0.00    -0.361 OA
ATOM     19  H3  UNL     1     -21.889   0.082 -32.393  1.00  0.00     0.217 HD
ENDBRANCH  15  18
ENDBRANCH   2  12
TORSDOF 4
ENDMDL
