MODEL 3
REMARK VINA RESULT: -8.217278508      1.550      2.340
REMARK  4 active torsions:
REMARK  status: ('A' for Active; 'I' for Inactive)
REMARK    1  A    between atoms: C1_2  and  C2_4 
REMARK    2  A    between atoms: C6_8  and  C7_9 
REMARK    3  A    between atoms: C8_10  and  C9_11 
REMARK    4  A    between atoms: C12_14  and  O3_15 
ROOT
HETATM    1  C7  UNL     1     -22.280  -1.138 -25.222  1.00  0.00     0.012 C 
HETATM    2  C8  UNL     1     -21.912  -0.377 -26.199  1.00  0.00     0.014 C 
ENDROOT
BRANCH   1   3
HETATM    3  C6  UNL     1     -22.026  -0.815 -23.805  1.00  0.00    -0.035 A 
HETATM    4  C5  UNL     1     -22.103  -1.709 -22.780  1.00  0.00     0.011 A 
HETATM    5  C4  UNL     1     -21.852  -1.355 -21.444  1.00  0.00     0.002 A 
HETATM    6  C3  UNL     1     -21.515  -0.059 -21.148  1.00  0.00     0.018 A 
HETATM    7  C2  UNL     1     -21.432   0.859 -22.167  1.00  0.00     0.041 A 
HETATM    8  C15 UNL     1     -21.680   0.496 -23.464  1.00  0.00     0.029 A 
BRANCH   7   9
HETATM    9  C1  UNL     1     -21.075   2.233 -21.853  1.00  0.00     0.209 C 
HETATM   10  O1  UNL     1     -21.619   3.203 -22.448  1.00  0.00    -0.644 OA
HETATM   11  O2  UNL     1     -20.127   2.549 -20.893  1.00  0.00    -0.644 OA
ENDBRANCH   7   9
ENDBRANCH   1   3
BRANCH   2  12
HETATM   12  C9  UNL     1     -22.064  -0.519 -27.616  1.00  0.00    -0.014 A 
HETATM   13  C10 UNL     1     -22.984  -1.494 -28.054  1.00  0.00     0.016 A 
HETATM   14  C11 UNL     1     -23.224  -1.730 -29.389  1.00  0.00     0.037 A 
HETATM   15  C12 UNL     1     -22.564  -1.013 -30.357  1.00  0.00     0.067 A 
HETATM   16  C13 UNL     1     -21.661  -0.056 -29.962  1.00  0.00     0.061 A 
HETATM   17  C14 UNL     1     -21.420   0.182 -28.584  1.00  0.00     0.046 A 
HETATM   18 CL1  UNL     1     -20.259   1.413 -28.168  1.00  0.00    -0.083 Cl
BRANCH  15  19
HETATM   19  O3  UNL     1     -22.822  -1.269 -31.687  1.00  0.00    -0.361 OA
ATOM     20  H3  UNL     1     -22.434  -2.031 -32.102  1.00  0.00     0.217 HD
ENDBRANCH  15  19
ENDBRANCH   2  12
TORSDOF 4
ENDMDL
