MODEL 1
REMARK VINA RESULT: -8.300930103      0.000      0.000
REMARK  4 active torsions:
REMARK  status: ('A' for Active; 'I' for Inactive)
REMARK    1  A    between atoms: C1_2  and  C2_4 
REMARK    2  A    between atoms: C6_8  and  C7_9 
REMARK    3  A    between atoms: C8_10  and  C9_11 
REMARK    4  A    between atoms: C12_14  and  O3_15 
ROOT
HETATM    1  C7  UNL     1     -22.432   0.907 -25.437  1.00  0.00     0.012 C 
HETATM    2  C8  UNL     1     -21.623   0.474 -26.346  1.00  0.00     0.014 C 
ENDROOT
BRANCH   1   3
HETATM    3  C6  UNL     1     -21.995   1.287 -24.079  1.00  0.00    -0.035 A 
HETATM    4  C5  UNL     1     -21.581   2.533 -23.718  1.00  0.00     0.011 A 
HETATM    5  C4  UNL     1     -21.175   2.849 -22.411  1.00  0.00     0.002 A 
HETATM    6  C3  UNL     1     -21.191   1.869 -21.451  1.00  0.00     0.018 A 
HETATM    7  C2  UNL     1     -21.605   0.605 -21.794  1.00  0.00     0.041 A 
HETATM    8  C15 UNL     1     -21.999   0.315 -23.073  1.00  0.00     0.029 A 
BRANCH   7   9
HETATM    9  C1  UNL     1     -21.622  -0.433 -20.776  1.00  0.00     0.209 C 
HETATM   10  O1  UNL     1     -21.343  -0.175 -19.573  1.00  0.00    -0.644 OA
HETATM   11  O2  UNL     1     -21.940  -1.750 -21.068  1.00  0.00    -0.644 OA
ENDBRANCH   7   9
ENDBRANCH   1   3
BRANCH   2  12
HETATM   12  C9  UNL     1     -21.854   0.062 -27.698  1.00  0.00    -0.014 A 
HETATM   13  C10 UNL     1     -22.794  -0.971 -27.887  1.00  0.00     0.016 A 
HETATM   14  C11 UNL     1     -23.108  -1.458 -29.135  1.00  0.00     0.037 A 
HETATM   15  C12 UNL     1     -22.505  -0.949 -30.259  1.00  0.00     0.067 A 
HETATM   16  C13 UNL     1     -21.584   0.059 -30.108  1.00  0.00     0.061 A 
HETATM   17  C14 UNL     1     -21.266   0.557 -28.817  1.00  0.00     0.046 A 
HETATM   18 CL1  UNL     1     -20.087   1.836 -28.713  1.00  0.00    -0.083 Cl
BRANCH  15  19
HETATM   19  O3  UNL     1     -22.837  -1.455 -31.498  1.00  0.00    -0.361 OA
ATOM     20  H3  UNL     1     -22.321  -1.211 -32.257  1.00  0.00     0.217 HD
ENDBRANCH  15  19
ENDBRANCH   2  12
TORSDOF 4
ENDMDL
