MODEL 2
REMARK VINA RESULT: -8.256354803      2.078      3.005
REMARK  4 active torsions:
REMARK  status: ('A' for Active; 'I' for Inactive)
REMARK    1  A    between atoms: C1_2  and  C2_4 
REMARK    2  A    between atoms: C6_8  and  C7_9 
REMARK    3  A    between atoms: C8_10  and  C9_11 
REMARK    4  A    between atoms: C12_14  and  O3_15 
ROOT
HETATM    1  C7  UNL     1     -20.846  -0.680 -25.427  1.00  0.00     0.012 C 
HETATM    2  C8  UNL     1     -21.654  -0.560 -26.429  1.00  0.00     0.014 C 
ENDROOT
BRANCH   1   3
HETATM    3  C6  UNL     1     -21.276  -1.136 -24.091  1.00  0.00    -0.035 A 
HETATM    4  C5  UNL     1     -21.688  -2.401 -23.800  1.00  0.00     0.011 A 
HETATM    5  C4  UNL     1     -22.088  -2.791 -22.511  1.00  0.00     0.002 A 
HETATM    6  C3  UNL     1     -22.067  -1.867 -21.496  1.00  0.00     0.018 A 
HETATM    7  C2  UNL     1     -21.655  -0.585 -21.770  1.00  0.00     0.041 A 
HETATM    8  C15 UNL     1     -21.268  -0.223 -23.032  1.00  0.00     0.029 A 
BRANCH   7   9
HETATM    9  C1  UNL     1     -21.633   0.393 -20.694  1.00  0.00     0.209 C 
HETATM   10  O1  UNL     1     -21.804   0.049 -19.493  1.00  0.00    -0.644 OA
HETATM   11  O2  UNL     1     -21.427   1.744 -20.928  1.00  0.00    -0.644 OA
ENDBRANCH   7   9
ENDBRANCH   1   3
BRANCH   2  12
HETATM   12  C9  UNL     1     -21.428  -0.139 -27.779  1.00  0.00    -0.014 A 
HETATM   13  C10 UNL     1     -20.504   0.909 -27.963  1.00  0.00     0.016 A 
HETATM   14  C11 UNL     1     -20.197   1.407 -29.210  1.00  0.00     0.037 A 
HETATM   15  C12 UNL     1     -20.792   0.893 -30.335  1.00  0.00     0.067 A 
HETATM   16  C13 UNL     1     -21.698  -0.129 -30.189  1.00  0.00     0.061 A 
HETATM   17  C14 UNL     1     -22.008  -0.637 -28.900  1.00  0.00     0.046 A 
HETATM   18 CL1  UNL     1     -23.168  -1.934 -28.802  1.00  0.00    -0.083 Cl
BRANCH  15  19
HETATM   19  O3  UNL     1     -20.468   1.409 -31.572  1.00  0.00    -0.361 OA
ATOM     20  H3  UNL     1     -20.117   0.835 -32.243  1.00  0.00     0.217 HD
ENDBRANCH  15  19
ENDBRANCH   2  12
TORSDOF 4
ENDMDL
