MODEL 5
REMARK VINA RESULT: -7.742566949      3.873      6.576
REMARK  4 active torsions:
REMARK  status: ('A' for Active; 'I' for Inactive)
REMARK    1  A    between atoms: N2_5  and  C3_6 
REMARK    2  A    between atoms: C3_6  and  C4_7 
REMARK    3  A    between atoms: C4_7  and  O1_8 
REMARK    4  A    between atoms: C19_32  and  O3_33 
ROOT
HETATM    1  C1  UNL     1      -5.611 -10.753 -20.451  1.00  0.00     0.070 C 
HETATM    2  C2  UNL     1      -5.764 -12.003 -21.261  1.00  0.00     0.036 A 
HETATM    3  N1  UNL     1      -6.243 -12.071 -22.532  1.00  0.00    -0.302 N 
ATOM      4  H1  UNL     1      -6.554 -11.272 -23.085  1.00  0.00     0.186 HD
HETATM    5  N2  UNL     1      -6.245 -13.327 -22.945  1.00  0.00    -0.292 N 
HETATM    6  C5  UNL     1      -5.769 -14.142 -21.964  1.00  0.00     0.061 A 
HETATM    7  C6  UNL     1      -5.471 -13.298 -20.915  1.00  0.00     0.042 A 
HETATM    8  C7  UNL     1      -4.909 -13.776 -19.627  1.00  0.00     0.064 A 
HETATM    9  C8  UNL     1      -4.062 -12.971 -18.891  1.00  0.00     0.120 A 
HETATM   10  N3  UNL     1      -3.541 -13.405 -17.723  1.00  0.00    -0.349 N 
ATOM     11  H3  UNL     1      -2.916 -12.817 -17.173  1.00  0.00     0.166 HD
HETATM   12  C9  UNL     1      -3.881 -14.655 -17.307  1.00  0.00     0.167 A 
HETATM   13  N4  UNL     1      -3.387 -15.206 -16.093  1.00  0.00    -0.078 NA
HETATM   14  C10 UNL     1      -4.723 -15.458 -18.038  1.00  0.00     0.185 A 
HETATM   15  N5  UNL     1      -5.209 -14.992 -19.174  1.00  0.00    -0.332 N 
ATOM     16  H5  UNL     1      -5.835 -15.583 -19.723  1.00  0.00     0.168 HD
HETATM   17  O2  UNL     1      -5.111 -16.741 -17.675  1.00  0.00    -0.323 OA
HETATM   18  C11 UNL     1      -6.180 -17.411 -18.384  1.00  0.00     0.162 C 
HETATM   19  C12 UNL     1      -7.151 -17.757 -17.313  1.00  0.00     0.045 C 
HETATM   20  C13 UNL     1      -5.706 -18.527 -19.207  1.00  0.00     0.010 A 
HETATM   21  C14 UNL     1      -6.025 -18.674 -20.553  1.00  0.00     0.025 A 
HETATM   22  C15 UNL     1      -5.507 -19.820 -21.166  1.00  0.00     0.019 A 
HETATM   23  C16 UNL     1      -4.730 -20.758 -20.525  1.00  0.00     0.045 A 
HETATM   24  C17 UNL     1      -4.427 -20.588 -19.193  1.00  0.00     0.138 A 
HETATM   25  F1  UNL     1      -3.662 -21.486 -18.508  1.00  0.00    -0.204 F 
HETATM   26  C18 UNL     1      -4.928 -19.467 -18.565  1.00  0.00     0.082 A 
HETATM   27 CL1  UNL     1      -4.536 -19.256 -16.884  1.00  0.00    -0.080 Cl
HETATM   28  C19 UNL     1      -6.828 -17.764 -21.371  1.00  0.00     0.149 C 
HETATM   29  N6  UNL     1      -6.737 -16.361 -21.537  1.00  0.00    -0.360 N 
HETATM   30  C20 UNL     1      -7.967 -15.600 -21.375  1.00  0.00     0.152 C 
HETATM   31  C21 UNL     1      -5.550 -15.602 -21.873  1.00  0.00     0.184 C 
ENDROOT
BRANCH   5  32
HETATM   32  C3  UNL     1      -6.702 -13.699 -24.268  1.00  0.00     0.175 C 
BRANCH  32  33
HETATM   33  C4  UNL     1      -6.858 -12.444 -25.089  1.00  0.00     0.185 C 
BRANCH  33  34
HETATM   34  O1  UNL     1      -5.613 -12.098 -25.586  1.00  0.00    -0.399 OA
ATOM     35  H1  UNL     1      -5.741 -11.646 -26.412  1.00  0.00     0.209 HD
ENDBRANCH  33  34
ENDBRANCH  32  33
ENDBRANCH   5  32
BRANCH  28  36
HETATM   36  O3  UNL     1      -7.762 -18.379 -22.040  1.00  0.00    -0.346 OA
ATOM     37  H3  UNL     1      -7.466 -18.687 -22.888  1.00  0.00     0.219 HD
ENDBRANCH  28  36
TORSDOF 4
ENDMDL
