MODEL 3
REMARK VINA RESULT: -7.859982763      3.674      7.457
REMARK  4 active torsions:
REMARK  status: ('A' for Active; 'I' for Inactive)
REMARK    1  A    between atoms: N2_5  and  C3_6 
REMARK    2  A    between atoms: C3_6  and  C4_7 
REMARK    3  A    between atoms: C4_7  and  O1_8 
REMARK    4  A    between atoms: C19_32  and  O3_33 
ROOT
HETATM    1  C1  UNL     1      -4.538 -20.043 -21.398  1.00  0.00     0.070 C 
HETATM    2  C2  UNL     1      -4.159 -19.706 -19.989  1.00  0.00     0.036 A 
HETATM    3  N1  UNL     1      -3.893 -20.603 -19.003  1.00  0.00    -0.302 N 
ATOM      4  H1  UNL     1      -3.920 -21.618 -19.111  1.00  0.00     0.186 HD
HETATM    5  N2  UNL     1      -3.594 -19.966 -17.884  1.00  0.00    -0.292 N 
HETATM    6  C5  UNL     1      -3.652 -18.621 -18.083  1.00  0.00     0.061 A 
HETATM    7  C6  UNL     1      -4.007 -18.473 -19.408  1.00  0.00     0.042 A 
HETATM    8  C7  UNL     1      -4.175 -17.149 -20.057  1.00  0.00     0.064 A 
HETATM    9  C8  UNL     1      -3.897 -16.986 -21.400  1.00  0.00     0.120 A 
HETATM   10  N3  UNL     1      -4.040 -15.782 -21.993  1.00  0.00    -0.349 N 
ATOM     11  H3  UNL     1      -3.838 -15.654 -22.984  1.00  0.00     0.166 HD
HETATM   12  C9  UNL     1      -4.464 -14.745 -21.220  1.00  0.00     0.167 A 
HETATM   13  N4  UNL     1      -4.646 -13.437 -21.747  1.00  0.00    -0.078 NA
HETATM   14  C10 UNL     1      -4.740 -14.905 -19.883  1.00  0.00     0.185 A 
HETATM   15  N5  UNL     1      -4.587 -16.100 -19.346  1.00  0.00    -0.332 N 
ATOM     16  H5  UNL     1      -4.790 -16.225 -18.353  1.00  0.00     0.168 HD
HETATM   17  O2  UNL     1      -5.175 -13.892 -19.037  1.00  0.00    -0.323 OA
HETATM   18  C11 UNL     1      -5.664 -14.207 -17.711  1.00  0.00     0.162 C 
HETATM   19  C12 UNL     1      -7.027 -13.615 -17.689  1.00  0.00     0.045 C 
HETATM   20  C13 UNL     1      -4.755 -13.767 -16.649  1.00  0.00     0.010 A 
HETATM   21  C14 UNL     1      -4.309 -14.602 -15.630  1.00  0.00     0.025 A 
HETATM   22  C15 UNL     1      -3.471 -13.996 -14.688  1.00  0.00     0.019 A 
HETATM   23  C16 UNL     1      -3.086 -12.676 -14.728  1.00  0.00     0.045 A 
HETATM   24  C17 UNL     1      -3.541 -11.871 -15.749  1.00  0.00     0.138 A 
HETATM   25  F1  UNL     1      -3.192 -10.555 -15.837  1.00  0.00    -0.204 F 
HETATM   26  C18 UNL     1      -4.370 -12.444 -16.690  1.00  0.00     0.082 A 
HETATM   27 CL1  UNL     1      -4.935 -11.422 -17.978  1.00  0.00    -0.080 Cl
HETATM   28  C19 UNL     1      -4.620 -16.021 -15.457  1.00  0.00     0.149 C 
HETATM   29  N6  UNL     1      -4.550 -17.094 -16.378  1.00  0.00    -0.360 N 
HETATM   30  C20 UNL     1      -5.729 -17.939 -16.493  1.00  0.00     0.152 C 
HETATM   31  C21 UNL     1      -3.417 -17.453 -17.207  1.00  0.00     0.184 C 
ENDROOT
BRANCH   5  32
HETATM   32  C3  UNL     1      -3.262 -20.672 -16.664  1.00  0.00     0.175 C 
BRANCH  32  33
HETATM   33  C4  UNL     1      -3.285 -22.153 -16.948  1.00  0.00     0.185 C 
BRANCH  33  34
HETATM   34  O1  UNL     1      -2.021 -22.529 -17.371  1.00  0.00    -0.399 OA
ATOM     35  H1  UNL     1      -2.069 -23.426 -17.680  1.00  0.00     0.209 HD
ENDBRANCH  33  34
ENDBRANCH  32  33
ENDBRANCH   5  32
BRANCH  28  36
HETATM   36  O3  UNL     1      -5.021 -16.306 -14.250  1.00  0.00    -0.346 OA
ATOM     37  H3  UNL     1      -5.868 -16.735 -14.235  1.00  0.00     0.219 HD
ENDBRANCH  28  36
TORSDOF 4
ENDMDL
