MODEL 2
REMARK VINA RESULT: -7.973341153      2.993      5.417
REMARK  4 active torsions:
REMARK  status: ('A' for Active; 'I' for Inactive)
REMARK    1  A    between atoms: N2_5  and  C3_6 
REMARK    2  A    between atoms: C3_6  and  C4_7 
REMARK    3  A    between atoms: C4_7  and  O1_8 
REMARK    4  A    between atoms: C19_32  and  O3_33 
ROOT
HETATM    1  C1  UNL     1      -8.351 -11.802 -16.761  1.00  0.00     0.070 C 
HETATM    2  C2  UNL     1      -7.432 -12.918 -16.375  1.00  0.00     0.036 A 
HETATM    3  N1  UNL     1      -6.570 -12.909 -15.324  1.00  0.00    -0.302 N 
ATOM      4  H1  UNL     1      -6.451 -12.134 -14.671  1.00  0.00     0.186 HD
HETATM    5  N2  UNL     1      -5.910 -14.054 -15.274  1.00  0.00    -0.292 N 
HETATM    6  C5  UNL     1      -6.306 -14.867 -16.291  1.00  0.00     0.061 A 
HETATM    7  C6  UNL     1      -7.261 -14.142 -16.973  1.00  0.00     0.042 A 
HETATM    8  C7  UNL     1      -7.973 -14.664 -18.166  1.00  0.00     0.064 A 
HETATM    9  C8  UNL     1      -9.271 -14.274 -18.433  1.00  0.00     0.120 A 
HETATM   10  N3  UNL     1      -9.926 -14.753 -19.512  1.00  0.00    -0.349 N 
ATOM     11  H3  UNL     1     -10.884 -14.470 -19.717  1.00  0.00     0.166 HD
HETATM   12  C9  UNL     1      -9.262 -15.628 -20.316  1.00  0.00     0.167 A 
HETATM   13  N4  UNL     1      -9.861 -16.190 -21.476  1.00  0.00    -0.078 NA
HETATM   14  C10 UNL     1      -7.971 -16.017 -20.051  1.00  0.00     0.185 A 
HETATM   15  N5  UNL     1      -7.369 -15.523 -18.985  1.00  0.00    -0.332 N 
ATOM     16  H5  UNL     1      -6.411 -15.809 -18.782  1.00  0.00     0.168 HD
HETATM   17  O2  UNL     1      -7.235 -16.905 -20.826  1.00  0.00    -0.323 OA
HETATM   18  C11 UNL     1      -5.815 -17.069 -20.601  1.00  0.00     0.162 C 
HETATM   19  C12 UNL     1      -5.212 -16.774 -21.927  1.00  0.00     0.045 C 
HETATM   20  C13 UNL     1      -5.477 -18.369 -20.016  1.00  0.00     0.010 A 
HETATM   21  C14 UNL     1      -4.691 -18.514 -18.877  1.00  0.00     0.025 A 
HETATM   22  C15 UNL     1      -4.450 -19.835 -18.485  1.00  0.00     0.019 A 
HETATM   23  C16 UNL     1      -4.934 -20.941 -19.145  1.00  0.00     0.045 A 
HETATM   24  C17 UNL     1      -5.711 -20.769 -20.269  1.00  0.00     0.138 A 
HETATM   25  F1  UNL     1      -6.217 -21.830 -20.962  1.00  0.00    -0.204 F 
HETATM   26  C18 UNL     1      -5.963 -19.477 -20.677  1.00  0.00     0.082 A 
HETATM   27 CL1  UNL     1      -6.948 -19.269 -22.095  1.00  0.00    -0.080 Cl
HETATM   28  C19 UNL     1      -4.113 -17.442 -18.065  1.00  0.00     0.149 C 
HETATM   29  N6  UNL     1      -4.714 -16.284 -17.515  1.00  0.00    -0.360 N 
HETATM   30  C20 UNL     1      -4.043 -15.017 -17.761  1.00  0.00     0.152 C 
HETATM   31  C21 UNL     1      -5.918 -16.230 -16.712  1.00  0.00     0.184 C 
ENDROOT
BRANCH   5  32
HETATM   32  C3  UNL     1      -4.923 -14.326 -14.249  1.00  0.00     0.175 C 
BRANCH  32  33
HETATM   33  C4  UNL     1      -4.225 -13.035 -13.904  1.00  0.00     0.185 C 
BRANCH  33  34
HETATM   34  O1  UNL     1      -4.957 -12.402 -12.915  1.00  0.00    -0.399 OA
ATOM     35  H1  UNL     1      -4.684 -12.752 -12.075  1.00  0.00     0.209 HD
ENDBRANCH  33  34
ENDBRANCH  32  33
ENDBRANCH   5  32
BRANCH  28  36
HETATM   36  O3  UNL     1      -2.843 -17.616 -17.831  1.00  0.00    -0.346 OA
ATOM     37  H3  UNL     1      -2.578 -17.291 -16.979  1.00  0.00     0.219 HD
ENDBRANCH  28  36
TORSDOF 4
ENDMDL
