MODEL 5
REMARK VINA RESULT: -8.093206481      3.715      5.788
REMARK  7 active torsions:
REMARK  status: ('A' for Active; 'I' for Inactive)
REMARK    1  A    between atoms: C2_2  and  C3_3 
REMARK    2  A    between atoms: C11_12  and  O2_13 
REMARK    3  A    between atoms: C15_20  and  S1_21 
REMARK    4  A    between atoms: S1_21  and  C16_24 
REMARK    5  A    between atoms: C24_34  and  N3_35 
REMARK    6  A    between atoms: N3_35  and  C25_37 
REMARK    7  A    between atoms: C29_41  and  C30_42 
ROOT
HETATM    1  C3  UNL     1       3.214  37.061  25.620  1.00  0.00    -0.051 A 
HETATM    2  C4  UNL     1       4.087  37.026  26.782  1.00  0.00     0.017 A 
HETATM    3  C5  UNL     1       4.830  38.083  27.241  1.00  0.00    -0.026 A 
HETATM    4  C6  UNL     1       4.703  39.218  26.506  1.00  0.00     0.010 A 
HETATM    5  C7  UNL     1       3.858  39.290  25.360  1.00  0.00     0.008 A 
HETATM    6  C8  UNL     1       3.114  38.231  24.910  1.00  0.00    -0.050 A 
HETATM    7  C9  UNL     1       2.235  38.477  23.696  1.00  0.00     0.066 C 
HETATM    8  C10 UNL     1       0.904  39.118  24.063  1.00  0.00     0.184 C 
HETATM    9  O1  UNL     1       0.103  38.461  24.922  1.00  0.00    -0.316 OA
HETATM   10  C11 UNL     1      -0.937  38.781  25.776  1.00  0.00     0.262 C 
HETATM   11  N1  UNL     1      -0.835  39.526  26.994  1.00  0.00    -0.316 N 
ATOM     12  H1  UNL     1      -1.510  40.290  27.045  1.00  0.00     0.170 HD
HETATM   13  C12 UNL     1      -0.002  39.445  28.159  1.00  0.00     0.036 A 
HETATM   14  C13 UNL     1      -0.746  39.828  29.304  1.00  0.00     0.031 A 
HETATM   15  C14 UNL     1      -0.276  39.853  30.569  1.00  0.00     0.026 A 
HETATM   16  C15 UNL     1       1.037  39.476  30.772  1.00  0.00     0.067 A 
HETATM   17  C19 UNL     1       1.842  39.082  29.670  1.00  0.00    -0.017 A 
HETATM   18  C20 UNL     1       1.313  39.073  28.375  1.00  0.00     0.039 A 
HETATM   19  C21 UNL     1       3.197  38.732  30.146  1.00  0.00     0.165 C 
HETATM   20  N2  UNL     1       4.275  39.639  29.779  1.00  0.00    -0.350 N 
HETATM   21  C22 UNL     1       3.989  41.091  29.806  1.00  0.00     0.153 C 
HETATM   22  C23 UNL     1       5.579  39.219  29.398  1.00  0.00     0.247 C 
HETATM   23  O5  UNL     1       6.587  39.859  29.810  1.00  0.00    -0.271 OA
HETATM   24  C24 UNL     1       5.703  38.003  28.499  1.00  0.00     0.208 C 
ENDROOT
BRANCH  24  25
HETATM   25  N3  UNL     1       7.089  37.851  28.240  1.00  0.00    -0.373 N 
ATOM     26  H3  UNL     1       7.590  38.595  27.752  1.00  0.00     0.161 HD
BRANCH  25  27
HETATM   27  C25 UNL     1       7.784  36.707  28.638  1.00  0.00     0.029 A 
HETATM   28  C26 UNL     1       8.004  36.419  29.988  1.00  0.00     0.029 A 
HETATM   29  C27 UNL     1       8.693  35.304  30.376  1.00  0.00     0.003 A 
HETATM   30  C28 UNL     1       9.187  34.436  29.433  1.00  0.00     0.017 A 
HETATM   31  C29 UNL     1       9.002  34.669  28.101  1.00  0.00     0.031 A 
HETATM   32  C31 UNL     1       8.296  35.810  27.730  1.00  0.00     0.045 A 
BRANCH  31  33
HETATM   33  C30 UNL     1       9.524  33.751  27.082  1.00  0.00     0.265 C 
HETATM   34  N4  UNL     1       9.585  34.206  25.745  1.00  0.00    -0.057 NA
HETATM   35  O6  UNL     1       9.893  32.611  27.412  1.00  0.00    -0.271 OA
ENDBRANCH  31  33
ENDBRANCH  25  27
ENDBRANCH  24  25
BRANCH   1  36
HETATM   36  C2  UNL     1       2.582  35.662  25.530  1.00  0.00     0.034 C 
HETATM   37  C1  UNL     1       1.661  35.369  26.685  1.00  0.00     0.010 C 
ENDBRANCH   1  36
BRANCH  16  38
HETATM   38  S1  UNL     1       1.637  39.480  32.426  1.00  0.00     0.179 S 
HETATM   39  O3  UNL     1       2.644  40.492  32.743  1.00  0.00    -0.222 OA
HETATM   40  O4  UNL     1       2.040  38.066  32.847  1.00  0.00    -0.222 OA
BRANCH  38  41
HETATM   41  C16 UNL     1       0.253  39.855  33.523  1.00  0.00     0.105 C 
HETATM   42  C17 UNL     1      -0.363  38.640  34.111  1.00  0.00     0.026 C 
HETATM   43  C18 UNL     1       0.772  40.726  34.680  1.00  0.00     0.026 C 
ENDBRANCH  38  41
ENDBRANCH  16  38
BRANCH  10  44
HETATM   44  O2  UNL     1      -2.130  38.369  25.452  1.00  0.00    -0.327 OA
ATOM     45  H2  UNL     1      -2.871  38.859  25.791  1.00  0.00     0.221 HD
ENDBRANCH  10  44
TORSDOF 7
ENDMDL
