MODEL 3
REMARK VINA RESULT: -8.635192417      3.179      5.683
REMARK  7 active torsions:
REMARK  status: ('A' for Active; 'I' for Inactive)
REMARK    1  A    between atoms: C2_2  and  C3_3 
REMARK    2  A    between atoms: C11_12  and  O2_13 
REMARK    3  A    between atoms: C15_20  and  S1_21 
REMARK    4  A    between atoms: S1_21  and  C16_24 
REMARK    5  A    between atoms: C24_34  and  N3_35 
REMARK    6  A    between atoms: N3_35  and  C25_37 
REMARK    7  A    between atoms: C29_41  and  C30_42 
ROOT
HETATM    1  C3  UNL     1       5.453  37.396  24.776  1.00  0.00    -0.051 A 
HETATM    2  C4  UNL     1       5.721  37.126  26.179  1.00  0.00     0.017 A 
HETATM    3  C5  UNL     1       6.151  38.055  27.092  1.00  0.00    -0.026 A 
HETATM    4  C6  UNL     1       6.328  39.302  26.582  1.00  0.00     0.010 A 
HETATM    5  C7  UNL     1       6.076  39.604  25.212  1.00  0.00     0.008 A 
HETATM    6  C8  UNL     1       5.641  38.671  24.306  1.00  0.00    -0.050 A 
HETATM    7  C9  UNL     1       5.385  39.158  22.891  1.00  0.00     0.066 C 
HETATM    8  C10 UNL     1       4.010  39.792  22.736  1.00  0.00     0.184 C 
HETATM    9  O1  UNL     1       2.932  39.041  23.027  1.00  0.00    -0.316 OA
HETATM   10  C11 UNL     1       1.611  39.264  23.375  1.00  0.00     0.262 C 
HETATM   11  N1  UNL     1       1.140  39.791  24.619  1.00  0.00    -0.316 N 
ATOM     12  H1  UNL     1       0.489  40.567  24.497  1.00  0.00     0.170 HD
HETATM   13  C12 UNL     1       1.373  39.478  26.000  1.00  0.00     0.036 A 
HETATM   14  C13 UNL     1       0.187  39.701  26.745  1.00  0.00     0.031 A 
HETATM   15  C14 UNL     1       0.047  39.492  28.071  1.00  0.00     0.026 A 
HETATM   16  C15 UNL     1       1.145  39.023  28.766  1.00  0.00     0.067 A 
HETATM   17  C19 UNL     1       2.367  38.780  28.084  1.00  0.00    -0.017 A 
HETATM   18  C20 UNL     1       2.467  39.011  26.707  1.00  0.00     0.039 A 
HETATM   19  C21 UNL     1       3.381  38.290  29.041  1.00  0.00     0.165 C 
HETATM   20  N2  UNL     1       4.482  39.193  29.347  1.00  0.00    -0.350 N 
HETATM   21  C22 UNL     1       4.168  40.633  29.493  1.00  0.00     0.153 C 
HETATM   22  C23 UNL     1       5.832  38.780  29.517  1.00  0.00     0.247 C 
HETATM   23  O5  UNL     1       6.533  39.293  30.433  1.00  0.00    -0.271 OA
HETATM   24  C24 UNL     1       6.379  37.726  28.572  1.00  0.00     0.208 C 
ENDROOT
BRANCH  24  25
HETATM   25  N3  UNL     1       7.740  37.552  28.930  1.00  0.00    -0.373 N 
ATOM     26  H3  UNL     1       8.319  38.374  29.102  1.00  0.00     0.161 HD
BRANCH  25  27
HETATM   27  C25 UNL     1       8.305  36.280  29.052  1.00  0.00     0.029 A 
HETATM   28  C26 UNL     1       8.593  35.727  30.303  1.00  0.00     0.029 A 
HETATM   29  C27 UNL     1       9.156  34.487  30.421  1.00  0.00     0.003 A 
HETATM   30  C28 UNL     1       9.452  33.754  29.297  1.00  0.00     0.017 A 
HETATM   31  C29 UNL     1       9.192  34.247  28.051  1.00  0.00     0.031 A 
HETATM   32  C31 UNL     1       8.618  35.511  27.956  1.00  0.00     0.045 A 
BRANCH  31  33
HETATM   33  C30 UNL     1       9.503  33.476  26.842  1.00  0.00     0.265 C 
HETATM   34  N4  UNL     1       9.608  32.071  26.957  1.00  0.00    -0.057 NA
HETATM   35  O6  UNL     1       9.666  34.066  25.761  1.00  0.00    -0.271 OA
ENDBRANCH  31  33
ENDBRANCH  25  27
ENDBRANCH  24  25
BRANCH   1  36
HETATM   36  C2  UNL     1       4.970  36.064  24.180  1.00  0.00     0.034 C 
HETATM   37  C1  UNL     1       3.486  35.861  24.346  1.00  0.00     0.010 C 
ENDBRANCH   1  36
BRANCH  16  38
HETATM   38  S1  UNL     1       0.950  38.723  30.488  1.00  0.00     0.179 S 
HETATM   39  O3  UNL     1       1.447  39.768  31.384  1.00  0.00    -0.222 OA
HETATM   40  O4  UNL     1       1.456  37.324  30.844  1.00  0.00    -0.222 OA
BRANCH  38  41
HETATM   41  C16 UNL     1      -0.817  38.623  30.843  1.00  0.00     0.105 C 
HETATM   42  C17 UNL     1      -1.395  37.295  30.521  1.00  0.00     0.026 C 
HETATM   43  C18 UNL     1      -1.027  38.876  32.345  1.00  0.00     0.026 C 
ENDBRANCH  38  41
ENDBRANCH  16  38
BRANCH  10  44
HETATM   44  O2  UNL     1       0.698  38.970  22.492  1.00  0.00    -0.327 OA
ATOM     45  H2  UNL     1      -0.097  38.554  22.804  1.00  0.00     0.221 HD
ENDBRANCH  10  44
TORSDOF 7
ENDMDL
