MODEL 4
REMARK VINA RESULT: -8.482046484      2.851      6.170
REMARK  7 active torsions:
REMARK  status: ('A' for Active; 'I' for Inactive)
REMARK    1  A    between atoms: C2_2  and  C3_3 
REMARK    2  A    between atoms: C11_12  and  O2_13 
REMARK    3  A    between atoms: C15_20  and  S1_21 
REMARK    4  A    between atoms: S1_21  and  C16_24 
REMARK    5  A    between atoms: C24_34  and  N3_35 
REMARK    6  A    between atoms: N3_35  and  C25_37 
REMARK    7  A    between atoms: C29_41  and  C30_42 
ROOT
HETATM    1  C3  UNL     1       6.692  39.524  24.617  1.00  0.00    -0.051 A 
HETATM    2  C4  UNL     1       6.569  38.590  25.724  1.00  0.00     0.017 A 
HETATM    3  C5  UNL     1       6.351  38.942  27.032  1.00  0.00    -0.026 A 
HETATM    4  C6  UNL     1       6.260  40.281  27.244  1.00  0.00     0.010 A 
HETATM    5  C7  UNL     1       6.376  41.227  26.184  1.00  0.00     0.008 A 
HETATM    6  C8  UNL     1       6.589  40.867  24.878  1.00  0.00    -0.050 A 
HETATM    7  C9  UNL     1       6.654  41.992  23.860  1.00  0.00     0.066 C 
HETATM    8  C10 UNL     1       5.273  42.439  23.400  1.00  0.00     0.184 C 
HETATM    9  O1  UNL     1       4.472  41.522  22.828  1.00  0.00    -0.316 OA
HETATM   10  C11 UNL     1       3.114  41.364  22.610  1.00  0.00     0.262 C 
HETATM   11  N1  UNL     1       2.122  41.093  23.607  1.00  0.00    -0.316 N 
ATOM     12  H1  UNL     1       1.328  41.730  23.554  1.00  0.00     0.170 HD
HETATM   13  C12 UNL     1       1.990  40.129  24.661  1.00  0.00     0.036 A 
HETATM   14  C13 UNL     1       0.624  39.778  24.817  1.00  0.00     0.031 A 
HETATM   15  C14 UNL     1       0.144  38.886  25.708  1.00  0.00     0.026 A 
HETATM   16  C15 UNL     1       1.051  38.260  26.541  1.00  0.00     0.067 A 
HETATM   17  C19 UNL     1       2.435  38.565  26.442  1.00  0.00    -0.017 A 
HETATM   18  C20 UNL     1       2.888  39.498  25.503  1.00  0.00     0.039 A 
HETATM   19  C21 UNL     1       3.189  37.772  27.435  1.00  0.00     0.165 C 
HETATM   20  N2  UNL     1       3.770  38.504  28.553  1.00  0.00    -0.350 N 
HETATM   21  C22 UNL     1       2.969  39.599  29.145  1.00  0.00     0.153 C 
HETATM   22  C23 UNL     1       5.051  38.232  29.108  1.00  0.00     0.247 C 
HETATM   23  O5  UNL     1       5.209  38.266  30.360  1.00  0.00    -0.271 OA
HETATM   24  C24 UNL     1       6.187  37.912  28.155  1.00  0.00     0.208 C 
ENDROOT
BRANCH  24  25
HETATM   25  N3  UNL     1       7.338  37.743  28.967  1.00  0.00    -0.373 N 
ATOM     26  H3  UNL     1       7.679  38.531  29.518  1.00  0.00     0.161 HD
BRANCH  25  27
HETATM   27  C25 UNL     1       8.015  36.523  29.028  1.00  0.00     0.029 A 
HETATM   28  C26 UNL     1       8.395  35.960  30.250  1.00  0.00     0.029 A 
HETATM   29  C27 UNL     1       9.067  34.771  30.308  1.00  0.00     0.003 A 
HETATM   30  C28 UNL     1       9.383  34.100  29.152  1.00  0.00     0.017 A 
HETATM   31  C29 UNL     1       9.037  34.605  27.932  1.00  0.00     0.031 A 
HETATM   32  C31 UNL     1       8.353  35.817  27.898  1.00  0.00     0.045 A 
BRANCH  31  33
HETATM   33  C30 UNL     1       9.369  33.901  26.689  1.00  0.00     0.265 C 
HETATM   34  N4  UNL     1       9.516  32.495  26.739  1.00  0.00    -0.057 NA
HETATM   35  O6  UNL     1       9.513  34.545  25.636  1.00  0.00    -0.271 OA
ENDBRANCH  31  33
ENDBRANCH  25  27
ENDBRANCH  24  25
BRANCH   1  36
HETATM   36  C2  UNL     1       6.895  38.660  23.362  1.00  0.00     0.034 C 
HETATM   37  C1  UNL     1       8.313  38.700  22.856  1.00  0.00     0.010 C 
ENDBRANCH   1  36
BRANCH  16  38
HETATM   38  S1  UNL     1       0.425  37.075  27.681  1.00  0.00     0.179 S 
HETATM   39  O3  UNL     1       0.653  37.360  29.097  1.00  0.00    -0.222 OA
HETATM   40  O4  UNL     1       0.848  35.665  27.266  1.00  0.00    -0.222 OA
BRANCH  38  41
HETATM   41  C16 UNL     1      -1.372  37.030  27.510  1.00  0.00     0.105 C 
HETATM   42  C17 UNL     1      -1.867  35.744  26.959  1.00  0.00     0.026 C 
HETATM   43  C18 UNL     1      -1.998  37.217  28.903  1.00  0.00     0.026 C 
ENDBRANCH  38  41
ENDBRANCH  16  38
BRANCH  10  44
HETATM   44  O2  UNL     1       2.684  41.471  21.385  1.00  0.00    -0.327 OA
ATOM     45  H2  UNL     1       1.746  41.539  21.253  1.00  0.00     0.221 HD
ENDBRANCH  10  44
TORSDOF 7
ENDMDL
