MODEL 7
REMARK VINA RESULT: -8.409714467      3.665      6.286
REMARK  5 active torsions:
REMARK  status: ('A' for Active; 'I' for Inactive)
REMARK    1  A    between atoms: C2_2  and  N1_3 
REMARK    2  A    between atoms: C2_2  and  C12_25 
REMARK    3  A    between atoms: N1_3  and  C3_6 
REMARK    4  A    between atoms: C3_6  and  C4_7 
REMARK    5  A    between atoms: C3_6  and  P1_21 
ROOT
HETATM    1  C3  UNL     1      -9.623  17.986 -50.221  1.00  0.00     0.350 C 
ENDROOT
BRANCH   1   2
HETATM    2  N1  UNL     1      -8.358  18.576 -49.777  1.00  0.00    -0.046 N 
ATOM      3  H12 UNL     1      -8.475  19.199 -48.978  1.00  0.00     0.279 HD
ATOM      4  H11 UNL     1      -7.992  19.263 -50.436  1.00  0.00     0.279 HD
BRANCH   2   5
HETATM    5  C2  UNL     1      -7.422  17.499 -49.514  1.00  0.00     0.216 C 
HETATM    6  C1  UNL     1      -8.072  16.186 -49.942  1.00  0.00     0.045 C 
BRANCH   5   7
HETATM    7  C12 UNL     1      -6.224  17.687 -50.336  1.00  0.00    -0.028 A 
HETATM    8  C13 UNL     1      -6.183  17.441 -51.695  1.00  0.00     0.010 A 
HETATM    9  C14 UNL     1      -5.033  17.638 -52.395  1.00  0.00     0.019 A 
HETATM   10  C15 UNL     1      -3.893  18.079 -51.777  1.00  0.00     0.011 A 
HETATM   11 BR1  UNL     1      -2.267  18.359 -52.741  1.00  0.00    -0.051 Br
HETATM   12  C16 UNL     1      -3.887  18.338 -50.408  1.00  0.00     0.019 A 
HETATM   13  C17 UNL     1      -5.064  18.129 -49.741  1.00  0.00     0.010 A 
ENDBRANCH   5   7
ENDBRANCH   2   5
ENDBRANCH   1   2
BRANCH   1  14
HETATM   14  C4  UNL     1     -10.739  18.319 -49.334  1.00  0.00     0.015 A 
HETATM   15  C5  UNL     1     -10.576  19.376 -48.435  1.00  0.00     0.012 A 
HETATM   16  C6  UNL     1     -11.577  19.756 -47.561  1.00  0.00     0.003 A 
HETATM   17  C7  UNL     1     -12.774  19.088 -47.562  1.00  0.00     0.032 A 
HETATM   18  C8  UNL     1     -12.958  18.048 -48.434  1.00  0.00     0.062 A 
HETATM   19  N2  UNL     1     -14.141  17.412 -48.413  1.00  0.00    -0.317 N 
HETATM   20  C11 UNL     1     -11.953  17.680 -49.299  1.00  0.00     0.071 A 
HETATM   21  C9  UNL     1     -14.334  16.399 -49.258  1.00  0.00     0.314 A 
ATOM     22  H2  UNL     1     -14.875  17.698 -47.765  1.00  0.00     0.169 HD
HETATM   23  O1  UNL     1     -15.427  15.766 -49.281  1.00  0.00    -0.262 OA
HETATM   24  C10 UNL     1     -13.334  16.025 -50.125  1.00  0.00     0.314 A 
HETATM   25  O2  UNL     1     -13.543  15.046 -50.929  1.00  0.00    -0.262 OA
HETATM   26  N3  UNL     1     -12.162  16.672 -50.129  1.00  0.00    -0.316 N 
ATOM     27  H3  UNL     1     -11.427  16.387 -50.776  1.00  0.00     0.169 HD
ENDBRANCH   1  14
BRANCH   1  28
HETATM   28  P1  UNL     1      -9.912  18.659 -51.887  1.00  0.00     0.296 P 
HETATM   29  O3  UNL     1     -10.759  17.518 -52.852  1.00  0.00    -0.638 OA
HETATM   30  O4  UNL     1     -10.814  19.907 -51.859  1.00  0.00    -0.638 OA
HETATM   31  O5  UNL     1      -8.447  19.216 -52.613  1.00  0.00    -0.638 OA
ENDBRANCH   1  28
TORSDOF 5
ENDMDL
