MODEL 3
REMARK VINA RESULT: -9.051106415      3.640      6.310
REMARK  5 active torsions:
REMARK  status: ('A' for Active; 'I' for Inactive)
REMARK    1  A    between atoms: C2_2  and  N1_3 
REMARK    2  A    between atoms: C2_2  and  C12_25 
REMARK    3  A    between atoms: N1_3  and  C3_6 
REMARK    4  A    between atoms: C3_6  and  C4_7 
REMARK    5  A    between atoms: C3_6  and  P1_21 
ROOT
HETATM    1  C3  UNL     1     -11.614  17.838 -49.047  1.00  0.00     0.350 C 
ENDROOT
BRANCH   1   2
HETATM    2  N1  UNL     1     -10.371  17.396 -48.412  1.00  0.00    -0.046 N 
ATOM      3  H12 UNL     1     -10.512  17.069 -47.456  1.00  0.00     0.279 HD
ATOM      4  H11 UNL     1      -9.740  18.169 -48.201  1.00  0.00     0.279 HD
BRANCH   2   5
HETATM    5  C2  UNL     1      -9.758  16.391 -49.261  1.00  0.00     0.216 C 
HETATM    6  C1  UNL     1     -10.592  16.271 -50.535  1.00  0.00     0.045 C 
BRANCH   5   7
HETATM    7  C12 UNL     1      -8.419  16.837 -49.651  1.00  0.00    -0.028 A 
HETATM    8  C13 UNL     1      -8.148  17.501 -50.833  1.00  0.00     0.010 A 
HETATM    9  C14 UNL     1      -6.876  17.885 -51.129  1.00  0.00     0.019 A 
HETATM   10  C15 UNL     1      -5.839  17.626 -50.274  1.00  0.00     0.011 A 
HETATM   11 BR1  UNL     1      -4.047  18.155 -50.673  1.00  0.00    -0.051 Br
HETATM   12  C16 UNL     1      -6.065  16.958 -49.072  1.00  0.00     0.019 A 
HETATM   13  C17 UNL     1      -7.357  16.590 -48.811  1.00  0.00     0.010 A 
ENDBRANCH   5   7
ENDBRANCH   2   5
ENDBRANCH   1   2
BRANCH   1  14
HETATM   14  C4  UNL     1     -12.744  17.853 -48.116  1.00  0.00     0.015 A 
HETATM   15  C5  UNL     1     -12.515  18.280 -46.806  1.00  0.00     0.012 A 
HETATM   16  C6  UNL     1     -13.524  18.325 -45.863  1.00  0.00     0.003 A 
HETATM   17  C7  UNL     1     -14.795  17.944 -46.204  1.00  0.00     0.032 A 
HETATM   18  C8  UNL     1     -15.046  17.521 -47.484  1.00  0.00     0.062 A 
HETATM   19  N2  UNL     1     -16.301  17.154 -47.791  1.00  0.00    -0.317 N 
HETATM   20  C11 UNL     1     -14.031  17.481 -48.413  1.00  0.00     0.071 A 
HETATM   21  C9  UNL     1     -16.558  16.742 -49.032  1.00  0.00     0.314 A 
ATOM     22  H2  UNL     1     -17.040  17.189 -47.089  1.00  0.00     0.169 HD
HETATM   23  O1  UNL     1     -17.720  16.385 -49.375  1.00  0.00    -0.262 OA
HETATM   24  C10 UNL     1     -15.549  16.699 -49.966  1.00  0.00     0.314 A 
HETATM   25  O2  UNL     1     -15.821  16.299 -51.156  1.00  0.00    -0.262 OA
HETATM   26  N3  UNL     1     -14.305  17.070 -49.639  1.00  0.00    -0.316 N 
ATOM     27  H3  UNL     1     -13.565  17.034 -50.340  1.00  0.00     0.169 HD
ENDBRANCH   1  14
BRANCH   1  28
HETATM   28  P1  UNL     1     -11.273  19.516 -49.662  1.00  0.00     0.296 P 
HETATM   29  O3  UNL     1     -12.513  20.596 -49.167  1.00  0.00    -0.638 OA
HETATM   30  O4  UNL     1      -9.976  20.098 -49.070  1.00  0.00    -0.638 OA
HETATM   31  O5  UNL     1     -10.998  19.526 -51.368  1.00  0.00    -0.638 OA
ENDBRANCH   1  28
TORSDOF 5
ENDMDL
