MODEL 1
REMARK VINA RESULT: -11.034578083      0.000      0.000
REMARK  5 active torsions:
REMARK  status: ('A' for Active; 'I' for Inactive)
REMARK    1  A    between atoms: C2_2  and  N1_3 
REMARK    2  A    between atoms: C2_2  and  C12_25 
REMARK    3  A    between atoms: N1_3  and  C3_6 
REMARK    4  A    between atoms: C3_6  and  C4_7 
REMARK    5  A    between atoms: C3_6  and  P1_21 
ROOT
HETATM    1  C3  UNL     1      -9.611  19.317 -50.515  1.00  0.00     0.350 C 
ENDROOT
BRANCH   1   2
HETATM    2  N1  UNL     1     -11.013  19.330 -50.091  1.00  0.00    -0.046 N 
ATOM      3  H12 UNL     1     -11.556  18.573 -50.507  1.00  0.00     0.279 HD
ATOM      4  H11 UNL     1     -11.537  20.110 -50.488  1.00  0.00     0.279 HD
BRANCH   2   5
HETATM    5  C2  UNL     1     -11.050  19.312 -48.640  1.00  0.00     0.216 C 
HETATM    6  C1  UNL     1     -10.958  20.753 -48.143  1.00  0.00     0.045 C 
BRANCH   5   7
HETATM    7  C12 UNL     1     -12.337  18.774 -48.195  1.00  0.00    -0.028 A 
HETATM    8  C13 UNL     1     -13.130  17.947 -48.969  1.00  0.00     0.010 A 
HETATM    9  C14 UNL     1     -14.316  17.485 -48.488  1.00  0.00     0.019 A 
HETATM   10  C15 UNL     1     -14.755  17.823 -47.236  1.00  0.00     0.011 A 
HETATM   11 BR1  UNL     1     -16.417  17.186 -46.543  1.00  0.00    -0.051 Br
HETATM   12  C16 UNL     1     -13.989  18.655 -46.421  1.00  0.00     0.019 A 
HETATM   13  C17 UNL     1     -12.803  19.098 -46.941  1.00  0.00     0.010 A 
ENDBRANCH   5   7
ENDBRANCH   2   5
ENDBRANCH   1   2
BRANCH   1  14
HETATM   14  C4  UNL     1      -8.912  18.100 -50.100  1.00  0.00     0.015 A 
HETATM   15  C5  UNL     1      -7.655  18.230 -49.502  1.00  0.00     0.012 A 
HETATM   16  C6  UNL     1      -6.927  17.134 -49.082  1.00  0.00     0.003 A 
HETATM   17  C7  UNL     1      -7.435  15.872 -49.246  1.00  0.00     0.032 A 
HETATM   18  C8  UNL     1      -8.666  15.718 -49.829  1.00  0.00     0.062 A 
HETATM   19  N2  UNL     1      -9.140  14.470 -49.977  1.00  0.00    -0.317 N 
HETATM   20  C11 UNL     1      -9.381  16.818 -50.244  1.00  0.00     0.071 A 
HETATM   21  C9  UNL     1     -10.336  14.306 -50.541  1.00  0.00     0.314 A 
ATOM     22  H2  UNL     1      -8.596  13.666 -49.664  1.00  0.00     0.169 HD
HETATM   23  O1  UNL     1     -10.830  13.154 -50.705  1.00  0.00    -0.262 OA
HETATM   24  C10 UNL     1     -11.057  15.400 -50.959  1.00  0.00     0.314 A 
HETATM   25  O2  UNL     1     -12.206  15.218 -51.500  1.00  0.00    -0.262 OA
HETATM   26  N3  UNL     1     -10.565  16.636 -50.802  1.00  0.00    -0.316 N 
ATOM     27  H3  UNL     1     -11.108  17.441 -51.114  1.00  0.00     0.169 HD
ENDBRANCH   1  14
BRANCH   1  28
HETATM   28  P1  UNL     1      -9.652  19.441 -52.329  1.00  0.00     0.296 P 
HETATM   29  O3  UNL     1      -8.099  19.113 -52.985  1.00  0.00    -0.638 OA
HETATM   30  O4  UNL     1     -10.583  18.388 -52.961  1.00  0.00    -0.638 OA
HETATM   31  O5  UNL     1     -10.311  20.950 -52.851  1.00  0.00    -0.638 OA
ENDBRANCH   1  28
TORSDOF 5
ENDMDL
