MODEL 8
REMARK VINA RESULT: -8.403980067      3.861      6.367
REMARK  5 active torsions:
REMARK  status: ('A' for Active; 'I' for Inactive)
REMARK    1  A    between atoms: C2_2  and  N1_3 
REMARK    2  A    between atoms: C2_2  and  C12_25 
REMARK    3  A    between atoms: N1_3  and  C3_6 
REMARK    4  A    between atoms: C3_6  and  C4_7 
REMARK    5  A    between atoms: C3_6  and  P1_21 
ROOT
HETATM    1  C3  UNL     1     -11.626  17.958 -49.313  1.00  0.00     0.350 C 
ENDROOT
BRANCH   1   2
HETATM    2  N1  UNL     1     -10.400  17.162 -49.218  1.00  0.00    -0.046 N 
ATOM      3  H12 UNL     1     -10.302  16.698 -48.316  1.00  0.00     0.279 HD
ATOM      4  H11 UNL     1      -9.560  17.739 -49.169  1.00  0.00     0.279 HD
BRANCH   2   5
HETATM    5  C2  UNL     1     -10.373  16.232 -50.331  1.00  0.00     0.216 C 
HETATM    6  C1  UNL     1     -11.813  15.849 -50.668  1.00  0.00     0.045 C 
BRANCH   5   7
HETATM    7  C12 UNL     1      -9.808  16.898 -51.506  1.00  0.00    -0.028 A 
HETATM    8  C13 UNL     1      -8.606  17.581 -51.495  1.00  0.00     0.010 A 
HETATM    9  C14 UNL     1      -8.143  18.177 -52.627  1.00  0.00     0.019 A 
HETATM   10  C15 UNL     1      -8.849  18.119 -53.799  1.00  0.00     0.011 A 
HETATM   11 BR1  UNL     1      -8.217  18.951 -55.399  1.00  0.00    -0.051 Br
HETATM   12  C16 UNL     1     -10.066  17.443 -53.857  1.00  0.00     0.019 A 
HETATM   13  C17 UNL     1     -10.496  16.857 -52.698  1.00  0.00     0.010 A 
ENDBRANCH   5   7
ENDBRANCH   2   5
ENDBRANCH   1   2
BRANCH   1  14
HETATM   14  C4  UNL     1     -12.398  17.948 -48.069  1.00  0.00     0.015 A 
HETATM   15  C5  UNL     1     -11.725  17.672 -46.876  1.00  0.00     0.012 A 
HETATM   16  C6  UNL     1     -12.376  17.642 -45.658  1.00  0.00     0.003 A 
HETATM   17  C7  UNL     1     -13.723  17.889 -45.597  1.00  0.00     0.032 A 
HETATM   18  C8  UNL     1     -14.405  18.164 -46.753  1.00  0.00     0.062 A 
HETATM   19  N2  UNL     1     -15.724  18.403 -46.664  1.00  0.00    -0.317 N 
HETATM   20  C11 UNL     1     -13.744  18.190 -47.960  1.00  0.00     0.071 A 
HETATM   21  C9  UNL     1     -16.399  18.672 -47.781  1.00  0.00     0.314 A 
ATOM     22  H2  UNL     1     -16.197  18.379 -45.761  1.00  0.00     0.169 HD
HETATM   23  O1  UNL     1     -17.641  18.905 -47.754  1.00  0.00    -0.262 OA
HETATM   24  C10 UNL     1     -15.746  18.700 -48.991  1.00  0.00     0.314 A 
HETATM   25  O2  UNL     1     -16.417  18.962 -50.053  1.00  0.00    -0.262 OA
HETATM   26  N3  UNL     1     -14.431  18.458 -49.058  1.00  0.00    -0.316 N 
ATOM     27  H3  UNL     1     -13.956  18.482 -49.960  1.00  0.00     0.169 HD
ENDBRANCH   1  14
BRANCH   1  28
HETATM   28  P1  UNL     1     -11.079  19.646 -49.710  1.00  0.00     0.296 P 
HETATM   29  O3  UNL     1     -12.048  20.798 -48.884  1.00  0.00    -0.638 OA
HETATM   30  O4  UNL     1      -9.640  19.917 -49.230  1.00  0.00    -0.638 OA
HETATM   31  O5  UNL     1     -11.009  19.910 -51.416  1.00  0.00    -0.638 OA
ENDBRANCH   1  28
TORSDOF 5
ENDMDL
