MODEL 2
REMARK VINA RESULT: -8.755301090      2.962      7.245
REMARK  5 active torsions:
REMARK  status: ('A' for Active; 'I' for Inactive)
REMARK    1  A    between atoms: C2_5  and  N3_6 
REMARK    2  A    between atoms: N3_6  and  C3_8 
REMARK    3  A    between atoms: N5_15  and  C8_16 
REMARK    4  A    between atoms: C11_19  and  C12_20 
REMARK    5  A    between atoms: C12_20  and  O1_21 
ROOT
HETATM    1  N1  UNL     1      14.797  13.313  57.096  1.00  0.00    -0.063 NA
HETATM    2  C1  UNL     1      14.914  11.974  56.642  1.00  0.00     0.195 A 
HETATM    3  N2  UNL     1      13.814  11.403  56.103  1.00  0.00    -0.315 N 
ATOM      4  H2  UNL     1      12.957  11.955  56.048  1.00  0.00     0.170 HD
HETATM    5  C2  UNL     1      13.796  10.147  55.638  1.00  0.00     0.135 A 
HETATM    6  C6  UNL     1      14.973   9.431  55.730  1.00  0.00     0.122 A 
HETATM    7  N4  UNL     1      15.292   8.181  55.368  1.00  0.00    -0.346 N 
ATOM      8  H4  UNL     1      14.668   7.502  54.932  1.00  0.00     0.167 HD
HETATM    9  C7  UNL     1      16.583   7.987  55.685  1.00  0.00     0.186 A 
HETATM   10  N5  UNL     1      17.068   9.108  56.242  1.00  0.00    -0.319 N 
HETATM   11  C14 UNL     1      16.083  10.015  56.277  1.00  0.00     0.142 A 
HETATM   12  N6  UNL     1      16.054  11.268  56.726  1.00  0.00    -0.314 N 
ATOM     13  H6  UNL     1      16.890  11.688  57.131  1.00  0.00     0.170 HD
ENDROOT
BRANCH  10  14
HETATM   14  C8  UNL     1      18.420   9.248  56.699  1.00  0.00     0.115 C 
HETATM   15  C9  UNL     1      19.408   8.481  55.955  1.00  0.00    -0.005 C 
HETATM   16  C10 UNL     1      20.566   9.129  56.013  1.00  0.00    -0.022 C 
HETATM   17  C11 UNL     1      20.437  10.381  56.802  1.00  0.00     0.034 C 
HETATM   18  C13 UNL     1      18.943  10.664  56.583  1.00  0.00     0.040 C 
BRANCH  17  19
HETATM   19  C12 UNL     1      21.282  11.495  56.285  1.00  0.00     0.172 C 
BRANCH  19  20
HETATM   20  O1  UNL     1      20.519  12.656  56.288  1.00  0.00    -0.400 OA
ATOM     21  H1  UNL     1      21.065  13.371  55.983  1.00  0.00     0.209 HD
ENDBRANCH  19  20
ENDBRANCH  17  19
ENDBRANCH  10  14
BRANCH   5  22
HETATM   22  N3  UNL     1      12.635   9.553  55.071  1.00  0.00    -0.370 N 
ATOM     23  H3  UNL     1      12.691   8.697  54.519  1.00  0.00     0.161 HD
BRANCH  22  24
HETATM   24  C3  UNL     1      11.351  10.223  55.315  1.00  0.00     0.083 A 
HETATM   25  C4  UNL     1      10.647  10.710  54.027  1.00  0.00     0.027 A 
HETATM   26  C5  UNL     1      10.105   9.586  54.836  1.00  0.00     0.027 A 
ENDBRANCH  22  24
ENDBRANCH   5  22
TORSDOF 5
ENDMDL
