MODEL 4
REMARK VINA RESULT: -8.466227867      2.970      7.265
REMARK  5 active torsions:
REMARK  status: ('A' for Active; 'I' for Inactive)
REMARK    1  A    between atoms: C2_5  and  N3_6 
REMARK    2  A    between atoms: N3_6  and  C3_8 
REMARK    3  A    between atoms: N5_15  and  C8_16 
REMARK    4  A    between atoms: C11_19  and  C12_20 
REMARK    5  A    between atoms: C12_20  and  O1_21 
ROOT
HETATM    1  N1  UNL     1      14.924  13.984  57.118  1.00  0.00    -0.063 NA
HETATM    2  C1  UNL     1      15.079  12.610  56.803  1.00  0.00     0.195 A 
HETATM    3  N2  UNL     1      13.954  11.890  56.597  1.00  0.00    -0.315 N 
ATOM      4  H2  UNL     1      13.053  12.362  56.676  1.00  0.00     0.170 HD
HETATM    5  C2  UNL     1      13.967  10.586  56.293  1.00  0.00     0.135 A 
HETATM    6  C6  UNL     1      15.204   9.980  56.195  1.00  0.00     0.122 A 
HETATM    7  N4  UNL     1      15.565   8.721  55.914  1.00  0.00    -0.346 N 
ATOM      8  H4  UNL     1      14.936   7.944  55.711  1.00  0.00     0.167 HD
HETATM    9  C7  UNL     1      16.908   8.669  55.948  1.00  0.00     0.186 A 
HETATM   10  N5  UNL     1      17.382   9.889  56.250  1.00  0.00    -0.319 N 
HETATM   11  C14 UNL     1      16.339  10.715  56.405  1.00  0.00     0.142 A 
HETATM   12  N6  UNL     1      16.277  12.010  56.705  1.00  0.00    -0.314 N 
ATOM     13  H6  UNL     1      17.133  12.543  56.859  1.00  0.00     0.170 HD
ENDROOT
BRANCH  10  14
HETATM   14  C8  UNL     1      18.778  10.191  56.369  1.00  0.00     0.115 C 
HETATM   15  C9  UNL     1      19.532   9.302  57.239  1.00  0.00    -0.005 C 
HETATM   16  C10 UNL     1      20.785   9.254  56.801  1.00  0.00    -0.022 C 
HETATM   17  C11 UNL     1      20.961  10.111  55.600  1.00  0.00     0.034 C 
HETATM   18  C13 UNL     1      19.525  10.082  55.056  1.00  0.00     0.040 C 
BRANCH  17  19
HETATM   19  C12 UNL     1      21.927   9.551  54.611  1.00  0.00     0.172 C 
BRANCH  19  20
HETATM   20  O1  UNL     1      21.945   8.169  54.757  1.00  0.00    -0.400 OA
ATOM     21  H1  UNL     1      22.426   7.800  54.026  1.00  0.00     0.209 HD
ENDBRANCH  19  20
ENDBRANCH  17  19
ENDBRANCH  10  14
BRANCH   5  22
HETATM   22  N3  UNL     1      12.779   9.834  56.077  1.00  0.00    -0.370 N 
ATOM     23  H3  UNL     1      12.346   9.296  56.828  1.00  0.00     0.161 HD
BRANCH  22  24
HETATM   24  C3  UNL     1      12.203   9.865  54.726  1.00  0.00     0.083 A 
HETATM   25  C4  UNL     1      10.774   9.280  54.644  1.00  0.00     0.027 A 
HETATM   26  C5  UNL     1      11.033  10.732  54.464  1.00  0.00     0.027 A 
ENDBRANCH  22  24
ENDBRANCH   5  22
TORSDOF 5
ENDMDL
