MODEL 5
REMARK VINA RESULT: -8.328712996      1.809      3.274
REMARK  5 active torsions:
REMARK  status: ('A' for Active; 'I' for Inactive)
REMARK    1  A    between atoms: C2_5  and  N3_6 
REMARK    2  A    between atoms: N3_6  and  C3_8 
REMARK    3  A    between atoms: N5_15  and  C8_16 
REMARK    4  A    between atoms: C11_19  and  C12_20 
REMARK    5  A    between atoms: C12_20  and  O1_21 
ROOT
HETATM    1  N1  UNL     1      17.785   6.786  55.772  1.00  0.00    -0.063 NA
HETATM    2  C1  UNL     1      17.382   8.129  55.991  1.00  0.00     0.195 A 
HETATM    3  N2  UNL     1      18.350   9.029  56.273  1.00  0.00    -0.315 N 
ATOM      4  H2  UNL     1      19.317   8.706  56.316  1.00  0.00     0.170 HD
HETATM    5  C2  UNL     1      18.099  10.325  56.499  1.00  0.00     0.135 A 
HETATM    6  C6  UNL     1      16.779  10.726  56.433  1.00  0.00     0.122 A 
HETATM    7  N4  UNL     1      16.196  11.920  56.602  1.00  0.00    -0.346 N 
ATOM      8  H4  UNL     1      16.668  12.795  56.825  1.00  0.00     0.167 HD
HETATM    9  C7  UNL     1      14.874  11.751  56.425  1.00  0.00     0.186 A 
HETATM   10  N5  UNL     1      14.633  10.460  56.147  1.00  0.00    -0.319 N 
HETATM   11  C14 UNL     1      15.804   9.809  56.147  1.00  0.00     0.142 A 
HETATM   12  N6  UNL     1      16.101   8.530  55.930  1.00  0.00    -0.314 N 
ATOM     13  H6  UNL     1      15.363   7.859  55.718  1.00  0.00     0.170 HD
ENDROOT
BRANCH  10  14
HETATM   14  C8  UNL     1      13.324   9.930  55.901  1.00  0.00     0.115 C 
HETATM   15  C9  UNL     1      12.281  10.421  56.789  1.00  0.00    -0.005 C 
HETATM   16  C10 UNL     1      11.129  10.400  56.129  1.00  0.00    -0.022 C 
HETATM   17  C11 UNL     1      11.318   9.892  54.746  1.00  0.00     0.034 C 
HETATM   18  C13 UNL     1      12.787  10.286  54.530  1.00  0.00     0.040 C 
BRANCH  17  19
HETATM   19  C12 UNL     1      10.427  10.552  53.748  1.00  0.00     0.172 C 
BRANCH  19  20
HETATM   20  O1  UNL     1      10.695  11.916  53.763  1.00  0.00    -0.400 OA
ATOM     21  H1  UNL     1      10.243  12.314  53.028  1.00  0.00     0.209 HD
ENDBRANCH  19  20
ENDBRANCH  17  19
ENDBRANCH  10  14
BRANCH   5  22
HETATM   22  N3  UNL     1      19.122  11.267  56.794  1.00  0.00    -0.370 N 
ATOM     23  H3  UNL     1      19.213  11.680  57.723  1.00  0.00     0.161 HD
BRANCH  22  24
HETATM   24  C3  UNL     1      20.043  11.620  55.706  1.00  0.00     0.083 A 
HETATM   25  C4  UNL     1      21.517  11.750  56.154  1.00  0.00     0.027 A 
HETATM   26  C5  UNL     1      21.063  10.637  55.280  1.00  0.00     0.027 A 
ENDBRANCH  22  24
ENDBRANCH   5  22
TORSDOF 5
ENDMDL
