MODEL 6
REMARK VINA RESULT: -8.226848839      2.812      6.943
REMARK  5 active torsions:
REMARK  status: ('A' for Active; 'I' for Inactive)
REMARK    1  A    between atoms: C2_5  and  N3_6 
REMARK    2  A    between atoms: N3_6  and  C3_8 
REMARK    3  A    between atoms: N5_15  and  C8_16 
REMARK    4  A    between atoms: C11_19  and  C12_20 
REMARK    5  A    between atoms: C12_20  and  O1_21 
ROOT
HETATM    1  N1  UNL     1      15.267  13.820  57.321  1.00  0.00    -0.063 NA
HETATM    2  C1  UNL     1      15.091  12.461  56.952  1.00  0.00     0.195 A 
HETATM    3  N2  UNL     1      13.832  12.048  56.688  1.00  0.00    -0.315 N 
ATOM      4  H2  UNL     1      13.071  12.724  56.765  1.00  0.00     0.170 HD
HETATM    5  C2  UNL     1      13.535  10.792  56.329  1.00  0.00     0.135 A 
HETATM    6  C6  UNL     1      14.589   9.905  56.234  1.00  0.00     0.122 A 
HETATM    7  N4  UNL     1      14.640   8.606  55.909  1.00  0.00    -0.346 N 
ATOM      8  H4  UNL     1      13.848   8.016  55.658  1.00  0.00     0.167 HD
HETATM    9  C7  UNL     1      15.928   8.225  55.973  1.00  0.00     0.186 A 
HETATM   10  N5  UNL     1      16.675   9.279  56.338  1.00  0.00    -0.319 N 
HETATM   11  C14 UNL     1      15.861  10.330  56.504  1.00  0.00     0.142 A 
HETATM   12  N6  UNL     1      16.108  11.589  56.857  1.00  0.00    -0.314 N 
ATOM     13  H6  UNL     1      17.063  11.890  57.054  1.00  0.00     0.170 HD
ENDROOT
BRANCH  10  14
HETATM   14  C8  UNL     1      18.098   9.224  56.504  1.00  0.00     0.115 C 
HETATM   15  C9  UNL     1      18.732   8.009  56.013  1.00  0.00    -0.005 C 
HETATM   16  C10 UNL     1      19.970   8.309  55.636  1.00  0.00    -0.022 C 
HETATM   17  C11 UNL     1      20.255   9.752  55.847  1.00  0.00     0.034 C 
HETATM   18  C13 UNL     1      18.828  10.310  55.741  1.00  0.00     0.040 C 
BRANCH  17  19
HETATM   19  C12 UNL     1      21.146  10.337  54.803  1.00  0.00     0.172 C 
BRANCH  19  20
HETATM   20  O1  UNL     1      20.373  10.615  53.681  1.00  0.00    -0.400 OA
ATOM     21  H1  UNL     1      20.867  10.357  52.911  1.00  0.00     0.209 HD
ENDBRANCH  19  20
ENDBRANCH  17  19
ENDBRANCH  10  14
BRANCH   5  22
HETATM   22  N3  UNL     1      12.208  10.364  56.052  1.00  0.00    -0.370 N 
ATOM     23  H3  UNL     1      11.541  10.179  56.801  1.00  0.00     0.161 HD
BRANCH  22  24
HETATM   24  C3  UNL     1      11.837  10.199  54.640  1.00  0.00     0.083 A 
HETATM   25  C4  UNL     1      10.461   9.525  54.431  1.00  0.00     0.027 A 
HETATM   26  C5  UNL     1      10.685  10.959  54.106  1.00  0.00     0.027 A 
ENDBRANCH  22  24
ENDBRANCH   5  22
TORSDOF 5
ENDMDL
