MODEL 1
REMARK VINA RESULT: -9.524794422      0.000      0.000
REMARK  5 active torsions:
REMARK  status: ('A' for Active; 'I' for Inactive)
REMARK    1  A    between atoms: C2_5  and  N3_6 
REMARK    2  A    between atoms: N3_6  and  C3_8 
REMARK    3  A    between atoms: N5_15  and  C8_16 
REMARK    4  A    between atoms: C11_19  and  C12_20 
REMARK    5  A    between atoms: C12_20  and  O1_21 
ROOT
HETATM    1  N1  UNL     1      15.134  13.620  57.725  1.00  0.00    -0.063 NA
HETATM    2  C1  UNL     1      15.117  12.396  57.009  1.00  0.00     0.195 A 
HETATM    3  N2  UNL     1      16.302  11.780  56.803  1.00  0.00    -0.315 N 
ATOM      4  H2  UNL     1      17.147  12.219  57.168  1.00  0.00     0.170 HD
HETATM    5  C2  UNL     1      16.418  10.621  56.143  1.00  0.00     0.135 A 
HETATM    6  C6  UNL     1      15.252  10.056  55.664  1.00  0.00     0.122 A 
HETATM    7  N4  UNL     1      15.019   8.929  54.978  1.00  0.00    -0.346 N 
ATOM      8  H4  UNL     1      15.718   8.253  54.673  1.00  0.00     0.167 HD
HETATM    9  C7  UNL     1      13.694   8.855  54.764  1.00  0.00     0.186 A 
HETATM   10  N5  UNL     1      13.104   9.929  55.312  1.00  0.00    -0.319 N 
HETATM   11  C14 UNL     1      14.056  10.685  55.876  1.00  0.00     0.142 A 
HETATM   12  N6  UNL     1      13.989  11.837  56.538  1.00  0.00    -0.314 N 
ATOM     13  H6  UNL     1      13.089  12.293  56.688  1.00  0.00     0.170 HD
ENDROOT
BRANCH  10  14
HETATM   14  C8  UNL     1      11.691  10.169  55.269  1.00  0.00     0.115 C 
HETATM   15  C9  UNL     1      11.214  10.846  54.073  1.00  0.00    -0.005 C 
HETATM   16  C10 UNL     1       9.964  10.458  53.845  1.00  0.00    -0.022 C 
HETATM   17  C11 UNL     1       9.512   9.488  54.877  1.00  0.00     0.034 C 
HETATM   18  C13 UNL     1      10.871   8.895  55.279  1.00  0.00     0.040 C 
BRANCH  17  19
HETATM   19  C12 UNL     1       8.599   8.439  54.341  1.00  0.00     0.172 C 
BRANCH  19  20
HETATM   20  O1  UNL     1       9.144   7.196  54.642  1.00  0.00    -0.400 OA
ATOM     21  H1  UNL     1       9.539   6.847  53.851  1.00  0.00     0.209 HD
ENDBRANCH  19  20
ENDBRANCH  17  19
ENDBRANCH  10  14
BRANCH   5  22
HETATM   22  N3  UNL     1      17.668   9.978  55.930  1.00  0.00    -0.370 N 
ATOM     23  H3  UNL     1      17.734   9.097  55.419  1.00  0.00     0.161 HD
BRANCH  22  24
HETATM   24  C3  UNL     1      18.862  10.636  56.477  1.00  0.00     0.083 A 
HETATM   25  C4  UNL     1      20.193  10.040  55.964  1.00  0.00     0.027 A 
HETATM   26  C5  UNL     1      19.742  11.400  55.566  1.00  0.00     0.027 A 
ENDBRANCH  22  24
ENDBRANCH   5  22
TORSDOF 5
ENDMDL
