MODEL 7
REMARK VINA RESULT: -8.002466346      1.232      1.851
REMARK  5 active torsions:
REMARK  status: ('A' for Active; 'I' for Inactive)
REMARK    1  A    between atoms: C2_5  and  N3_6 
REMARK    2  A    between atoms: N3_6  and  C3_8 
REMARK    3  A    between atoms: N5_15  and  C8_16 
REMARK    4  A    between atoms: C11_19  and  C12_20 
REMARK    5  A    between atoms: C12_20  and  O1_21 
ROOT
HETATM    1  N1  UNL     1      14.862  13.889  57.388  1.00  0.00    -0.063 NA
HETATM    2  C1  UNL     1      15.339  12.583  57.103  1.00  0.00     0.195 A 
HETATM    3  N2  UNL     1      16.527  12.226  57.639  1.00  0.00    -0.315 N 
ATOM      4  H2  UNL     1      17.023  12.904  58.218  1.00  0.00     0.170 HD
HETATM    5  C2  UNL     1      17.083  11.023  57.446  1.00  0.00     0.135 A 
HETATM    6  C6  UNL     1      16.383  10.131  56.657  1.00  0.00     0.122 A 
HETATM    7  N4  UNL     1      16.649   8.875  56.272  1.00  0.00    -0.346 N 
ATOM      8  H4  UNL     1      17.476   8.332  56.518  1.00  0.00     0.167 HD
HETATM    9  C7  UNL     1      15.626   8.465  55.503  1.00  0.00     0.186 A 
HETATM   10  N5  UNL     1      14.728   9.458  55.407  1.00  0.00    -0.319 N 
HETATM   11  C14 UNL     1      15.181  10.500  56.117  1.00  0.00     0.142 A 
HETATM   12  N6  UNL     1      14.667  11.707  56.337  1.00  0.00    -0.314 N 
ATOM     13  H6  UNL     1      13.769  11.966  55.928  1.00  0.00     0.170 HD
ENDROOT
BRANCH  10  14
HETATM   14  C8  UNL     1      13.510   9.359  54.657  1.00  0.00     0.115 C 
HETATM   15  C9  UNL     1      13.071   8.002  54.367  1.00  0.00    -0.005 C 
HETATM   16  C10 UNL     1      11.746   8.005  54.275  1.00  0.00    -0.022 C 
HETATM   17  C11 UNL     1      11.200   9.368  54.498  1.00  0.00     0.034 C 
HETATM   18  C13 UNL     1      12.316   9.946  55.381  1.00  0.00     0.040 C 
BRANCH  17  19
HETATM   19  C12 UNL     1       9.890   9.370  55.210  1.00  0.00     0.172 C 
BRANCH  19  20
HETATM   20  O1  UNL     1       8.888   9.598  54.273  1.00  0.00    -0.400 OA
ATOM     21  H1  UNL     1       8.419  10.384  54.527  1.00  0.00     0.209 HD
ENDBRANCH  19  20
ENDBRANCH  17  19
ENDBRANCH  10  14
BRANCH   5  22
HETATM   22  N3  UNL     1      18.334  10.653  58.013  1.00  0.00    -0.370 N 
ATOM     23  H3  UNL     1      18.389  10.162  58.906  1.00  0.00     0.161 HD
BRANCH  22  24
HETATM   24  C3  UNL     1      19.543  11.007  57.258  1.00  0.00     0.083 A 
HETATM   25  C4  UNL     1      20.761  10.108  57.575  1.00  0.00     0.027 A 
HETATM   26  C5  UNL     1      20.072  10.053  56.259  1.00  0.00     0.027 A 
ENDBRANCH  22  24
ENDBRANCH   5  22
TORSDOF 5
ENDMDL
