MODEL 9
REMARK VINA RESULT: -7.481558315      2.852      7.026
REMARK  5 active torsions:
REMARK  status: ('A' for Active; 'I' for Inactive)
REMARK    1  A    between atoms: C2_5  and  N3_6 
REMARK    2  A    between atoms: N3_6  and  C3_8 
REMARK    3  A    between atoms: N5_15  and  C8_16 
REMARK    4  A    between atoms: C11_19  and  C12_20 
REMARK    5  A    between atoms: C12_20  and  O1_21 
ROOT
HETATM    1  N1  UNL     1      15.055  13.849  57.263  1.00  0.00    -0.063 NA
HETATM    2  C1  UNL     1      15.005  12.494  56.845  1.00  0.00     0.195 A 
HETATM    3  N2  UNL     1      13.785  11.926  56.726  1.00  0.00    -0.315 N 
ATOM      4  H2  UNL     1      12.963  12.490  56.941  1.00  0.00     0.170 HD
HETATM    5  C2  UNL     1      13.605  10.656  56.340  1.00  0.00     0.135 A 
HETATM    6  C6  UNL     1      14.741   9.923  56.058  1.00  0.00     0.122 A 
HETATM    7  N4  UNL     1      14.913   8.656  55.657  1.00  0.00    -0.346 N 
ATOM      8  H4  UNL     1      14.176   7.974  55.480  1.00  0.00     0.167 HD
HETATM    9  C7  UNL     1      16.235   8.450  55.529  1.00  0.00     0.186 A 
HETATM   10  N5  UNL     1      16.885   9.580  55.850  1.00  0.00    -0.319 N 
HETATM   11  C14 UNL     1      15.973  10.505  56.181  1.00  0.00     0.142 A 
HETATM   12  N6  UNL     1      16.103  11.771  56.568  1.00  0.00    -0.314 N 
ATOM     13  H6  UNL     1      17.029  12.190  56.653  1.00  0.00     0.170 HD
ENDROOT
BRANCH  10  14
HETATM   14  C8  UNL     1      18.312   9.711  55.823  1.00  0.00     0.115 C 
HETATM   15  C9  UNL     1      18.808  11.080  55.841  1.00  0.00    -0.005 C 
HETATM   16  C10 UNL     1      19.998  11.083  56.431  1.00  0.00    -0.022 C 
HETATM   17  C11 UNL     1      20.385   9.712  56.854  1.00  0.00     0.034 C 
HETATM   18  C13 UNL     1      18.989   9.098  57.030  1.00  0.00     0.040 C 
BRANCH  17  19
HETATM   19  C12 UNL     1      21.157   9.684  58.130  1.00  0.00     0.172 C 
BRANCH  19  20
HETATM   20  O1  UNL     1      20.284   9.341  59.156  1.00  0.00    -0.400 OA
ATOM     21  H1  UNL     1      19.935   8.477  58.971  1.00  0.00     0.209 HD
ENDBRANCH  19  20
ENDBRANCH  17  19
ENDBRANCH  10  14
BRANCH   5  22
HETATM   22  N3  UNL     1      12.318  10.064  56.217  1.00  0.00    -0.370 N 
ATOM     23  H3  UNL     1      11.776   9.794  57.039  1.00  0.00     0.161 HD
BRANCH  22  24
HETATM   24  C3  UNL     1      11.803   9.856  54.858  1.00  0.00     0.083 A 
HETATM   25  C4  UNL     1      10.339   9.360  54.815  1.00  0.00     0.027 A 
HETATM   26  C5  UNL     1      10.714  10.726  54.362  1.00  0.00     0.027 A 
ENDBRANCH  22  24
ENDBRANCH   5  22
TORSDOF 5
ENDMDL
