MODEL 4
REMARK VINA RESULT: -7.828605849      2.148      7.343
REMARK  6 active torsions:
REMARK  status: ('A' for Active; 'I' for Inactive)
REMARK    1  A    between atoms: C2_2  and  C4_4 
REMARK    2  A    between atoms: C6_6  and  C7_7 
REMARK    3  A    between atoms: C7_7  and  O1_8 
REMARK    4  A    between atoms: C7_7  and  N1_10 
REMARK    5  A    between atoms: C16_19  and  O2_20 
REMARK    6  A    between atoms: C18_23  and  C19_24 
ROOT
HETATM    1  C4  UNL     1      35.647  87.506  -7.394  1.00  0.00    -0.020 A 
HETATM    2  C5  UNL     1      35.408  86.829  -6.225  1.00  0.00     0.031 A 
HETATM    3  C6  UNL     1      35.616  85.442  -6.032  1.00  0.00     0.049 A 
HETATM    4  C16 UNL     1      36.091  84.800  -7.169  1.00  0.00     0.081 A 
HETATM    5  C17 UNL     1      36.336  85.440  -8.359  1.00  0.00     0.053 A 
HETATM    6  C18 UNL     1      36.112  86.806  -8.477  1.00  0.00     0.015 A 
ENDROOT
BRANCH   3   7
HETATM    7  C7  UNL     1      35.557  84.895  -4.700  1.00  0.00     0.159 C 
BRANCH   7   8
HETATM    8  O1  UNL     1      35.960  85.792  -3.778  1.00  0.00    -0.345 OA
ATOM      9  H1  UNL     1      36.794  85.548  -3.395  1.00  0.00     0.219 HD
ENDBRANCH   7   8
BRANCH   7  10
HETATM   10  N1  UNL     1      35.179  83.679  -4.163  1.00  0.00    -0.311 N 
HETATM   11  C8  UNL     1      35.867  82.652  -3.644  1.00  0.00     0.111 A 
HETATM   12  C9  UNL     1      35.039  81.572  -3.334  1.00  0.00    -0.009 A 
HETATM   13  C10 UNL     1      35.301  80.326  -2.815  1.00  0.00     0.014 A 
HETATM   14  C14 UNL     1      33.796  81.957  -3.670  1.00  0.00    -0.009 A 
HETATM   15  C11 UNL     1      34.260  79.450  -2.635  1.00  0.00     0.001 A 
HETATM   16  C12 UNL     1      32.972  79.804  -2.967  1.00  0.00     0.001 A 
HETATM   17  C13 UNL     1      32.755  81.063  -3.483  1.00  0.00     0.014 A 
HETATM   18  C15 UNL     1      33.877  83.230  -4.168  1.00  0.00     0.111 A 
ENDBRANCH   7  10
ENDBRANCH   3   7
BRANCH   4  19
HETATM   19  O2  UNL     1      36.312  83.459  -7.115  1.00  0.00    -0.360 OA
ATOM     20  H2  UNL     1      36.614  83.017  -7.900  1.00  0.00     0.217 HD
ENDBRANCH   4  19
BRANCH   1  21
HETATM   21  C2  UNL     1      35.668  88.988  -7.436  1.00  0.00    -0.076 C 
HETATM   22  C1  UNL     1      36.976  89.696  -7.420  1.00  0.00     0.044 C 
HETATM   23  C3  UNL     1      34.443  89.717  -7.054  1.00  0.00     0.044 C 
ENDBRANCH   1  21
BRANCH   6  24
HETATM   24  C19 UNL     1      36.244  87.319  -9.836  1.00  0.00     0.271 C 
HETATM   25  O3  UNL     1      37.374  87.549 -10.292  1.00  0.00    -0.301 OA
ENDBRANCH   6  24
TORSDOF 6
ENDMDL
