MODEL 2
REMARK VINA RESULT: -8.033829294      3.165      5.564
REMARK  6 active torsions:
REMARK  status: ('A' for Active; 'I' for Inactive)
REMARK    1  A    between atoms: C2_2  and  C4_4 
REMARK    2  A    between atoms: C6_6  and  C7_7 
REMARK    3  A    between atoms: C7_7  and  O1_8 
REMARK    4  A    between atoms: C7_7  and  N1_10 
REMARK    5  A    between atoms: C16_19  and  O2_20 
REMARK    6  A    between atoms: C18_23  and  C19_24 
ROOT
HETATM    1  C4  UNL     1      33.254  82.242  -3.627  1.00  0.00    -0.020 A 
HETATM    2  C5  UNL     1      32.637  83.085  -4.516  1.00  0.00     0.031 A 
HETATM    3  C6  UNL     1      33.290  83.784  -5.561  1.00  0.00     0.049 A 
HETATM    4  C16 UNL     1      34.659  83.542  -5.604  1.00  0.00     0.081 A 
HETATM    5  C17 UNL     1      35.313  82.711  -4.729  1.00  0.00     0.053 A 
HETATM    6  C18 UNL     1      34.608  82.054  -3.728  1.00  0.00     0.015 A 
ENDROOT
BRANCH   3   7
HETATM    7  C7  UNL     1      32.504  84.447  -6.569  1.00  0.00     0.159 C 
BRANCH   7   8
HETATM    8  O1  UNL     1      33.024  85.646  -6.894  1.00  0.00    -0.345 OA
ATOM      9  H1  UNL     1      32.669  86.339  -6.350  1.00  0.00     0.219 HD
ENDBRANCH   7   8
BRANCH   7  10
HETATM   10  N1  UNL     1      31.356  84.130  -7.272  1.00  0.00    -0.311 N 
HETATM   11  C8  UNL     1      30.657  84.768  -8.222  1.00  0.00     0.111 A 
HETATM   12  C9  UNL     1      29.481  84.089  -8.549  1.00  0.00    -0.009 A 
HETATM   13  C10 UNL     1      28.466  84.374  -9.431  1.00  0.00     0.014 A 
HETATM   14  C14 UNL     1      29.466  82.992  -7.774  1.00  0.00    -0.009 A 
HETATM   15  C11 UNL     1      27.404  83.508  -9.522  1.00  0.00     0.001 A 
HETATM   16  C12 UNL     1      27.349  82.373  -8.746  1.00  0.00     0.001 A 
HETATM   17  C13 UNL     1      28.389  82.126  -7.877  1.00  0.00     0.014 A 
HETATM   18  C15 UNL     1      30.599  83.012  -7.004  1.00  0.00     0.111 A 
ENDBRANCH   7  10
ENDBRANCH   3   7
BRANCH   4  19
HETATM   19  O2  UNL     1      35.401  84.172  -6.553  1.00  0.00    -0.360 OA
ATOM     20  H2  UNL     1      36.339  84.243  -6.422  1.00  0.00     0.217 HD
ENDBRANCH   4  19
BRANCH   1  21
HETATM   21  C2  UNL     1      32.469  81.343  -2.746  1.00  0.00    -0.076 C 
HETATM   22  C1  UNL     1      32.361  79.901  -3.093  1.00  0.00     0.044 C 
HETATM   23  C3  UNL     1      31.480  81.946  -1.832  1.00  0.00     0.044 C 
ENDBRANCH   1  21
BRANCH   6  24
HETATM   24  C19 UNL     1      35.449  81.348  -2.768  1.00  0.00     0.271 C 
HETATM   25  O3  UNL     1      35.804  80.185  -3.009  1.00  0.00    -0.301 OA
ENDBRANCH   6  24
TORSDOF 6
ENDMDL
