MODEL 1
REMARK VINA RESULT: -8.788554375      0.000      0.000
REMARK  6 active torsions:
REMARK  status: ('A' for Active; 'I' for Inactive)
REMARK    1  A    between atoms: C2_2  and  C4_4 
REMARK    2  A    between atoms: C6_6  and  C7_7 
REMARK    3  A    between atoms: C7_7  and  O1_8 
REMARK    4  A    between atoms: C7_7  and  N1_10 
REMARK    5  A    between atoms: C16_19  and  O2_20 
REMARK    6  A    between atoms: C18_23  and  C19_24 
ROOT
HETATM    1  C4  UNL     1      32.767  82.347  -3.538  1.00  0.00    -0.020 A 
HETATM    2  C5  UNL     1      33.469  83.474  -3.885  1.00  0.00     0.031 A 
HETATM    3  C6  UNL     1      34.875  83.539  -4.042  1.00  0.00     0.049 A 
HETATM    4  C16 UNL     1      35.506  82.325  -3.797  1.00  0.00     0.081 A 
HETATM    5  C17 UNL     1      34.840  81.178  -3.442  1.00  0.00     0.053 A 
HETATM    6  C18 UNL     1      33.457  81.186  -3.308  1.00  0.00     0.015 A 
ENDROOT
BRANCH   3   7
HETATM    7  C7  UNL     1      35.467  84.710  -4.637  1.00  0.00     0.159 C 
BRANCH   7   8
HETATM    8  O1  UNL     1      35.712  85.663  -3.717  1.00  0.00    -0.345 OA
ATOM      9  H1  UNL     1      36.202  86.387  -4.088  1.00  0.00     0.219 HD
ENDBRANCH   7   8
BRANCH   7  10
HETATM   10  N1  UNL     1      35.840  85.066  -5.920  1.00  0.00    -0.311 N 
HETATM   11  C8  UNL     1      36.042  84.364  -7.045  1.00  0.00     0.111 A 
HETATM   12  C9  UNL     1      36.532  85.165  -8.079  1.00  0.00    -0.009 A 
HETATM   13  C10 UNL     1      36.898  84.880  -9.373  1.00  0.00     0.014 A 
HETATM   14  C14 UNL     1      36.626  86.403  -7.567  1.00  0.00    -0.009 A 
HETATM   15  C11 UNL     1      37.374  85.894 -10.166  1.00  0.00     0.001 A 
HETATM   16  C12 UNL     1      37.487  87.178  -9.681  1.00  0.00     0.001 A 
HETATM   17  C13 UNL     1      37.108  87.418  -8.379  1.00  0.00     0.014 A 
HETATM   18  C15 UNL     1      36.206  86.348  -6.265  1.00  0.00     0.111 A 
ENDBRANCH   7  10
ENDBRANCH   3   7
BRANCH   4  19
HETATM   19  O2  UNL     1      36.861  82.265  -3.897  1.00  0.00    -0.360 OA
ATOM     20  H2  UNL     1      37.371  82.167  -3.101  1.00  0.00     0.217 HD
ENDBRANCH   4  19
BRANCH   1  21
HETATM   21  C2  UNL     1      31.290  82.291  -3.662  1.00  0.00    -0.076 C 
HETATM   22  C1  UNL     1      30.679  82.190  -5.014  1.00  0.00     0.044 C 
HETATM   23  C3  UNL     1      30.474  82.768  -2.529  1.00  0.00     0.044 C 
ENDBRANCH   1  21
BRANCH   6  24
HETATM   24  C19 UNL     1      32.903  79.953  -2.758  1.00  0.00     0.271 C 
HETATM   25  O3  UNL     1      33.506  78.884  -2.931  1.00  0.00    -0.301 OA
ENDBRANCH   6  24
TORSDOF 6
ENDMDL
