MODEL 3
REMARK VINA RESULT: -7.962364472      3.276      5.502
REMARK  6 active torsions:
REMARK  status: ('A' for Active; 'I' for Inactive)
REMARK    1  A    between atoms: C2_2  and  C4_4 
REMARK    2  A    between atoms: C6_6  and  C7_7 
REMARK    3  A    between atoms: C7_7  and  O1_8 
REMARK    4  A    between atoms: C7_7  and  N1_10 
REMARK    5  A    between atoms: C16_19  and  O2_20 
REMARK    6  A    between atoms: C18_23  and  C19_24 
ROOT
HETATM    1  C4  UNL     1      33.268  82.250  -3.619  1.00  0.00    -0.020 A 
HETATM    2  C5  UNL     1      32.614  83.071  -4.502  1.00  0.00     0.031 A 
HETATM    3  C6  UNL     1      33.231  83.786  -5.557  1.00  0.00     0.049 A 
HETATM    4  C16 UNL     1      34.606  83.587  -5.618  1.00  0.00     0.081 A 
HETATM    5  C17 UNL     1      35.298  82.779  -4.750  1.00  0.00     0.053 A 
HETATM    6  C18 UNL     1      34.626  82.104  -3.738  1.00  0.00     0.015 A 
ENDROOT
BRANCH   3   7
HETATM    7  C7  UNL     1      32.411  84.421  -6.557  1.00  0.00     0.159 C 
BRANCH   7   8
HETATM    8  O1  UNL     1      32.985  85.546  -7.027  1.00  0.00    -0.345 OA
ATOM      9  H1  UNL     1      33.302  85.431  -7.915  1.00  0.00     0.219 HD
ENDBRANCH   7   8
BRANCH   7  10
HETATM   10  N1  UNL     1      31.190  84.136  -7.138  1.00  0.00    -0.311 N 
HETATM   11  C8  UNL     1      30.299  83.149  -6.963  1.00  0.00     0.111 A 
HETATM   12  C9  UNL     1      29.249  83.225  -7.880  1.00  0.00    -0.009 A 
HETATM   13  C10 UNL     1      28.145  82.432  -8.088  1.00  0.00     0.014 A 
HETATM   14  C14 UNL     1      29.506  84.302  -8.640  1.00  0.00    -0.009 A 
HETATM   15  C11 UNL     1      27.279  82.753  -9.103  1.00  0.00     0.001 A 
HETATM   16  C12 UNL     1      27.505  83.848  -9.905  1.00  0.00     0.001 A 
HETATM   17  C13 UNL     1      28.622  84.616  -9.661  1.00  0.00     0.014 A 
HETATM   18  C15 UNL     1      30.675  84.857  -8.193  1.00  0.00     0.111 A 
ENDBRANCH   7  10
ENDBRANCH   3   7
BRANCH   4  19
HETATM   19  O2  UNL     1      35.315  84.237  -6.579  1.00  0.00    -0.360 OA
ATOM     20  H2  UNL     1      36.261  84.149  -6.582  1.00  0.00     0.217 HD
ENDBRANCH   4  19
BRANCH   1  21
HETATM   21  C2  UNL     1      32.524  81.330  -2.725  1.00  0.00    -0.076 C 
HETATM   22  C1  UNL     1      32.473  79.881  -3.057  1.00  0.00     0.044 C 
HETATM   23  C3  UNL     1      31.515  81.903  -1.813  1.00  0.00     0.044 C 
ENDBRANCH   1  21
BRANCH   6  24
HETATM   24  C19 UNL     1      35.502  81.427  -2.787  1.00  0.00     0.271 C 
HETATM   25  O3  UNL     1      35.881  80.272  -3.025  1.00  0.00    -0.301 OA
ENDBRANCH   6  24
TORSDOF 6
ENDMDL
