MODEL 3
REMARK VINA RESULT: -9.549035706      1.220      1.313
REMARK  5 active torsions:
REMARK  status: ('A' for Active; 'I' for Inactive)
REMARK    1  A    between atoms: C2_2  and  C4_4 
REMARK    2  A    between atoms: C6_6  and  C7_7 
REMARK    3  A    between atoms: C7_7  and  O1_8 
REMARK    4  A    between atoms: C7_7  and  N1_10 
REMARK    5  A    between atoms: C16_20  and  O2_21 
ROOT
HETATM    1  C4  UNL     1     -22.183 101.418   0.716  1.00  0.00    -0.017 A 
HETATM    2  C5  UNL     1     -23.302 102.118   1.044  1.00  0.00     0.029 A 
HETATM    3  C6  UNL     1     -24.624 101.600   0.985  1.00  0.00     0.050 A 
HETATM    4  C16 UNL     1     -24.685 100.305   0.558  1.00  0.00     0.094 A 
HETATM    5  C17 UNL     1     -23.557  99.537   0.207  1.00  0.00     0.052 A 
HETATM    6  C18 UNL     1     -23.380  98.248  -0.238  1.00  0.00     0.131 A 
HETATM    7  N2  UNL     1     -22.054  98.103  -0.398  1.00  0.00    -0.271 N 
ATOM      8  H2  UNL     1     -21.590  97.253  -0.720  1.00  0.00     0.194 HD
HETATM    9  O3  UNL     1     -21.454  99.209  -0.080  1.00  0.00    -0.237 OA
HETATM   10  C19 UNL     1     -22.330 100.114   0.295  1.00  0.00     0.119 A 
ENDROOT
BRANCH   3  11
HETATM   11  C7  UNL     1     -25.707 102.430   1.387  1.00  0.00     0.159 C 
BRANCH  11  12
HETATM   12  O1  UNL     1     -26.628 102.498   0.420  1.00  0.00    -0.345 OA
ATOM     13  H1  UNL     1     -27.496 102.588   0.794  1.00  0.00     0.219 HD
ENDBRANCH  11  12
BRANCH  11  14
HETATM   14  N1  UNL     1     -26.075 103.189   2.500  1.00  0.00    -0.311 N 
HETATM   15  C8  UNL     1     -25.333 103.746   3.448  1.00  0.00     0.111 A 
HETATM   16  C9  UNL     1     -26.200 104.413   4.350  1.00  0.00    -0.008 A 
HETATM   17  C10 UNL     1     -25.890 105.125   5.472  1.00  0.00     0.017 A 
HETATM   18  C14 UNL     1     -27.466 104.232   3.912  1.00  0.00    -0.006 A 
HETATM   19  C11 UNL     1     -26.953 105.689   6.189  1.00  0.00     0.043 A 
HETATM   20  C12 UNL     1     -28.245 105.515   5.755  1.00  0.00     0.117 A 
HETATM   21  F1  UNL     1     -29.306 106.040   6.410  1.00  0.00    -0.206 F 
HETATM   22  C13 UNL     1     -28.520 104.793   4.624  1.00  0.00     0.056 A 
HETATM   23  C15 UNL     1     -27.412 103.481   2.775  1.00  0.00     0.111 A 
ENDBRANCH  11  14
ENDBRANCH   3  11
BRANCH   4  24
HETATM   24  O2  UNL     1     -25.884  99.650   0.438  1.00  0.00    -0.359 OA
ATOM     25  H2  UNL     1     -26.112  99.180  -0.356  1.00  0.00     0.217 HD
ENDBRANCH   4  24
BRANCH   1  26
HETATM   26  C2  UNL     1     -20.828 102.019   0.796  1.00  0.00     0.013 C 
HETATM   27  C1  UNL     1     -20.724 102.772   2.102  1.00  0.00     0.015 C 
HETATM   28  C3  UNL     1     -20.805 103.087  -0.311  1.00  0.00     0.015 C 
ENDBRANCH   1  26
TORSDOF 5
ENDMDL
