MODEL 7
REMARK VINA RESULT: -8.356713794      3.640      7.492
REMARK  5 active torsions:
REMARK  status: ('A' for Active; 'I' for Inactive)
REMARK    1  A    between atoms: C2_2  and  C4_4 
REMARK    2  A    between atoms: C6_6  and  C7_7 
REMARK    3  A    between atoms: C7_7  and  O1_8 
REMARK    4  A    between atoms: C7_7  and  N1_10 
REMARK    5  A    between atoms: C16_20  and  O2_21 
ROOT
HETATM    1  C4  UNL     1     -25.167 104.358   4.722  1.00  0.00    -0.017 A 
HETATM    2  C5  UNL     1     -24.948 103.656   3.577  1.00  0.00     0.029 A 
HETATM    3  C6  UNL     1     -25.957 103.306   2.640  1.00  0.00     0.050 A 
HETATM    4  C16 UNL     1     -27.203 103.743   2.989  1.00  0.00     0.094 A 
HETATM    5  C17 UNL     1     -27.481 104.472   4.161  1.00  0.00     0.052 A 
HETATM    6  C18 UNL     1     -28.627 105.002   4.707  1.00  0.00     0.131 A 
HETATM    7  N2  UNL     1     -28.241 105.591   5.851  1.00  0.00    -0.271 N 
ATOM      8  H2  UNL     1     -28.859 106.081   6.498  1.00  0.00     0.194 HD
HETATM    9  O3  UNL     1     -26.961 105.440   6.007  1.00  0.00    -0.237 OA
HETATM   10  C19 UNL     1     -26.454 104.763   5.002  1.00  0.00     0.119 A 
ENDROOT
BRANCH   3  11
HETATM   11  C7  UNL     1     -25.588 102.596   1.464  1.00  0.00     0.159 C 
BRANCH  11  12
HETATM   12  O1  UNL     1     -26.455 102.844   0.477  1.00  0.00    -0.345 OA
ATOM     13  H1  UNL     1     -26.207 102.373  -0.310  1.00  0.00     0.219 HD
ENDBRANCH  11  12
BRANCH  11  14
HETATM   14  N1  UNL     1     -24.583 101.716   1.055  1.00  0.00    -0.311 N 
HETATM   15  C8  UNL     1     -23.265 101.858   1.044  1.00  0.00     0.111 A 
HETATM   16  C9  UNL     1     -22.699 100.662   0.532  1.00  0.00    -0.008 A 
HETATM   17  C10 UNL     1     -21.385 100.348   0.341  1.00  0.00     0.017 A 
HETATM   18  C14 UNL     1     -23.714  99.818   0.243  1.00  0.00    -0.006 A 
HETATM   19  C11 UNL     1     -21.098  99.081  -0.183  1.00  0.00     0.043 A 
HETATM   20  C12 UNL     1     -22.120  98.211  -0.481  1.00  0.00     0.117 A 
HETATM   21  F1  UNL     1     -21.896  96.977  -0.987  1.00  0.00    -0.206 F 
HETATM   22  C13 UNL     1     -23.428  98.561  -0.276  1.00  0.00     0.056 A 
HETATM   23  C15 UNL     1     -24.883 100.448   0.556  1.00  0.00     0.111 A 
ENDBRANCH  11  14
ENDBRANCH   3  11
BRANCH   4  24
HETATM   24  O2  UNL     1     -28.294 103.489   2.199  1.00  0.00    -0.359 OA
ATOM     25  H2  UNL     1     -28.205 103.352   1.263  1.00  0.00     0.217 HD
ENDBRANCH   4  24
BRANCH   1  26
HETATM   26  C2  UNL     1     -24.068 104.687   5.663  1.00  0.00     0.013 C 
HETATM   27  C1  UNL     1     -22.778 104.746   4.879  1.00  0.00     0.015 C 
HETATM   28  C3  UNL     1     -23.950 103.457   6.579  1.00  0.00     0.015 C 
ENDBRANCH   1  26
TORSDOF 5
ENDMDL
