MODEL 4
REMARK VINA RESULT: -8.735438640      1.188      1.806
REMARK  5 active torsions:
REMARK  status: ('A' for Active; 'I' for Inactive)
REMARK    1  A    between atoms: C2_2  and  C4_4 
REMARK    2  A    between atoms: C6_6  and  C7_7 
REMARK    3  A    between atoms: C7_7  and  O1_8 
REMARK    4  A    between atoms: C7_7  and  N1_10 
REMARK    5  A    between atoms: C16_20  and  O2_21 
ROOT
HETATM    1  C4  UNL     1     -22.385 102.327   1.916  1.00  0.00    -0.017 A 
HETATM    2  C5  UNL     1     -23.653 102.780   2.109  1.00  0.00     0.029 A 
HETATM    3  C6  UNL     1     -24.820 102.160   1.583  1.00  0.00     0.050 A 
HETATM    4  C16 UNL     1     -24.559 101.041   0.847  1.00  0.00     0.094 A 
HETATM    5  C17 UNL     1     -23.266 100.532   0.618  1.00  0.00     0.052 A 
HETATM    6  C18 UNL     1     -22.774  99.449  -0.073  1.00  0.00     0.131 A 
HETATM    7  N2  UNL     1     -21.441  99.500   0.083  1.00  0.00    -0.271 N 
ATOM      8  H2  UNL     1     -20.777  98.832  -0.310  1.00  0.00     0.194 HD
HETATM    9  O3  UNL     1     -21.126 100.529   0.810  1.00  0.00    -0.237 OA
HETATM   10  C19 UNL     1     -22.207 101.189   1.160  1.00  0.00     0.119 A 
ENDROOT
BRANCH   3  11
HETATM   11  C7  UNL     1     -26.092 102.719   1.887  1.00  0.00     0.159 C 
BRANCH  11  12
HETATM   12  O1  UNL     1     -26.745 103.031   0.764  1.00  0.00    -0.345 OA
ATOM     13  H1  UNL     1     -26.185 103.530   0.181  1.00  0.00     0.219 HD
ENDBRANCH  11  12
BRANCH  11  14
HETATM   14  N1  UNL     1     -26.843 103.033   3.022  1.00  0.00    -0.311 N 
HETATM   15  C8  UNL     1     -27.537 104.122   3.324  1.00  0.00     0.111 A 
HETATM   16  C9  UNL     1     -28.118 103.932   4.603  1.00  0.00    -0.008 A 
HETATM   17  C10 UNL     1     -28.915 104.778   5.319  1.00  0.00     0.017 A 
HETATM   18  C14 UNL     1     -27.749 102.709   5.045  1.00  0.00    -0.006 A 
HETATM   19  C11 UNL     1     -29.361 104.336   6.571  1.00  0.00     0.043 A 
HETATM   20  C12 UNL     1     -28.994 103.094   7.033  1.00  0.00     0.117 A 
HETATM   21  F1  UNL     1     -29.399 102.620   8.233  1.00  0.00    -0.206 F 
HETATM   22  C13 UNL     1     -28.193 102.271   6.287  1.00  0.00     0.056 A 
HETATM   23  C15 UNL     1     -26.963 102.138   4.088  1.00  0.00     0.111 A 
ENDBRANCH  11  14
ENDBRANCH   3  11
BRANCH   4  24
HETATM   24  O2  UNL     1     -25.570 100.321   0.263  1.00  0.00    -0.359 OA
ATOM     25  H2  UNL     1     -25.410  99.466  -0.118  1.00  0.00     0.217 HD
ENDBRANCH   4  24
BRANCH   1  26
HETATM   26  C2  UNL     1     -21.207 103.025   2.488  1.00  0.00     0.013 C 
HETATM   27  C1  UNL     1     -21.013 102.535   3.905  1.00  0.00     0.015 C 
HETATM   28  C3  UNL     1     -21.637 104.497   2.605  1.00  0.00     0.015 C 
ENDBRANCH   1  26
TORSDOF 5
ENDMDL
