MODEL 5
REMARK VINA RESULT: -8.572207438      3.432      7.772
REMARK  5 active torsions:
REMARK  status: ('A' for Active; 'I' for Inactive)
REMARK    1  A    between atoms: C2_2  and  C4_4 
REMARK    2  A    between atoms: C6_6  and  C7_7 
REMARK    3  A    between atoms: C7_7  and  O1_8 
REMARK    4  A    between atoms: C7_7  and  N1_10 
REMARK    5  A    between atoms: C16_20  and  O2_21 
ROOT
HETATM    1  C4  UNL     1     -27.874 104.643   4.787  1.00  0.00    -0.017 A 
HETATM    2  C5  UNL     1     -27.281 104.237   3.632  1.00  0.00     0.029 A 
HETATM    3  C6  UNL     1     -26.703 102.955   3.429  1.00  0.00     0.050 A 
HETATM    4  C16 UNL     1     -26.793 102.136   4.517  1.00  0.00     0.094 A 
HETATM    5  C17 UNL     1     -27.397 102.508   5.734  1.00  0.00     0.052 A 
HETATM    6  C18 UNL     1     -27.598 101.868   6.935  1.00  0.00     0.131 A 
HETATM    7  N2  UNL     1     -28.239 102.756   7.712  1.00  0.00    -0.271 N 
ATOM      8  H2  UNL     1     -28.537 102.590   8.674  1.00  0.00     0.194 HD
HETATM    9  O3  UNL     1     -28.423 103.859   7.052  1.00  0.00    -0.237 OA
HETATM   10  C19 UNL     1     -27.924 103.755   5.840  1.00  0.00     0.119 A 
ENDROOT
BRANCH   3  11
HETATM   11  C7  UNL     1     -26.142 102.646   2.159  1.00  0.00     0.159 C 
BRANCH  11  12
HETATM   12  O1  UNL     1     -26.843 103.231   1.183  1.00  0.00    -0.345 OA
ATOM     13  H1  UNL     1     -26.276 103.763   0.638  1.00  0.00     0.219 HD
ENDBRANCH  11  12
BRANCH  11  14
HETATM   14  N1  UNL     1     -25.071 101.907   1.649  1.00  0.00    -0.311 N 
HETATM   15  C8  UNL     1     -23.775 102.181   1.609  1.00  0.00     0.111 A 
HETATM   16  C9  UNL     1     -23.115 101.092   0.985  1.00  0.00    -0.008 A 
HETATM   17  C10 UNL     1     -21.785 100.927   0.728  1.00  0.00     0.017 A 
HETATM   18  C14 UNL     1     -24.053 100.175   0.659  1.00  0.00    -0.006 A 
HETATM   19  C11 UNL     1     -21.395  99.740   0.094  1.00  0.00     0.043 A 
HETATM   20  C12 UNL     1     -22.339  98.798  -0.243  1.00  0.00     0.117 A 
HETATM   21  F1  UNL     1     -22.014  97.636  -0.854  1.00  0.00    -0.206 F 
HETATM   22  C13 UNL     1     -23.665  98.998   0.030  1.00  0.00     0.056 A 
HETATM   23  C15 UNL     1     -25.265 100.657   1.058  1.00  0.00     0.111 A 
ENDBRANCH  11  14
ENDBRANCH   3  11
BRANCH   4  24
HETATM   24  O2  UNL     1     -26.283 100.863   4.495  1.00  0.00    -0.359 OA
ATOM     25  H2  UNL     1     -26.821 100.113   4.719  1.00  0.00     0.217 HD
ENDBRANCH   4  24
BRANCH   1  26
HETATM   26  C2  UNL     1     -28.455 106.000   4.938  1.00  0.00     0.013 C 
HETATM   27  C1  UNL     1     -29.938 105.910   4.661  1.00  0.00     0.015 C 
HETATM   28  C3  UNL     1     -27.858 106.816   3.779  1.00  0.00     0.015 C 
ENDBRANCH   1  26
TORSDOF 5
ENDMDL
