MODEL 2
REMARK VINA RESULT: -9.789110237      0.773      1.372
REMARK  5 active torsions:
REMARK  status: ('A' for Active; 'I' for Inactive)
REMARK    1  A    between atoms: C2_2  and  C4_4 
REMARK    2  A    between atoms: C6_6  and  C7_7 
REMARK    3  A    between atoms: C7_7  and  O1_8 
REMARK    4  A    between atoms: C7_7  and  N1_10 
REMARK    5  A    between atoms: C16_20  and  O2_21 
ROOT
HETATM    1  C4  UNL     1     -22.230 101.407   0.815  1.00  0.00    -0.017 A 
HETATM    2  C5  UNL     1     -23.359 102.053   1.210  1.00  0.00     0.029 A 
HETATM    3  C6  UNL     1     -24.661 101.483   1.198  1.00  0.00     0.050 A 
HETATM    4  C16 UNL     1     -24.690 100.196   0.744  1.00  0.00     0.094 A 
HETATM    5  C17 UNL     1     -23.550  99.483   0.325  1.00  0.00     0.052 A 
HETATM    6  C18 UNL     1     -23.342  98.212  -0.158  1.00  0.00     0.131 A 
HETATM    7  N2  UNL     1     -22.020  98.124  -0.381  1.00  0.00    -0.271 N 
ATOM      8  H2  UNL     1     -21.538  97.302  -0.744  1.00  0.00     0.194 HD
HETATM    9  O3  UNL     1     -21.450  99.248  -0.065  1.00  0.00    -0.237 OA
HETATM   10  C19 UNL     1     -22.344 100.107   0.370  1.00  0.00     0.119 A 
ENDROOT
BRANCH   3  11
HETATM   11  C7  UNL     1     -25.757 102.259   1.669  1.00  0.00     0.159 C 
BRANCH  11  12
HETATM   12  O1  UNL     1     -26.257 103.008   0.682  1.00  0.00    -0.345 OA
ATOM     13  H1  UNL     1     -27.159 102.769   0.507  1.00  0.00     0.219 HD
ENDBRANCH  11  12
BRANCH  11  14
HETATM   14  N1  UNL     1     -26.450 102.457   2.865  1.00  0.00    -0.311 N 
HETATM   15  C8  UNL     1     -27.393 103.333   3.181  1.00  0.00     0.111 A 
HETATM   16  C9  UNL     1     -27.765 103.111   4.531  1.00  0.00    -0.008 A 
HETATM   17  C10 UNL     1     -28.696 103.765   5.285  1.00  0.00     0.017 A 
HETATM   18  C14 UNL     1     -27.018 102.087   5.000  1.00  0.00    -0.006 A 
HETATM   19  C11 UNL     1     -28.869 103.337   6.607  1.00  0.00     0.043 A 
HETATM   20  C12 UNL     1     -28.116 102.296   7.097  1.00  0.00     0.117 A 
HETATM   21  F1  UNL     1     -28.246 101.844   8.365  1.00  0.00    -0.206 F 
HETATM   22  C13 UNL     1     -27.191 101.662   6.312  1.00  0.00     0.056 A 
HETATM   23  C15 UNL     1     -26.200 101.670   3.991  1.00  0.00     0.111 A 
ENDBRANCH  11  14
ENDBRANCH   3  11
BRANCH   4  24
HETATM   24  O2  UNL     1     -25.866  99.495   0.664  1.00  0.00    -0.359 OA
ATOM     25  H2  UNL     1     -25.877  98.577   0.419  1.00  0.00     0.217 HD
ENDBRANCH   4  24
BRANCH   1  26
HETATM   26  C2  UNL     1     -20.898 102.061   0.847  1.00  0.00     0.013 C 
HETATM   27  C1  UNL     1     -20.778 102.820   2.148  1.00  0.00     0.015 C 
HETATM   28  C3  UNL     1     -20.955 103.127  -0.261  1.00  0.00     0.015 C 
ENDBRANCH   1  26
TORSDOF 5
ENDMDL
