MODEL 6
REMARK VINA RESULT: -8.450834706      4.226      5.786
REMARK  5 active torsions:
REMARK  status: ('A' for Active; 'I' for Inactive)
REMARK    1  A    between atoms: C2_2  and  C4_4 
REMARK    2  A    between atoms: C6_6  and  C7_7 
REMARK    3  A    between atoms: C7_7  and  O1_8 
REMARK    4  A    between atoms: C7_7  and  N1_10 
REMARK    5  A    between atoms: C16_20  and  O2_21 
ROOT
HETATM    1  C4  UNL     1     -22.634 102.028   0.698  1.00  0.00    -0.017 A 
HETATM    2  C5  UNL     1     -22.470 102.941   1.693  1.00  0.00     0.029 A 
HETATM    3  C6  UNL     1     -23.393 103.153   2.753  1.00  0.00     0.050 A 
HETATM    4  C16 UNL     1     -24.490 102.343   2.692  1.00  0.00     0.094 A 
HETATM    5  C17 UNL     1     -24.706 101.383   1.685  1.00  0.00     0.052 A 
HETATM    6  C18 UNL     1     -25.710 100.480   1.426  1.00  0.00     0.131 A 
HETATM    7  N2  UNL     1     -25.336  99.838   0.306  1.00  0.00    -0.271 N 
ATOM      8  H2  UNL     1     -25.867  99.099  -0.154  1.00  0.00     0.194 HD
HETATM    9  O3  UNL     1     -24.193 100.303  -0.100  1.00  0.00    -0.237 OA
HETATM   10  C19 UNL     1     -23.770 101.248   0.709  1.00  0.00     0.119 A 
ENDROOT
BRANCH   3  11
HETATM   11  C7  UNL     1     -23.085 104.120   3.750  1.00  0.00     0.159 C 
BRANCH  11  12
HETATM   12  O1  UNL     1     -24.131 104.926   3.956  1.00  0.00    -0.345 OA
ATOM     13  H1  UNL     1     -24.021 105.741   3.481  1.00  0.00     0.219 HD
ENDBRANCH  11  12
BRANCH  11  14
HETATM   14  N1  UNL     1     -22.004 104.462   4.565  1.00  0.00    -0.311 N 
HETATM   15  C8  UNL     1     -20.721 104.136   4.479  1.00  0.00     0.111 A 
HETATM   16  C9  UNL     1     -20.039 104.749   5.561  1.00  0.00    -0.008 A 
HETATM   17  C10 UNL     1     -18.713 104.699   5.879  1.00  0.00     0.017 A 
HETATM   18  C14 UNL     1     -20.950 105.439   6.283  1.00  0.00    -0.006 A 
HETATM   19  C11 UNL     1     -18.297 105.406   7.014  1.00  0.00     0.043 A 
HETATM   20  C12 UNL     1     -19.212 106.114   7.757  1.00  0.00     0.117 A 
HETATM   21  F1  UNL     1     -18.861 106.814   8.860  1.00  0.00    -0.206 F 
HETATM   22  C13 UNL     1     -20.536 106.141   7.409  1.00  0.00     0.056 A 
HETATM   23  C15 UNL     1     -22.166 105.275   5.688  1.00  0.00     0.111 A 
ENDBRANCH  11  14
ENDBRANCH   3  11
BRANCH   4  24
HETATM   24  O2  UNL     1     -25.483 102.418   3.635  1.00  0.00    -0.359 OA
ATOM     25  H2  UNL     1     -26.316 102.833   3.443  1.00  0.00     0.217 HD
ENDBRANCH   4  24
BRANCH   1  26
HETATM   26  C2  UNL     1     -21.633 101.859  -0.386  1.00  0.00     0.013 C 
HETATM   27  C1  UNL     1     -20.771 100.665  -0.048  1.00  0.00     0.015 C 
HETATM   28  C3  UNL     1     -20.716 103.088  -0.272  1.00  0.00     0.015 C 
ENDBRANCH   1  26
TORSDOF 5
ENDMDL
