MODEL 5
REMARK VINA RESULT: -7.520534724      6.320     10.832
REMARK  5 active torsions:
REMARK  status: ('A' for Active; 'I' for Inactive)
REMARK    1  A    between atoms: O1_2  and  C2_3 
REMARK    2  A    between atoms: C7_8  and  N1_9 
REMARK    3  A    between atoms: N1_9  and  C8_11 
REMARK    4  A    between atoms: C9_14  and  C10_15 
REMARK    5  A    between atoms: C11_17  and  N3_18 
REMARK       I    between atoms: N3_18  and  C12_20 
ROOT
HETATM    1  C8  UNL     1      47.818  61.727  37.062  1.00  0.00     0.149 A 
HETATM    2  N2  UNL     1      48.321  60.602  36.630  1.00  0.00    -0.335 N 
ATOM      3  H2  UNL     1      48.203  59.757  37.187  1.00  0.00     0.168 HD
HETATM    4  C9  UNL     1      48.968  60.536  35.506  1.00  0.00     0.060 A 
HETATM    5  C16 UNL     1      49.096  61.716  34.790  1.00  0.00     0.084 A 
HETATM    6  S2  UNL     1      48.281  62.818  35.789  1.00  0.00    -0.063 SA
ENDROOT
BRANCH   4   7
HETATM    7  C10 UNL     1      49.551  59.264  34.990  1.00  0.00     0.058 A 
HETATM    8  S1  UNL     1      48.720  58.035  34.142  1.00  0.00    -0.050 SA
HETATM    9  C11 UNL     1      50.030  56.957  33.907  1.00  0.00     0.152 A 
HETATM   10  N4  UNL     1      51.021  57.597  34.489  1.00  0.00    -0.339 N 
HETATM   11  C14 UNL     1      50.813  58.760  35.043  1.00  0.00     0.027 A 
ATOM     12  H4  UNL     1      51.953  57.185  34.506  1.00  0.00     0.168 HD
HETATM   13  C15 UNL     1      51.932  59.534  35.724  1.00  0.00     0.070 C 
BRANCH   9  14
HETATM   14  N3  UNL     1      50.040  55.673  33.240  1.00  0.00    -0.307 N 
HETATM   15  C12 UNL     1      49.785  54.477  33.950  1.00  0.00     0.219 C 
HETATM   16  C13 UNL     1      49.782  53.137  33.319  1.00  0.00     0.117 C 
HETATM   17  O2  UNL     1      49.550  54.554  35.179  1.00  0.00    -0.274 OA
ATOM     18  H3  UNL     1      50.234  55.629  32.240  1.00  0.00     0.171 HD
ENDBRANCH   9  14
ENDBRANCH   4   7
BRANCH   1  19
HETATM   19  N1  UNL     1      47.070  62.098  38.238  1.00  0.00    -0.334 N 
ATOM     20  H1  UNL     1      46.909  63.096  38.372  1.00  0.00     0.168 HD
BRANCH  19  21
HETATM   21  C7  UNL     1      46.548  61.265  39.203  1.00  0.00     0.067 A 
HETATM   22  C2  UNL     1      46.782  61.511  40.540  1.00  0.00     0.094 A 
HETATM   23  C3  UNL     1      46.277  60.703  41.529  1.00  0.00     0.039 A 
HETATM   24  C4  UNL     1      45.501  59.595  41.209  1.00  0.00     0.003 A 
HETATM   25  C5  UNL     1      45.252  59.326  39.891  1.00  0.00     0.002 A 
HETATM   26  C6  UNL     1      45.780  60.167  38.904  1.00  0.00     0.032 A 
BRANCH  22  27
HETATM   27  O1  UNL     1      47.547  62.602  40.891  1.00  0.00    -0.354 OA
HETATM   28  C1  UNL     1      47.519  63.059  42.222  1.00  0.00     0.210 C 
ENDBRANCH  22  27
ENDBRANCH  19  21
ENDBRANCH   1  19
TORSDOF 5
ENDMDL
