MODEL 2
REMARK VINA RESULT: -7.868312782      1.648      1.953
REMARK  5 active torsions:
REMARK  status: ('A' for Active; 'I' for Inactive)
REMARK    1  A    between atoms: O1_2  and  C2_3 
REMARK    2  A    between atoms: C7_8  and  N1_9 
REMARK    3  A    between atoms: N1_9  and  C8_11 
REMARK    4  A    between atoms: C9_14  and  C10_15 
REMARK    5  A    between atoms: C11_17  and  N3_18 
REMARK       I    between atoms: N3_18  and  C12_20 
ROOT
HETATM    1  C8  UNL     1      46.591  62.338  43.171  1.00  0.00     0.149 A 
HETATM    2  N2  UNL     1      47.258  63.442  42.971  1.00  0.00    -0.335 N 
ATOM      3  H2  UNL     1      47.563  63.676  42.026  1.00  0.00     0.168 HD
HETATM    4  C9  UNL     1      47.542  64.249  43.946  1.00  0.00     0.060 A 
HETATM    5  C16 UNL     1      47.101  63.881  45.208  1.00  0.00     0.084 A 
HETATM    6  S2  UNL     1      46.321  62.410  44.888  1.00  0.00    -0.063 SA
ENDROOT
BRANCH   4   7
HETATM    7  C10 UNL     1      48.302  65.517  43.744  1.00  0.00     0.058 A 
HETATM    8  S1  UNL     1      48.471  66.378  42.278  1.00  0.00    -0.050 SA
HETATM    9  C11 UNL     1      49.443  67.667  42.850  1.00  0.00     0.152 A 
HETATM   10  N4  UNL     1      49.581  67.364  44.122  1.00  0.00    -0.339 N 
HETATM   11  C14 UNL     1      49.019  66.289  44.604  1.00  0.00     0.027 A 
ATOM     12  H4  UNL     1      50.127  67.970  44.734  1.00  0.00     0.168 HD
HETATM   13  C15 UNL     1      49.151  65.905  46.070  1.00  0.00     0.070 C 
BRANCH   9  14
HETATM   14  N3  UNL     1      49.975  68.796  42.118  1.00  0.00    -0.307 N 
HETATM   15  C12 UNL     1      51.235  68.727  41.479  1.00  0.00     0.219 C 
HETATM   16  C13 UNL     1      51.827  69.851  40.718  1.00  0.00     0.117 C 
HETATM   17  O2  UNL     1      51.885  67.659  41.563  1.00  0.00    -0.274 OA
ATOM     18  H3  UNL     1      49.432  69.658  42.062  1.00  0.00     0.171 HD
ENDBRANCH   9  14
ENDBRANCH   4   7
BRANCH   1  19
HETATM   19  N1  UNL     1      46.140  61.275  42.306  1.00  0.00    -0.334 N 
ATOM     20  H1  UNL     1      45.547  60.566  42.738  1.00  0.00     0.168 HD
BRANCH  19  21
HETATM   21  C7  UNL     1      46.415  61.102  40.967  1.00  0.00     0.067 A 
HETATM   22  C2  UNL     1      45.893  60.026  40.280  1.00  0.00     0.094 A 
HETATM   23  C3  UNL     1      46.146  59.823  38.946  1.00  0.00     0.039 A 
HETATM   24  C4  UNL     1      46.947  60.709  38.235  1.00  0.00     0.003 A 
HETATM   25  C5  UNL     1      47.478  61.785  38.890  1.00  0.00     0.002 A 
HETATM   26  C6  UNL     1      47.205  61.967  40.252  1.00  0.00     0.032 A 
BRANCH  22  27
HETATM   27  O1  UNL     1      45.095  59.130  40.955  1.00  0.00    -0.354 OA
HETATM   28  C1  UNL     1      44.749  57.916  40.333  1.00  0.00     0.210 C 
ENDBRANCH  22  27
ENDBRANCH  19  21
ENDBRANCH   1  19
TORSDOF 5
ENDMDL
