MODEL 3
REMARK VINA RESULT: -7.770316502      6.444     11.162
REMARK  5 active torsions:
REMARK  status: ('A' for Active; 'I' for Inactive)
REMARK    1  A    between atoms: O1_2  and  C2_3 
REMARK    2  A    between atoms: C7_8  and  N1_9 
REMARK    3  A    between atoms: N1_9  and  C8_11 
REMARK    4  A    between atoms: C9_14  and  C10_15 
REMARK    5  A    between atoms: C11_17  and  N3_18 
REMARK       I    between atoms: N3_18  and  C12_20 
ROOT
HETATM    1  C8  UNL     1      47.941  60.921  37.078  1.00  0.00     0.149 A 
HETATM    2  N2  UNL     1      48.115  59.664  36.768  1.00  0.00    -0.335 N 
ATOM      3  H2  UNL     1      47.461  58.968  37.124  1.00  0.00     0.168 HD
HETATM    4  C9  UNL     1      49.101  59.281  36.016  1.00  0.00     0.060 A 
HETATM    5  C16 UNL     1      49.957  60.271  35.559  1.00  0.00     0.084 A 
HETATM    6  S2  UNL     1      49.277  61.664  36.248  1.00  0.00    -0.063 SA
ENDROOT
BRANCH   4   7
HETATM    7  C10 UNL     1      49.321  57.853  35.647  1.00  0.00     0.058 A 
HETATM    8  S1  UNL     1      50.087  57.274  34.234  1.00  0.00    -0.050 SA
HETATM    9  C11 UNL     1      49.951  55.595  34.539  1.00  0.00     0.152 A 
HETATM   10  N4  UNL     1      49.330  55.576  35.698  1.00  0.00    -0.339 N 
HETATM   11  C14 UNL     1      48.999  56.694  36.282  1.00  0.00     0.027 A 
ATOM     12  H4  UNL     1      49.107  54.684  36.142  1.00  0.00     0.168 HD
HETATM   13  C15 UNL     1      48.282  56.715  37.624  1.00  0.00     0.070 C 
BRANCH   9  14
HETATM   14  N3  UNL     1      50.404  54.485  33.728  1.00  0.00    -0.307 N 
HETATM   15  C12 UNL     1      49.588  53.349  33.521  1.00  0.00     0.219 C 
HETATM   16  C13 UNL     1      50.000  52.186  32.701  1.00  0.00     0.117 C 
HETATM   17  O2  UNL     1      48.456  53.324  34.059  1.00  0.00    -0.274 OA
ATOM     18  H3  UNL     1      51.328  54.522  33.299  1.00  0.00     0.171 HD
ENDBRANCH   9  14
ENDBRANCH   4   7
BRANCH   1  19
HETATM   19  N1  UNL     1      46.964  61.626  37.870  1.00  0.00    -0.334 N 
ATOM     20  H1  UNL     1      46.304  62.208  37.356  1.00  0.00     0.168 HD
BRANCH  19  21
HETATM   21  C7  UNL     1      46.817  61.609  39.240  1.00  0.00     0.067 A 
HETATM   22  C2  UNL     1      45.990  60.684  39.842  1.00  0.00     0.094 A 
HETATM   23  C3  UNL     1      45.820  60.636  41.204  1.00  0.00     0.039 A 
HETATM   24  C4  UNL     1      46.487  61.532  42.031  1.00  0.00     0.003 A 
HETATM   25  C5  UNL     1      47.315  62.461  41.462  1.00  0.00     0.002 A 
HETATM   26  C6  UNL     1      47.468  62.486  40.071  1.00  0.00     0.032 A 
BRANCH  22  27
HETATM   27  O1  UNL     1      45.314  59.781  39.050  1.00  0.00    -0.354 OA
HETATM   28  C1  UNL     1      45.235  58.437  39.458  1.00  0.00     0.210 C 
ENDBRANCH  22  27
ENDBRANCH  19  21
ENDBRANCH   1  19
TORSDOF 5
ENDMDL
