MODEL 6
REMARK VINA RESULT: -7.499062483      4.876      7.469
REMARK  5 active torsions:
REMARK  status: ('A' for Active; 'I' for Inactive)
REMARK    1  A    between atoms: O1_2  and  C2_3 
REMARK    2  A    between atoms: C7_8  and  N1_9 
REMARK    3  A    between atoms: N1_9  and  C8_11 
REMARK    4  A    between atoms: C9_14  and  C10_15 
REMARK    5  A    between atoms: C11_17  and  N3_18 
REMARK       I    between atoms: N3_18  and  C12_20 
ROOT
HETATM    1  C8  UNL     1      48.503  60.783  36.386  1.00  0.00     0.149 A 
HETATM    2  N2  UNL     1      48.052  60.630  37.602  1.00  0.00    -0.335 N 
ATOM      3  H2  UNL     1      48.237  59.758  38.096  1.00  0.00     0.168 HD
HETATM    4  C9  UNL     1      47.371  61.563  38.195  1.00  0.00     0.060 A 
HETATM    5  C16 UNL     1      47.151  62.727  37.475  1.00  0.00     0.084 A 
HETATM    6  S2  UNL     1      47.935  62.383  36.010  1.00  0.00    -0.063 SA
ENDROOT
BRANCH   4   7
HETATM    7  C10 UNL     1      46.845  61.413  39.582  1.00  0.00     0.058 A 
HETATM    8  S1  UNL     1      47.212  62.409  40.921  1.00  0.00    -0.050 SA
HETATM    9  C11 UNL     1      46.253  61.617  42.099  1.00  0.00     0.152 A 
HETATM   10  N4  UNL     1      45.712  60.642  41.401  1.00  0.00    -0.339 N 
HETATM   11  C14 UNL     1      45.989  60.512  40.133  1.00  0.00     0.027 A 
ATOM     12  H4  UNL     1      45.073  59.986  41.853  1.00  0.00     0.168 HD
HETATM   13  C15 UNL     1      45.383  59.399  39.291  1.00  0.00     0.070 C 
BRANCH   9  14
HETATM   14  N3  UNL     1      46.084  61.940  43.499  1.00  0.00    -0.307 N 
HETATM   15  C12 UNL     1      47.009  62.769  44.175  1.00  0.00     0.219 C 
HETATM   16  C13 UNL     1      46.886  63.132  45.606  1.00  0.00     0.117 C 
HETATM   17  O2  UNL     1      47.986  63.218  43.531  1.00  0.00    -0.274 OA
ATOM     18  H3  UNL     1      45.284  61.565  44.008  1.00  0.00     0.171 HD
ENDBRANCH   9  14
ENDBRANCH   4   7
BRANCH   1  19
HETATM   19  N1  UNL     1      49.268  59.946  35.494  1.00  0.00    -0.334 N 
ATOM     20  H1  UNL     1      49.822  60.431  34.789  1.00  0.00     0.168 HD
BRANCH  19  21
HETATM   21  C7  UNL     1      49.340  58.570  35.481  1.00  0.00     0.067 A 
HETATM   22  C2  UNL     1      49.963  57.912  34.442  1.00  0.00     0.094 A 
HETATM   23  C3  UNL     1      50.053  56.543  34.396  1.00  0.00     0.039 A 
HETATM   24  C4  UNL     1      49.512  55.765  35.413  1.00  0.00     0.003 A 
HETATM   25  C5  UNL     1      48.889  56.390  36.458  1.00  0.00     0.002 A 
HETATM   26  C6  UNL     1      48.810  57.788  36.477  1.00  0.00     0.032 A 
BRANCH  22  27
HETATM   27  O1  UNL     1      50.510  58.655  33.418  1.00  0.00    -0.354 OA
HETATM   28  C1  UNL     1      49.699  59.021  32.327  1.00  0.00     0.210 C 
ENDBRANCH  22  27
ENDBRANCH  19  21
ENDBRANCH   1  19
TORSDOF 5
ENDMDL
