MODEL 2
REMARK VINA RESULT: -8.585677665      3.436      6.153
REMARK  4 active torsions:
REMARK  status: ('A' for Active; 'I' for Inactive)
REMARK    1  A    between atoms: O1_2  and  C2_3 
REMARK    2  A    between atoms: C2_3  and  C3_5 
REMARK    3  A    between atoms: C3_5  and  C4_6 
REMARK    4  A    between atoms: C5_9  and  C6_10 
ROOT
HETATM    1  C4  UNL     1      21.726  11.294 -10.665  1.00  0.00     0.161 C 
HETATM    2  N1  UNL     1      21.690  12.000 -11.944  1.00  0.00    -0.376 N 
ATOM      3  H1  UNL     1      20.762  12.278 -12.262  1.00  0.00     0.160 HD
HETATM    4  C5  UNL     1      22.672  12.326 -12.737  1.00  0.00     0.052 C 
HETATM    5  C12 UNL     1      24.099  11.935 -12.528  1.00  0.00     0.033 A 
HETATM    6  C13 UNL     1      24.652  12.020 -11.261  1.00  0.00     0.097 A 
HETATM    7  S1  UNL     1      26.283  11.628 -11.485  1.00  0.00    -0.075 SA
HETATM    8  C14 UNL     1      26.238  11.346 -13.191  1.00  0.00    -0.012 A 
HETATM    9  C15 UNL     1      27.383  10.948 -14.082  1.00  0.00     0.057 C 
HETATM   10  C16 UNL     1      24.925  11.577 -13.516  1.00  0.00    -0.034 A 
HETATM   11  C17 UNL     1      24.483  11.239 -14.934  1.00  0.00     0.050 C 
HETATM   12  N2  UNL     1      23.992  12.248 -10.003  1.00  0.00    -0.279 N 
HETATM   13  C18 UNL     1      24.625  12.794  -8.955  1.00  0.00     0.100 A 
HETATM   14  C19 UNL     1      26.062  13.220  -8.965  1.00  0.00     0.091 C 
HETATM   15  N3  UNL     1      23.696  12.829  -7.988  1.00  0.00    -0.287 N 
ATOM     16  H3  UNL     1      23.842  13.190  -7.046  1.00  0.00     0.188 HD
HETATM   17  N4  UNL     1      22.535  12.313  -8.456  1.00  0.00    -0.285 N 
ATOM     18  H4  UNL     1      21.672  12.225  -7.920  1.00  0.00     0.188 HD
HETATM   19  C20 UNL     1      22.693  11.943  -9.705  1.00  0.00     0.128 A 
ENDROOT
BRANCH   4  20
HETATM   20  C6  UNL     1      22.288  13.038 -13.926  1.00  0.00    -0.009 A 
HETATM   21  C7  UNL     1      22.809  14.186 -14.423  1.00  0.00     0.015 A 
HETATM   22  C8  UNL     1      22.427  14.725 -15.606  1.00  0.00     0.024 A 
HETATM   23  C9  UNL     1      21.465  14.135 -16.399  1.00  0.00     0.034 A 
HETATM   24 CL1  UNL     1      20.955  14.813 -17.930  1.00  0.00    -0.084 Cl
HETATM   25  C10 UNL     1      20.930  12.967 -15.893  1.00  0.00     0.024 A 
HETATM   26  C11 UNL     1      21.309  12.412 -14.698  1.00  0.00     0.015 A 
ENDBRANCH   4  20
BRANCH   1  27
HETATM   27  C3  UNL     1      22.119   9.875 -10.868  1.00  0.00     0.144 C 
BRANCH  27  28
HETATM   28  C2  UNL     1      20.936   9.019 -10.620  1.00  0.00     0.260 C 
HETATM   29  O2  UNL     1      20.002   8.891 -11.445  1.00  0.00    -0.265 OA
BRANCH  28  30
HETATM   30  O1  UNL     1      20.855   8.328  -9.426  1.00  0.00    -0.326 OA
HETATM   31  C1  UNL     1      19.627   7.947  -8.837  1.00  0.00     0.213 C 
ENDBRANCH  28  30
ENDBRANCH  27  28
ENDBRANCH   1  27
TORSDOF 4
ENDMDL
