MODEL 1
REMARK VINA RESULT: -8.672537263      0.000      0.000
REMARK  4 active torsions:
REMARK  status: ('A' for Active; 'I' for Inactive)
REMARK    1  A    between atoms: O1_2  and  C2_3 
REMARK    2  A    between atoms: C2_3  and  C3_5 
REMARK    3  A    between atoms: C3_5  and  C4_6 
REMARK    4  A    between atoms: C5_9  and  C6_10 
ROOT
HETATM    1  C4  UNL     1      23.114  11.616 -14.193  1.00  0.00     0.161 C 
HETATM    2  N1  UNL     1      22.483  10.856 -13.116  1.00  0.00    -0.376 N 
ATOM      3  H1  UNL     1      21.669  10.307 -13.389  1.00  0.00     0.160 HD
HETATM    4  C5  UNL     1      22.811  10.778 -11.857  1.00  0.00     0.052 C 
HETATM    5  C12 UNL     1      23.901  11.571 -11.211  1.00  0.00     0.033 A 
HETATM    6  C13 UNL     1      25.114  11.721 -11.862  1.00  0.00     0.097 A 
HETATM    7  S1  UNL     1      26.089  12.547 -10.753  1.00  0.00    -0.075 SA
HETATM    8  C14 UNL     1      24.933  12.705  -9.476  1.00  0.00    -0.012 A 
HETATM    9  C15 UNL     1      25.134  13.360  -8.137  1.00  0.00     0.057 C 
HETATM   10  C16 UNL     1      23.815  12.091  -9.983  1.00  0.00    -0.034 A 
HETATM   11  C17 UNL     1      22.526  12.206  -9.179  1.00  0.00     0.050 C 
HETATM   12  N2  UNL     1      25.456  11.388 -13.220  1.00  0.00    -0.279 N 
HETATM   13  C18 UNL     1      26.713  11.107 -13.589  1.00  0.00     0.100 A 
HETATM   14  C19 UNL     1      27.887  11.108 -12.657  1.00  0.00     0.091 C 
HETATM   15  N3  UNL     1      26.626  10.865 -14.905  1.00  0.00    -0.287 N 
ATOM     16  H3  UNL     1      27.408  10.617 -15.511  1.00  0.00     0.188 HD
HETATM   17  N4  UNL     1      25.340  11.001 -15.306  1.00  0.00    -0.285 N 
ATOM     18  H4  UNL     1      25.004  10.870 -16.261  1.00  0.00     0.188 HD
HETATM   19  C20 UNL     1      24.592  11.327 -14.278  1.00  0.00     0.128 A 
ENDROOT
BRANCH   4  20
HETATM   20  C6  UNL     1      21.979   9.917 -11.059  1.00  0.00    -0.009 A 
HETATM   21  C7  UNL     1      22.338   9.133 -10.015  1.00  0.00     0.015 A 
HETATM   22  C8  UNL     1      21.449   8.426  -9.275  1.00  0.00     0.024 A 
HETATM   23  C9  UNL     1      20.096   8.455  -9.540  1.00  0.00     0.034 A 
HETATM   24 CL1  UNL     1      18.929   7.550  -8.599  1.00  0.00    -0.084 Cl
HETATM   25  C10 UNL     1      19.727   9.251 -10.605  1.00  0.00     0.024 A 
HETATM   26  C11 UNL     1      20.617   9.971 -11.360  1.00  0.00     0.015 A 
ENDBRANCH   4  20
BRANCH   1  27
HETATM   27  C3  UNL     1      22.914  13.074 -13.983  1.00  0.00     0.144 C 
BRANCH  27  28
HETATM   28  C2  UNL     1      21.873  13.546 -14.924  1.00  0.00     0.260 C 
HETATM   29  O2  UNL     1      20.776  12.962 -15.077  1.00  0.00    -0.265 OA
BRANCH  28  30
HETATM   30  O1  UNL     1      22.118  14.684 -15.670  1.00  0.00    -0.326 OA
HETATM   31  C1  UNL     1      23.055  15.671 -15.287  1.00  0.00     0.213 C 
ENDBRANCH  28  30
ENDBRANCH  27  28
ENDBRANCH   1  27
TORSDOF 4
ENDMDL
