MODEL 3
REMARK VINA RESULT: -7.862633990      4.086      6.914
REMARK  4 active torsions:
REMARK  status: ('A' for Active; 'I' for Inactive)
REMARK    1  A    between atoms: O1_2  and  C2_3 
REMARK    2  A    between atoms: C2_3  and  C3_5 
REMARK    3  A    between atoms: C3_5  and  C4_6 
REMARK    4  A    between atoms: C5_9  and  C6_10 
ROOT
HETATM    1  C4  UNL     1      23.814  12.024  -8.773  1.00  0.00     0.161 C 
HETATM    2  N1  UNL     1      24.836  12.163  -9.809  1.00  0.00    -0.376 N 
ATOM      3  H1  UNL     1      25.790  12.275  -9.467  1.00  0.00     0.160 HD
HETATM    4  C5  UNL     1      24.705  12.165 -11.105  1.00  0.00     0.052 C 
HETATM    5  C12 UNL     1      23.398  12.118 -11.828  1.00  0.00     0.033 A 
HETATM    6  C13 UNL     1      22.409  11.250 -11.395  1.00  0.00     0.097 A 
HETATM    7  S1  UNL     1      21.176  11.408 -12.544  1.00  0.00    -0.075 SA
HETATM    8  C14 UNL     1      21.931  12.589 -13.556  1.00  0.00    -0.012 A 
HETATM    9  C15 UNL     1      21.376  13.206 -14.811  1.00  0.00     0.057 C 
HETATM   10  C16 UNL     1      23.137  12.811 -12.940  1.00  0.00    -0.034 A 
HETATM   11  C17 UNL     1      23.999  13.949 -13.473  1.00  0.00     0.050 C 
HETATM   12  N2  UNL     1      22.352  10.484 -10.178  1.00  0.00    -0.279 N 
HETATM   13  C18 UNL     1      21.645   9.348 -10.085  1.00  0.00     0.100 A 
HETATM   14  C19 UNL     1      20.847   8.756 -11.206  1.00  0.00     0.091 C 
HETATM   15  N3  UNL     1      21.830   8.947  -8.818  1.00  0.00    -0.287 N 
ATOM     16  H3  UNL     1      21.428   8.106  -8.403  1.00  0.00     0.188 HD
HETATM   17  N4  UNL     1      22.630   9.830  -8.175  1.00  0.00    -0.285 N 
ATOM     18  H4  UNL     1      22.925   9.756  -7.201  1.00  0.00     0.188 HD
HETATM   19  C20 UNL     1      22.968  10.795  -8.998  1.00  0.00     0.128 A 
ENDROOT
BRANCH   4  20
HETATM   20  C6  UNL     1      25.930  12.309 -11.845  1.00  0.00    -0.009 A 
HETATM   21  C7  UNL     1      26.718  13.405 -11.962  1.00  0.00     0.015 A 
HETATM   22  C8  UNL     1      27.904  13.404 -12.617  1.00  0.00     0.024 A 
HETATM   23  C9  UNL     1      28.399  12.268 -13.222  1.00  0.00     0.034 A 
HETATM   24 CL1  UNL     1      29.928  12.241 -14.075  1.00  0.00    -0.084 Cl
HETATM   25  C10 UNL     1      27.598  11.150 -13.108  1.00  0.00     0.024 A 
HETATM   26  C11 UNL     1      26.396  11.140 -12.447  1.00  0.00     0.015 A 
ENDBRANCH   4  20
BRANCH   1  27
HETATM   27  C3  UNL     1      22.936  13.222  -8.749  1.00  0.00     0.144 C 
BRANCH  27  28
HETATM   28  C2  UNL     1      23.324  14.066  -7.595  1.00  0.00     0.260 C 
HETATM   29  O2  UNL     1      22.674  15.074  -7.237  1.00  0.00    -0.265 OA
BRANCH  28  30
HETATM   30  O1  UNL     1      24.456  13.727  -6.876  1.00  0.00    -0.326 OA
HETATM   31  C1  UNL     1      24.567  13.912  -5.479  1.00  0.00     0.213 C 
ENDBRANCH  28  30
ENDBRANCH  27  28
ENDBRANCH   1  27
TORSDOF 4
ENDMDL
