MODEL 2
REMARK VINA RESULT: -6.487481765      3.865      6.961
REMARK  3 active torsions:
REMARK  status: ('A' for Active; 'I' for Inactive)
REMARK    1  A    between atoms: C2_2  and  S1_3 
REMARK    2  A    between atoms: S1_3  and  N1_6 
REMARK    3  A    between atoms: N1_6  and  C3_8 
ROOT
HETATM    1  C3  UNL     1       3.404  11.416  14.164  1.00  0.00     0.043 A 
HETATM    2  C4  UNL     1       2.458  10.416  14.323  1.00  0.00     0.033 A 
HETATM    3  C5  UNL     1       2.599   9.432  15.247  1.00  0.00     0.040 A 
HETATM    4  C6  UNL     1       3.723   9.368  16.102  1.00  0.00     0.087 A 
HETATM    5  C7  UNL     1       4.676  10.381  15.942  1.00  0.00     0.014 A 
HETATM    6  C8  UNL     1       4.508  11.377  14.985  1.00  0.00     0.045 A 
HETATM    7  C9  UNL     1       5.913  10.531  16.727  1.00  0.00     0.026 A 
HETATM    8  C10 UNL     1       7.102  10.498  15.972  1.00  0.00     0.108 A 
HETATM    9  N2  UNL     1       8.327  10.568  16.480  1.00  0.00    -0.328 N 
HETATM   10  C11 UNL     1       9.487  10.522  15.576  1.00  0.00     0.159 C 
HETATM   11  C12 UNL     1       8.462  10.679  17.795  1.00  0.00     0.249 A 
HETATM   12  O3  UNL     1       9.596  10.746  18.307  1.00  0.00    -0.268 OA
HETATM   13  C13 UNL     1       7.350  10.722  18.595  1.00  0.00     0.112 A 
HETATM   14  C14 UNL     1       6.036  10.651  18.094  1.00  0.00     0.086 A 
HETATM   15  O4  UNL     1       4.937  10.718  18.961  1.00  0.00    -0.350 OA
HETATM   16  C15 UNL     1       3.856  11.611  18.827  1.00  0.00     0.175 C 
HETATM   17  C16 UNL     1       2.984  11.624  20.057  1.00  0.00     0.027 C 
HETATM   18  C17 UNL     1       2.839  10.216  20.585  1.00  0.00     0.007 C 
HETATM   19  C18 UNL     1       2.524   9.233  19.477  1.00  0.00     0.042 C 
HETATM   20  C19 UNL     1       3.617   8.260  19.355  1.00  0.00    -0.018 A 
HETATM   21  C20 UNL     1       4.077   7.732  20.531  1.00  0.00     0.052 A 
HETATM   22  C21 UNL     1       5.074   6.809  20.573  1.00  0.00     0.120 A 
HETATM   23  F1  UNL     1       5.535   6.285  21.747  1.00  0.00    -0.206 F 
HETATM   24  C22 UNL     1       5.630   6.399  19.403  1.00  0.00     0.087 A 
HETATM   25  C23 UNL     1       5.169   6.928  18.202  1.00  0.00     0.153 A 
HETATM   26  F2  UNL     1       5.827   6.393  17.114  1.00  0.00    -0.203 F 
HETATM   27  C24 UNL     1       4.162   7.866  18.112  1.00  0.00     0.121 A 
HETATM   28  O5  UNL     1       3.753   8.346  16.953  1.00  0.00    -0.306 OA
ENDROOT
BRANCH   1  29
HETATM   29  N1  UNL     1       3.200  12.398  13.193  1.00  0.00    -0.285 N 
ATOM     30  H1  UNL     1       3.037  13.377  13.427  1.00  0.00     0.178 HD
BRANCH  29  31
HETATM   31  S1  UNL     1       3.246  11.797  11.494  1.00  0.00     0.230 S 
HETATM   32  O1  UNL     1       1.797  11.598  11.078  1.00  0.00    -0.206 OA
HETATM   33  O2  UNL     1       4.201  10.638  11.492  1.00  0.00    -0.206 OA
BRANCH  31  34
HETATM   34  C2  UNL     1       3.976  13.183  10.662  1.00  0.00     0.159 C 
HETATM   35  C1  UNL     1       5.450  13.147  11.076  1.00  0.00     0.023 C 
ENDBRANCH  31  34
ENDBRANCH  29  31
ENDBRANCH   1  29
TORSDOF 3
ENDMDL
