MODEL 1
REMARK VINA RESULT: -6.823093406      0.000      0.000
REMARK  3 active torsions:
REMARK  status: ('A' for Active; 'I' for Inactive)
REMARK    1  A    between atoms: C2_2  and  S1_3 
REMARK    2  A    between atoms: S1_3  and  N1_6 
REMARK    3  A    between atoms: N1_6  and  C3_8 
ROOT
HETATM    1  C3  UNL     1      10.001  11.140  17.740  1.00  0.00     0.043 A 
HETATM    2  C4  UNL     1       9.812  11.977  16.652  1.00  0.00     0.033 A 
HETATM    3  C5  UNL     1       8.576  12.266  16.173  1.00  0.00     0.040 A 
HETATM    4  C6  UNL     1       7.405  11.728  16.756  1.00  0.00     0.087 A 
HETATM    5  C7  UNL     1       7.598  10.887  17.859  1.00  0.00     0.014 A 
HETATM    6  C8  UNL     1       8.879  10.605  18.328  1.00  0.00     0.045 A 
HETATM    7  C9  UNL     1       6.535  10.229  18.636  1.00  0.00     0.026 A 
HETATM    8  C10 UNL     1       6.600   8.822  18.658  1.00  0.00     0.108 A 
HETATM    9  N2  UNL     1       5.720   8.029  19.257  1.00  0.00    -0.328 N 
HETATM   10  C11 UNL     1       5.906   6.571  19.203  1.00  0.00     0.159 C 
HETATM   11  C12 UNL     1       4.695   8.586  19.890  1.00  0.00     0.249 A 
HETATM   12  O3  UNL     1       3.848   7.873  20.462  1.00  0.00    -0.268 OA
HETATM   13  C13 UNL     1       4.567   9.949  19.916  1.00  0.00     0.112 A 
HETATM   14  C14 UNL     1       5.481  10.822  19.294  1.00  0.00     0.086 A 
HETATM   15  O4  UNL     1       5.306  12.211  19.370  1.00  0.00    -0.350 OA
HETATM   16  C15 UNL     1       6.286  13.125  19.802  1.00  0.00     0.175 C 
HETATM   17  C16 UNL     1       5.710  14.499  20.031  1.00  0.00     0.027 C 
HETATM   18  C17 UNL     1       4.703  14.808  18.948  1.00  0.00     0.007 C 
HETATM   19  C18 UNL     1       5.236  14.461  17.574  1.00  0.00     0.042 C 
HETATM   20  C19 UNL     1       4.411  13.403  16.978  1.00  0.00    -0.018 A 
HETATM   21  C20 UNL     1       3.057  13.572  17.087  1.00  0.00     0.052 A 
HETATM   22  C21 UNL     1       2.170  12.681  16.571  1.00  0.00     0.120 A 
HETATM   23  F1  UNL     1       0.819  12.849  16.682  1.00  0.00    -0.206 F 
HETATM   24  C22 UNL     1       2.648  11.587  15.924  1.00  0.00     0.087 A 
HETATM   25  C23 UNL     1       4.023  11.405  15.807  1.00  0.00     0.153 A 
HETATM   26  F2  UNL     1       4.336  10.257  15.109  1.00  0.00    -0.203 F 
HETATM   27  C24 UNL     1       4.958  12.281  16.315  1.00  0.00     0.121 A 
HETATM   28  O5  UNL     1       6.255  12.074  16.185  1.00  0.00    -0.306 OA
ENDROOT
BRANCH   1  29
HETATM   29  N1  UNL     1      11.300  10.882  18.182  1.00  0.00    -0.285 N 
ATOM     30  H1  UNL     1      11.841  10.079  17.861  1.00  0.00     0.178 HD
BRANCH  29  31
HETATM   31  S1  UNL     1      11.946  12.081  19.363  1.00  0.00     0.230 S 
HETATM   32  O1  UNL     1      12.726  11.279  20.392  1.00  0.00    -0.206 OA
HETATM   33  O2  UNL     1      10.772  12.917  19.786  1.00  0.00    -0.206 OA
BRANCH  31  34
HETATM   34  C2  UNL     1      13.025  13.034  18.328  1.00  0.00     0.159 C 
HETATM   35  C1  UNL     1      13.584  12.024  17.322  1.00  0.00     0.023 C 
ENDBRANCH  31  34
ENDBRANCH  29  31
ENDBRANCH   1  29
TORSDOF 3
ENDMDL
