MODEL 3
REMARK VINA RESULT: -6.348018041      3.789      6.742
REMARK  3 active torsions:
REMARK  status: ('A' for Active; 'I' for Inactive)
REMARK    1  A    between atoms: C2_2  and  S1_3 
REMARK    2  A    between atoms: S1_3  and  N1_6 
REMARK    3  A    between atoms: N1_6  and  C3_8 
ROOT
HETATM    1  C3  UNL     1       2.996  10.582  14.364  1.00  0.00     0.043 A 
HETATM    2  C4  UNL     1       3.073  11.954  14.542  1.00  0.00     0.033 A 
HETATM    3  C5  UNL     1       3.703  12.507  15.610  1.00  0.00     0.040 A 
HETATM    4  C6  UNL     1       4.319  11.714  16.606  1.00  0.00     0.087 A 
HETATM    5  C7  UNL     1       4.244  10.328  16.421  1.00  0.00     0.014 A 
HETATM    6  C8  UNL     1       3.589   9.787  15.318  1.00  0.00     0.045 A 
HETATM    7  C9  UNL     1       4.823   9.309  17.312  1.00  0.00     0.026 A 
HETATM    8  C10 UNL     1       3.894   8.405  17.863  1.00  0.00     0.108 A 
HETATM    9  N2  UNL     1       4.191   7.439  18.724  1.00  0.00    -0.328 N 
HETATM   10  C11 UNL     1       3.121   6.562  19.224  1.00  0.00     0.159 C 
HETATM   11  C12 UNL     1       5.454   7.298  19.105  1.00  0.00     0.249 A 
HETATM   12  O3  UNL     1       5.770   6.404  19.914  1.00  0.00    -0.268 OA
HETATM   13  C13 UNL     1       6.416   8.137  18.609  1.00  0.00     0.112 A 
HETATM   14  C14 UNL     1       6.140   9.171  17.693  1.00  0.00     0.086 A 
HETATM   15  O4  UNL     1       7.170   9.988  17.206  1.00  0.00    -0.350 OA
HETATM   16  C15 UNL     1       7.432  10.230  15.844  1.00  0.00     0.175 C 
HETATM   17  C16 UNL     1       8.758  10.917  15.642  1.00  0.00     0.027 C 
HETATM   18  C17 UNL     1       8.958  11.952  16.724  1.00  0.00     0.007 C 
HETATM   19  C18 UNL     1       7.719  12.800  16.921  1.00  0.00     0.042 C 
HETATM   20  C19 UNL     1       7.191  12.595  18.276  1.00  0.00    -0.018 A 
HETATM   21  C20 UNL     1       8.116  12.616  19.284  1.00  0.00     0.052 A 
HETATM   22  C21 UNL     1       7.773  12.454  20.589  1.00  0.00     0.120 A 
HETATM   23  F1  UNL     1       8.697  12.472  21.595  1.00  0.00    -0.206 F 
HETATM   24  C22 UNL     1       6.464  12.267  20.899  1.00  0.00     0.087 A 
HETATM   25  C23 UNL     1       5.515  12.245  19.882  1.00  0.00     0.153 A 
HETATM   26  F2  UNL     1       4.237  12.063  20.370  1.00  0.00    -0.203 F 
HETATM   27  C24 UNL     1       5.818  12.403  18.546  1.00  0.00     0.121 A 
HETATM   28  O5  UNL     1       4.888  12.375  17.609  1.00  0.00    -0.306 OA
ENDROOT
BRANCH   1  29
HETATM   29  N1  UNL     1       2.331  10.078  13.245  1.00  0.00    -0.285 N 
ATOM     30  H1  UNL     1       1.512   9.475  13.318  1.00  0.00     0.178 HD
BRANCH  29  31
HETATM   31  S1  UNL     1       3.036  10.576  11.663  1.00  0.00     0.230 S 
HETATM   32  O1  UNL     1       4.517  10.808  11.915  1.00  0.00    -0.206 OA
HETATM   33  O2  UNL     1       2.169  11.695  11.160  1.00  0.00    -0.206 OA
BRANCH  31  34
HETATM   34  C2  UNL     1       2.762   9.118  10.692  1.00  0.00     0.159 C 
HETATM   35  C1  UNL     1       1.600   8.404  11.389  1.00  0.00     0.023 C 
ENDBRANCH  31  34
ENDBRANCH  29  31
ENDBRANCH   1  29
TORSDOF 3
ENDMDL
