MODEL 3
REMARK VINA RESULT: -7.070214470      2.167      2.741
REMARK  3 active torsions:
REMARK  status: ('A' for Active; 'I' for Inactive)
REMARK    1  A    between atoms: O1_2  and  C2_3 
REMARK    2  A    between atoms: C12_17  and  O3_18 
REMARK    3  A    between atoms: O3_18  and  C13_19 
ROOT
HETATM    1  C2  UNL     1      16.948  13.410  -2.743  1.00  0.00     0.102 A 
HETATM    2  C3  UNL     1      18.181  12.904  -2.298  1.00  0.00     0.115 A 
HETATM    3  C4  UNL     1      18.217  12.074  -1.198  1.00  0.00     0.264 A 
HETATM    4  O2  UNL     1      19.321  11.627  -0.808  1.00  0.00    -0.267 OA
HETATM    5  N1  UNL     1      17.103  11.726  -0.529  1.00  0.00    -0.262 N 
HETATM    6  C5  UNL     1      17.233  10.845   0.611  1.00  0.00     0.181 C 
HETATM    7  N2  UNL     1      15.973  12.208  -0.961  1.00  0.00    -0.292 N 
ATOM      8  H2  UNL     1      15.126  11.948  -0.456  1.00  0.00     0.187 HD
HETATM    9  C6  UNL     1      15.836  13.042  -2.046  1.00  0.00     0.094 A 
HETATM   10  C7  UNL     1      14.503  13.496  -2.367  1.00  0.00     0.029 A 
HETATM   11  C8  UNL     1      14.109  14.032  -3.566  1.00  0.00     0.017 A 
HETATM   12  C9  UNL     1      12.798  14.338  -3.863  1.00  0.00     0.001 A 
HETATM   13  C10 UNL     1      11.803  14.107  -2.932  1.00  0.00     0.003 A 
HETATM   14  C11 UNL     1      12.152  13.571  -1.712  1.00  0.00     0.038 A 
HETATM   15  C12 UNL     1      13.487  13.268  -1.425  1.00  0.00     0.088 A 
ENDROOT
BRANCH  15  16
HETATM   16  O3  UNL     1      13.686  12.743  -0.161  1.00  0.00    -0.310 OA
BRANCH  16  17
HETATM   17  C13 UNL     1      12.781  11.748   0.261  1.00  0.00     0.076 A 
HETATM   18  C14 UNL     1      11.663  12.027   1.001  1.00  0.00     0.037 A 
HETATM   19  C15 UNL     1      10.780  11.033   1.413  1.00  0.00     0.003 A 
HETATM   20  C16 UNL     1      11.023   9.727   1.077  1.00  0.00     0.000 A 
HETATM   21  C17 UNL     1      12.135   9.398   0.335  1.00  0.00     0.003 A 
HETATM   22  C18 UNL     1      12.981  10.399  -0.053  1.00  0.00     0.037 A 
ENDBRANCH  16  17
ENDBRANCH  15  16
BRANCH   1  23
HETATM   23  O1  UNL     1      16.866  14.239  -3.825  1.00  0.00    -0.353 OA
HETATM   24  C1  UNL     1      17.654  15.415  -3.851  1.00  0.00     0.210 C 
ENDBRANCH   1  23
TORSDOF 3
ENDMDL
