MODEL 2
REMARK VINA RESULT: -7.073287187      3.207      6.174
REMARK  3 active torsions:
REMARK  status: ('A' for Active; 'I' for Inactive)
REMARK    1  A    between atoms: O1_2  and  C2_3 
REMARK    2  A    between atoms: C12_17  and  O3_18 
REMARK    3  A    between atoms: O3_18  and  C13_19 
ROOT
HETATM    1  C2  UNL     1      12.433  14.453  -2.991  1.00  0.00     0.102 A 
HETATM    2  C3  UNL     1      12.856  14.849  -4.270  1.00  0.00     0.115 A 
HETATM    3  C4  UNL     1      13.550  13.958  -5.061  1.00  0.00     0.264 A 
HETATM    4  O2  UNL     1      13.923  14.320  -6.202  1.00  0.00    -0.267 OA
HETATM    5  N1  UNL     1      13.839  12.711  -4.649  1.00  0.00    -0.262 N 
HETATM    6  C5  UNL     1      14.567  11.841  -5.546  1.00  0.00     0.181 C 
HETATM    7  N2  UNL     1      13.437  12.368  -3.458  1.00  0.00    -0.292 N 
ATOM      8  H2  UNL     1      13.654  11.424  -3.140  1.00  0.00     0.187 HD
HETATM    9  C6  UNL     1      12.740  13.185  -2.597  1.00  0.00     0.094 A 
HETATM   10  C7  UNL     1      12.393  12.640  -1.305  1.00  0.00     0.029 A 
HETATM   11  C8  UNL     1      11.437  13.139  -0.460  1.00  0.00     0.017 A 
HETATM   12  C9  UNL     1      11.060  12.512   0.709  1.00  0.00     0.001 A 
HETATM   13  C10 UNL     1      11.652  11.320   1.080  1.00  0.00     0.003 A 
HETATM   14  C11 UNL     1      12.620  10.781   0.261  1.00  0.00     0.038 A 
HETATM   15  C12 UNL     1      12.993  11.431  -0.920  1.00  0.00     0.088 A 
ENDROOT
BRANCH  15  16
HETATM   16  O3  UNL     1      13.979  10.776  -1.635  1.00  0.00    -0.310 OA
BRANCH  16  17
HETATM   17  C13 UNL     1      15.298  10.892  -1.149  1.00  0.00     0.076 A 
HETATM   18  C14 UNL     1      16.240   9.913  -1.318  1.00  0.00     0.037 A 
HETATM   19  C15 UNL     1      17.537  10.042  -0.830  1.00  0.00     0.003 A 
HETATM   20  C16 UNL     1      17.900  11.177  -0.155  1.00  0.00     0.000 A 
HETATM   21  C17 UNL     1      16.987  12.188   0.040  1.00  0.00     0.003 A 
HETATM   22  C18 UNL     1      15.721  12.030  -0.453  1.00  0.00     0.037 A 
ENDBRANCH  16  17
ENDBRANCH  15  16
BRANCH   1  23
HETATM   23  O1  UNL     1      11.746  15.303  -2.172  1.00  0.00    -0.353 OA
HETATM   24  C1  UNL     1      11.716  16.684  -2.485  1.00  0.00     0.210 C 
ENDBRANCH   1  23
TORSDOF 3
ENDMDL
