MODEL 1
REMARK VINA RESULT: -7.169009659      0.000      0.000
REMARK  3 active torsions:
REMARK  status: ('A' for Active; 'I' for Inactive)
REMARK    1  A    between atoms: O1_2  and  C2_3 
REMARK    2  A    between atoms: C12_17  and  O3_18 
REMARK    3  A    between atoms: O3_18  and  C13_19 
ROOT
HETATM    1  C2  UNL     1      18.601  11.701  -1.918  1.00  0.00     0.102 A 
HETATM    2  C3  UNL     1      19.563  11.517  -0.911  1.00  0.00     0.115 A 
HETATM    3  C4  UNL     1      19.282  10.684   0.152  1.00  0.00     0.264 A 
HETATM    4  O2  UNL     1      20.146  10.524   1.045  1.00  0.00    -0.267 OA
HETATM    5  N1  UNL     1      18.110  10.034   0.259  1.00  0.00    -0.262 N 
HETATM    6  C5  UNL     1      17.902   9.175   1.405  1.00  0.00     0.181 C 
HETATM    7  N2  UNL     1      17.234  10.222  -0.687  1.00  0.00    -0.292 N 
ATOM      8  H2  UNL     1      16.344   9.732  -0.610  1.00  0.00     0.187 HD
HETATM    9  C6  UNL     1      17.422  11.032  -1.784  1.00  0.00     0.094 A 
HETATM   10  C7  UNL     1      16.330  11.136  -2.724  1.00  0.00     0.029 A 
HETATM   11  C8  UNL     1      16.427  11.595  -4.011  1.00  0.00     0.017 A 
HETATM   12  C9  UNL     1      15.378  11.561  -4.906  1.00  0.00     0.001 A 
HETATM   13  C10 UNL     1      14.154  11.045  -4.523  1.00  0.00     0.003 A 
HETATM   14  C11 UNL     1      14.011  10.573  -3.237  1.00  0.00     0.038 A 
HETATM   15  C12 UNL     1      15.083  10.617  -2.340  1.00  0.00     0.088 A 
ENDROOT
BRANCH  15  16
HETATM   16  O3  UNL     1      14.788  10.115  -1.086  1.00  0.00    -0.310 OA
BRANCH  16  17
HETATM   17  C13 UNL     1      13.690  10.691  -0.415  1.00  0.00     0.076 A 
HETATM   18  C14 UNL     1      12.657   9.947   0.090  1.00  0.00     0.037 A 
HETATM   19  C15 UNL     1      11.577  10.530   0.749  1.00  0.00     0.003 A 
HETATM   20  C16 UNL     1      11.531  11.890   0.904  1.00  0.00     0.000 A 
HETATM   21  C17 UNL     1      12.546  12.679   0.413  1.00  0.00     0.003 A 
HETATM   22  C18 UNL     1      13.592  12.074  -0.228  1.00  0.00     0.037 A 
ENDBRANCH  16  17
ENDBRANCH  15  16
BRANCH   1  23
HETATM   23  O1  UNL     1      18.836  12.520  -2.986  1.00  0.00    -0.353 OA
HETATM   24  C1  UNL     1      19.154  13.879  -2.753  1.00  0.00     0.210 C 
ENDBRANCH   1  23
TORSDOF 3
ENDMDL
