MODEL 15
REMARK VINA RESULT: -5.976038779      3.450      5.431
REMARK  2 active torsions:
REMARK  status: ('A' for Active; 'I' for Inactive)
REMARK    1  A    between atoms: N1_2  and  C2_4 
REMARK    2  A    between atoms: C6_12  and  C7_13 
ROOT
HETATM    1  C2  UNL     1     -12.528  13.056   1.147  1.00  0.00     0.062 A 
HETATM    2  C3  UNL     1     -11.358  12.523   0.677  1.00  0.00     0.107 A 
HETATM    3  C4  UNL     1     -11.357  11.281   0.098  1.00  0.00     0.263 A 
HETATM    4  O1  UNL     1     -10.295  10.769  -0.342  1.00  0.00    -0.267 OA
HETATM    5  N2  UNL     1     -12.483  10.583  -0.014  1.00  0.00    -0.262 N 
HETATM    6  C5  UNL     1     -12.515   9.249  -0.629  1.00  0.00     0.181 C 
HETATM    7  N3  UNL     1     -13.601  11.109   0.444  1.00  0.00    -0.293 N 
ATOM      8  H3  UNL     1     -14.458  10.563   0.352  1.00  0.00     0.187 HD
HETATM    9  C6  UNL     1     -13.688  12.322   1.027  1.00  0.00     0.085 A 
ENDROOT
BRANCH   9  10
HETATM   10  C7  UNL     1     -14.990  12.828   1.504  1.00  0.00    -0.006 A 
HETATM   11  C8  UNL     1     -15.865  13.363   0.589  1.00  0.00     0.014 A 
HETATM   12  C9  UNL     1     -17.116  13.843   0.947  1.00  0.00     0.001 A 
HETATM   13  C10 UNL     1     -17.513  13.786   2.273  1.00  0.00     0.000 A 
HETATM   14  C11 UNL     1     -16.651  13.258   3.182  1.00  0.00     0.001 A 
HETATM   15  C12 UNL     1     -15.393  12.776   2.813  1.00  0.00     0.014 A 
ENDBRANCH   9  10
BRANCH   1  16
HETATM   16  N1  UNL     1     -12.534  14.361   1.718  1.00  0.00    -0.392 N 
HETATM   17  C1  UNL     1     -12.017  14.524   3.081  1.00  0.00     0.146 C 
ATOM     18  H1  UNL     1     -12.888  15.161   1.192  1.00  0.00     0.159 HD
ENDBRANCH   1  16
TORSDOF 2
ENDMDL
