MODEL 4
REMARK VINA RESULT: -6.474881511      1.390      3.436
REMARK  2 active torsions:
REMARK  status: ('A' for Active; 'I' for Inactive)
REMARK    1  A    between atoms: N1_2  and  C2_4 
REMARK    2  A    between atoms: C6_12  and  C7_13 
ROOT
HETATM    1  C2  UNL     1     -14.859  10.531   1.047  1.00  0.00     0.062 A 
HETATM    2  C3  UNL     1     -15.753  10.626   2.079  1.00  0.00     0.107 A 
HETATM    3  C4  UNL     1     -15.340  11.099   3.298  1.00  0.00     0.263 A 
HETATM    4  O1  UNL     1     -16.141  11.196   4.263  1.00  0.00    -0.267 OA
HETATM    5  N2  UNL     1     -14.077  11.469   3.491  1.00  0.00    -0.262 N 
HETATM    6  C5  UNL     1     -13.605  11.980   4.785  1.00  0.00     0.181 C 
HETATM    7  N3  UNL     1     -13.230  11.371   2.486  1.00  0.00    -0.293 N 
ATOM      8  H3  UNL     1     -12.265  11.659   2.648  1.00  0.00     0.187 HD
HETATM    9  C6  UNL     1     -13.554  10.916   1.260  1.00  0.00     0.085 A 
ENDROOT
BRANCH   9  10
HETATM   10  C7  UNL     1     -12.532  10.849   0.197  1.00  0.00    -0.006 A 
HETATM   11  C8  UNL     1     -12.003  12.023  -0.285  1.00  0.00     0.014 A 
HETATM   12  C9  UNL     1     -11.025  12.051  -1.268  1.00  0.00     0.001 A 
HETATM   13  C10 UNL     1     -10.554  10.860  -1.794  1.00  0.00     0.000 A 
HETATM   14  C11 UNL     1     -11.073   9.696  -1.321  1.00  0.00     0.001 A 
HETATM   15  C12 UNL     1     -12.058   9.676  -0.330  1.00  0.00     0.014 A 
ENDBRANCH   9  10
BRANCH   1  16
HETATM   16  N1  UNL     1     -15.296  10.072  -0.229  1.00  0.00    -0.392 N 
HETATM   17  C1  UNL     1     -16.736  10.077  -0.512  1.00  0.00     0.146 C 
ATOM     18  H1  UNL     1     -14.627   9.748  -0.927  1.00  0.00     0.159 HD
ENDBRANCH   1  16
TORSDOF 2
ENDMDL
