MODEL 2
REMARK VINA RESULT: -6.859605451      0.106      1.180
REMARK  2 active torsions:
REMARK  status: ('A' for Active; 'I' for Inactive)
REMARK    1  A    between atoms: N1_2  and  C2_4 
REMARK    2  A    between atoms: C6_12  and  C7_13 
ROOT
HETATM    1  C2  UNL     1     -15.047  10.448   1.760  1.00  0.00     0.062 A 
HETATM    2  C3  UNL     1     -16.358  10.291   2.123  1.00  0.00     0.107 A 
HETATM    3  C4  UNL     1     -17.301  10.007   1.170  1.00  0.00     0.263 A 
HETATM    4  O1  UNL     1     -18.512   9.859   1.477  1.00  0.00    -0.267 OA
HETATM    5  N2  UNL     1     -16.958   9.883  -0.109  1.00  0.00    -0.262 N 
HETATM    6  C5  UNL     1     -17.946   9.580  -1.154  1.00  0.00     0.181 C 
HETATM    7  N3  UNL     1     -15.692  10.038  -0.442  1.00  0.00    -0.293 N 
ATOM      8  H3  UNL     1     -15.443   9.939  -1.426  1.00  0.00     0.187 HD
HETATM    9  C6  UNL     1     -14.705  10.318   0.432  1.00  0.00     0.085 A 
ENDROOT
BRANCH   9  10
HETATM   10  C7  UNL     1     -13.314  10.467  -0.038  1.00  0.00    -0.006 A 
HETATM   11  C8  UNL     1     -12.785  11.731  -0.145  1.00  0.00     0.014 A 
HETATM   12  C9  UNL     1     -11.482  11.961  -0.559  1.00  0.00     0.001 A 
HETATM   13  C10 UNL     1     -10.670  10.886  -0.880  1.00  0.00     0.000 A 
HETATM   14  C11 UNL     1     -11.188   9.634  -0.777  1.00  0.00     0.001 A 
HETATM   15  C12 UNL     1     -12.502   9.411  -0.358  1.00  0.00     0.014 A 
ENDBRANCH   9  10
BRANCH   1  16
HETATM   16  N1  UNL     1     -14.062  10.708   2.756  1.00  0.00    -0.392 N 
HETATM   17  C1  UNL     1     -14.275  10.162   4.101  1.00  0.00     0.146 C 
ATOM     18  H1  UNL     1     -13.231  11.259   2.540  1.00  0.00     0.159 HD
ENDBRANCH   1  16
TORSDOF 2
ENDMDL
