MODEL 1
REMARK VINA RESULT: -6.922230590      0.000      0.000
REMARK  2 active torsions:
REMARK  status: ('A' for Active; 'I' for Inactive)
REMARK    1  A    between atoms: N1_2  and  C2_4 
REMARK    2  A    between atoms: C6_12  and  C7_13 
ROOT
HETATM    1  C2  UNL     1     -14.992  10.500   1.796  1.00  0.00     0.062 A 
HETATM    2  C3  UNL     1     -16.294  10.283   2.160  1.00  0.00     0.107 A 
HETATM    3  C4  UNL     1     -17.230   9.984   1.205  1.00  0.00     0.263 A 
HETATM    4  O1  UNL     1     -18.433   9.781   1.513  1.00  0.00    -0.267 OA
HETATM    5  N2  UNL     1     -16.889   9.902  -0.078  1.00  0.00    -0.262 N 
HETATM    6  C5  UNL     1     -17.868   9.584  -1.126  1.00  0.00     0.181 C 
HETATM    7  N3  UNL     1     -15.631  10.114  -0.412  1.00  0.00    -0.293 N 
ATOM      8  H3  UNL     1     -15.383  10.048  -1.399  1.00  0.00     0.187 HD
HETATM    9  C6  UNL     1     -14.652  10.414   0.464  1.00  0.00     0.085 A 
ENDROOT
BRANCH   9  10
HETATM   10  C7  UNL     1     -13.270  10.628  -0.008  1.00  0.00    -0.006 A 
HETATM   11  C8  UNL     1     -12.510   9.534  -0.345  1.00  0.00     0.014 A 
HETATM   12  C9  UNL     1     -11.211   9.645  -0.817  1.00  0.00     0.001 A 
HETATM   13  C10 UNL     1     -10.644  10.901  -0.960  1.00  0.00     0.000 A 
HETATM   14  C11 UNL     1     -11.391  11.987  -0.628  1.00  0.00     0.001 A 
HETATM   15  C12 UNL     1     -12.699  11.866  -0.154  1.00  0.00     0.014 A 
ENDBRANCH   9  10
BRANCH   1  16
HETATM   16  N1  UNL     1     -14.014  10.777   2.793  1.00  0.00    -0.392 N 
HETATM   17  C1  UNL     1     -14.222  10.232   4.139  1.00  0.00     0.146 C 
ATOM     18  H1  UNL     1     -13.190  11.338   2.578  1.00  0.00     0.159 HD
ENDBRANCH   1  16
TORSDOF 2
ENDMDL
