MODEL 1
REMARK VINA RESULT: -7.982099921      0.000      0.000
REMARK  16 active torsions:
REMARK  status: ('A' for Active; 'I' for Inactive)
REMARK       I    between atoms: C2_2  and  N1_4 
REMARK    1  A    between atoms: N1_4  and  C3_6 
REMARK    2  A    between atoms: C4_7  and  O2_8 
REMARK    3  A    between atoms: C5_11  and  C6_12 
REMARK    4  A    between atoms: C6_12  and  O4_13 
REMARK    5  A    between atoms: C7_15  and  O5_16 
REMARK    6  A    between atoms: O5_16  and  C8_17 
REMARK    7  A    between atoms: C9_19  and  C10_20 
REMARK    8  A    between atoms: C10_20  and  O7_21 
REMARK    9  A    between atoms: C11_23  and  O8_24 
REMARK   10  A    between atoms: C12_26  and  O9_27 
REMARK   11  A    between atoms: C13_29  and  O10_30 
REMARK   12  A    between atoms: O10_30  and  C14_31 
REMARK   13  A    between atoms: C17_35  and  O12_36 
REMARK   14  A    between atoms: C18_38  and  O13_39 
REMARK   15  A    between atoms: C19_41  and  O14_42 
REMARK   16  A    between atoms: C20_44  and  O15_45 
ROOT
HETATM    1  C8  UNL     1     -16.854  21.865 -14.874  1.00  0.00     0.292 C 
HETATM    2  O6  UNL     1     -17.918  20.934 -14.769  1.00  0.00    -0.348 OA
HETATM    3  C9  UNL     1     -18.283  20.726 -13.471  1.00  0.00     0.179 C 
HETATM    4  C11 UNL     1     -17.272  21.144 -12.451  1.00  0.00     0.180 C 
HETATM    5  C12 UNL     1     -15.892  20.796 -12.892  1.00  0.00     0.183 C 
HETATM    6  C13 UNL     1     -15.610  21.322 -14.279  1.00  0.00     0.211 C 
ENDROOT
BRANCH   1   7
HETATM    7  O5  UNL     1     -16.782  22.109 -16.268  1.00  0.00    -0.348 OA
BRANCH   7   8
HETATM    8  C7  UNL     1     -18.005  22.577 -16.752  1.00  0.00     0.186 C 
HETATM    9  C5  UNL     1     -18.130  24.039 -16.494  1.00  0.00     0.179 C 
HETATM   10  O3  UNL     1     -17.321  24.826 -17.268  1.00  0.00    -0.349 OA
HETATM   11  C4  UNL     1     -17.206  24.509 -18.582  1.00  0.00     0.282 C 
HETATM   12  C3  UNL     1     -17.050  23.064 -18.911  1.00  0.00     0.170 C 
HETATM   13  C20 UNL     1     -18.126  22.268 -18.255  1.00  0.00     0.177 C 
BRANCH   9  14
HETATM   14  C6  UNL     1     -19.598  24.498 -16.536  1.00  0.00     0.198 C 
BRANCH  14  15
HETATM   15  O4  UNL     1     -20.299  24.181 -15.409  1.00  0.00    -0.398 OA
ATOM     16  H4  UNL     1     -21.177  24.545 -15.395  1.00  0.00     0.209 HD
ENDBRANCH  14  15
ENDBRANCH   9  14
BRANCH  11  17
HETATM   17  O2  UNL     1     -18.176  25.092 -19.412  1.00  0.00    -0.369 OA
ATOM     18  H2  UNL     1     -18.581  25.832 -18.975  1.00  0.00     0.212 HD
ENDBRANCH  11  17
BRANCH  12  19
HETATM   19  N1  UNL     1     -16.961  22.856 -20.331  1.00  0.00    -0.349 N 
HETATM   20  C2  UNL     1     -15.741  22.726 -21.041  1.00  0.00     0.214 C 
HETATM   21  C1  UNL     1     -15.662  22.511 -22.508  1.00  0.00     0.117 C 
HETATM   22  O1  UNL     1     -14.672  22.800 -20.382  1.00  0.00    -0.274 OA
ATOM     23  H1  UNL     1     -17.831  22.796 -20.860  1.00  0.00     0.163 HD
ENDBRANCH  12  19
BRANCH  13  24
HETATM   24  O15 UNL     1     -17.848  20.892 -18.363  1.00  0.00    -0.391 OA
ATOM     25  H15 UNL     1     -17.426  20.578 -17.572  1.00  0.00     0.210 HD
ENDBRANCH  13  24
ENDBRANCH   7   8
ENDBRANCH   1   7
BRANCH   6  26
HETATM   26  O10 UNL     1     -14.646  22.311 -14.170  1.00  0.00    -0.346 OA
BRANCH  26  27
HETATM   27  C14 UNL     1     -13.521  22.074 -14.938  1.00  0.00     0.292 C 
HETATM   28  O11 UNL     1     -12.533  21.683 -14.030  1.00  0.00    -0.351 OA
HETATM   29  C15 UNL     1     -11.405  21.156 -14.595  1.00  0.00     0.152 C 
HETATM   30  C16 UNL     1     -10.502  20.672 -13.497  1.00  0.00     0.042 C 
HETATM   31  C17 UNL     1     -10.705  22.264 -15.384  1.00  0.00     0.178 C 
HETATM   32  C18 UNL     1     -11.688  22.733 -16.401  1.00  0.00     0.183 C 
HETATM   33  C19 UNL     1     -13.011  23.185 -15.765  1.00  0.00     0.204 C 
BRANCH  31  34
HETATM   34  O12 UNL     1      -9.595  21.764 -16.017  1.00  0.00    -0.390 OA
ATOM     35  H12 UNL     1      -8.818  22.231 -15.732  1.00  0.00     0.210 HD
ENDBRANCH  31  34
BRANCH  32  36
HETATM   36  O13 UNL     1     -11.215  23.792 -17.170  1.00  0.00    -0.390 OA
ATOM     37  H13 UNL     1     -11.850  24.490 -17.275  1.00  0.00     0.210 HD
ENDBRANCH  32  36
BRANCH  33  38
HETATM   38  O14 UNL     1     -12.729  24.332 -15.034  1.00  0.00    -0.388 OA
ATOM     39  H14 UNL     1     -12.183  24.953 -15.503  1.00  0.00     0.210 HD
ENDBRANCH  33  38
ENDBRANCH  26  27
ENDBRANCH   6  26
BRANCH   3  40
HETATM   40  C10 UNL     1     -18.496  19.216 -13.306  1.00  0.00     0.198 C 
BRANCH  40  41
HETATM   41  O7  UNL     1     -19.589  18.798 -14.067  1.00  0.00    -0.398 OA
ATOM     42  H7  UNL     1     -19.906  17.959 -13.752  1.00  0.00     0.209 HD
ENDBRANCH  40  41
ENDBRANCH   3  40
BRANCH   5  43
HETATM   43  O9  UNL     1     -15.012  21.325 -11.947  1.00  0.00    -0.390 OA
ATOM     44  H9  UNL     1     -15.004  20.731 -11.206  1.00  0.00     0.210 HD
ENDBRANCH   5  43
BRANCH   4  45
HETATM   45  O8  UNL     1     -17.433  22.526 -12.218  1.00  0.00    -0.390 OA
ATOM     46  H8  UNL     1     -17.760  22.638 -11.333  1.00  0.00     0.210 HD
ENDBRANCH   4  45
TORSDOF 16
ENDMDL
