MODEL 2
REMARK VINA RESULT: -7.947926590      2.075      6.476
REMARK  16 active torsions:
REMARK  status: ('A' for Active; 'I' for Inactive)
REMARK       I    between atoms: C2_2  and  N1_4 
REMARK    1  A    between atoms: N1_4  and  C3_6 
REMARK    2  A    between atoms: C4_7  and  O2_8 
REMARK    3  A    between atoms: C5_11  and  C6_12 
REMARK    4  A    between atoms: C6_12  and  O4_13 
REMARK    5  A    between atoms: C7_15  and  O5_16 
REMARK    6  A    between atoms: O5_16  and  C8_17 
REMARK    7  A    between atoms: C9_19  and  C10_20 
REMARK    8  A    between atoms: C10_20  and  O7_21 
REMARK    9  A    between atoms: C11_23  and  O8_24 
REMARK   10  A    between atoms: C12_26  and  O9_27 
REMARK   11  A    between atoms: C13_29  and  O10_30 
REMARK   12  A    between atoms: O10_30  and  C14_31 
REMARK   13  A    between atoms: C17_35  and  O12_36 
REMARK   14  A    between atoms: C18_38  and  O13_39 
REMARK   15  A    between atoms: C19_41  and  O14_42 
REMARK   16  A    between atoms: C20_44  and  O15_45 
ROOT
HETATM    1  C8  UNL     1     -15.750  23.526 -17.202  1.00  0.00     0.292 C 
HETATM    2  O6  UNL     1     -15.686  23.678 -18.610  1.00  0.00    -0.348 OA
HETATM    3  C9  UNL     1     -16.725  24.421 -19.088  1.00  0.00     0.179 C 
HETATM    4  C11 UNL     1     -17.894  24.548 -18.164  1.00  0.00     0.180 C 
HETATM    5  C12 UNL     1     -18.171  23.259 -17.470  1.00  0.00     0.183 C 
HETATM    6  C13 UNL     1     -16.927  22.716 -16.808  1.00  0.00     0.211 C 
ENDROOT
BRANCH   1   7
HETATM    7  O5  UNL     1     -14.500  22.940 -16.888  1.00  0.00    -0.348 OA
BRANCH   7   8
HETATM    8  C7  UNL     1     -13.475  23.884 -16.973  1.00  0.00     0.186 C 
HETATM    9  C5  UNL     1     -13.653  24.924 -15.922  1.00  0.00     0.179 C 
HETATM   10  O3  UNL     1     -13.396  24.498 -14.647  1.00  0.00    -0.349 OA
HETATM   11  C4  UNL     1     -12.311  23.706 -14.456  1.00  0.00     0.282 C 
HETATM   12  C3  UNL     1     -12.087  22.626 -15.457  1.00  0.00     0.170 C 
HETATM   13  C20 UNL     1     -12.109  23.188 -16.837  1.00  0.00     0.177 C 
BRANCH   9  14
HETATM   14  C6  UNL     1     -12.890  26.215 -16.267  1.00  0.00     0.198 C 
BRANCH  14  15
HETATM   15  O4  UNL     1     -12.561  26.962 -15.174  1.00  0.00    -0.398 OA
ATOM     16  H4  UNL     1     -13.240  26.980 -14.510  1.00  0.00     0.209 HD
ENDBRANCH  14  15
ENDBRANCH   9  14
BRANCH  11  17
HETATM   17  O2  UNL     1     -11.114  24.400 -14.218  1.00  0.00    -0.369 OA
ATOM     18  H2  UNL     1     -10.724  24.110 -13.402  1.00  0.00     0.212 HD
ENDBRANCH  11  17
BRANCH  12  19
HETATM   19  N1  UNL     1     -10.899  21.872 -15.159  1.00  0.00    -0.349 N 
HETATM   20  C2  UNL     1     -10.803  20.914 -14.118  1.00  0.00     0.214 C 
HETATM   21  C1  UNL     1      -9.571  20.143 -13.820  1.00  0.00     0.117 C 
HETATM   22  O1  UNL     1     -11.826  20.716 -13.413  1.00  0.00    -0.274 OA
ATOM     23  H1  UNL     1     -10.073  22.037 -15.734  1.00  0.00     0.163 HD
ENDBRANCH  12  19
BRANCH  13  24
HETATM   24  O15 UNL     1     -12.138  22.149 -17.786  1.00  0.00    -0.391 OA
ATOM     25  H15 UNL     1     -13.035  21.897 -17.972  1.00  0.00     0.210 HD
ENDBRANCH  13  24
ENDBRANCH   7   8
ENDBRANCH   1   7
BRANCH   6  26
HETATM   26  O10 UNL     1     -17.120  22.768 -15.436  1.00  0.00    -0.346 OA
BRANCH  26  27
HETATM   27  C14 UNL     1     -16.632  21.661 -14.767  1.00  0.00     0.292 C 
HETATM   28  O11 UNL     1     -17.760  21.018 -14.249  1.00  0.00    -0.351 OA
HETATM   29  C15 UNL     1     -17.535  19.761 -13.761  1.00  0.00     0.152 C 
HETATM   30  C16 UNL     1     -18.853  19.160 -13.363  1.00  0.00     0.042 C 
HETATM   31  C17 UNL     1     -16.634  19.880 -12.532  1.00  0.00     0.178 C 
HETATM   32  C18 UNL     1     -15.384  20.544 -12.998  1.00  0.00     0.183 C 
HETATM   33  C19 UNL     1     -15.661  21.892 -13.680  1.00  0.00     0.204 C 
BRANCH  31  34
HETATM   34  O12 UNL     1     -16.335  18.634 -12.042  1.00  0.00    -0.390 OA
ATOM     35  H12 UNL     1     -15.906  18.709 -11.198  1.00  0.00     0.210 HD
ENDBRANCH  31  34
BRANCH  32  36
HETATM   36  O13 UNL     1     -14.474  20.779 -11.970  1.00  0.00    -0.390 OA
ATOM     37  H13 UNL     1     -14.592  21.623 -11.553  1.00  0.00     0.210 HD
ENDBRANCH  32  36
BRANCH  33  38
HETATM   38  O14 UNL     1     -16.133  22.747 -12.692  1.00  0.00    -0.388 OA
ATOM     39  H14 UNL     1     -17.005  22.525 -12.387  1.00  0.00     0.210 HD
ENDBRANCH  33  38
ENDBRANCH  26  27
ENDBRANCH   6  26
BRANCH   3  40
HETATM   40  C10 UNL     1     -17.225  23.721 -20.358  1.00  0.00     0.198 C 
BRANCH  40  41
HETATM   41  O7  UNL     1     -16.543  22.517 -20.544  1.00  0.00    -0.398 OA
ATOM     42  H7  UNL     1     -15.907  22.606 -21.245  1.00  0.00     0.209 HD
ENDBRANCH  40  41
ENDBRANCH   3  40
BRANCH   5  43
HETATM   43  O9  UNL     1     -19.188  23.499 -16.547  1.00  0.00    -0.390 OA
ATOM     44  H9  UNL     1     -19.672  24.257 -16.853  1.00  0.00     0.210 HD
ENDBRANCH   5  43
BRANCH   4  45
HETATM   45  O8  UNL     1     -17.626  25.601 -17.264  1.00  0.00    -0.390 OA
ATOM     46  H8  UNL     1     -16.923  26.126 -17.628  1.00  0.00     0.210 HD
ENDBRANCH   4  45
TORSDOF 16
ENDMDL
