MODEL 3
REMARK VINA RESULT: -7.934104638      1.775      5.967
REMARK  16 active torsions:
REMARK  status: ('A' for Active; 'I' for Inactive)
REMARK       I    between atoms: C2_2  and  N1_4 
REMARK    1  A    between atoms: N1_4  and  C3_6 
REMARK    2  A    between atoms: C4_7  and  O2_8 
REMARK    3  A    between atoms: C5_11  and  C6_12 
REMARK    4  A    between atoms: C6_12  and  O4_13 
REMARK    5  A    between atoms: C7_15  and  O5_16 
REMARK    6  A    between atoms: O5_16  and  C8_17 
REMARK    7  A    between atoms: C9_19  and  C10_20 
REMARK    8  A    between atoms: C10_20  and  O7_21 
REMARK    9  A    between atoms: C11_23  and  O8_24 
REMARK   10  A    between atoms: C12_26  and  O9_27 
REMARK   11  A    between atoms: C13_29  and  O10_30 
REMARK   12  A    between atoms: O10_30  and  C14_31 
REMARK   13  A    between atoms: C17_35  and  O12_36 
REMARK   14  A    between atoms: C18_38  and  O13_39 
REMARK   15  A    between atoms: C19_41  and  O14_42 
REMARK   16  A    between atoms: C20_44  and  O15_45 
ROOT
HETATM    1  C8  UNL     1     -13.525  23.078 -15.437  1.00  0.00     0.292 C 
HETATM    2  O6  UNL     1     -12.460  24.010 -15.348  1.00  0.00    -0.348 OA
HETATM    3  C9  UNL     1     -11.287  23.408 -15.001  1.00  0.00     0.179 C 
HETATM    4  C11 UNL     1     -11.425  22.051 -14.386  1.00  0.00     0.180 C 
HETATM    5  C12 UNL     1     -12.581  22.004 -13.447  1.00  0.00     0.183 C 
HETATM    6  C13 UNL     1     -13.844  22.505 -14.107  1.00  0.00     0.211 C 
ENDROOT
BRANCH   1   7
HETATM    7  O5  UNL     1     -14.568  23.841 -16.015  1.00  0.00    -0.348 OA
BRANCH   7   8
HETATM    8  C7  UNL     1     -14.592  23.677 -17.401  1.00  0.00     0.186 C 
HETATM    9  C5  UNL     1     -14.530  22.229 -17.745  1.00  0.00     0.179 C 
HETATM   10  O3  UNL     1     -15.670  21.527 -17.464  1.00  0.00    -0.349 OA
HETATM   11  C4  UNL     1     -16.858  22.111 -17.764  1.00  0.00     0.282 C 
HETATM   12  C3  UNL     1     -16.999  23.554 -17.422  1.00  0.00     0.170 C 
HETATM   13  C20 UNL     1     -15.858  24.330 -17.984  1.00  0.00     0.177 C 
BRANCH   9  14
HETATM   14  C6  UNL     1     -14.055  22.010 -19.191  1.00  0.00     0.198 C 
BRANCH  14  15
HETATM   15  O4  UNL     1     -14.452  20.817 -19.720  1.00  0.00    -0.398 OA
ATOM     16  H4  UNL     1     -14.093  20.647 -20.583  1.00  0.00     0.209 HD
ENDBRANCH  14  15
ENDBRANCH   9  14
BRANCH  11  17
HETATM   17  O2  UNL     1     -17.313  21.877 -19.071  1.00  0.00    -0.369 OA
ATOM     18  H2  UNL     1     -17.817  22.619 -19.381  1.00  0.00     0.212 HD
ENDBRANCH  11  17
BRANCH  12  19
HETATM   19  N1  UNL     1     -18.289  24.061 -17.806  1.00  0.00    -0.349 N 
HETATM   20  C2  UNL     1     -19.393  24.181 -16.924  1.00  0.00     0.214 C 
HETATM   21  C1  UNL     1     -20.719  24.706 -17.334  1.00  0.00     0.117 C 
HETATM   22  O1  UNL     1     -19.226  23.819 -15.731  1.00  0.00    -0.274 OA
ATOM     23  H1  UNL     1     -18.417  24.353 -18.775  1.00  0.00     0.163 HD
ENDBRANCH  12  19
BRANCH  13  24
HETATM   24  O15 UNL     1     -15.858  25.640 -17.467  1.00  0.00    -0.391 OA
ATOM     25  H15 UNL     1     -15.934  26.272 -18.172  1.00  0.00     0.210 HD
ENDBRANCH  13  24
ENDBRANCH   7   8
ENDBRANCH   1   7
BRANCH   6  26
HETATM   26  O10 UNL     1     -14.712  21.432 -14.231  1.00  0.00    -0.346 OA
BRANCH  26  27
HETATM   27  C14 UNL     1     -15.751  21.454 -13.319  1.00  0.00     0.292 C 
HETATM   28  O11 UNL     1     -15.897  20.129 -12.899  1.00  0.00    -0.351 OA
HETATM   29  C15 UNL     1     -16.703  19.954 -11.808  1.00  0.00     0.152 C 
HETATM   30  C16 UNL     1     -16.657  18.508 -11.406  1.00  0.00     0.042 C 
HETATM   31  C17 UNL     1     -18.130  20.332 -12.203  1.00  0.00     0.178 C 
HETATM   32  C18 UNL     1     -18.074  21.752 -12.651  1.00  0.00     0.183 C 
HETATM   33  C19 UNL     1     -17.056  21.966 -13.781  1.00  0.00     0.204 C 
BRANCH  31  34
HETATM   34  O12 UNL     1     -18.965  20.227 -11.120  1.00  0.00    -0.390 OA
ATOM     35  H12 UNL     1     -19.773  20.700 -11.282  1.00  0.00     0.210 HD
ENDBRANCH  31  34
BRANCH  32  36
HETATM   36  O13 UNL     1     -19.301  22.232 -13.103  1.00  0.00    -0.390 OA
ATOM     37  H13 UNL     1     -19.230  23.056 -13.570  1.00  0.00     0.210 HD
ENDBRANCH  32  36
BRANCH  33  38
HETATM   38  O14 UNL     1     -17.549  21.295 -14.892  1.00  0.00    -0.388 OA
ATOM     39  H14 UNL     1     -17.195  21.615 -15.714  1.00  0.00     0.210 HD
ENDBRANCH  33  38
ENDBRANCH  26  27
ENDBRANCH   6  26
BRANCH   3  40
HETATM   40  C10 UNL     1     -10.615  24.311 -13.958  1.00  0.00     0.198 C 
BRANCH  40  41
HETATM   41  O7  UNL     1     -10.680  25.645 -14.365  1.00  0.00    -0.398 OA
ATOM     42  H7  UNL     1     -10.762  26.215 -13.608  1.00  0.00     0.209 HD
ENDBRANCH  40  41
ENDBRANCH   3  40
BRANCH   5  43
HETATM   43  O9  UNL     1     -12.709  20.683 -13.018  1.00  0.00    -0.390 OA
ATOM     44  H9  UNL     1     -13.605  20.418 -13.189  1.00  0.00     0.210 HD
ENDBRANCH   5  43
BRANCH   4  45
HETATM   45  O8  UNL     1     -11.537  21.109 -15.430  1.00  0.00    -0.390 OA
ATOM     46  H8  UNL     1     -11.082  21.457 -16.189  1.00  0.00     0.210 HD
ENDBRANCH   4  45
TORSDOF 16
ENDMDL
