MODEL 3
REMARK VINA RESULT: -6.616061230      2.611      7.632
REMARK  16 active torsions:
REMARK  status: ('A' for Active; 'I' for Inactive)
REMARK       I    between atoms: C2_2  and  N1_4 
REMARK    1  A    between atoms: N1_4  and  C3_6 
REMARK    2  A    between atoms: C4_7  and  O2_8 
REMARK    3  A    between atoms: C5_11  and  C6_12 
REMARK    4  A    between atoms: C6_12  and  O4_13 
REMARK    5  A    between atoms: C7_15  and  O5_16 
REMARK    6  A    between atoms: O5_16  and  C8_17 
REMARK    7  A    between atoms: C9_19  and  C10_20 
REMARK    8  A    between atoms: C10_20  and  O7_21 
REMARK    9  A    between atoms: C11_23  and  O8_24 
REMARK   10  A    between atoms: C12_26  and  O9_27 
REMARK   11  A    between atoms: C13_29  and  O10_30 
REMARK   12  A    between atoms: O10_30  and  C14_31 
REMARK   13  A    between atoms: C17_35  and  O12_36 
REMARK   14  A    between atoms: C18_38  and  O13_39 
REMARK   15  A    between atoms: C19_41  and  O14_42 
REMARK   16  A    between atoms: C20_44  and  O15_45 
ROOT
HETATM    1  C8  UNL     1      34.835  14.089 -21.801  1.00  0.00     0.292 C 
HETATM    2  O6  UNL     1      35.503  15.289 -21.670  1.00  0.00    -0.348 OA
HETATM    3  C9  UNL     1      36.744  15.273 -21.117  1.00  0.00     0.179 C 
HETATM    4  C11 UNL     1      36.730  14.735 -19.699  1.00  0.00     0.180 C 
HETATM    5  C12 UNL     1      35.303  14.227 -19.410  1.00  0.00     0.183 C 
HETATM    6  C13 UNL     1      34.940  13.305 -20.528  1.00  0.00     0.211 C 
ENDROOT
BRANCH   1   7
HETATM    7  O5  UNL     1      35.292  13.416 -22.922  1.00  0.00    -0.348 OA
BRANCH   7   8
HETATM    8  C7  UNL     1      34.526  13.552 -24.059  1.00  0.00     0.186 C 
HETATM    9  C5  UNL     1      33.930  12.285 -24.562  1.00  0.00     0.179 C 
HETATM   10  O3  UNL     1      34.488  11.846 -25.781  1.00  0.00    -0.349 OA
HETATM   11  C4  UNL     1      34.243  12.753 -26.803  1.00  0.00     0.282 C 
HETATM   12  C3  UNL     1      34.441  14.191 -26.410  1.00  0.00     0.170 C 
HETATM   13  C20 UNL     1      35.324  14.217 -25.187  1.00  0.00     0.177 C 
BRANCH   9  14
HETATM   14  C6  UNL     1      32.416  12.295 -24.643  1.00  0.00     0.198 C 
BRANCH  14  15
HETATM   15  O4  UNL     1      31.860  11.879 -23.446  1.00  0.00    -0.398 OA
ATOM     16  H4  UNL     1      31.418  12.600 -23.013  1.00  0.00     0.209 HD
ENDBRANCH  14  15
ENDBRANCH   9  14
BRANCH  11  17
HETATM   17  O2  UNL     1      33.030  12.548 -27.443  1.00  0.00    -0.369 OA
ATOM     18  H2  UNL     1      32.818  13.254 -28.043  1.00  0.00     0.212 HD
ENDBRANCH  11  17
BRANCH  12  19
HETATM   19  N1  UNL     1      34.994  14.978 -27.495  1.00  0.00    -0.349 N 
HETATM   20  C2  UNL     1      34.213  15.615 -28.493  1.00  0.00     0.214 C 
HETATM   21  C1  UNL     1      34.841  16.417 -29.592  1.00  0.00     0.117 C 
HETATM   22  O1  UNL     1      32.973  15.507 -28.458  1.00  0.00    -0.274 OA
ATOM     23  H1  UNL     1      36.008  15.080 -27.543  1.00  0.00     0.163 HD
ENDBRANCH  12  19
BRANCH  13  24
HETATM   24  O15 UNL     1      35.615  15.540 -24.863  1.00  0.00    -0.391 OA
ATOM     25  H15 UNL     1      35.571  15.647 -23.919  1.00  0.00     0.210 HD
ENDBRANCH  13  24
ENDBRANCH   7   8
ENDBRANCH   1   7
BRANCH   6  26
HETATM   26  O10 UNL     1      33.806  12.542 -20.232  1.00  0.00    -0.346 OA
BRANCH  26  27
HETATM   27  C14 UNL     1      34.098  11.184 -20.330  1.00  0.00     0.292 C 
HETATM   28  O11 UNL     1      33.080  10.590 -21.047  1.00  0.00    -0.351 OA
HETATM   29  C15 UNL     1      31.952  10.296 -20.322  1.00  0.00     0.152 C 
HETATM   30  C16 UNL     1      31.813   8.797 -20.173  1.00  0.00     0.042 C 
HETATM   31  C17 UNL     1      31.827  11.012 -19.013  1.00  0.00     0.178 C 
HETATM   32  C18 UNL     1      33.046  11.048 -18.168  1.00  0.00     0.183 C 
HETATM   33  C19 UNL     1      34.187  10.490 -18.987  1.00  0.00     0.204 C 
BRANCH  31  34
HETATM   34  O12 UNL     1      30.821  10.338 -18.280  1.00  0.00    -0.390 OA
ATOM     35  H12 UNL     1      31.232  10.025 -17.483  1.00  0.00     0.210 HD
ENDBRANCH  31  34
BRANCH  32  36
HETATM   36  O13 UNL     1      32.906  10.378 -16.956  1.00  0.00    -0.390 OA
ATOM     37  H13 UNL     1      33.345   9.536 -16.932  1.00  0.00     0.210 HD
ENDBRANCH  32  36
BRANCH  33  38
HETATM   38  O14 UNL     1      35.412  10.543 -18.386  1.00  0.00    -0.388 OA
ATOM     39  H14 UNL     1      36.119  10.137 -18.873  1.00  0.00     0.210 HD
ENDBRANCH  33  38
ENDBRANCH  26  27
ENDBRANCH   6  26
BRANCH   3  40
HETATM   40  C10 UNL     1      37.699  14.485 -21.958  1.00  0.00     0.198 C 
BRANCH  40  41
HETATM   41  O7  UNL     1      37.944  15.143 -23.179  1.00  0.00    -0.398 OA
ATOM     42  H7  UNL     1      37.173  15.117 -23.734  1.00  0.00     0.209 HD
ENDBRANCH  40  41
ENDBRANCH   3  40
BRANCH   5  43
HETATM   43  O9  UNL     1      35.314  13.691 -18.156  1.00  0.00    -0.390 OA
ATOM     44  H9  UNL     1      34.878  12.848 -18.208  1.00  0.00     0.210 HD
ENDBRANCH   5  43
BRANCH   4  45
HETATM   45  O8  UNL     1      37.591  13.695 -19.466  1.00  0.00    -0.390 OA
ATOM     46  H8  UNL     1      38.086  13.758 -18.659  1.00  0.00     0.210 HD
ENDBRANCH   4  45
TORSDOF 16
ENDMDL
