MODEL 9
REMARK VINA RESULT: -6.461046439      2.223      3.298
REMARK  16 active torsions:
REMARK  status: ('A' for Active; 'I' for Inactive)
REMARK       I    between atoms: C2_2  and  N1_4 
REMARK    1  A    between atoms: N1_4  and  C3_6 
REMARK    2  A    between atoms: C4_7  and  O2_8 
REMARK    3  A    between atoms: C5_11  and  C6_12 
REMARK    4  A    between atoms: C6_12  and  O4_13 
REMARK    5  A    between atoms: C7_15  and  O5_16 
REMARK    6  A    between atoms: O5_16  and  C8_17 
REMARK    7  A    between atoms: C9_19  and  C10_20 
REMARK    8  A    between atoms: C10_20  and  O7_21 
REMARK    9  A    between atoms: C11_23  and  O8_24 
REMARK   10  A    between atoms: C12_26  and  O9_27 
REMARK   11  A    between atoms: C13_29  and  O10_30 
REMARK   12  A    between atoms: O10_30  and  C14_31 
REMARK   13  A    between atoms: C17_35  and  O12_36 
REMARK   14  A    between atoms: C18_38  and  O13_39 
REMARK   15  A    between atoms: C19_41  and  O14_42 
REMARK   16  A    between atoms: C20_44  and  O15_45 
ROOT
HETATM    1  C8  UNL     1      34.273  13.533 -27.711  1.00  0.00     0.292 C 
HETATM    2  O6  UNL     1      35.265  14.356 -27.217  1.00  0.00    -0.348 OA
HETATM    3  C9  UNL     1      35.002  15.686 -27.121  1.00  0.00     0.179 C 
HETATM    4  C11 UNL     1      34.687  16.304 -28.470  1.00  0.00     0.180 C 
HETATM    5  C12 UNL     1      34.613  15.158 -29.499  1.00  0.00     0.183 C 
HETATM    6  C13 UNL     1      33.673  14.139 -28.942  1.00  0.00     0.211 C 
ENDROOT
BRANCH   1   7
HETATM    7  O5  UNL     1      33.357  13.249 -26.712  1.00  0.00    -0.348 OA
BRANCH   7   8
HETATM    8  C7  UNL     1      33.805  12.427 -25.701  1.00  0.00     0.186 C 
HETATM    9  C5  UNL     1      34.368  11.129 -26.158  1.00  0.00     0.179 C 
HETATM   10  O3  UNL     1      33.568  10.017 -25.817  1.00  0.00    -0.349 OA
HETATM   11  C4  UNL     1      33.472   9.868 -24.441  1.00  0.00     0.282 C 
HETATM   12  C3  UNL     1      33.253  11.156 -23.696  1.00  0.00     0.170 C 
HETATM   13  C20 UNL     1      32.699  12.164 -24.672  1.00  0.00     0.177 C 
BRANCH   9  14
HETATM   14  C6  UNL     1      35.808  10.892 -25.748  1.00  0.00     0.198 C 
BRANCH  14  15
HETATM   15  O4  UNL     1      36.312   9.761 -26.367  1.00  0.00    -0.398 OA
ATOM     16  H4  UNL     1      36.905   9.297 -25.787  1.00  0.00     0.209 HD
ENDBRANCH  14  15
ENDBRANCH   9  14
BRANCH  11  17
HETATM   17  O2  UNL     1      34.504   9.118 -23.895  1.00  0.00    -0.369 OA
ATOM     18  H2  UNL     1      34.403   8.190 -24.071  1.00  0.00     0.212 HD
ENDBRANCH  11  17
BRANCH  12  19
HETATM   19  N1  UNL     1      32.382  10.976 -22.550  1.00  0.00    -0.349 N 
HETATM   20  C2  UNL     1      32.535  11.666 -21.320  1.00  0.00     0.214 C 
HETATM   21  C1  UNL     1      31.603  11.441 -20.169  1.00  0.00     0.117 C 
HETATM   22  O1  UNL     1      33.467  12.481 -21.190  1.00  0.00    -0.274 OA
ATOM     23  H1  UNL     1      31.611  10.313 -22.634  1.00  0.00     0.163 HD
ENDBRANCH  12  19
BRANCH  13  24
HETATM   24  O15 UNL     1      32.381  13.335 -23.988  1.00  0.00    -0.391 OA
ATOM     25  H15 UNL     1      32.412  14.067 -24.592  1.00  0.00     0.210 HD
ENDBRANCH  13  24
ENDBRANCH   7   8
ENDBRANCH   1   7
BRANCH   6  26
HETATM   26  O10 UNL     1      33.279  13.206 -29.907  1.00  0.00    -0.346 OA
BRANCH  26  27
HETATM   27  C14 UNL     1      33.713  11.931 -29.550  1.00  0.00     0.292 C 
HETATM   28  O11 UNL     1      34.603  11.509 -30.516  1.00  0.00    -0.351 OA
HETATM   29  C15 UNL     1      34.028  10.997 -31.652  1.00  0.00     0.152 C 
HETATM   30  C16 UNL     1      34.279   9.507 -31.729  1.00  0.00     0.042 C 
HETATM   31  C17 UNL     1      32.585  11.343 -31.853  1.00  0.00     0.178 C 
HETATM   32  C18 UNL     1      31.707  11.200 -30.664  1.00  0.00     0.183 C 
HETATM   33  C19 UNL     1      32.593  10.915 -29.473  1.00  0.00     0.204 C 
BRANCH  31  34
HETATM   34  O12 UNL     1      32.096  10.466 -32.850  1.00  0.00    -0.390 OA
ATOM     35  H12 UNL     1      31.201  10.729 -33.027  1.00  0.00     0.210 HD
ENDBRANCH  31  34
BRANCH  32  36
HETATM   36  O13 UNL     1      30.717  10.233 -30.813  1.00  0.00    -0.390 OA
ATOM     37  H13 UNL     1      29.974  10.524 -31.328  1.00  0.00     0.210 HD
ENDBRANCH  32  36
BRANCH  33  38
HETATM   38  O14 UNL     1      31.946  10.854 -28.272  1.00  0.00    -0.388 OA
ATOM     39  H14 UNL     1      31.284  10.176 -28.204  1.00  0.00     0.210 HD
ENDBRANCH  33  38
ENDBRANCH  26  27
ENDBRANCH   6  26
BRANCH   3  40
HETATM   40  C10 UNL     1      33.885  15.947 -26.160  1.00  0.00     0.198 C 
BRANCH  40  41
HETATM   41  O7  UNL     1      34.255  15.569 -24.855  1.00  0.00    -0.398 OA
ATOM     42  H7  UNL     1      34.304  16.330 -24.287  1.00  0.00     0.209 HD
ENDBRANCH  40  41
ENDBRANCH   3  40
BRANCH   5  43
HETATM   43  O9  UNL     1      34.271  15.715 -30.697  1.00  0.00    -0.390 OA
ATOM     44  H9  UNL     1      33.767  15.065 -31.173  1.00  0.00     0.210 HD
ENDBRANCH   5  43
BRANCH   4  45
HETATM   45  O8  UNL     1      33.501  16.988 -28.530  1.00  0.00    -0.390 OA
ATOM     46  H8  UNL     1      33.024  16.891 -29.345  1.00  0.00     0.210 HD
ENDBRANCH   4  45
TORSDOF 16
ENDMDL
