MODEL 7
REMARK VINA RESULT: -6.572157315      2.828      7.513
REMARK  16 active torsions:
REMARK  status: ('A' for Active; 'I' for Inactive)
REMARK       I    between atoms: C2_2  and  N1_4 
REMARK    1  A    between atoms: N1_4  and  C3_6 
REMARK    2  A    between atoms: C4_7  and  O2_8 
REMARK    3  A    between atoms: C5_11  and  C6_12 
REMARK    4  A    between atoms: C6_12  and  O4_13 
REMARK    5  A    between atoms: C7_15  and  O5_16 
REMARK    6  A    between atoms: O5_16  and  C8_17 
REMARK    7  A    between atoms: C9_19  and  C10_20 
REMARK    8  A    between atoms: C10_20  and  O7_21 
REMARK    9  A    between atoms: C11_23  and  O8_24 
REMARK   10  A    between atoms: C12_26  and  O9_27 
REMARK   11  A    between atoms: C13_29  and  O10_30 
REMARK   12  A    between atoms: O10_30  and  C14_31 
REMARK   13  A    between atoms: C17_35  and  O12_36 
REMARK   14  A    between atoms: C18_38  and  O13_39 
REMARK   15  A    between atoms: C19_41  and  O14_42 
REMARK   16  A    between atoms: C20_44  and  O15_45 
ROOT
HETATM    1  C8  UNL     1      34.512  13.145 -21.291  1.00  0.00     0.292 C 
HETATM    2  O6  UNL     1      34.632  14.509 -21.121  1.00  0.00    -0.348 OA
HETATM    3  C9  UNL     1      35.762  14.983 -20.532  1.00  0.00     0.179 C 
HETATM    4  C11 UNL     1      35.939  14.448 -19.125  1.00  0.00     0.180 C 
HETATM    5  C12 UNL     1      34.836  13.397 -18.885  1.00  0.00     0.183 C 
HETATM    6  C13 UNL     1      34.900  12.437 -20.028  1.00  0.00     0.211 C 
ENDROOT
BRANCH   1   7
HETATM    7  O5  UNL     1      35.226  12.746 -22.409  1.00  0.00    -0.348 OA
BRANCH   7   8
HETATM    8  C7  UNL     1      34.560  12.839 -23.612  1.00  0.00     0.186 C 
HETATM    9  C5  UNL     1      34.312  11.538 -24.288  1.00  0.00     0.179 C 
HETATM   10  O3  UNL     1      35.068  11.364 -25.467  1.00  0.00    -0.349 OA
HETATM   11  C4  UNL     1      34.726  12.304 -26.428  1.00  0.00     0.282 C 
HETATM   12  C3  UNL     1      34.560  13.700 -25.893  1.00  0.00     0.170 C 
HETATM   13  C20 UNL     1      35.294  13.778 -24.577  1.00  0.00     0.177 C 
BRANCH   9  14
HETATM   14  C6  UNL     1      32.849  11.236 -24.545  1.00  0.00     0.198 C 
BRANCH  14  15
HETATM   15  O4  UNL     1      32.040  11.995 -23.717  1.00  0.00    -0.398 OA
ATOM     16  H4  UNL     1      31.866  12.844 -24.105  1.00  0.00     0.209 HD
ENDBRANCH  14  15
ENDBRANCH   9  14
BRANCH  11  17
HETATM   17  O2  UNL     1      33.656  11.918 -27.222  1.00  0.00    -0.369 OA
ATOM     18  H2  UNL     1      33.228  11.138 -26.891  1.00  0.00     0.212 HD
ENDBRANCH  11  17
BRANCH  12  19
HETATM   19  N1  UNL     1      35.026  14.700 -26.834  1.00  0.00    -0.349 N 
HETATM   20  C2  UNL     1      34.265  15.169 -27.935  1.00  0.00     0.214 C 
HETATM   21  C1  UNL     1      34.798  16.206 -28.876  1.00  0.00     0.117 C 
HETATM   22  O1  UNL     1      33.124  14.710 -28.129  1.00  0.00    -0.274 OA
ATOM     23  H1  UNL     1      35.958  15.090 -26.695  1.00  0.00     0.163 HD
ENDBRANCH  12  19
BRANCH  13  24
HETATM   24  O15 UNL     1      35.252  15.089 -24.108  1.00  0.00    -0.391 OA
ATOM     25  H15 UNL     1      34.709  15.124 -23.329  1.00  0.00     0.210 HD
ENDBRANCH  13  24
ENDBRANCH   7   8
ENDBRANCH   1   7
BRANCH   6  26
HETATM   26  O10 UNL     1      34.168  11.272 -19.777  1.00  0.00    -0.346 OA
BRANCH  26  27
HETATM   27  C14 UNL     1      32.927  11.590 -19.231  1.00  0.00     0.292 C 
HETATM   28  O11 UNL     1      32.890  11.069 -17.954  1.00  0.00    -0.351 OA
HETATM   29  C15 UNL     1      32.582   9.733 -17.880  1.00  0.00     0.152 C 
HETATM   30  C16 UNL     1      31.210   9.555 -17.268  1.00  0.00     0.042 C 
HETATM   31  C17 UNL     1      32.741   8.966 -19.156  1.00  0.00     0.178 C 
HETATM   32  C18 UNL     1      32.186   9.605 -20.375  1.00  0.00     0.183 C 
HETATM   33  C19 UNL     1      31.763  11.008 -20.005  1.00  0.00     0.204 C 
BRANCH  31  34
HETATM   34  O12 UNL     1      32.063   7.737 -18.973  1.00  0.00    -0.390 OA
ATOM     35  H12 UNL     1      32.410   7.353 -18.177  1.00  0.00     0.210 HD
ENDBRANCH  31  34
BRANCH  32  36
HETATM   36  O13 UNL     1      31.142   8.889 -20.956  1.00  0.00    -0.390 OA
ATOM     37  H13 UNL     1      30.299   9.045 -20.547  1.00  0.00     0.210 HD
ENDBRANCH  32  36
BRANCH  33  38
HETATM   38  O14 UNL     1      31.318  11.772 -21.045  1.00  0.00    -0.388 OA
ATOM     39  H14 UNL     1      30.934  11.288 -21.767  1.00  0.00     0.210 HD
ENDBRANCH  33  38
ENDBRANCH  26  27
ENDBRANCH   6  26
BRANCH   3  40
HETATM   40  C10 UNL     1      36.971  14.672 -21.358  1.00  0.00     0.198 C 
BRANCH  40  41
HETATM   41  O7  UNL     1      37.283  15.753 -22.206  1.00  0.00    -0.398 OA
ATOM     42  H7  UNL     1      38.220  15.799 -22.360  1.00  0.00     0.209 HD
ENDBRANCH  40  41
ENDBRANCH   3  40
BRANCH   5  43
HETATM   43  O9  UNL     1      35.038  12.878 -17.640  1.00  0.00    -0.390 OA
ATOM     44  H9  UNL     1      35.301  11.972 -17.754  1.00  0.00     0.210 HD
ENDBRANCH   5  43
BRANCH   4  45
HETATM   45  O8  UNL     1      37.143  13.841 -18.884  1.00  0.00    -0.390 OA
ATOM     46  H8  UNL     1      37.089  12.923 -18.648  1.00  0.00     0.210 HD
ENDBRANCH   4  45
TORSDOF 16
ENDMDL
