MODEL 4
REMARK VINA RESULT: -6.612633318      2.204      5.517
REMARK  16 active torsions:
REMARK  status: ('A' for Active; 'I' for Inactive)
REMARK       I    between atoms: C2_2  and  N1_4 
REMARK    1  A    between atoms: N1_4  and  C3_6 
REMARK    2  A    between atoms: C4_7  and  O2_8 
REMARK    3  A    between atoms: C5_11  and  C6_12 
REMARK    4  A    between atoms: C6_12  and  O4_13 
REMARK    5  A    between atoms: C7_15  and  O5_16 
REMARK    6  A    between atoms: O5_16  and  C8_17 
REMARK    7  A    between atoms: C9_19  and  C10_20 
REMARK    8  A    between atoms: C10_20  and  O7_21 
REMARK    9  A    between atoms: C11_23  and  O8_24 
REMARK   10  A    between atoms: C12_26  and  O9_27 
REMARK   11  A    between atoms: C13_29  and  O10_30 
REMARK   12  A    between atoms: O10_30  and  C14_31 
REMARK   13  A    between atoms: C17_35  and  O12_36 
REMARK   14  A    between atoms: C18_38  and  O13_39 
REMARK   15  A    between atoms: C19_41  and  O14_42 
REMARK   16  A    between atoms: C20_44  and  O15_45 
ROOT
HETATM    1  C8  UNL     1      32.493  11.410 -26.618  1.00  0.00     0.292 C 
HETATM    2  O6  UNL     1      31.708  10.451 -27.222  1.00  0.00    -0.348 OA
HETATM    3  C9  UNL     1      32.228   9.771 -28.278  1.00  0.00     0.179 C 
HETATM    4  C11 UNL     1      32.586  10.692 -29.429  1.00  0.00     0.180 C 
HETATM    5  C12 UNL     1      32.382  12.141 -28.943  1.00  0.00     0.183 C 
HETATM    6  C13 UNL     1      33.135  12.275 -27.660  1.00  0.00     0.211 C 
ENDROOT
BRANCH   1   7
HETATM    7  O5  UNL     1      33.388  10.808 -25.750  1.00  0.00    -0.348 OA
BRANCH   7   8
HETATM    8  C7  UNL     1      33.199  11.073 -24.411  1.00  0.00     0.186 C 
HETATM    9  C5  UNL     1      34.199  12.000 -23.814  1.00  0.00     0.179 C 
HETATM   10  O3  UNL     1      35.067  11.373 -22.895  1.00  0.00    -0.349 OA
HETATM   11  C4  UNL     1      34.373  10.886 -21.797  1.00  0.00     0.282 C 
HETATM   12  C3  UNL     1      33.085  10.191 -22.142  1.00  0.00     0.170 C 
HETATM   13  C20 UNL     1      33.158   9.778 -23.591  1.00  0.00     0.177 C 
BRANCH   9  14
HETATM   14  C6  UNL     1      33.604  13.257 -23.211  1.00  0.00     0.198 C 
BRANCH  14  15
HETATM   15  O4  UNL     1      32.729  13.858 -24.099  1.00  0.00    -0.398 OA
ATOM     16  H4  UNL     1      33.041  14.721 -24.344  1.00  0.00     0.209 HD
ENDBRANCH  14  15
ENDBRANCH   9  14
BRANCH  11  17
HETATM   17  O2  UNL     1      34.207  11.824 -20.789  1.00  0.00    -0.369 OA
ATOM     18  H2  UNL     1      34.148  12.708 -21.130  1.00  0.00     0.212 HD
ENDBRANCH  11  17
BRANCH  12  19
HETATM   19  N1  UNL     1      32.830   9.061 -21.269  1.00  0.00    -0.349 N 
HETATM   20  C2  UNL     1      31.887   9.073 -20.209  1.00  0.00     0.214 C 
HETATM   21  C1  UNL     1      31.664   7.874 -19.339  1.00  0.00     0.117 C 
HETATM   22  O1  UNL     1      31.226  10.106 -19.994  1.00  0.00    -0.274 OA
ATOM     23  H1  UNL     1      33.360   8.204 -21.428  1.00  0.00     0.163 HD
ENDBRANCH  12  19
BRANCH  13  24
HETATM   24  O15 UNL     1      32.025   9.034 -23.912  1.00  0.00    -0.391 OA
ATOM     25  H15 UNL     1      32.122   8.680 -24.788  1.00  0.00     0.210 HD
ENDBRANCH  13  24
ENDBRANCH   7   8
ENDBRANCH   1   7
BRANCH   6  26
HETATM   26  O10 UNL     1      33.288  13.612 -27.279  1.00  0.00    -0.346 OA
BRANCH  26  27
HETATM   27  C14 UNL     1      34.610  14.016 -27.453  1.00  0.00     0.292 C 
HETATM   28  O11 UNL     1      35.098  14.386 -26.216  1.00  0.00    -0.351 OA
HETATM   29  C15 UNL     1      34.761  15.655 -25.815  1.00  0.00     0.152 C 
HETATM   30  C16 UNL     1      35.990  16.537 -25.816  1.00  0.00     0.042 C 
HETATM   31  C17 UNL     1      33.614  16.277 -26.548  1.00  0.00     0.178 C 
HETATM   32  C18 UNL     1      33.631  16.140 -28.026  1.00  0.00     0.183 C 
HETATM   33  C19 UNL     1      34.759  15.199 -28.385  1.00  0.00     0.204 C 
BRANCH  31  34
HETATM   34  O12 UNL     1      33.647  17.660 -26.249  1.00  0.00    -0.390 OA
ATOM     35  H12 UNL     1      33.852  18.107 -27.062  1.00  0.00     0.210 HD
ENDBRANCH  31  34
BRANCH  32  36
HETATM   36  O13 UNL     1      33.740  17.354 -28.699  1.00  0.00    -0.390 OA
ATOM     37  H13 UNL     1      33.057  17.496 -29.343  1.00  0.00     0.210 HD
ENDBRANCH  32  36
BRANCH  33  38
HETATM   38  O14 UNL     1      34.851  14.885 -29.711  1.00  0.00    -0.388 OA
ATOM     39  H14 UNL     1      34.393  15.475 -30.298  1.00  0.00     0.210 HD
ENDBRANCH  33  38
ENDBRANCH  26  27
ENDBRANCH   6  26
BRANCH   3  40
HETATM   40  C10 UNL     1      33.424   8.970 -27.867  1.00  0.00     0.198 C 
BRANCH  40  41
HETATM   41  O7  UNL     1      33.101   8.106 -26.803  1.00  0.00    -0.398 OA
ATOM     42  H7  UNL     1      33.777   8.128 -26.136  1.00  0.00     0.209 HD
ENDBRANCH  40  41
ENDBRANCH   3  40
BRANCH   5  43
HETATM   43  O9  UNL     1      32.762  12.964 -29.963  1.00  0.00    -0.390 OA
ATOM     44  H9  UNL     1      32.206  13.733 -29.924  1.00  0.00     0.210 HD
ENDBRANCH   5  43
BRANCH   4  45
HETATM   45  O8  UNL     1      33.877  10.586 -29.875  1.00  0.00    -0.390 OA
ATOM     46  H8  UNL     1      34.452  10.073 -29.320  1.00  0.00     0.210 HD
ENDBRANCH   4  45
TORSDOF 16
ENDMDL
