MODEL 1
REMARK VINA RESULT: -7.019045441      0.000      0.000
REMARK  16 active torsions:
REMARK  status: ('A' for Active; 'I' for Inactive)
REMARK    1  A    between atoms: C3_4  and  O2_5 
REMARK    2  A    between atoms: O2_5  and  C4_6 
REMARK    3  A    between atoms: C5_7  and  O3_8 
REMARK    4  A    between atoms: O3_8  and  C6_9 
REMARK    5  A    between atoms: C7_10  and  C8_11 
REMARK    6  A    between atoms: C8_11  and  O4_12 
REMARK    7  A    between atoms: C9_15  and  O6_16 
REMARK    8  A    between atoms: C10_18  and  O7_19 
REMARK    9  A    between atoms: C11_21  and  O8_22 
REMARK   10  A    between atoms: C12_25  and  C13_26 
REMARK   11  A    between atoms: C13_26  and  O10_27 
REMARK   12  A    between atoms: C14_29  and  O11_30 
REMARK   13  A    between atoms: C15_32  and  O12_33 
REMARK   14  A    between atoms: C16_35  and  O13_36 
REMARK   15  A    between atoms: C17_38  and  O14_39 
REMARK   16  A    between atoms: C18_41  and  O15_42 
ROOT
HETATM    1  C4  UNL     1       4.086   7.108  22.016  1.00  0.00     0.211 C 
HETATM    2  C5  UNL     1       4.012   5.732  22.524  1.00  0.00     0.292 C 
HETATM    3  O9  UNL     1       2.689   5.308  22.439  1.00  0.00    -0.348 OA
HETATM    4  C12 UNL     1       1.801   6.082  23.152  1.00  0.00     0.179 C 
HETATM    5  C14 UNL     1       1.631   7.387  22.410  1.00  0.00     0.180 C 
HETATM    6  C15 UNL     1       2.766   7.513  21.394  1.00  0.00     0.183 C 
ENDROOT
BRANCH   2   7
HETATM    7  O3  UNL     1       4.721   4.817  21.706  1.00  0.00    -0.348 OA
BRANCH   7   8
HETATM    8  C6  UNL     1       5.701   4.160  22.423  1.00  0.00     0.187 C 
HETATM    9  C7  UNL     1       6.992   4.920  22.330  1.00  0.00     0.180 C 
HETATM   10  O5  UNL     1       7.537   4.971  21.081  1.00  0.00    -0.349 OA
HETATM   11  C9  UNL     1       7.689   3.773  20.441  1.00  0.00     0.288 C 
HETATM   12  C10 UNL     1       6.505   2.872  20.504  1.00  0.00     0.204 C 
HETATM   13  C11 UNL     1       5.897   2.779  21.885  1.00  0.00     0.183 C 
BRANCH   9  14
HETATM   14  C8  UNL     1       7.992   4.464  23.389  1.00  0.00     0.198 C 
BRANCH  14  15
HETATM   15  O4  UNL     1       9.256   4.986  23.139  1.00  0.00    -0.398 OA
ATOM     16  H4  UNL     1       9.891   4.658  23.765  1.00  0.00     0.209 HD
ENDBRANCH  14  15
ENDBRANCH   9  14
BRANCH  11  17
HETATM   17  O6  UNL     1       8.818   3.054  20.848  1.00  0.00    -0.369 OA
ATOM     18  H6  UNL     1       9.624   3.336  20.430  1.00  0.00     0.212 HD
ENDBRANCH  11  17
BRANCH  12  19
HETATM   19  O7  UNL     1       5.492   3.192  19.618  1.00  0.00    -0.388 OA
ATOM     20  H7  UNL     1       4.699   2.680  19.725  1.00  0.00     0.210 HD
ENDBRANCH  12  19
BRANCH  13  21
HETATM   21  O8  UNL     1       6.665   1.977  22.696  1.00  0.00    -0.390 OA
ATOM     22  H8  UNL     1       6.410   1.063  22.677  1.00  0.00     0.210 HD
ENDBRANCH  13  21
ENDBRANCH   7   8
ENDBRANCH   2   7
BRANCH   1  23
HETATM   23  O2  UNL     1       4.468   8.091  22.869  1.00  0.00    -0.346 OA
BRANCH  23  24
HETATM   24  C3  UNL     1       5.638   8.741  22.626  1.00  0.00     0.292 C 
HETATM   25  O1  UNL     1       6.654   8.093  23.333  1.00  0.00    -0.351 OA
HETATM   26  C2  UNL     1       6.446   8.381  24.682  1.00  0.00     0.152 C 
HETATM   27  C1  UNL     1       7.059   7.329  25.579  1.00  0.00     0.042 C 
HETATM   28  C18 UNL     1       7.075   9.732  24.943  1.00  0.00     0.178 C 
HETATM   29  C17 UNL     1       6.654  10.681  23.854  1.00  0.00     0.183 C 
HETATM   30  C16 UNL     1       5.467  10.181  23.072  1.00  0.00     0.204 C 
BRANCH  28  31
HETATM   31  O15 UNL     1       8.466   9.608  24.882  1.00  0.00    -0.390 OA
ATOM     32  H15 UNL     1       8.847   9.990  25.664  1.00  0.00     0.210 HD
ENDBRANCH  28  31
BRANCH  29  33
HETATM   33  O14 UNL     1       7.730  11.026  23.016  1.00  0.00    -0.390 OA
ATOM     34  H14 UNL     1       8.558  10.698  23.347  1.00  0.00     0.210 HD
ENDBRANCH  29  33
BRANCH  30  35
HETATM   35  O13 UNL     1       4.346  10.319  23.908  1.00  0.00    -0.388 OA
ATOM     36  H13 UNL     1       4.166  11.234  24.087  1.00  0.00     0.210 HD
ENDBRANCH  30  35
ENDBRANCH  23  24
ENDBRANCH   1  23
BRANCH   6  37
HETATM   37  O12 UNL     1       2.492   6.813  20.228  1.00  0.00    -0.390 OA
ATOM     38  H12 UNL     1       1.560   6.693  20.086  1.00  0.00     0.210 HD
ENDBRANCH   6  37
BRANCH   4  39
HETATM   39  C13 UNL     1       0.473   5.338  23.185  1.00  0.00     0.198 C 
BRANCH  39  40
HETATM   40  O10 UNL     1       0.296   4.563  22.043  1.00  0.00    -0.398 OA
ATOM     41  H10 UNL     1      -0.490   4.815  21.571  1.00  0.00     0.209 HD
ENDBRANCH  39  40
ENDBRANCH   4  39
BRANCH   5  42
HETATM   42  O11 UNL     1       0.443   7.439  21.723  1.00  0.00    -0.390 OA
ATOM     43  H11 UNL     1       0.111   8.326  21.651  1.00  0.00     0.210 HD
ENDBRANCH   5  42
TORSDOF 16
ENDMDL
