MODEL 2
REMARK VINA RESULT: -7.013906975      1.146      1.674
REMARK  16 active torsions:
REMARK  status: ('A' for Active; 'I' for Inactive)
REMARK    1  A    between atoms: C3_4  and  O2_5 
REMARK    2  A    between atoms: O2_5  and  C4_6 
REMARK    3  A    between atoms: C5_7  and  O3_8 
REMARK    4  A    between atoms: O3_8  and  C6_9 
REMARK    5  A    between atoms: C7_10  and  C8_11 
REMARK    6  A    between atoms: C8_11  and  O4_12 
REMARK    7  A    between atoms: C9_15  and  O6_16 
REMARK    8  A    between atoms: C10_18  and  O7_19 
REMARK    9  A    between atoms: C11_21  and  O8_22 
REMARK   10  A    between atoms: C12_25  and  C13_26 
REMARK   11  A    between atoms: C13_26  and  O10_27 
REMARK   12  A    between atoms: C14_29  and  O11_30 
REMARK   13  A    between atoms: C15_32  and  O12_33 
REMARK   14  A    between atoms: C16_35  and  O13_36 
REMARK   15  A    between atoms: C17_38  and  O14_39 
REMARK   16  A    between atoms: C18_41  and  O15_42 
ROOT
HETATM    1  C4  UNL     1       4.463   6.819  21.493  1.00  0.00     0.211 C 
HETATM    2  C5  UNL     1       4.452   5.772  22.524  1.00  0.00     0.292 C 
HETATM    3  O9  UNL     1       3.165   5.693  23.049  1.00  0.00    -0.348 OA
HETATM    4  C12 UNL     1       2.713   6.865  23.615  1.00  0.00     0.179 C 
HETATM    5  C14 UNL     1       2.402   7.827  22.493  1.00  0.00     0.180 C 
HETATM    6  C15 UNL     1       3.054   7.299  21.215  1.00  0.00     0.183 C 
ENDROOT
BRANCH   2   7
HETATM    7  O3  UNL     1       4.684   4.482  21.985  1.00  0.00    -0.348 OA
BRANCH   7   8
HETATM    8  C6  UNL     1       5.762   3.872  22.594  1.00  0.00     0.187 C 
HETATM    9  C7  UNL     1       6.987   4.723  22.427  1.00  0.00     0.180 C 
HETATM   10  O5  UNL     1       7.421   4.855  21.141  1.00  0.00    -0.349 OA
HETATM   11  C9  UNL     1       7.600   3.692  20.443  1.00  0.00     0.288 C 
HETATM   12  C10 UNL     1       6.488   2.709  20.567  1.00  0.00     0.204 C 
HETATM   13  C11 UNL     1       6.005   2.528  21.988  1.00  0.00     0.183 C 
BRANCH   9  14
HETATM   14  C8  UNL     1       8.101   4.304  23.382  1.00  0.00     0.198 C 
BRANCH  14  15
HETATM   15  O4  UNL     1       9.281   4.981  23.101  1.00  0.00    -0.398 OA
ATOM     16  H4  UNL     1       9.600   4.766  22.232  1.00  0.00     0.209 HD
ENDBRANCH  14  15
ENDBRANCH   9  14
BRANCH  11  17
HETATM   17  O6  UNL     1       8.804   3.041  20.730  1.00  0.00    -0.369 OA
ATOM     18  H6  UNL     1       8.777   2.102  20.585  1.00  0.00     0.212 HD
ENDBRANCH  11  17
BRANCH  12  19
HETATM   19  O7  UNL     1       5.385   2.986  19.780  1.00  0.00    -0.388 OA
ATOM     20  H7  UNL     1       5.357   3.873  19.440  1.00  0.00     0.210 HD
ENDBRANCH  12  19
BRANCH  13  21
HETATM   21  O8  UNL     1       6.891   1.754  22.703  1.00  0.00    -0.390 OA
ATOM     22  H8  UNL     1       6.813   0.825  22.524  1.00  0.00     0.210 HD
ENDBRANCH  13  21
ENDBRANCH   7   8
ENDBRANCH   2   7
BRANCH   1  23
HETATM   23  O2  UNL     1       5.248   7.907  21.688  1.00  0.00    -0.346 OA
BRANCH  23  24
HETATM   24  C3  UNL     1       5.980   7.980  22.833  1.00  0.00     0.292 C 
HETATM   25  O1  UNL     1       5.336   8.860  23.708  1.00  0.00    -0.351 OA
HETATM   26  C2  UNL     1       5.507  10.140  23.181  1.00  0.00     0.152 C 
HETATM   27  C1  UNL     1       4.424  11.086  23.650  1.00  0.00     0.042 C 
HETATM   28  C18 UNL     1       6.866  10.623  23.635  1.00  0.00     0.178 C 
HETATM   29  C17 UNL     1       7.872   9.529  23.404  1.00  0.00     0.183 C 
HETATM   30  C16 UNL     1       7.369   8.465  22.463  1.00  0.00     0.204 C 
BRANCH  28  31
HETATM   31  O15 UNL     1       6.825  10.876  25.010  1.00  0.00    -0.390 OA
ATOM     32  H15 UNL     1       7.693  11.128  25.305  1.00  0.00     0.210 HD
ENDBRANCH  28  31
BRANCH  29  33
HETATM   33  O14 UNL     1       8.340   8.984  24.613  1.00  0.00    -0.390 OA
ATOM     34  H14 UNL     1       8.030   9.471  25.367  1.00  0.00     0.210 HD
ENDBRANCH  29  33
BRANCH  30  35
HETATM   35  O13 UNL     1       7.379   9.027  21.176  1.00  0.00    -0.388 OA
ATOM     36  H13 UNL     1       7.872   9.839  21.163  1.00  0.00     0.210 HD
ENDBRANCH  30  35
ENDBRANCH  23  24
ENDBRANCH   1  23
BRANCH   6  37
HETATM   37  O12 UNL     1       2.274   6.330  20.602  1.00  0.00    -0.390 OA
ATOM     38  H12 UNL     1       1.343   6.486  20.715  1.00  0.00     0.210 HD
ENDBRANCH   6  37
BRANCH   4  39
HETATM   39  C13 UNL     1       1.435   6.539  24.376  1.00  0.00     0.198 C 
BRANCH  39  40
HETATM   40  O10 UNL     1       0.759   5.468  23.800  1.00  0.00    -0.398 OA
ATOM     41  H10 UNL     1       0.323   4.938  24.459  1.00  0.00     0.209 HD
ENDBRANCH  39  40
ENDBRANCH   4  39
BRANCH   5  42
HETATM   42  O11 UNL     1       1.052   7.933  22.264  1.00  0.00    -0.390 OA
ATOM     43  H11 UNL     1       0.754   8.835  22.300  1.00  0.00     0.210 HD
ENDBRANCH   5  42
TORSDOF 16
ENDMDL
