MODEL 3
REMARK VINA RESULT: -6.846267675      1.338      5.735
REMARK  16 active torsions:
REMARK  status: ('A' for Active; 'I' for Inactive)
REMARK    1  A    between atoms: C3_4  and  O2_5 
REMARK    2  A    between atoms: O2_5  and  C4_6 
REMARK    3  A    between atoms: C5_7  and  O3_8 
REMARK    4  A    between atoms: O3_8  and  C6_9 
REMARK    5  A    between atoms: C7_10  and  C8_11 
REMARK    6  A    between atoms: C8_11  and  O4_12 
REMARK    7  A    between atoms: C9_15  and  O6_16 
REMARK    8  A    between atoms: C10_18  and  O7_19 
REMARK    9  A    between atoms: C11_21  and  O8_22 
REMARK   10  A    between atoms: C12_25  and  C13_26 
REMARK   11  A    between atoms: C13_26  and  O10_27 
REMARK   12  A    between atoms: C14_29  and  O11_30 
REMARK   13  A    between atoms: C15_32  and  O12_33 
REMARK   14  A    between atoms: C16_35  and  O13_36 
REMARK   15  A    between atoms: C17_38  and  O14_39 
REMARK   16  A    between atoms: C18_41  and  O15_42 
ROOT
HETATM    1  C4  UNL     1       3.901   5.709  23.030  1.00  0.00     0.211 C 
HETATM    2  C5  UNL     1       4.083   7.142  22.763  1.00  0.00     0.292 C 
HETATM    3  O9  UNL     1       2.832   7.752  22.788  1.00  0.00    -0.348 OA
HETATM    4  C12 UNL     1       1.940   7.249  21.868  1.00  0.00     0.179 C 
HETATM    5  C14 UNL     1       1.499   5.888  22.351  1.00  0.00     0.180 C 
HETATM    6  C15 UNL     1       2.471   5.427  23.438  1.00  0.00     0.183 C 
ENDROOT
BRANCH   2   7
HETATM    7  O3  UNL     1       4.806   7.794  23.793  1.00  0.00    -0.348 OA
BRANCH   7   8
HETATM    8  C6  UNL     1       6.099   8.074  23.398  1.00  0.00     0.187 C 
HETATM    9  C7  UNL     1       6.916   8.480  24.589  1.00  0.00     0.180 C 
HETATM   10  O5  UNL     1       6.535   9.652  25.173  1.00  0.00    -0.349 OA
HETATM   11  C9  UNL     1       6.416  10.729  24.339  1.00  0.00     0.288 C 
HETATM   12  C10 UNL     1       5.680  10.464  23.072  1.00  0.00     0.204 C 
HETATM   13  C11 UNL     1       6.102   9.181  22.392  1.00  0.00     0.183 C 
BRANCH   9  14
HETATM   14  C8  UNL     1       8.412   8.433  24.289  1.00  0.00     0.198 C 
BRANCH  14  15
HETATM   15  O4  UNL     1       9.144   9.046  25.299  1.00  0.00    -0.398 OA
ATOM     16  H4  UNL     1       9.056   9.991  25.259  1.00  0.00     0.209 HD
ENDBRANCH  14  15
ENDBRANCH   9  14
BRANCH  11  17
HETATM   17  O6  UNL     1       7.634  11.340  24.027  1.00  0.00    -0.369 OA
ATOM     18  H6  UNL     1       7.741  11.534  23.103  1.00  0.00     0.212 HD
ENDBRANCH  11  17
BRANCH  12  19
HETATM   19  O7  UNL     1       4.303  10.438  23.201  1.00  0.00    -0.388 OA
ATOM     20  H7  UNL     1       3.872  11.255  22.983  1.00  0.00     0.210 HD
ENDBRANCH  12  19
BRANCH  13  21
HETATM   21  O8  UNL     1       7.314   9.346  21.762  1.00  0.00    -0.390 OA
ATOM     22  H8  UNL     1       7.457  10.228  21.441  1.00  0.00     0.210 HD
ENDBRANCH  13  21
ENDBRANCH   7   8
ENDBRANCH   2   7
BRANCH   1  23
HETATM   23  O2  UNL     1       4.245   4.824  22.061  1.00  0.00    -0.346 OA
BRANCH  23  24
HETATM   24  C3  UNL     1       5.143   3.849  22.365  1.00  0.00     0.292 C 
HETATM   25  O1  UNL     1       6.413   4.429  22.433  1.00  0.00    -0.351 OA
HETATM   26  C2  UNL     1       6.774   4.748  21.125  1.00  0.00     0.152 C 
HETATM   27  C1  UNL     1       7.794   5.864  21.084  1.00  0.00     0.042 C 
HETATM   28  C18 UNL     1       7.341   3.489  20.508  1.00  0.00     0.178 C 
HETATM   29  C17 UNL     1       6.422   2.339  20.819  1.00  0.00     0.183 C 
HETATM   30  C16 UNL     1       5.061   2.791  21.280  1.00  0.00     0.204 C 
BRANCH  28  31
HETATM   31  O15 UNL     1       8.580   3.211  21.094  1.00  0.00    -0.390 OA
ATOM     32  H15 UNL     1       9.253   3.233  20.423  1.00  0.00     0.210 HD
ENDBRANCH  28  31
BRANCH  29  33
HETATM   33  O14 UNL     1       7.008   1.430  21.718  1.00  0.00    -0.390 OA
ATOM     34  H14 UNL     1       7.905   1.662  21.925  1.00  0.00     0.210 HD
ENDBRANCH  29  33
BRANCH  30  35
HETATM   35  O13 UNL     1       4.394   3.285  20.147  1.00  0.00    -0.388 OA
ATOM     36  H13 UNL     1       3.453   3.185  20.235  1.00  0.00     0.210 HD
ENDBRANCH  30  35
ENDBRANCH  23  24
ENDBRANCH   1  23
BRANCH   6  37
HETATM   37  O12 UNL     1       2.154   5.970  24.674  1.00  0.00    -0.390 OA
ATOM     38  H12 UNL     1       1.272   6.324  24.702  1.00  0.00     0.210 HD
ENDBRANCH   6  37
BRANCH   4  39
HETATM   39  C13 UNL     1       0.744   8.190  21.832  1.00  0.00     0.198 C 
BRANCH  39  40
HETATM   40  O10 UNL     1       0.600   8.875  23.035  1.00  0.00    -0.398 OA
ATOM     41  H10 UNL     1      -0.184   9.413  23.036  1.00  0.00     0.209 HD
ENDBRANCH  39  40
ENDBRANCH   4  39
BRANCH   5  42
HETATM   42  O11 UNL     1       0.239   5.918  22.898  1.00  0.00    -0.390 OA
ATOM     43  H11 UNL     1      -0.425   5.635  22.279  1.00  0.00     0.210 HD
ENDBRANCH   5  42
TORSDOF 16
ENDMDL
