MODEL 8
REMARK VINA RESULT: -8.112963260      1.257      1.303
REMARK  5 active torsions:
REMARK  status: ('A' for Active; 'I' for Inactive)
REMARK    1  A    between atoms: C6_8  and  O1_9 
REMARK    2  A    between atoms: O1_9  and  C7_10 
REMARK    3  A    between atoms: C10_13  and  S1_14 
REMARK    4  A    between atoms: S1_14  and  C11_17 
REMARK    5  A    between atoms: C16_26  and  O4_27 
ROOT
HETATM    1  N1  UNL     1      18.950   2.187  -9.259  1.00  0.00    -0.191 NA
HETATM    2  C1  UNL     1      19.292   1.185  -9.761  1.00  0.00     0.099 C 
HETATM    3  C2  UNL     1      19.716  -0.051 -10.360  1.00  0.00     0.050 A 
HETATM    4  C3  UNL     1      18.789  -1.052 -10.629  1.00  0.00     0.065 A 
HETATM    5  C4  UNL     1      19.185  -2.239 -11.201  1.00  0.00     0.120 A 
HETATM    6  F1  UNL     1      18.261  -3.195 -11.453  1.00  0.00    -0.206 F 
HETATM    7  C5  UNL     1      20.517  -2.415 -11.501  1.00  0.00     0.079 A 
HETATM    8  C6  UNL     1      21.489  -1.468 -11.261  1.00  0.00     0.080 A 
HETATM    9  C17 UNL     1      21.030  -0.278 -10.677  1.00  0.00     0.060 A 
ENDROOT
BRANCH   8  10
HETATM   10  O1  UNL     1      22.810  -1.579 -11.532  1.00  0.00    -0.310 OA
BRANCH  10  11
HETATM   11  C7  UNL     1      23.916  -1.054 -10.917  1.00  0.00     0.083 A 
HETATM   12  C8  UNL     1      24.028  -1.233  -9.537  1.00  0.00     0.039 A 
HETATM   13  C9  UNL     1      25.097  -0.740  -8.861  1.00  0.00     0.027 A 
HETATM   14  C10 UNL     1      26.133  -0.042  -9.466  1.00  0.00     0.074 A 
HETATM   15  C12 UNL     1      26.035   0.135 -10.814  1.00  0.00     0.007 A 
HETATM   16  C13 UNL     1      24.930  -0.367 -11.539  1.00  0.00    -0.008 A 
HETATM   17  C16 UNL     1      26.942   0.735 -11.800  1.00  0.00     0.226 C 
HETATM   18  C14 UNL     1      25.101  -0.013 -12.973  1.00  0.00     0.124 C 
HETATM   19  C15 UNL     1      25.931   1.275 -12.824  1.00  0.00     0.277 C 
HETATM   20  F4  UNL     1      26.528   1.640 -13.988  1.00  0.00    -0.203 F 
HETATM   21  F5  UNL     1      25.216   2.267 -12.207  1.00  0.00    -0.203 F 
BRANCH  14  22
HETATM   22  S1  UNL     1      27.389   0.579  -8.452  1.00  0.00     0.236 S 
HETATM   23  O2  UNL     1      28.752   0.091  -8.950  1.00  0.00    -0.217 OA
HETATM   24  O3  UNL     1      27.291  -0.015  -7.047  1.00  0.00    -0.217 OA
BRANCH  22  25
HETATM   25  C11 UNL     1      27.405   2.315  -8.240  1.00  0.00     0.478 C 
HETATM   26  F2  UNL     1      27.371   2.994  -9.448  1.00  0.00    -0.197 F 
HETATM   27  F3  UNL     1      26.236   2.738  -7.579  1.00  0.00    -0.197 F 
ENDBRANCH  22  25
ENDBRANCH  14  22
BRANCH  17  28
HETATM   28  O4  UNL     1      27.717   1.772 -11.421  1.00  0.00    -0.385 OA
ATOM     29  H4  UNL     1      27.730   2.554 -11.961  1.00  0.00     0.210 HD
ENDBRANCH  17  28
ENDBRANCH  10  11
ENDBRANCH   8  10
TORSDOF 5
ENDMDL
