MODEL 2
REMARK VINA RESULT: -10.889266676      1.248      1.470
REMARK  5 active torsions:
REMARK  status: ('A' for Active; 'I' for Inactive)
REMARK    1  A    between atoms: C6_8  and  O1_9 
REMARK    2  A    between atoms: O1_9  and  C7_10 
REMARK    3  A    between atoms: C10_13  and  S1_14 
REMARK    4  A    between atoms: S1_14  and  C11_17 
REMARK    5  A    between atoms: C16_26  and  O4_27 
ROOT
HETATM    1  N1  UNL     1      18.337   2.186  -8.980  1.00  0.00    -0.191 NA
HETATM    2  C1  UNL     1      18.863   1.288  -9.518  1.00  0.00     0.099 C 
HETATM    3  C2  UNL     1      19.515   0.179 -10.160  1.00  0.00     0.050 A 
HETATM    4  C3  UNL     1      18.844  -1.027 -10.326  1.00  0.00     0.065 A 
HETATM    5  C4  UNL     1      19.460  -2.094 -10.938  1.00  0.00     0.120 A 
HETATM    6  F1  UNL     1      18.783  -3.256 -11.086  1.00  0.00    -0.206 F 
HETATM    7  C5  UNL     1      20.754  -1.942 -11.383  1.00  0.00     0.079 A 
HETATM    8  C6  UNL     1      21.479  -0.778 -11.252  1.00  0.00     0.080 A 
HETATM    9  C17 UNL     1      20.802   0.277 -10.621  1.00  0.00     0.060 A 
ENDROOT
BRANCH   8  10
HETATM   10  O1  UNL     1      22.749  -0.565 -11.666  1.00  0.00    -0.310 OA
BRANCH  10  11
HETATM   11  C7  UNL     1      23.929  -0.458 -10.979  1.00  0.00     0.083 A 
HETATM   12  C8  UNL     1      23.903  -0.747  -9.613  1.00  0.00     0.039 A 
HETATM   13  C9  UNL     1      25.034  -0.663  -8.867  1.00  0.00     0.027 A 
HETATM   14  C10 UNL     1      26.270  -0.296  -9.384  1.00  0.00     0.074 A 
HETATM   15  C12 UNL     1      26.305  -0.014 -10.717  1.00  0.00     0.007 A 
HETATM   16  C13 UNL     1      25.140  -0.093 -11.513  1.00  0.00    -0.008 A 
HETATM   17  C16 UNL     1      27.409   0.325 -11.626  1.00  0.00     0.226 C 
HETATM   18  C14 UNL     1      25.492   0.276 -12.910  1.00  0.00     0.124 C 
HETATM   19  C15 UNL     1      26.677   1.220 -12.637  1.00  0.00     0.277 C 
HETATM   20  F4  UNL     1      27.422   1.447 -13.751  1.00  0.00    -0.203 F 
HETATM   21  F5  UNL     1      26.278   2.349 -11.971  1.00  0.00    -0.203 F 
BRANCH  14  22
HETATM   22  S1  UNL     1      27.600  -0.171  -8.286  1.00  0.00     0.236 S 
HETATM   23  O2  UNL     1      27.086   0.110  -6.872  1.00  0.00    -0.217 OA
HETATM   24  O3  UNL     1      28.449   1.059  -8.606  1.00  0.00    -0.217 OA
BRANCH  22  25
HETATM   25  C11 UNL     1      28.704  -1.527  -8.273  1.00  0.00     0.478 C 
HETATM   26  F2  UNL     1      28.272  -2.550  -7.442  1.00  0.00    -0.197 F 
HETATM   27  F3  UNL     1      28.760  -2.125  -9.546  1.00  0.00    -0.197 F 
ENDBRANCH  22  25
ENDBRANCH  14  22
BRANCH  17  28
HETATM   28  O4  UNL     1      28.449   1.036 -11.144  1.00  0.00    -0.385 OA
ATOM     29  H4  UNL     1      29.277   1.004 -11.608  1.00  0.00     0.210 HD
ENDBRANCH  17  28
ENDBRANCH  10  11
ENDBRANCH   8  10
TORSDOF 5
ENDMDL
