MODEL 1
REMARK VINA RESULT: -11.075228065      0.000      0.000
REMARK  5 active torsions:
REMARK  status: ('A' for Active; 'I' for Inactive)
REMARK    1  A    between atoms: C6_8  and  O1_9 
REMARK    2  A    between atoms: O1_9  and  C7_10 
REMARK    3  A    between atoms: C10_13  and  S1_14 
REMARK    4  A    between atoms: S1_14  and  C11_17 
REMARK    5  A    between atoms: C16_26  and  O4_27 
ROOT
HETATM    1  N1  UNL     1      18.197   2.269  -8.786  1.00  0.00    -0.191 NA
HETATM    2  C1  UNL     1      18.757   1.406  -9.348  1.00  0.00     0.099 C 
HETATM    3  C2  UNL     1      19.451   0.342 -10.019  1.00  0.00     0.050 A 
HETATM    4  C3  UNL     1      18.845  -0.900 -10.176  1.00  0.00     0.065 A 
HETATM    5  C4  UNL     1      19.502  -1.925 -10.817  1.00  0.00     0.120 A 
HETATM    6  F1  UNL     1      18.887  -3.123 -10.955  1.00  0.00    -0.206 F 
HETATM    7  C5  UNL     1      20.771  -1.696 -11.300  1.00  0.00     0.079 A 
HETATM    8  C6  UNL     1      21.432  -0.493 -11.179  1.00  0.00     0.080 A 
HETATM    9  C17 UNL     1      20.716   0.517 -10.518  1.00  0.00     0.060 A 
ENDROOT
BRANCH   8  10
HETATM   10  O1  UNL     1      22.675  -0.204 -11.630  1.00  0.00    -0.310 OA
BRANCH  10  11
HETATM   11  C7  UNL     1      23.911  -0.352 -11.060  1.00  0.00     0.083 A 
HETATM   12  C8  UNL     1      23.959  -0.851  -9.756  1.00  0.00     0.039 A 
HETATM   13  C9  UNL     1      25.150  -1.025  -9.127  1.00  0.00     0.027 A 
HETATM   14  C10 UNL     1      26.376  -0.733  -9.708  1.00  0.00     0.074 A 
HETATM   15  C12 UNL     1      26.339  -0.248 -10.982  1.00  0.00     0.007 A 
HETATM   16  C13 UNL     1      25.112  -0.056 -11.656  1.00  0.00    -0.008 A 
HETATM   17  C16 UNL     1      27.399   0.096 -11.938  1.00  0.00     0.226 C 
HETATM   18  C14 UNL     1      25.393   0.486 -13.012  1.00  0.00     0.124 C 
HETATM   19  C15 UNL     1      26.714   1.224 -12.726  1.00  0.00     0.277 C 
HETATM   20  F4  UNL     1      27.387   1.534 -13.864  1.00  0.00    -0.203 F 
HETATM   21  F5  UNL     1      26.529   2.272 -11.862  1.00  0.00    -0.203 F 
BRANCH  14  22
HETATM   22  S1  UNL     1      27.797  -0.947  -8.747  1.00  0.00     0.236 S 
HETATM   23  O2  UNL     1      28.801  -1.832  -9.489  1.00  0.00    -0.217 OA
HETATM   24  O3  UNL     1      27.479  -1.750  -7.486  1.00  0.00    -0.217 OA
BRANCH  22  25
HETATM   25  C11 UNL     1      28.572   0.522  -8.198  1.00  0.00     0.478 C 
HETATM   26  F2  UNL     1      29.876   0.633  -8.656  1.00  0.00    -0.197 F 
HETATM   27  F3  UNL     1      27.925   1.649  -8.741  1.00  0.00    -0.197 F 
ENDBRANCH  22  25
ENDBRANCH  14  22
BRANCH  17  28
HETATM   28  O4  UNL     1      28.562   0.590 -11.467  1.00  0.00    -0.385 OA
ATOM     29  H4  UNL     1      28.987   1.293 -11.944  1.00  0.00     0.210 HD
ENDBRANCH  17  28
ENDBRANCH  10  11
ENDBRANCH   8  10
TORSDOF 5
ENDMDL
