MODEL 3
REMARK VINA RESULT: -10.864499210      1.174      1.315
REMARK  5 active torsions:
REMARK  status: ('A' for Active; 'I' for Inactive)
REMARK    1  A    between atoms: C6_8  and  O1_9 
REMARK    2  A    between atoms: O1_9  and  C7_10 
REMARK    3  A    between atoms: C10_13  and  S1_14 
REMARK    4  A    between atoms: S1_14  and  C11_17 
REMARK    5  A    between atoms: C16_26  and  O4_27 
ROOT
HETATM    1  N1  UNL     1      18.248   2.218  -8.851  1.00  0.00    -0.191 NA
HETATM    2  C1  UNL     1      18.813   1.344  -9.388  1.00  0.00     0.099 C 
HETATM    3  C2  UNL     1      19.514   0.266 -10.030  1.00  0.00     0.050 A 
HETATM    4  C3  UNL     1      18.931  -0.992 -10.121  1.00  0.00     0.065 A 
HETATM    5  C4  UNL     1      19.595  -2.030 -10.734  1.00  0.00     0.120 A 
HETATM    6  F1  UNL     1      19.003  -3.245 -10.808  1.00  0.00    -0.206 F 
HETATM    7  C5  UNL     1      20.848  -1.797 -11.254  1.00  0.00     0.079 A 
HETATM    8  C6  UNL     1      21.486  -0.576 -11.200  1.00  0.00     0.080 A 
HETATM    9  C17 UNL     1      20.764   0.446 -10.565  1.00  0.00     0.060 A 
ENDROOT
BRANCH   8  10
HETATM   10  O1  UNL     1      22.712  -0.282 -11.690  1.00  0.00    -0.310 OA
BRANCH  10  11
HETATM   11  C7  UNL     1      23.961  -0.355 -11.133  1.00  0.00     0.083 A 
HETATM   12  C8  UNL     1      24.046  -0.769  -9.802  1.00  0.00     0.039 A 
HETATM   13  C9  UNL     1      25.250  -0.865  -9.184  1.00  0.00     0.027 A 
HETATM   14  C10 UNL     1      26.458  -0.572  -9.803  1.00  0.00     0.074 A 
HETATM   15  C12 UNL     1      26.386  -0.170 -11.104  1.00  0.00     0.007 A 
HETATM   16  C13 UNL     1      25.142  -0.060 -11.768  1.00  0.00    -0.008 A 
HETATM   17  C16 UNL     1      27.419   0.145 -12.098  1.00  0.00     0.226 C 
HETATM   18  C14 UNL     1      25.386   0.403 -13.160  1.00  0.00     0.124 C 
HETATM   19  C15 UNL     1      26.686   1.199 -12.943  1.00  0.00     0.277 C 
HETATM   20  F4  UNL     1      27.332   1.457 -14.111  1.00  0.00    -0.203 F 
HETATM   21  F5  UNL     1      26.481   2.293 -12.144  1.00  0.00    -0.203 F 
BRANCH  14  22
HETATM   22  S1  UNL     1      27.900  -0.680  -8.854  1.00  0.00     0.236 S 
HETATM   23  O2  UNL     1      28.588   0.685  -8.793  1.00  0.00    -0.217 OA
HETATM   24  O3  UNL     1      28.934  -1.569  -9.545  1.00  0.00    -0.217 OA
BRANCH  22  25
HETATM   25  C11 UNL     1      27.702  -1.335  -7.245  1.00  0.00     0.478 C 
HETATM   26  F2  UNL     1      27.912  -2.705  -7.204  1.00  0.00    -0.197 F 
HETATM   27  F3  UNL     1      28.685  -0.815  -6.381  1.00  0.00    -0.197 F 
ENDBRANCH  22  25
ENDBRANCH  14  22
BRANCH  17  28
HETATM   28  O4  UNL     1      28.573   0.704 -11.679  1.00  0.00    -0.385 OA
ATOM     29  H4  UNL     1      29.309   0.736 -12.279  1.00  0.00     0.210 HD
ENDBRANCH  17  28
ENDBRANCH  10  11
ENDBRANCH   8  10
TORSDOF 5
ENDMDL
