MODEL 4
REMARK VINA RESULT: -9.246021316      3.445      9.183
REMARK  6 active torsions:
REMARK  status: ('A' for Active; 'I' for Inactive)
REMARK    1  A    between atoms: N1_2  and  C3_4 
REMARK    2  A    between atoms: C7_10  and  C8_11 
REMARK    3  A    between atoms: C8_11  and  O1_12 
REMARK    4  A    between atoms: C8_11  and  C9_14 
REMARK    5  A    between atoms: C8_11  and  C14_21 
REMARK    6  A    between atoms: C21_32  and  C22_33 
ROOT
HETATM    1  C3  UNL     1      16.874  27.765 -19.246  1.00  0.00     0.116 A 
HETATM    2  N2  UNL     1      17.872  26.857 -19.201  1.00  0.00    -0.341 N 
ATOM      3  H2  UNL     1      18.691  26.991 -19.793  1.00  0.00     0.167 HD
HETATM    4  C4  UNL     1      17.818  25.785 -18.402  1.00  0.00     0.045 A 
HETATM    5  C5  UNL     1      18.848  24.844 -18.356  1.00  0.00     0.031 A 
HETATM    6  C6  UNL     1      18.803  23.729 -17.534  1.00  0.00     0.013 A 
HETATM    7  C7  UNL     1      17.705  23.536 -16.733  1.00  0.00    -0.012 A 
HETATM    8  C18 UNL     1      16.658  24.449 -16.749  1.00  0.00     0.026 A 
HETATM    9  C19 UNL     1      16.734  25.554 -17.582  1.00  0.00     0.014 A 
HETATM   10  C20 UNL     1      15.714  26.465 -17.615  1.00  0.00     0.061 A 
HETATM   11 CL1  UNL     1      14.306  26.197 -16.575  1.00  0.00    -0.082 Cl
HETATM   12  C21 UNL     1      15.780  27.572 -18.447  1.00  0.00     0.041 A 
ENDROOT
BRANCH   7  13
HETATM   13  C8  UNL     1      17.563  22.337 -15.808  1.00  0.00     0.156 C 
BRANCH  13  14
HETATM   14  O1  UNL     1      16.421  22.557 -15.022  1.00  0.00    -0.374 OA
ATOM     15  H1  UNL     1      16.702  23.035 -14.250  1.00  0.00     0.212 HD
ENDBRANCH  13  14
BRANCH  13  16
HETATM   16  C9  UNL     1      18.757  22.376 -14.970  1.00  0.00    -0.011 A 
HETATM   17  C10 UNL     1      18.789  23.160 -13.845  1.00  0.00     0.028 A 
HETATM   18  C11 UNL     1      19.931  23.208 -13.089  1.00  0.00     0.088 A 
HETATM   19  N3  UNL     1      21.002  22.497 -13.446  1.00  0.00    -0.375 N 
HETATM   20  C12 UNL     1      21.024  21.714 -14.539  1.00  0.00     0.088 A 
ATOM     21  H3  UNL     1      21.840  22.550 -12.866  1.00  0.00     0.164 HD
HETATM   22  C13 UNL     1      19.880  21.658 -15.306  1.00  0.00     0.028 A 
ENDBRANCH  13  16
BRANCH  13  23
HETATM   23  C14 UNL     1      17.346  21.145 -16.634  1.00  0.00     0.072 A 
HETATM   24  C15 UNL     1      17.292  21.180 -18.051  1.00  0.00     0.118 A 
HETATM   25  N4  UNL     1      17.074  19.924 -18.454  1.00  0.00    -0.360 N 
HETATM   26  C16 UNL     1      16.991  19.132 -17.403  1.00  0.00     0.182 A 
ATOM     27  H4  UNL     1      16.986  19.625 -19.424  1.00  0.00     0.166 HD
HETATM   28  N5  UNL     1      17.159  19.885 -16.270  1.00  0.00    -0.347 N 
HETATM   29  C17 UNL     1      17.107  19.266 -14.946  1.00  0.00     0.157 C 
ENDBRANCH  13  23
ENDBRANCH   7  13
BRANCH  12  30
HETATM   30  C22 UNL     1      14.645  28.476 -18.411  1.00  0.00    -0.021 A 
HETATM   31  C23 UNL     1      14.625  29.575 -17.584  1.00  0.00     0.012 A 
HETATM   32  C24 UNL     1      13.544  30.433 -17.548  1.00  0.00     0.001 A 
HETATM   33  C25 UNL     1      12.456  30.185 -18.360  1.00  0.00     0.000 A 
HETATM   34  C26 UNL     1      12.487  29.077 -19.189  1.00  0.00     0.001 A 
HETATM   35  C27 UNL     1      13.565  28.219 -19.226  1.00  0.00     0.012 A 
ENDBRANCH  12  30
BRANCH   1  36
HETATM   36  N1  UNL     1      16.949  28.900 -20.103  1.00  0.00    -0.375 N 
HETATM   37  C1  UNL     1      17.629  30.077 -19.633  1.00  0.00     0.150 C 
HETATM   38  C2  UNL     1      16.364  28.906 -21.421  1.00  0.00     0.150 C 
ENDBRANCH   1  36
TORSDOF 6
ENDMDL
