MODEL 5
REMARK VINA RESULT: -9.198749876      3.522      7.040
REMARK  6 active torsions:
REMARK  status: ('A' for Active; 'I' for Inactive)
REMARK    1  A    between atoms: N1_2  and  C3_4 
REMARK    2  A    between atoms: C7_10  and  C8_11 
REMARK    3  A    between atoms: C8_11  and  O1_12 
REMARK    4  A    between atoms: C8_11  and  C9_14 
REMARK    5  A    between atoms: C8_11  and  C14_21 
REMARK    6  A    between atoms: C21_32  and  C22_33 
ROOT
HETATM    1  C3  UNL     1      18.920  23.118 -16.533  1.00  0.00     0.116 A 
HETATM    2  N2  UNL     1      19.087  24.451 -16.671  1.00  0.00    -0.341 N 
ATOM      3  H2  UNL     1      20.019  24.848 -16.554  1.00  0.00     0.167 HD
HETATM    4  C4  UNL     1      18.066  25.267 -16.958  1.00  0.00     0.045 A 
HETATM    5  C5  UNL     1      18.237  26.644 -17.100  1.00  0.00     0.031 A 
HETATM    6  C6  UNL     1      17.187  27.500 -17.394  1.00  0.00     0.013 A 
HETATM    7  C7  UNL     1      15.928  26.978 -17.554  1.00  0.00    -0.012 A 
HETATM    8  C18 UNL     1      15.715  25.611 -17.422  1.00  0.00     0.026 A 
HETATM    9  C19 UNL     1      16.786  24.783 -17.126  1.00  0.00     0.014 A 
HETATM   10  C20 UNL     1      16.598  23.435 -16.990  1.00  0.00     0.061 A 
HETATM   11 CL1  UNL     1      14.965  22.781 -17.198  1.00  0.00    -0.082 Cl
HETATM   12  C21 UNL     1      17.663  22.598 -16.692  1.00  0.00     0.041 A 
ENDROOT
BRANCH   7  13
HETATM   13  C8  UNL     1      14.715  27.840 -17.868  1.00  0.00     0.156 C 
BRANCH  13  14
HETATM   14  O1  UNL     1      13.633  27.303 -17.153  1.00  0.00    -0.374 OA
ATOM     15  H1  UNL     1      13.646  26.363 -17.291  1.00  0.00     0.212 HD
ENDBRANCH  13  14
BRANCH  13  16
HETATM   16  C9  UNL     1      14.500  27.664 -19.300  1.00  0.00    -0.011 A 
HETATM   17  C10 UNL     1      13.240  27.427 -19.788  1.00  0.00     0.028 A 
HETATM   18  C11 UNL     1      13.063  27.232 -21.133  1.00  0.00     0.088 A 
HETATM   19  N3  UNL     1      14.108  27.273 -21.960  1.00  0.00    -0.375 N 
HETATM   20  C12 UNL     1      15.364  27.501 -21.534  1.00  0.00     0.088 A 
ATOM     21  H3  UNL     1      13.950  27.125 -22.956  1.00  0.00     0.164 HD
HETATM   22  C13 UNL     1      15.552  27.699 -20.183  1.00  0.00     0.028 A 
ENDBRANCH  13  16
BRANCH  13  23
HETATM   23  C14 UNL     1      14.978  29.197 -17.378  1.00  0.00     0.072 A 
HETATM   24  C15 UNL     1      15.564  30.212 -18.178  1.00  0.00     0.118 A 
HETATM   25  N4  UNL     1      15.657  31.298 -17.404  1.00  0.00    -0.360 N 
HETATM   26  C16 UNL     1      15.179  31.029 -16.206  1.00  0.00     0.182 A 
ATOM     27  H4  UNL     1      16.040  32.197 -17.696  1.00  0.00     0.166 HD
HETATM   28  N5  UNL     1      14.755  29.725 -16.184  1.00  0.00    -0.347 N 
HETATM   29  C17 UNL     1      14.181  29.146 -14.970  1.00  0.00     0.157 C 
ENDBRANCH  13  23
ENDBRANCH   7  13
BRANCH  12  30
HETATM   30  C22 UNL     1      17.359  21.185 -16.564  1.00  0.00    -0.021 A 
HETATM   31  C23 UNL     1      17.223  20.588 -15.332  1.00  0.00     0.012 A 
HETATM   32  C24 UNL     1      16.936  19.242 -15.210  1.00  0.00     0.001 A 
HETATM   33  C25 UNL     1      16.783  18.477 -16.348  1.00  0.00     0.000 A 
HETATM   34  C26 UNL     1      16.920  19.089 -17.582  1.00  0.00     0.001 A 
HETATM   35  C27 UNL     1      17.206  20.431 -17.706  1.00  0.00     0.012 A 
ENDBRANCH  12  30
BRANCH   1  36
HETATM   36  N1  UNL     1      20.019  22.265 -16.228  1.00  0.00    -0.375 N 
HETATM   37  C1  UNL     1      20.442  22.145 -14.860  1.00  0.00     0.150 C 
HETATM   38  C2  UNL     1      20.719  21.523 -17.248  1.00  0.00     0.150 C 
ENDBRANCH   1  36
TORSDOF 6
ENDMDL
