MODEL 3
REMARK VINA RESULT: -9.415029728      0.559      1.096
REMARK  6 active torsions:
REMARK  status: ('A' for Active; 'I' for Inactive)
REMARK    1  A    between atoms: N1_2  and  C3_4 
REMARK    2  A    between atoms: C7_10  and  C8_11 
REMARK    3  A    between atoms: C8_11  and  O1_12 
REMARK    4  A    between atoms: C8_11  and  C9_14 
REMARK    5  A    between atoms: C8_11  and  C14_21 
REMARK    6  A    between atoms: C21_32  and  C22_33 
ROOT
HETATM    1  C3  UNL     1      16.610  16.419 -17.375  1.00  0.00     0.116 A 
HETATM    2  N2  UNL     1      16.539  17.294 -16.350  1.00  0.00    -0.341 N 
ATOM      3  H2  UNL     1      16.207  16.968 -15.442  1.00  0.00     0.167 HD
HETATM    4  C4  UNL     1      16.891  18.578 -16.488  1.00  0.00     0.045 A 
HETATM    5  C5  UNL     1      16.816  19.483 -15.429  1.00  0.00     0.031 A 
HETATM    6  C6  UNL     1      17.175  20.816 -15.561  1.00  0.00     0.013 A 
HETATM    7  C7  UNL     1      17.622  21.268 -16.777  1.00  0.00    -0.012 A 
HETATM    8  C18 UNL     1      17.712  20.398 -17.857  1.00  0.00     0.026 A 
HETATM    9  C19 UNL     1      17.345  19.072 -17.692  1.00  0.00     0.014 A 
HETATM   10  C20 UNL     1      17.423  18.199 -18.743  1.00  0.00     0.061 A 
HETATM   11 CL1  UNL     1      18.001  18.802 -20.304  1.00  0.00    -0.082 Cl
HETATM   12  C21 UNL     1      17.056  16.871 -18.588  1.00  0.00     0.041 A 
ENDROOT
BRANCH   7  13
HETATM   13  C8  UNL     1      18.028  22.714 -17.018  1.00  0.00     0.156 C 
BRANCH  13  14
HETATM   14  O1  UNL     1      18.571  22.778 -18.311  1.00  0.00    -0.374 OA
ATOM     15  H1  UNL     1      17.961  22.338 -18.892  1.00  0.00     0.212 HD
ENDBRANCH  13  14
BRANCH  13  16
HETATM   16  C9  UNL     1      19.068  22.973 -16.029  1.00  0.00    -0.011 A 
HETATM   17  C10 UNL     1      20.393  22.867 -16.371  1.00  0.00     0.028 A 
HETATM   18  C11 UNL     1      21.355  23.083 -15.419  1.00  0.00     0.088 A 
HETATM   19  N3  UNL     1      21.005  23.394 -14.170  1.00  0.00    -0.375 N 
HETATM   20  C12 UNL     1      19.722  23.510 -13.782  1.00  0.00     0.088 A 
ATOM     21  H3  UNL     1      21.740  23.550 -13.481  1.00  0.00     0.164 HD
HETATM   22  C13 UNL     1      18.747  23.295 -14.732  1.00  0.00     0.028 A 
ENDBRANCH  13  16
BRANCH  13  23
HETATM   23  C14 UNL     1      16.819  23.542 -16.972  1.00  0.00     0.072 A 
HETATM   24  C15 UNL     1      15.510  23.003 -16.879  1.00  0.00     0.118 A 
HETATM   25  N4  UNL     1      14.671  24.044 -16.870  1.00  0.00    -0.360 N 
HETATM   26  C16 UNL     1      15.358  25.166 -16.949  1.00  0.00     0.182 A 
ATOM     27  H4  UNL     1      13.655  23.980 -16.810  1.00  0.00     0.166 HD
HETATM   28  N5  UNL     1      16.694  24.860 -17.013  1.00  0.00    -0.347 N 
HETATM   29  C17 UNL     1      17.698  25.918 -17.115  1.00  0.00     0.157 C 
ENDBRANCH  13  23
ENDBRANCH   7  13
BRANCH  12  30
HETATM   30  C22 UNL     1      17.172  16.027 -19.764  1.00  0.00    -0.021 A 
HETATM   31  C23 UNL     1      16.148  15.919 -20.675  1.00  0.00     0.012 A 
HETATM   32  C24 UNL     1      16.256  15.114 -21.793  1.00  0.00     0.001 A 
HETATM   33  C25 UNL     1      17.418  14.401 -22.001  1.00  0.00     0.000 A 
HETATM   34  C26 UNL     1      18.443  14.517 -21.077  1.00  0.00     0.001 A 
HETATM   35  C27 UNL     1      18.336  15.320 -19.963  1.00  0.00     0.012 A 
ENDBRANCH  12  30
BRANCH   1  36
HETATM   36  N1  UNL     1      16.232  15.056 -17.209  1.00  0.00    -0.375 N 
HETATM   37  C1  UNL     1      15.187  14.522 -18.039  1.00  0.00     0.150 C 
HETATM   38  C2  UNL     1      16.861  14.200 -16.234  1.00  0.00     0.150 C 
ENDBRANCH   1  36
TORSDOF 6
ENDMDL
