MODEL 1
REMARK VINA RESULT: -10.194350998      0.000      0.000
REMARK  6 active torsions:
REMARK  status: ('A' for Active; 'I' for Inactive)
REMARK    1  A    between atoms: N1_2  and  C3_4 
REMARK    2  A    between atoms: C7_10  and  C8_11 
REMARK    3  A    between atoms: C8_11  and  O1_12 
REMARK    4  A    between atoms: C8_11  and  C9_14 
REMARK    5  A    between atoms: C8_11  and  C14_21 
REMARK    6  A    between atoms: C21_32  and  C22_33 
ROOT
HETATM    1  C3  UNL     1      16.500  16.668 -17.087  1.00  0.00     0.116 A 
HETATM    2  N2  UNL     1      16.483  17.617 -16.127  1.00  0.00    -0.341 N 
ATOM      3  H2  UNL     1      16.171  17.367 -15.189  1.00  0.00     0.167 HD
HETATM    4  C4  UNL     1      16.862  18.877 -16.371  1.00  0.00     0.045 A 
HETATM    5  C5  UNL     1      16.843  19.860 -15.381  1.00  0.00     0.031 A 
HETATM    6  C6  UNL     1      17.232  21.169 -15.621  1.00  0.00     0.013 A 
HETATM    7  C7  UNL     1      17.652  21.517 -16.880  1.00  0.00    -0.012 A 
HETATM    8  C18 UNL     1      17.687  20.568 -17.895  1.00  0.00     0.026 A 
HETATM    9  C19 UNL     1      17.291  19.269 -17.621  1.00  0.00     0.014 A 
HETATM   10  C20 UNL     1      17.315  18.319 -18.606  1.00  0.00     0.061 A 
HETATM   11 CL1  UNL     1      17.860  18.790 -20.224  1.00  0.00    -0.082 Cl
HETATM   12  C21 UNL     1      16.920  17.016 -18.343  1.00  0.00     0.041 A 
ENDROOT
BRANCH   7  13
HETATM   13  C8  UNL     1      18.087  22.930 -17.240  1.00  0.00     0.156 C 
BRANCH  13  14
HETATM   14  O1  UNL     1      18.468  22.912 -18.590  1.00  0.00    -0.374 OA
ATOM     15  H1  UNL     1      18.065  23.667 -19.003  1.00  0.00     0.212 HD
ENDBRANCH  13  14
BRANCH  13  16
HETATM   16  C9  UNL     1      19.251  23.181 -16.398  1.00  0.00    -0.011 A 
HETATM   17  C10 UNL     1      19.203  24.136 -15.414  1.00  0.00     0.028 A 
HETATM   18  C11 UNL     1      20.318  24.380 -14.656  1.00  0.00     0.088 A 
HETATM   19  N3  UNL     1      21.441  23.694 -14.873  1.00  0.00    -0.375 N 
HETATM   20  C12 UNL     1      21.542  22.748 -15.824  1.00  0.00     0.088 A 
ATOM     21  H3  UNL     1      22.256  23.895 -14.295  1.00  0.00     0.164 HD
HETATM   22  C13 UNL     1      20.426  22.495 -16.593  1.00  0.00     0.028 A 
ENDBRANCH  13  16
BRANCH  13  23
HETATM   23  C14 UNL     1      16.929  23.818 -17.087  1.00  0.00     0.072 A 
HETATM   24  C15 UNL     1      15.706  23.406 -16.498  1.00  0.00     0.118 A 
HETATM   25  N4  UNL     1      14.891  24.464 -16.538  1.00  0.00    -0.360 N 
HETATM   26  C16 UNL     1      15.514  25.481 -17.100  1.00  0.00     0.182 A 
ATOM     27  H4  UNL     1      13.933  24.483 -16.188  1.00  0.00     0.166 HD
HETATM   28  N5  UNL     1      16.781  25.085 -17.443  1.00  0.00    -0.347 N 
HETATM   29  C17 UNL     1      17.703  26.013 -18.096  1.00  0.00     0.157 C 
ENDBRANCH  13  23
ENDBRANCH   7  13
BRANCH  12  30
HETATM   30  C22 UNL     1      16.978  16.086 -19.455  1.00  0.00    -0.021 A 
HETATM   31  C23 UNL     1      15.968  16.013 -20.386  1.00  0.00     0.012 A 
HETATM   32  C24 UNL     1      16.022  15.126 -21.443  1.00  0.00     0.001 A 
HETATM   33  C25 UNL     1      17.112  14.291 -21.570  1.00  0.00     0.000 A 
HETATM   34  C26 UNL     1      18.124  14.374 -20.628  1.00  0.00     0.001 A 
HETATM   35  C27 UNL     1      18.072  15.258 -19.573  1.00  0.00     0.012 A 
ENDBRANCH  12  30
BRANCH   1  36
HETATM   36  N1  UNL     1      16.093  15.331 -16.809  1.00  0.00    -0.375 N 
HETATM   37  C1  UNL     1      16.490  14.732 -15.564  1.00  0.00     0.150 C 
HETATM   38  C2  UNL     1      15.300  14.563 -17.737  1.00  0.00     0.150 C 
ENDBRANCH   1  36
TORSDOF 6
ENDMDL
