MODEL 2
REMARK VINA RESULT: -9.417934857      4.992      9.004
REMARK  6 active torsions:
REMARK  status: ('A' for Active; 'I' for Inactive)
REMARK    1  A    between atoms: N1_2  and  C3_4 
REMARK    2  A    between atoms: C7_10  and  C8_11 
REMARK    3  A    between atoms: C8_11  and  O1_12 
REMARK    4  A    between atoms: C8_11  and  C9_14 
REMARK    5  A    between atoms: C8_11  and  C14_21 
REMARK    6  A    between atoms: C21_32  and  C22_33 
ROOT
HETATM    1  C3  UNL     1      14.518  26.942 -17.692  1.00  0.00     0.116 A 
HETATM    2  N2  UNL     1      14.347  25.648 -17.351  1.00  0.00    -0.341 N 
ATOM      3  H2  UNL     1      13.409  25.248 -17.381  1.00  0.00     0.167 HD
HETATM    4  C4  UNL     1      15.371  24.873 -16.974  1.00  0.00     0.045 A 
HETATM    5  C5  UNL     1      15.194  23.534 -16.620  1.00  0.00     0.031 A 
HETATM    6  C6  UNL     1      16.246  22.722 -16.227  1.00  0.00     0.013 A 
HETATM    7  C7  UNL     1      17.513  23.249 -16.181  1.00  0.00    -0.012 A 
HETATM    8  C18 UNL     1      17.732  24.577 -16.527  1.00  0.00     0.026 A 
HETATM    9  C19 UNL     1      16.658  25.362 -16.916  1.00  0.00     0.014 A 
HETATM   10  C20 UNL     1      16.850  26.673 -17.258  1.00  0.00     0.061 A 
HETATM   11 CL1  UNL     1      18.492  27.334 -17.191  1.00  0.00    -0.082 Cl
HETATM   12  C21 UNL     1      15.782  27.467 -17.646  1.00  0.00     0.041 A 
ENDROOT
BRANCH   7  13
HETATM   13  C8  UNL     1      18.725  22.437 -15.752  1.00  0.00     0.156 C 
BRANCH  13  14
HETATM   14  O1  UNL     1      18.245  21.252 -15.174  1.00  0.00    -0.374 OA
ATOM     15  H1  UNL     1      18.999  20.777 -14.844  1.00  0.00     0.212 HD
ENDBRANCH  13  14
BRANCH  13  16
HETATM   16  C9  UNL     1      19.374  23.258 -14.735  1.00  0.00    -0.011 A 
HETATM   17  C10 UNL     1      19.038  23.117 -13.412  1.00  0.00     0.028 A 
HETATM   18  C11 UNL     1      19.635  23.920 -12.476  1.00  0.00     0.088 A 
HETATM   19  N3  UNL     1      20.537  24.830 -12.848  1.00  0.00    -0.375 N 
HETATM   20  C12 UNL     1      20.902  25.009 -14.131  1.00  0.00     0.088 A 
ATOM     21  H3  UNL     1      20.967  25.414 -12.132  1.00  0.00     0.164 HD
HETATM   22  C13 UNL     1      20.307  24.206 -15.080  1.00  0.00     0.028 A 
ENDBRANCH  13  16
BRANCH  13  23
HETATM   23  C14 UNL     1      19.498  22.099 -16.952  1.00  0.00     0.072 A 
HETATM   24  C15 UNL     1      19.034  22.344 -18.270  1.00  0.00     0.118 A 
HETATM   25  N4  UNL     1      19.987  21.903 -19.096  1.00  0.00    -0.360 N 
HETATM   26  C16 UNL     1      20.988  21.411 -18.393  1.00  0.00     0.182 A 
ATOM     27  H4  UNL     1      19.947  21.940 -20.114  1.00  0.00     0.166 HD
HETATM   28  N5  UNL     1      20.689  21.530 -17.060  1.00  0.00    -0.347 N 
HETATM   29  C17 UNL     1      21.623  21.057 -16.039  1.00  0.00     0.157 C 
ENDBRANCH  13  23
ENDBRANCH   7  13
BRANCH  12  30
HETATM   30  C22 UNL     1      16.090  28.844 -17.985  1.00  0.00    -0.021 A 
HETATM   31  C23 UNL     1      15.965  29.857 -17.063  1.00  0.00     0.012 A 
HETATM   32  C24 UNL     1      16.256  31.169 -17.386  1.00  0.00     0.001 A 
HETATM   33  C25 UNL     1      16.681  31.472 -18.663  1.00  0.00     0.000 A 
HETATM   34  C26 UNL     1      16.804  30.444 -19.582  1.00  0.00     0.001 A 
HETATM   35  C27 UNL     1      16.515  29.136 -19.262  1.00  0.00     0.012 A 
ENDBRANCH  12  30
BRANCH   1  36
HETATM   36  N1  UNL     1      13.416  27.752 -18.090  1.00  0.00    -0.375 N 
HETATM   37  C1  UNL     1      12.619  28.384 -17.075  1.00  0.00     0.150 C 
HETATM   38  C2  UNL     1      13.076  27.954 -19.478  1.00  0.00     0.150 C 
ENDBRANCH   1  36
TORSDOF 6
ENDMDL
