MODEL 5
REMARK VINA RESULT: -8.094288750      1.964      6.660
REMARK  4 active torsions:
REMARK  status: ('A' for Active; 'I' for Inactive)
REMARK    1  A    between atoms: C18_21  and  O3_22 
REMARK    2  A    between atoms: C22_27  and  C23_28 
REMARK    3  A    between atoms: C23_28  and  C24_30 
REMARK    4  A    between atoms: C24_30  and  O5_31 
ROOT
HETATM    1  C1  UNL     1      21.799  37.442  16.858  1.00  0.00     0.078 C 
HETATM    2  C2  UNL     1      22.533  38.071  18.011  1.00  0.00     0.159 C 
HETATM    3  C3  UNL     1      23.323  37.050  18.810  1.00  0.00     0.078 C 
HETATM    4  O1  UNL     1      21.711  38.829  18.843  1.00  0.00    -0.347 OA
HETATM    5  C4  UNL     1      22.555  39.714  19.508  1.00  0.00     0.168 C 
HETATM    6  C5  UNL     1      21.877  41.074  19.624  1.00  0.00     0.041 C 
HETATM    7  C6  UNL     1      21.868  41.467  18.219  1.00  0.00     0.007 C 
HETATM    8  C7  UNL     1      21.523  42.866  17.857  1.00  0.00     0.035 C 
HETATM    9  C8  UNL     1      20.308  43.273  18.634  1.00  0.00     0.013 C 
HETATM   10  C9  UNL     1      19.460  44.318  18.044  1.00  0.00     0.036 C 
HETATM   11  C10 UNL     1      19.598  44.455  16.563  1.00  0.00    -0.061 A 
HETATM   12  C11 UNL     1      18.523  44.795  15.906  1.00  0.00     0.058 A 
HETATM   13  C12 UNL     1      18.529  44.960  14.466  1.00  0.00     0.172 A 
HETATM   14  O2  UNL     1      17.477  45.293  13.822  1.00  0.00    -0.289 OA
HETATM   15  C13 UNL     1      19.793  44.726  13.780  1.00  0.00     0.052 A 
HETATM   16  C14 UNL     1      20.888  44.379  14.442  1.00  0.00    -0.006 A 
HETATM   17  C15 UNL     1      20.905  44.210  15.892  1.00  0.00     0.036 A 
HETATM   18  C16 UNL     1      21.934  45.233  16.411  1.00  0.00     0.028 C 
HETATM   19  C17 UNL     1      21.314  42.827  16.359  1.00  0.00     0.147 C 
HETATM   20  F1  UNL     1      20.117  42.078  16.234  1.00  0.00    -0.238 F 
HETATM   21  C18 UNL     1      22.367  42.159  15.597  1.00  0.00     0.160 C 
HETATM   22  C19 UNL     1      23.152  41.084  16.256  1.00  0.00     0.048 C 
HETATM   23  C20 UNL     1      23.286  41.238  17.758  1.00  0.00     0.004 C 
HETATM   24  C21 UNL     1      24.234  42.339  18.023  1.00  0.00     0.019 C 
HETATM   25  C22 UNL     1      23.641  39.972  18.450  1.00  0.00     0.160 C 
HETATM   26  O6  UNL     1      23.462  38.964  17.477  1.00  0.00    -0.334 OA
ENDROOT
BRANCH  25  27
HETATM   27  C23 UNL     1      24.967  39.853  19.051  1.00  0.00     0.188 C 
HETATM   28  O4  UNL     1      25.913  39.627  18.257  1.00  0.00    -0.292 OA
BRANCH  27  29
HETATM   29  C24 UNL     1      25.353  39.954  20.460  1.00  0.00     0.245 C 
BRANCH  29  30
HETATM   30  O5  UNL     1      25.283  41.289  20.929  1.00  0.00    -0.393 OA
ATOM     31  H5  UNL     1      26.061  41.532  21.416  1.00  0.00     0.209 HD
ENDBRANCH  29  30
ENDBRANCH  27  29
ENDBRANCH  25  27
BRANCH  21  32
HETATM   32  O3  UNL     1      23.311  42.986  14.971  1.00  0.00    -0.392 OA
ATOM     33  H3  UNL     1      22.980  43.776  14.561  1.00  0.00     0.210 HD
ENDBRANCH  21  32
TORSDOF 4
ENDMDL
