MODEL 2
REMARK VINA RESULT: -11.175764043      1.119      1.296
REMARK  4 active torsions:
REMARK  status: ('A' for Active; 'I' for Inactive)
REMARK    1  A    between atoms: C18_21  and  O3_22 
REMARK    2  A    between atoms: C22_27  and  C23_28 
REMARK    3  A    between atoms: C23_28  and  C24_30 
REMARK    4  A    between atoms: C24_30  and  O5_31 
ROOT
HETATM    1  C1  UNL     1      17.645  42.336  14.961  1.00  0.00     0.078 C 
HETATM    2  C2  UNL     1      18.863  43.169  14.668  1.00  0.00     0.159 C 
HETATM    3  C3  UNL     1      18.512  44.458  13.947  1.00  0.00     0.078 C 
HETATM    4  O1  UNL     1      19.861  42.471  13.990  1.00  0.00    -0.347 OA
HETATM    5  C4  UNL     1      21.044  43.161  14.239  1.00  0.00     0.168 C 
HETATM    6  C5  UNL     1      22.179  42.165  14.448  1.00  0.00     0.041 C 
HETATM    7  C6  UNL     1      21.757  41.571  15.712  1.00  0.00     0.007 C 
HETATM    8  C7  UNL     1      22.703  40.703  16.459  1.00  0.00     0.035 C 
HETATM    9  C8  UNL     1      23.337  39.748  15.493  1.00  0.00     0.013 C 
HETATM   10  C9  UNL     1      23.813  38.469  16.037  1.00  0.00     0.036 C 
HETATM   11  C10 UNL     1      23.150  38.062  17.313  1.00  0.00    -0.061 A 
HETATM   12  C11 UNL     1      22.977  36.782  17.496  1.00  0.00     0.058 A 
HETATM   13  C12 UNL     1      22.346  36.261  18.693  1.00  0.00     0.172 A 
HETATM   14  O2  UNL     1      22.176  35.008  18.874  1.00  0.00    -0.289 OA
HETATM   15  C13 UNL     1      21.912  37.235  19.687  1.00  0.00     0.052 A 
HETATM   16  C14 UNL     1      22.084  38.536  19.505  1.00  0.00    -0.006 A 
HETATM   17  C15 UNL     1      22.719  39.081  18.309  1.00  0.00     0.036 A 
HETATM   18  C16 UNL     1      23.958  39.844  18.814  1.00  0.00     0.028 C 
HETATM   19  C17 UNL     1      21.849  40.037  17.515  1.00  0.00     0.147 C 
HETATM   20  F1  UNL     1      21.033  39.167  16.749  1.00  0.00    -0.238 F 
HETATM   21  C18 UNL     1      20.988  40.934  18.282  1.00  0.00     0.160 C 
HETATM   22  C19 UNL     1      20.517  42.190  17.643  1.00  0.00     0.048 C 
HETATM   23  C20 UNL     1      21.462  42.754  16.601  1.00  0.00     0.004 C 
HETATM   24  C21 UNL     1      22.624  43.337  17.303  1.00  0.00     0.019 C 
HETATM   25  C22 UNL     1      20.805  43.698  15.660  1.00  0.00     0.160 C 
HETATM   26  O6  UNL     1      19.421  43.538  15.893  1.00  0.00    -0.334 OA
ENDROOT
BRANCH  25  27
HETATM   27  C23 UNL     1      21.160  45.113  15.730  1.00  0.00     0.188 C 
HETATM   28  O4  UNL     1      20.512  45.803  16.553  1.00  0.00    -0.292 OA
BRANCH  27  29
HETATM   29  C24 UNL     1      22.168  45.849  14.964  1.00  0.00     0.245 C 
BRANCH  29  30
HETATM   30  O5  UNL     1      22.260  47.200  15.380  1.00  0.00    -0.393 OA
ATOM     31  H5  UNL     1      22.018  47.800  14.685  1.00  0.00     0.209 HD
ENDBRANCH  29  30
ENDBRANCH  27  29
ENDBRANCH  25  27
BRANCH  21  32
HETATM   32  O3  UNL     1      21.442  41.307  19.556  1.00  0.00    -0.392 OA
ATOM     33  H3  UNL     1      21.241  40.714  20.270  1.00  0.00     0.210 HD
ENDBRANCH  21  32
TORSDOF 4
ENDMDL
