MODEL 1
REMARK VINA RESULT: -12.737192635      0.000      0.000
REMARK  4 active torsions:
REMARK  status: ('A' for Active; 'I' for Inactive)
REMARK    1  A    between atoms: C18_21  and  O3_22 
REMARK    2  A    between atoms: C22_27  and  C23_28 
REMARK    3  A    between atoms: C23_28  and  C24_30 
REMARK    4  A    between atoms: C24_30  and  O5_31 
ROOT
HETATM    1  C1  UNL     1      18.072  43.573  16.016  1.00  0.00     0.078 C 
HETATM    2  C2  UNL     1      19.397  43.997  15.442  1.00  0.00     0.159 C 
HETATM    3  C3  UNL     1      19.280  45.262  14.612  1.00  0.00     0.078 C 
HETATM    4  O1  UNL     1      20.039  42.987  14.728  1.00  0.00    -0.347 OA
HETATM    5  C4  UNL     1      21.387  43.331  14.709  1.00  0.00     0.168 C 
HETATM    6  C5  UNL     1      22.235  42.077  14.885  1.00  0.00     0.041 C 
HETATM    7  C6  UNL     1      21.899  41.743  16.265  1.00  0.00     0.007 C 
HETATM    8  C7  UNL     1      22.696  40.711  16.978  1.00  0.00     0.035 C 
HETATM    9  C8  UNL     1      22.874  39.534  16.067  1.00  0.00     0.013 C 
HETATM   10  C9  UNL     1      23.080  38.226  16.705  1.00  0.00     0.036 C 
HETATM   11  C10 UNL     1      22.567  38.139  18.105  1.00  0.00    -0.061 A 
HETATM   12  C11 UNL     1      22.095  36.982  18.482  1.00  0.00     0.058 A 
HETATM   13  C12 UNL     1      21.568  36.771  19.816  1.00  0.00     0.172 A 
HETATM   14  O2  UNL     1      21.106  35.639  20.185  1.00  0.00    -0.289 OA
HETATM   15  C13 UNL     1      21.589  37.912  20.721  1.00  0.00     0.052 A 
HETATM   16  C14 UNL     1      22.066  39.089  20.344  1.00  0.00    -0.006 A 
HETATM   17  C15 UNL     1      22.603  39.323  19.007  1.00  0.00     0.036 A 
HETATM   18  C16 UNL     1      24.070  39.745  19.223  1.00  0.00     0.028 C 
HETATM   19  C17 UNL     1      21.894  40.412  18.225  1.00  0.00     0.147 C 
HETATM   20  F1  UNL     1      20.755  39.745  17.708  1.00  0.00    -0.238 F 
HETATM   21  C18 UNL     1      21.450  41.582  18.980  1.00  0.00     0.160 C 
HETATM   22  C19 UNL     1      21.225  42.857  18.253  1.00  0.00     0.048 C 
HETATM   23  C20 UNL     1      22.088  43.034  17.020  1.00  0.00     0.004 C 
HETATM   24  C21 UNL     1      23.467  43.324  17.464  1.00  0.00     0.019 C 
HETATM   25  C22 UNL     1      21.552  44.038  16.065  1.00  0.00     0.160 C 
HETATM   26  O6  UNL     1      20.238  44.300  16.513  1.00  0.00    -0.334 OA
ENDROOT
BRANCH  25  27
HETATM   27  C23 UNL     1      22.277  45.295  15.893  1.00  0.00     0.188 C 
HETATM   28  O4  UNL     1      22.749  45.507  14.750  1.00  0.00    -0.292 OA
BRANCH  27  29
HETATM   29  C24 UNL     1      22.541  46.348  16.875  1.00  0.00     0.245 C 
BRANCH  29  30
HETATM   30  O5  UNL     1      21.569  46.359  17.906  1.00  0.00    -0.393 OA
ATOM     31  H5  UNL     1      21.754  47.026  18.557  1.00  0.00     0.209 HD
ENDBRANCH  29  30
ENDBRANCH  27  29
ENDBRANCH  25  27
BRANCH  21  32
HETATM   32  O3  UNL     1      22.203  41.922  20.114  1.00  0.00    -0.392 OA
ATOM     33  H3  UNL     1      22.047  41.409  20.898  1.00  0.00     0.210 HD
ENDBRANCH  21  32
TORSDOF 4
ENDMDL
