MODEL 4
REMARK VINA RESULT: -9.029488075      1.927      6.947
REMARK  4 active torsions:
REMARK  status: ('A' for Active; 'I' for Inactive)
REMARK    1  A    between atoms: C18_21  and  O3_22 
REMARK    2  A    between atoms: C22_27  and  C23_28 
REMARK    3  A    between atoms: C23_28  and  C24_30 
REMARK    4  A    between atoms: C24_30  and  O5_31 
ROOT
HETATM    1  C1  UNL     1      20.673  39.098  20.379  1.00  0.00     0.078 C 
HETATM    2  C2  UNL     1      21.938  38.749  19.644  1.00  0.00     0.159 C 
HETATM    3  C3  UNL     1      22.393  37.330  19.935  1.00  0.00     0.078 C 
HETATM    4  O1  UNL     1      22.971  39.659  19.858  1.00  0.00    -0.347 OA
HETATM    5  C4  UNL     1      23.840  39.510  18.780  1.00  0.00     0.168 C 
HETATM    6  C5  UNL     1      24.355  40.878  18.348  1.00  0.00     0.041 C 
HETATM    7  C6  UNL     1      23.120  41.453  17.825  1.00  0.00     0.007 C 
HETATM    8  C7  UNL     1      23.180  42.715  17.042  1.00  0.00     0.035 C 
HETATM    9  C8  UNL     1      24.071  43.680  17.764  1.00  0.00     0.013 C 
HETATM   10  C9  UNL     1      23.823  45.111  17.537  1.00  0.00     0.036 C 
HETATM   11  C10 UNL     1      22.439  45.427  17.071  1.00  0.00    -0.061 A 
HETATM   12  C11 UNL     1      21.934  46.560  17.474  1.00  0.00     0.058 A 
HETATM   13  C12 UNL     1      20.600  46.980  17.090  1.00  0.00     0.172 A 
HETATM   14  O2  UNL     1      20.104  48.089  17.484  1.00  0.00    -0.289 OA
HETATM   15  C13 UNL     1      19.845  46.075  16.233  1.00  0.00     0.052 A 
HETATM   16  C14 UNL     1      20.353  44.923  15.821  1.00  0.00    -0.006 A 
HETATM   17  C15 UNL     1      21.694  44.482  16.194  1.00  0.00     0.036 A 
HETATM   18  C16 UNL     1      22.457  44.325  14.864  1.00  0.00     0.028 C 
HETATM   19  C17 UNL     1      21.739  43.162  16.939  1.00  0.00     0.147 C 
HETATM   20  F1  UNL     1      21.435  43.536  18.273  1.00  0.00    -0.238 F 
HETATM   21  C18 UNL     1      20.792  42.133  16.514  1.00  0.00     0.160 C 
HETATM   22  C19 UNL     1      21.098  40.712  16.818  1.00  0.00     0.048 C 
HETATM   23  C20 UNL     1      22.578  40.394  16.897  1.00  0.00     0.004 C 
HETATM   24  C21 UNL     1      23.122  40.403  15.524  1.00  0.00     0.019 C 
HETATM   25  C22 UNL     1      22.872  39.143  17.643  1.00  0.00     0.160 C 
HETATM   26  O6  UNL     1      21.657  38.805  18.278  1.00  0.00    -0.334 OA
ENDROOT
BRANCH  25  27
HETATM   27  C23 UNL     1      23.381  37.992  16.900  1.00  0.00     0.188 C 
HETATM   28  O4  UNL     1      24.586  38.048  16.555  1.00  0.00    -0.292 OA
BRANCH  27  29
HETATM   29  C24 UNL     1      22.677  36.775  16.490  1.00  0.00     0.245 C 
BRANCH  29  30
HETATM   30  O5  UNL     1      22.571  35.847  17.555  1.00  0.00    -0.393 OA
ATOM     31  H5  UNL     1      22.066  35.082  17.306  1.00  0.00     0.209 HD
ENDBRANCH  29  30
ENDBRANCH  27  29
ENDBRANCH  25  27
BRANCH  21  32
HETATM   32  O3  UNL     1      20.404  42.154  15.166  1.00  0.00    -0.392 OA
ATOM     33  H3  UNL     1      20.620  42.937  14.673  1.00  0.00     0.210 HD
ENDBRANCH  21  32
TORSDOF 4
ENDMDL
