MODEL 3
REMARK VINA RESULT: -10.683232900      0.576      1.078
REMARK  4 active torsions:
REMARK  status: ('A' for Active; 'I' for Inactive)
REMARK    1  A    between atoms: C18_21  and  O3_22 
REMARK    2  A    between atoms: C22_27  and  C23_28 
REMARK    3  A    between atoms: C23_28  and  C24_30 
REMARK    4  A    between atoms: C24_30  and  O5_31 
ROOT
HETATM    1  C1  UNL     1      17.911  43.711  16.660  1.00  0.00     0.078 C 
HETATM    2  C2  UNL     1      19.162  44.043  15.893  1.00  0.00     0.159 C 
HETATM    3  C3  UNL     1      19.008  45.309  15.069  1.00  0.00     0.078 C 
HETATM    4  O1  UNL     1      19.626  42.990  15.107  1.00  0.00    -0.347 OA
HETATM    5  C4  UNL     1      20.976  43.243  14.887  1.00  0.00     0.168 C 
HETATM    6  C5  UNL     1      21.758  41.937  14.956  1.00  0.00     0.041 C 
HETATM    7  C6  UNL     1      21.607  41.633  16.375  1.00  0.00     0.007 C 
HETATM    8  C7  UNL     1      22.431  40.554  16.980  1.00  0.00     0.035 C 
HETATM    9  C8  UNL     1      22.397  39.363  16.070  1.00  0.00     0.013 C 
HETATM   10  C9  UNL     1      22.609  38.048  16.690  1.00  0.00     0.036 C 
HETATM   11  C10 UNL     1      22.303  38.002  18.152  1.00  0.00    -0.061 A 
HETATM   12  C11 UNL     1      21.817  36.881  18.610  1.00  0.00     0.058 A 
HETATM   13  C12 UNL     1      21.479  36.712  20.010  1.00  0.00     0.172 A 
HETATM   14  O2  UNL     1      21.003  35.616  20.460  1.00  0.00    -0.289 OA
HETATM   15  C13 UNL     1      21.705  37.855  20.885  1.00  0.00     0.052 A 
HETATM   16  C14 UNL     1      22.198  38.995  20.425  1.00  0.00    -0.006 A 
HETATM   17  C15 UNL     1      22.547  39.186  19.020  1.00  0.00     0.036 A 
HETATM   18  C16 UNL     1      24.053  39.511  19.014  1.00  0.00     0.028 C 
HETATM   19  C17 UNL     1      21.803  40.316  18.335  1.00  0.00     0.147 C 
HETATM   20  F1  UNL     1      20.559  39.723  17.999  1.00  0.00    -0.238 F 
HETATM   21  C18 UNL     1      21.551  41.516  19.129  1.00  0.00     0.160 C 
HETATM   22  C19 UNL     1      21.305  42.800  18.423  1.00  0.00     0.048 C 
HETATM   23  C20 UNL     1      21.988  42.913  17.075  1.00  0.00     0.004 C 
HETATM   24  C21 UNL     1      23.433  43.112  17.309  1.00  0.00     0.019 C 
HETATM   25  C22 UNL     1      21.383  43.945  16.193  1.00  0.00     0.160 C 
HETATM   26  O6  UNL     1      20.169  44.295  16.825  1.00  0.00    -0.334 OA
ENDROOT
BRANCH  25  27
HETATM   27  C23 UNL     1      22.156  45.150  15.899  1.00  0.00     0.188 C 
HETATM   28  O4  UNL     1      22.615  45.766  16.891  1.00  0.00    -0.292 OA
BRANCH  27  29
HETATM   29  C24 UNL     1      22.465  45.752  14.600  1.00  0.00     0.245 C 
BRANCH  29  30
HETATM   30  O5  UNL     1      23.040  44.811  13.710  1.00  0.00    -0.393 OA
ATOM     31  H5  UNL     1      23.191  45.186  12.851  1.00  0.00     0.209 HD
ENDBRANCH  29  30
ENDBRANCH  27  29
ENDBRANCH  25  27
BRANCH  21  32
HETATM   32  O3  UNL     1      22.482  41.812  20.135  1.00  0.00    -0.392 OA
ATOM     33  H3  UNL     1      22.970  41.079  20.492  1.00  0.00     0.210 HD
ENDBRANCH  21  32
TORSDOF 4
ENDMDL
