MODEL 11
REMARK VINA RESULT: -8.593161753      2.551      4.325
REMARK  6 active torsions:
REMARK  status: ('A' for Active; 'I' for Inactive)
REMARK    1  A    between atoms: C2_2  and  C3_3 
REMARK    2  A    between atoms: C4_4  and  C5_5 
REMARK    3  A    between atoms: C5_5  and  O1_6 
REMARK    4  A    between atoms: O1_6  and  C6_7 
REMARK    5  A    between atoms: C11_14  and  C12_15 
REMARK    6  A    between atoms: C13_18  and  O3_19 
ROOT
HETATM    1  C6  UNL     1     -23.220 -39.240  10.642  1.00  0.00     0.153 A 
HETATM    2  N1  UNL     1     -21.961 -38.740  10.833  1.00  0.00    -0.346 N 
ATOM      3  H1  UNL     1     -21.546 -38.785  11.763  1.00  0.00     0.167 HD
HETATM    4  C7  UNL     1     -21.271 -38.204   9.852  1.00  0.00     0.091 A 
HETATM    5  C8  UNL     1     -21.800 -38.125   8.576  1.00  0.00     0.029 A 
HETATM    6  C9  UNL     1     -23.063 -38.613   8.328  1.00  0.00    -0.019 A 
HETATM    7  C10 UNL     1     -23.574 -38.522   7.027  1.00  0.00     0.032 A 
HETATM    8  C11 UNL     1     -24.842 -39.021   6.814  1.00  0.00     0.063 A 
HETATM    9  C13 UNL     1     -25.587 -39.587   7.817  1.00  0.00     0.084 A 
HETATM   10  C15 UNL     1     -25.028 -39.650   9.086  1.00  0.00     0.054 A 
HETATM   11  C16 UNL     1     -23.761 -39.164   9.356  1.00  0.00     0.028 A 
ENDROOT
BRANCH   1  12
HETATM   12  O1  UNL     1     -23.929 -39.775  11.588  1.00  0.00    -0.333 OA
BRANCH  12  13
HETATM   13  C5  UNL     1     -24.605 -40.310  12.564  1.00  0.00     0.202 C 
BRANCH  13  14
HETATM   14  C4  UNL     1     -25.772 -39.448  13.000  1.00  0.00     0.116 C 
HETATM   15  C3  UNL     1     -26.841 -40.190  13.719  1.00  0.00     0.053 C 
HETATM   16  C18 UNL     1     -28.066 -39.352  13.529  1.00  0.00     0.267 C 
HETATM   17  C17 UNL     1     -27.813 -38.797  12.175  1.00  0.00     0.252 C 
HETATM   18  F1  UNL     1     -29.230 -40.070  13.456  1.00  0.00    -0.239 F 
HETATM   19  N3  UNL     1     -26.467 -39.028  11.797  1.00  0.00    -0.351 N 
HETATM   20  O4  UNL     1     -28.652 -38.210  11.465  1.00  0.00    -0.270 OA
ATOM     21  H3  UNL     1     -26.067 -38.922  10.865  1.00  0.00     0.163 HD
BRANCH  15  22
HETATM   22  C2  UNL     1     -26.980 -41.621  13.400  1.00  0.00     0.006 C 
HETATM   23  C1  UNL     1     -27.281 -42.563  14.490  1.00  0.00     0.005 C 
ENDBRANCH  15  22
ENDBRANCH  13  14
ENDBRANCH  12  13
ENDBRANCH   1  12
BRANCH   9  24
HETATM   24  O3  UNL     1     -26.839 -40.064   7.540  1.00  0.00    -0.355 OA
HETATM   25  C14 UNL     1     -27.859 -40.055   8.528  1.00  0.00     0.210 C 
ENDBRANCH   9  24
BRANCH   8  26
HETATM   26  C12 UNL     1     -25.400 -38.942   5.477  1.00  0.00     0.267 C 
HETATM   27  N2  UNL     1     -24.616 -39.266   4.343  1.00  0.00    -0.057 NA
HETATM   28  O2  UNL     1     -26.582 -38.587   5.285  1.00  0.00    -0.271 OA
ENDBRANCH   8  26
TORSDOF 6
ENDMDL
