MODEL 3
REMARK VINA RESULT: -8.971563394      4.228      7.340
REMARK  6 active torsions:
REMARK  status: ('A' for Active; 'I' for Inactive)
REMARK    1  A    between atoms: C2_2  and  C3_3 
REMARK    2  A    between atoms: C4_4  and  C5_5 
REMARK    3  A    between atoms: C5_5  and  O1_6 
REMARK    4  A    between atoms: O1_6  and  C6_7 
REMARK    5  A    between atoms: C11_14  and  C12_15 
REMARK    6  A    between atoms: C13_18  and  O3_19 
ROOT
HETATM    1  C6  UNL     1     -21.894 -38.764   9.521  1.00  0.00     0.153 A 
HETATM    2  N1  UNL     1     -21.290 -38.543  10.729  1.00  0.00    -0.346 N 
ATOM      3  H1  UNL     1     -20.277 -38.430  10.763  1.00  0.00     0.167 HD
HETATM    4  C7  UNL     1     -21.976 -38.473  11.846  1.00  0.00     0.091 A 
HETATM    5  C8  UNL     1     -23.352 -38.622  11.842  1.00  0.00     0.029 A 
HETATM    6  C9  UNL     1     -24.012 -38.846  10.654  1.00  0.00    -0.019 A 
HETATM    7  C10 UNL     1     -25.404 -38.992  10.677  1.00  0.00     0.032 A 
HETATM    8  C11 UNL     1     -26.033 -39.214   9.470  1.00  0.00     0.063 A 
HETATM    9  C13 UNL     1     -25.343 -39.292   8.287  1.00  0.00     0.084 A 
HETATM   10  C15 UNL     1     -23.965 -39.139   8.326  1.00  0.00     0.054 A 
HETATM   11  C16 UNL     1     -23.283 -38.915   9.509  1.00  0.00     0.028 A 
ENDROOT
BRANCH   1  12
HETATM   12  O1  UNL     1     -21.247 -38.839   8.400  1.00  0.00    -0.333 OA
BRANCH  12  13
HETATM   13  C5  UNL     1     -20.576 -38.952   7.289  1.00  0.00     0.202 C 
BRANCH  13  14
HETATM   14  C4  UNL     1     -19.369 -38.037   7.247  1.00  0.00     0.116 C 
HETATM   15  C3  UNL     1     -18.354 -38.415   6.228  1.00  0.00     0.053 C 
HETATM   16  C18 UNL     1     -17.082 -37.811   6.730  1.00  0.00     0.267 C 
HETATM   17  C17 UNL     1     -17.282 -37.924   8.198  1.00  0.00     0.252 C 
HETATM   18  F1  UNL     1     -15.959 -38.532   6.422  1.00  0.00    -0.239 F 
HETATM   19  N3  UNL     1     -18.633 -38.244   8.481  1.00  0.00    -0.351 N 
HETATM   20  O4  UNL     1     -16.400 -37.763   9.062  1.00  0.00    -0.270 OA
ATOM     21  H3  UNL     1     -19.013 -38.557   9.374  1.00  0.00     0.163 HD
BRANCH  15  22
HETATM   22  C2  UNL     1     -18.292 -39.839   5.855  1.00  0.00     0.006 C 
HETATM   23  C1  UNL     1     -18.095 -40.191   4.440  1.00  0.00     0.005 C 
ENDBRANCH  15  22
ENDBRANCH  13  14
ENDBRANCH  12  13
ENDBRANCH   1  12
BRANCH   9  24
HETATM   24  O3  UNL     1     -26.026 -39.514   7.122  1.00  0.00    -0.355 OA
HETATM   25  C14 UNL     1     -25.659 -38.851   5.922  1.00  0.00     0.210 C 
ENDBRANCH   9  24
BRANCH   8  26
HETATM   26  C12 UNL     1     -27.476 -39.368   9.460  1.00  0.00     0.267 C 
HETATM   27  N2  UNL     1     -28.312 -38.417  10.093  1.00  0.00    -0.057 NA
HETATM   28  O2  UNL     1     -28.022 -40.341   8.898  1.00  0.00    -0.271 OA
ENDBRANCH   8  26
TORSDOF 6
ENDMDL
