MODEL 2
REMARK VINA RESULT: -9.114415592      3.927      7.336
REMARK  6 active torsions:
REMARK  status: ('A' for Active; 'I' for Inactive)
REMARK    1  A    between atoms: C2_2  and  C3_3 
REMARK    2  A    between atoms: C4_4  and  C5_5 
REMARK    3  A    between atoms: C5_5  and  O1_6 
REMARK    4  A    between atoms: O1_6  and  C6_7 
REMARK    5  A    between atoms: C11_14  and  C12_15 
REMARK    6  A    between atoms: C13_18  and  O3_19 
ROOT
HETATM    1  C6  UNL     1     -22.989 -38.893   6.909  1.00  0.00     0.153 A 
HETATM    2  N1  UNL     1     -23.388 -38.978   5.603  1.00  0.00    -0.346 N 
ATOM      3  H1  UNL     1     -22.683 -38.947   4.867  1.00  0.00     0.167 HD
HETATM    4  C7  UNL     1     -24.652 -39.100   5.269  1.00  0.00     0.091 A 
HETATM    5  C8  UNL     1     -25.638 -39.146   6.239  1.00  0.00     0.029 A 
HETATM    6  C9  UNL     1     -25.293 -39.064   7.569  1.00  0.00    -0.019 A 
HETATM    7  C10 UNL     1     -26.310 -39.115   8.531  1.00  0.00     0.032 A 
HETATM    8  C11 UNL     1     -25.929 -39.030   9.853  1.00  0.00     0.063 A 
HETATM    9  C13 UNL     1     -24.617 -38.903  10.233  1.00  0.00     0.084 A 
HETATM   10  C15 UNL     1     -23.653 -38.859   9.237  1.00  0.00     0.054 A 
HETATM   11  C16 UNL     1     -23.979 -38.938   7.894  1.00  0.00     0.028 A 
ENDROOT
BRANCH   1  12
HETATM   12  O1  UNL     1     -21.750 -38.771   7.273  1.00  0.00    -0.333 OA
BRANCH  12  13
HETATM   13  C5  UNL     1     -20.493 -38.658   7.597  1.00  0.00     0.202 C 
BRANCH  13  14
HETATM   14  C4  UNL     1     -19.578 -39.359   6.613  1.00  0.00     0.116 C 
HETATM   15  C3  UNL     1     -18.129 -39.194   6.907  1.00  0.00     0.053 C 
HETATM   16  C18 UNL     1     -17.457 -39.419   5.590  1.00  0.00     0.267 C 
HETATM   17  C17 UNL     1     -18.475 -38.864   4.661  1.00  0.00     0.252 C 
HETATM   18  F1  UNL     1     -16.313 -38.686   5.413  1.00  0.00    -0.239 F 
HETATM   19  N3  UNL     1     -19.699 -38.662   5.346  1.00  0.00    -0.351 N 
HETATM   20  O4  UNL     1     -18.292 -38.611   3.455  1.00  0.00    -0.270 OA
ATOM     21  H3  UNL     1     -20.505 -38.132   5.014  1.00  0.00     0.163 HD
BRANCH  15  22
HETATM   22  C2  UNL     1     -17.738 -37.975   7.634  1.00  0.00     0.006 C 
HETATM   23  C1  UNL     1     -16.762 -38.088   8.730  1.00  0.00     0.005 C 
ENDBRANCH  15  22
ENDBRANCH  13  14
ENDBRANCH  12  13
ENDBRANCH   1  12
BRANCH   9  24
HETATM   24  O3  UNL     1     -24.304 -38.825  11.563  1.00  0.00    -0.355 OA
HETATM   25  C14 UNL     1     -23.161 -38.108  12.004  1.00  0.00     0.210 C 
ENDBRANCH   9  24
BRANCH   8  26
HETATM   26  C12 UNL     1     -26.959 -39.081  10.874  1.00  0.00     0.267 C 
HETATM   27  N2  UNL     1     -27.643 -37.908  11.274  1.00  0.00    -0.057 NA
HETATM   28  O2  UNL     1     -27.272 -40.155  11.429  1.00  0.00    -0.271 OA
ENDBRANCH   8  26
TORSDOF 6
ENDMDL
