MODEL 4
REMARK VINA RESULT: -8.921919716      2.501      3.411
REMARK  6 active torsions:
REMARK  status: ('A' for Active; 'I' for Inactive)
REMARK    1  A    between atoms: C2_2  and  C3_3 
REMARK    2  A    between atoms: C4_4  and  C5_5 
REMARK    3  A    between atoms: C5_5  and  O1_6 
REMARK    4  A    between atoms: O1_6  and  C6_7 
REMARK    5  A    between atoms: C11_14  and  C12_15 
REMARK    6  A    between atoms: C13_18  and  O3_19 
ROOT
HETATM    1  C6  UNL     1     -27.500 -39.380  11.948  1.00  0.00     0.153 A 
HETATM    2  N1  UNL     1     -28.830 -39.641  11.764  1.00  0.00    -0.346 N 
ATOM      3  H1  UNL     1     -29.436 -39.723  12.581  1.00  0.00     0.167 HD
HETATM    4  C7  UNL     1     -29.351 -39.791  10.568  1.00  0.00     0.091 A 
HETATM    5  C8  UNL     1     -28.561 -39.688   9.436  1.00  0.00     0.029 A 
HETATM    6  C9  UNL     1     -27.216 -39.426   9.562  1.00  0.00    -0.019 A 
HETATM    7  C10 UNL     1     -26.440 -39.325   8.400  1.00  0.00     0.032 A 
HETATM    8  C11 UNL     1     -25.097 -39.062   8.562  1.00  0.00     0.063 A 
HETATM    9  C13 UNL     1     -24.524 -38.900   9.798  1.00  0.00     0.084 A 
HETATM   10  C15 UNL     1     -25.342 -39.010  10.914  1.00  0.00     0.054 A 
HETATM   11  C16 UNL     1     -26.696 -39.275  10.809  1.00  0.00     0.028 A 
ENDROOT
BRANCH   1  12
HETATM   12  O1  UNL     1     -26.953 -39.228  13.114  1.00  0.00    -0.333 OA
BRANCH  12  13
HETATM   13  C5  UNL     1     -26.365 -39.068  14.265  1.00  0.00     0.202 C 
BRANCH  13  14
HETATM   14  C4  UNL     1     -27.341 -39.105  15.423  1.00  0.00     0.116 C 
HETATM   15  C3  UNL     1     -26.748 -38.716  16.730  1.00  0.00     0.053 C 
HETATM   16  C18 UNL     1     -27.637 -39.360  17.746  1.00  0.00     0.267 C 
HETATM   17  C17 UNL     1     -28.028 -40.599  17.026  1.00  0.00     0.252 C 
HETATM   18  F1  UNL     1     -26.990 -39.749  18.890  1.00  0.00    -0.239 F 
HETATM   19  N3  UNL     1     -27.673 -40.499  15.658  1.00  0.00    -0.351 N 
HETATM   20  O4  UNL     1     -28.588 -41.587  17.538  1.00  0.00    -0.270 OA
ATOM     21  H3  UNL     1     -27.654 -41.255  14.974  1.00  0.00     0.163 HD
BRANCH  15  22
HETATM   22  C2  UNL     1     -25.303 -38.947  16.895  1.00  0.00     0.006 C 
HETATM   23  C1  UNL     1     -24.566 -38.144  17.884  1.00  0.00     0.005 C 
ENDBRANCH  15  22
ENDBRANCH  13  14
ENDBRANCH  12  13
ENDBRANCH   1  12
BRANCH   9  24
HETATM   24  O3  UNL     1     -23.184 -38.640   9.892  1.00  0.00    -0.355 OA
HETATM   25  C14 UNL     1     -22.596 -38.274  11.131  1.00  0.00     0.210 C 
ENDBRANCH   9  24
BRANCH   8  26
HETATM   26  C12 UNL     1     -24.266 -38.950   7.378  1.00  0.00     0.267 C 
HETATM   27  N2  UNL     1     -24.166 -37.726   6.674  1.00  0.00    -0.057 NA
HETATM   28  O2  UNL     1     -23.618 -39.926   6.943  1.00  0.00    -0.271 OA
ENDBRANCH   8  26
TORSDOF 6
ENDMDL
