MODEL 1
REMARK VINA RESULT: -9.276188402      0.000      0.000
REMARK  5 active torsions:
REMARK  status: ('A' for Active; 'I' for Inactive)
REMARK    1  A    between atoms: N1_7  and  C6_8 
REMARK    2  A    between atoms: C8_10  and  C9_11 
REMARK    3  A    between atoms: C9_11  and  S1_12 
REMARK    4  A    between atoms: S1_12  and  C10_15 
REMARK    5  A    between atoms: C15_22  and  C16_23 
ROOT
HETATM    1  C6  UNL     1      -2.924  -9.578  18.757  1.00  0.00     0.107 A 
HETATM    2  C7  UNL     1      -2.391  -8.319  18.560  1.00  0.00     0.075 A 
HETATM    3  C8  UNL     1      -2.363  -7.428  19.627  1.00  0.00     0.038 A 
HETATM    4  N2  UNL     1      -2.853  -7.832  20.789  1.00  0.00    -0.343 N 
ATOM      5  H2  UNL     1      -2.840  -7.186  21.578  1.00  0.00     0.167 HD
HETATM    6  C15 UNL     1      -3.370  -9.066  20.968  1.00  0.00     0.118 A 
HETATM    7  N4  UNL     1      -3.395  -9.933  19.930  1.00  0.00    -0.328 N 
ATOM      8  H4  UNL     1      -3.783 -10.868  20.059  1.00  0.00     0.169 HD
ENDROOT
BRANCH   6   9
HETATM    9  C16 UNL     1      -3.994  -9.537  22.209  1.00  0.00     0.021 A 
HETATM   10  C17 UNL     1      -3.647  -8.917  23.400  1.00  0.00     0.016 A 
HETATM   11  C18 UNL     1      -4.123  -9.403  24.583  1.00  0.00     0.003 A 
HETATM   12  C19 UNL     1      -4.946 -10.507  24.560  1.00  0.00     0.030 A 
HETATM   13  C20 UNL     1      -5.283 -11.108  23.366  1.00  0.00     0.043 A 
HETATM   14  N3  UNL     1      -6.050 -12.187  23.072  1.00  0.00    -0.365 N 
HETATM   15  C23 UNL     1      -4.807 -10.630  22.147  1.00  0.00     0.006 A 
HETATM   16  C21 UNL     1      -6.080 -12.414  21.734  1.00  0.00     0.089 A 
ATOM     17  H3  UNL     1      -6.539 -12.753  23.765  1.00  0.00     0.165 HD
HETATM   18  C22 UNL     1      -5.299 -11.435  21.139  1.00  0.00     0.031 A 
ENDBRANCH   6   9
BRANCH   3  19
HETATM   19  C9  UNL     1      -1.731  -6.108  19.346  1.00  0.00     0.107 A 
HETATM   20  C13 UNL     1      -1.722  -5.522  18.017  1.00  0.00     0.034 A 
HETATM   21  C14 UNL     1      -2.779  -5.057  18.935  1.00  0.00     0.034 A 
BRANCH  19  22
HETATM   22  S1  UNL     1      -0.654  -5.552  20.621  1.00  0.00     0.169 S 
HETATM   23  O2  UNL     1      -1.507  -5.248  21.836  1.00  0.00    -0.226 OA
HETATM   24  O3  UNL     1       0.047  -4.294  20.231  1.00  0.00    -0.226 OA
BRANCH  22  25
HETATM   25  C10 UNL     1       0.540  -6.731  21.140  1.00  0.00     0.154 A 
HETATM   26  C11 UNL     1       0.319  -7.529  22.337  1.00  0.00    -0.005 A 
HETATM   27  C12 UNL     1       1.212  -6.545  22.484  1.00  0.00    -0.005 A 
ENDBRANCH  22  25
ENDBRANCH  19  22
ENDBRANCH   3  19
BRANCH   1  28
HETATM   28  N1  UNL     1      -2.941 -10.430  17.622  1.00  0.00    -0.359 N 
HETATM   29  C2  UNL     1      -2.998 -11.865  17.845  1.00  0.00     0.105 C 
HETATM   30  C1  UNL     1      -1.706 -12.344  18.391  1.00  0.00     0.034 C 
HETATM   31  C3  UNL     1      -3.408 -12.475  16.524  1.00  0.00     0.192 C 
HETATM   32  O1  UNL     1      -2.554 -12.201  15.488  1.00  0.00    -0.388 OA
HETATM   33  C4  UNL     1      -2.192 -10.883  15.345  1.00  0.00     0.187 C 
HETATM   34  C5  UNL     1      -2.940  -9.947  16.276  1.00  0.00     0.151 C 
ENDBRANCH   1  28
TORSDOF 5
ENDMDL
