MODEL 2
REMARK VINA RESULT: -9.175776558      1.091      1.291
REMARK  5 active torsions:
REMARK  status: ('A' for Active; 'I' for Inactive)
REMARK    1  A    between atoms: N1_7  and  C6_8 
REMARK    2  A    between atoms: C8_10  and  C9_11 
REMARK    3  A    between atoms: C9_11  and  S1_12 
REMARK    4  A    between atoms: S1_12  and  C10_15 
REMARK    5  A    between atoms: C15_22  and  C16_23 
ROOT
HETATM    1  C6  UNL     1      -2.863  -9.651  18.756  1.00  0.00     0.107 A 
HETATM    2  C7  UNL     1      -2.196  -8.449  18.614  1.00  0.00     0.075 A 
HETATM    3  C8  UNL     1      -2.086  -7.608  19.717  1.00  0.00     0.038 A 
HETATM    4  N2  UNL     1      -2.631  -8.003  20.857  1.00  0.00    -0.343 N 
ATOM      5  H2  UNL     1      -2.559  -7.394  21.672  1.00  0.00     0.167 HD
HETATM    6  C15 UNL     1      -3.279  -9.180  20.983  1.00  0.00     0.118 A 
HETATM    7  N4  UNL     1      -3.384  -9.998  19.910  1.00  0.00    -0.328 N 
ATOM      8  H4  UNL     1      -3.871 -10.890  19.998  1.00  0.00     0.169 HD
ENDROOT
BRANCH   6   9
HETATM    9  C16 UNL     1      -3.965  -9.630  22.198  1.00  0.00     0.021 A 
HETATM   10  C17 UNL     1      -3.652  -9.012  23.400  1.00  0.00     0.016 A 
HETATM   11  C18 UNL     1      -4.189  -9.481  24.564  1.00  0.00     0.003 A 
HETATM   12  C19 UNL     1      -5.037 -10.565  24.512  1.00  0.00     0.030 A 
HETATM   13  C20 UNL     1      -5.339 -11.163  23.307  1.00  0.00     0.043 A 
HETATM   14  N3  UNL     1      -6.120 -12.225  22.986  1.00  0.00    -0.365 N 
HETATM   15  C23 UNL     1      -4.802 -10.703  22.107  1.00  0.00     0.006 A 
HETATM   16  C21 UNL     1      -6.100 -12.458  21.649  1.00  0.00     0.089 A 
ATOM     17  H3  UNL     1      -6.651 -12.775  23.660  1.00  0.00     0.165 HD
HETATM   18  C22 UNL     1      -5.271 -11.501  21.082  1.00  0.00     0.031 A 
ENDBRANCH   6   9
BRANCH   3  19
HETATM   19  C9  UNL     1      -1.313  -6.354  19.494  1.00  0.00     0.107 A 
HETATM   20  C13 UNL     1      -1.309  -5.665  18.215  1.00  0.00     0.034 A 
HETATM   21  C14 UNL     1      -2.245  -5.156  19.234  1.00  0.00     0.034 A 
BRANCH  19  22
HETATM   22  S1  UNL     1      -0.104  -6.037  20.732  1.00  0.00     0.169 S 
HETATM   23  O2  UNL     1       0.589  -7.350  21.036  1.00  0.00    -0.226 OA
HETATM   24  O3  UNL     1      -0.732  -5.551  21.994  1.00  0.00    -0.226 OA
BRANCH  22  25
HETATM   25  C10 UNL     1       1.158  -4.913  20.254  1.00  0.00     0.154 A 
HETATM   26  C11 UNL     1       1.702  -3.961  21.211  1.00  0.00    -0.005 A 
HETATM   27  C12 UNL     1       0.871  -3.427  20.312  1.00  0.00    -0.005 A 
ENDBRANCH  22  25
ENDBRANCH  19  22
ENDBRANCH   3  19
BRANCH   1  28
HETATM   28  N1  UNL     1      -2.957 -10.450  17.588  1.00  0.00    -0.359 N 
HETATM   29  C2  UNL     1      -3.112 -11.886  17.752  1.00  0.00     0.105 C 
HETATM   30  C1  UNL     1      -1.850 -12.477  18.256  1.00  0.00     0.034 C 
HETATM   31  C3  UNL     1      -3.584 -12.409  16.415  1.00  0.00     0.192 C 
HETATM   32  O1  UNL     1      -2.728 -12.153  15.376  1.00  0.00    -0.388 OA
HETATM   33  C4  UNL     1      -2.275 -10.859  15.281  1.00  0.00     0.187 C 
HETATM   34  C5  UNL     1      -2.941  -9.913  16.263  1.00  0.00     0.151 C 
ENDBRANCH   1  28
TORSDOF 5
ENDMDL
