MODEL 8
REMARK VINA RESULT: -8.368849409      2.628      6.002
REMARK  5 active torsions:
REMARK  status: ('A' for Active; 'I' for Inactive)
REMARK    1  A    between atoms: N1_7  and  C6_8 
REMARK    2  A    between atoms: C8_10  and  C9_11 
REMARK    3  A    between atoms: C9_11  and  S1_12 
REMARK    4  A    between atoms: S1_12  and  C10_15 
REMARK    5  A    between atoms: C15_22  and  C16_23 
ROOT
HETATM    1  C6  UNL     1      -1.915  -6.761  22.574  1.00  0.00     0.107 A 
HETATM    2  C7  UNL     1      -1.125  -6.035  21.704  1.00  0.00     0.075 A 
HETATM    3  C8  UNL     1      -1.048  -6.437  20.374  1.00  0.00     0.038 A 
HETATM    4  N2  UNL     1      -1.741  -7.503  20.005  1.00  0.00    -0.343 N 
ATOM      5  H2  UNL     1      -1.692  -7.808  19.033  1.00  0.00     0.167 HD
HETATM    6  C15 UNL     1      -2.510  -8.202  20.866  1.00  0.00     0.118 A 
HETATM    7  N4  UNL     1      -2.585  -7.810  22.159  1.00  0.00    -0.328 N 
ATOM      8  H4  UNL     1      -3.166  -8.332  22.815  1.00  0.00     0.169 HD
ENDROOT
BRANCH   6   9
HETATM    9  C16 UNL     1      -3.235  -9.432  20.529  1.00  0.00     0.021 A 
HETATM   10  C17 UNL     1      -4.251  -9.852  21.374  1.00  0.00     0.016 A 
HETATM   11  C18 UNL     1      -4.869 -11.048  21.149  1.00  0.00     0.003 A 
HETATM   12  C19 UNL     1      -4.464 -11.812  20.078  1.00  0.00     0.030 A 
HETATM   13  C20 UNL     1      -3.454 -11.374  19.247  1.00  0.00     0.043 A 
HETATM   14  N3  UNL     1      -2.871 -11.925  18.152  1.00  0.00    -0.365 N 
HETATM   15  C23 UNL     1      -2.808 -10.158  19.457  1.00  0.00     0.006 A 
HETATM   16  C21 UNL     1      -1.892 -11.121  17.665  1.00  0.00     0.089 A 
ATOM     17  H3  UNL     1      -3.134 -12.824  17.749  1.00  0.00     0.165 HD
HETATM   18  C22 UNL     1      -1.844 -10.000  18.482  1.00  0.00     0.031 A 
ENDBRANCH   6   9
BRANCH   3  19
HETATM   19  C9  UNL     1      -0.213  -5.576  19.489  1.00  0.00     0.107 A 
HETATM   20  C13 UNL     1       1.142  -5.190  19.841  1.00  0.00     0.034 A 
HETATM   21  C14 UNL     1       1.000  -6.346  18.937  1.00  0.00     0.034 A 
BRANCH  19  22
HETATM   22  S1  UNL     1      -1.130  -4.739  18.243  1.00  0.00     0.169 S 
HETATM   23  O2  UNL     1      -2.268  -5.651  17.828  1.00  0.00    -0.226 OA
HETATM   24  O3  UNL     1      -0.295  -4.477  17.036  1.00  0.00    -0.226 OA
BRANCH  22  25
HETATM   25  C10 UNL     1      -1.871  -3.234  18.763  1.00  0.00     0.154 A 
HETATM   26  C11 UNL     1      -1.712  -2.765  20.131  1.00  0.00    -0.005 A 
HETATM   27  C12 UNL     1      -2.916  -3.275  19.857  1.00  0.00    -0.005 A 
ENDBRANCH  22  25
ENDBRANCH  19  22
ENDBRANCH   3  19
BRANCH   1  28
HETATM   28  N1  UNL     1      -1.931  -6.309  23.919  1.00  0.00    -0.359 N 
HETATM   29  C2  UNL     1      -0.725  -6.481  24.713  1.00  0.00     0.105 C 
HETATM   30  C1  UNL     1      -0.524  -7.916  25.023  1.00  0.00     0.034 C 
HETATM   31  C3  UNL     1      -0.884  -5.576  25.913  1.00  0.00     0.192 C 
HETATM   32  O1  UNL     1      -1.986  -5.848  26.681  1.00  0.00    -0.388 OA
HETATM   33  C4  UNL     1      -3.169  -5.993  25.998  1.00  0.00     0.187 C 
HETATM   34  C5  UNL     1      -3.057  -5.665  24.521  1.00  0.00     0.151 C 
ENDBRANCH   1  28
TORSDOF 5
ENDMDL
