MODEL 7
REMARK VINA RESULT: -8.371068151      2.954      5.204
REMARK  5 active torsions:
REMARK  status: ('A' for Active; 'I' for Inactive)
REMARK    1  A    between atoms: N1_7  and  C6_8 
REMARK    2  A    between atoms: C8_10  and  C9_11 
REMARK    3  A    between atoms: C9_11  and  S1_12 
REMARK    4  A    between atoms: S1_12  and  C10_15 
REMARK    5  A    between atoms: C15_22  and  C16_23 
ROOT
HETATM    1  C6  UNL     1      -1.922  -6.294  20.351  1.00  0.00     0.107 A 
HETATM    2  C7  UNL     1      -1.981  -5.788  21.635  1.00  0.00     0.075 A 
HETATM    3  C8  UNL     1      -2.556  -6.563  22.637  1.00  0.00     0.038 A 
HETATM    4  N2  UNL     1      -3.024  -7.757  22.308  1.00  0.00    -0.343 N 
ATOM      5  H2  UNL     1      -3.450  -8.334  23.034  1.00  0.00     0.167 HD
HETATM    6  C15 UNL     1      -2.959  -8.240  21.050  1.00  0.00     0.118 A 
HETATM    7  N4  UNL     1      -2.398  -7.486  20.077  1.00  0.00    -0.328 N 
ATOM      8  H4  UNL     1      -2.343  -7.846  19.123  1.00  0.00     0.169 HD
ENDROOT
BRANCH   6   9
HETATM    9  C16 UNL     1      -3.529  -9.521  20.617  1.00  0.00     0.021 A 
HETATM   10  C17 UNL     1      -4.577 -10.059  21.349  1.00  0.00     0.016 A 
HETATM   11  C18 UNL     1      -5.055 -11.299  21.039  1.00  0.00     0.003 A 
HETATM   12  C19 UNL     1      -4.477 -11.989  19.997  1.00  0.00     0.030 A 
HETATM   13  C20 UNL     1      -3.438 -11.436  19.279  1.00  0.00     0.043 A 
HETATM   14  N3  UNL     1      -2.704 -11.896  18.235  1.00  0.00    -0.365 N 
HETATM   15  C23 UNL     1      -2.934 -10.172  19.577  1.00  0.00     0.006 A 
HETATM   16  C21 UNL     1      -1.763 -10.991  17.864  1.00  0.00     0.089 A 
ATOM     17  H3  UNL     1      -2.841 -12.803  17.789  1.00  0.00     0.165 HD
HETATM   18  C22 UNL     1      -1.900  -9.896  18.705  1.00  0.00     0.031 A 
ENDBRANCH   6   9
BRANCH   3  19
HETATM   19  C9  UNL     1      -2.540  -5.965  24.002  1.00  0.00     0.107 A 
HETATM   20  C13 UNL     1      -2.183  -4.576  24.234  1.00  0.00     0.034 A 
HETATM   21  C14 UNL     1      -3.623  -4.882  24.156  1.00  0.00     0.034 A 
BRANCH  19  22
HETATM   22  S1  UNL     1      -2.559  -7.155  25.297  1.00  0.00     0.169 S 
HETATM   23  O2  UNL     1      -3.576  -8.216  24.923  1.00  0.00    -0.226 OA
HETATM   24  O3  UNL     1      -2.990  -6.547  26.589  1.00  0.00    -0.226 OA
BRANCH  22  25
HETATM   25  C10 UNL     1      -1.037  -7.997  25.544  1.00  0.00     0.154 A 
HETATM   26  C11 UNL     1       0.125  -7.679  24.728  1.00  0.00    -0.005 A 
HETATM   27  C12 UNL     1      -0.474  -8.831  24.412  1.00  0.00    -0.005 A 
ENDBRANCH  22  25
ENDBRANCH  19  22
ENDBRANCH   3  19
BRANCH   1  28
HETATM   28  N1  UNL     1      -1.342  -5.444  19.375  1.00  0.00    -0.359 N 
HETATM   29  C2  UNL     1      -0.374  -6.019  18.456  1.00  0.00     0.105 C 
HETATM   30  C1  UNL     1       0.885  -6.328  19.174  1.00  0.00     0.034 C 
HETATM   31  C3  UNL     1      -0.244  -5.033  17.318  1.00  0.00     0.192 C 
HETATM   32  O1  UNL     1       0.167  -3.783  17.700  1.00  0.00    -0.388 OA
HETATM   33  C4  UNL     1      -0.501  -3.235  18.768  1.00  0.00     0.187 C 
HETATM   34  C5  UNL     1      -1.686  -4.064  19.228  1.00  0.00     0.151 C 
ENDBRANCH   1  28
TORSDOF 5
ENDMDL
