MODEL 6
REMARK VINA RESULT: -8.404359117      2.649      5.956
REMARK  5 active torsions:
REMARK  status: ('A' for Active; 'I' for Inactive)
REMARK    1  A    between atoms: N1_7  and  C6_8 
REMARK    2  A    between atoms: C8_10  and  C9_11 
REMARK    3  A    between atoms: C9_11  and  S1_12 
REMARK    4  A    between atoms: S1_12  and  C10_15 
REMARK    5  A    between atoms: C15_22  and  C16_23 
ROOT
HETATM    1  C6  UNL     1      -1.792  -8.075  21.917  1.00  0.00     0.107 A 
HETATM    2  C7  UNL     1      -1.093  -7.025  21.356  1.00  0.00     0.075 A 
HETATM    3  C8  UNL     1      -0.997  -6.946  19.970  1.00  0.00     0.038 A 
HETATM    4  N2  UNL     1      -1.585  -7.890  19.251  1.00  0.00    -0.343 N 
ATOM      5  H2  UNL     1      -1.520  -7.844  18.235  1.00  0.00     0.167 HD
HETATM    6  C15 UNL     1      -2.266  -8.911  19.813  1.00  0.00     0.118 A 
HETATM    7  N4  UNL     1      -2.360  -8.985  21.161  1.00  0.00    -0.328 N 
ATOM      8  H4  UNL     1      -2.876  -9.753  21.592  1.00  0.00     0.169 HD
ENDROOT
BRANCH   6   9
HETATM    9  C16 UNL     1      -2.870 -10.021  19.068  1.00  0.00     0.021 A 
HETATM   10  C17 UNL     1      -3.599 -10.969  19.771  1.00  0.00     0.016 A 
HETATM   11  C18 UNL     1      -4.078 -12.072  19.126  1.00  0.00     0.003 A 
HETATM   12  C19 UNL     1      -3.823 -12.214  17.781  1.00  0.00     0.030 A 
HETATM   13  C20 UNL     1      -3.099 -11.260  17.099  1.00  0.00     0.043 A 
HETATM   14  N3  UNL     1      -2.707 -11.165  15.803  1.00  0.00    -0.365 N 
HETATM   15  C23 UNL     1      -2.598 -10.126  17.736  1.00  0.00     0.006 A 
HETATM   16  C21 UNL     1      -1.986 -10.034  15.593  1.00  0.00     0.089 A 
ATOM     17  H3  UNL     1      -2.926 -11.852  15.083  1.00  0.00     0.165 HD
HETATM   18  C22 UNL     1      -1.912  -9.369  16.808  1.00  0.00     0.031 A 
ENDBRANCH   6   9
BRANCH   3  19
HETATM   19  C9  UNL     1      -0.267  -5.760  19.442  1.00  0.00     0.107 A 
HETATM   20  C13 UNL     1       0.998  -5.316  20.004  1.00  0.00     0.034 A 
HETATM   21  C14 UNL     1       1.073  -6.163  18.799  1.00  0.00     0.034 A 
BRANCH  19  22
HETATM   22  S1  UNL     1      -1.247  -4.724  18.413  1.00  0.00     0.169 S 
HETATM   23  O2  UNL     1      -2.189  -5.620  17.633  1.00  0.00    -0.226 OA
HETATM   24  O3  UNL     1      -0.406  -3.982  17.429  1.00  0.00    -0.226 OA
BRANCH  22  25
HETATM   25  C10 UNL     1      -2.260  -3.577  19.276  1.00  0.00     0.154 A 
HETATM   26  C11 UNL     1      -2.153  -3.437  20.720  1.00  0.00    -0.005 A 
HETATM   27  C12 UNL     1      -3.237  -4.101  20.307  1.00  0.00    -0.005 A 
ENDBRANCH  22  25
ENDBRANCH  19  22
ENDBRANCH   3  19
BRANCH   1  28
HETATM   28  N1  UNL     1      -1.833  -8.106  23.335  1.00  0.00    -0.359 N 
HETATM   29  C2  UNL     1      -3.018  -7.585  23.997  1.00  0.00     0.105 C 
HETATM   30  C1  UNL     1      -3.065  -6.110  23.863  1.00  0.00     0.034 C 
HETATM   31  C3  UNL     1      -2.964  -8.105  25.415  1.00  0.00     0.192 C 
HETATM   32  O1  UNL     1      -1.844  -7.730  26.110  1.00  0.00    -0.388 OA
HETATM   33  C4  UNL     1      -0.648  -7.915  25.459  1.00  0.00     0.187 C 
HETATM   34  C5  UNL     1      -0.786  -8.653  24.141  1.00  0.00     0.151 C 
ENDBRANCH   1  28
TORSDOF 5
ENDMDL
