MODEL 11
REMARK VINA RESULT: -9.729071699      2.061      2.990
REMARK  9 active torsions:
REMARK  status: ('A' for Active; 'I' for Inactive)
REMARK    1  A    between atoms: C1_2  and  C2_3 
REMARK       I    between atoms: C1_2  and  N2_29 
REMARK    2  A    between atoms: C2_3  and  C3_4 
REMARK    3  A    between atoms: C5_6  and  C6_7 
REMARK    4  A    between atoms: C10_13  and  C11_14 
REMARK    5  A    between atoms: C11_14  and  O2_15 
REMARK    6  A    between atoms: O2_15  and  C12_16 
REMARK    7  A    between atoms: N2_29  and  C22_31 
REMARK    8  A    between atoms: C22_31  and  C23_32 
REMARK    9  A    between atoms: C23_32  and  C24_33 
ROOT
HETATM    1  C3  UNL     1      12.981  -4.707  53.146  1.00  0.00    -0.010 A 
HETATM    2  C4  UNL     1      13.308  -3.363  53.087  1.00  0.00     0.018 A 
HETATM    3  C5  UNL     1      14.072  -2.773  54.095  1.00  0.00    -0.052 A 
HETATM    4  C19 UNL     1      14.518  -3.509  55.166  1.00  0.00     0.011 A 
HETATM    5  C20 UNL     1      14.193  -4.870  55.232  1.00  0.00     0.043 A 
HETATM    6  C21 UNL     1      13.434  -5.435  54.223  1.00  0.00     0.123 A 
HETATM    7  F1  UNL     1      13.109  -6.761  54.282  1.00  0.00    -0.206 F 
ENDROOT
BRANCH   3   8
HETATM    8  C6  UNL     1      14.377  -1.330  53.970  1.00  0.00     0.034 C 
HETATM    9  C7  UNL     1      14.474  -0.783  52.618  1.00  0.00     0.054 C 
HETATM   10  C8  UNL     1      15.796  -0.759  51.934  1.00  0.00     0.061 C 
HETATM   11  N1  UNL     1      16.905  -0.739  52.784  1.00  0.00    -0.382 N 
HETATM   12  C9  UNL     1      16.863  -1.275  54.074  1.00  0.00     0.067 C 
ATOM     13  H1  UNL     1      17.773  -0.320  52.452  1.00  0.00     0.164 HD
HETATM   14  C10 UNL     1      15.599  -0.983  54.839  1.00  0.00     0.057 C 
BRANCH  14  15
HETATM   15  C11 UNL     1      15.508   0.438  55.309  1.00  0.00     0.186 C 
BRANCH  15  16
HETATM   16  O2  UNL     1      16.390   1.297  54.646  1.00  0.00    -0.350 OA
BRANCH  16  17
HETATM   17  C12 UNL     1      15.937   2.530  54.208  1.00  0.00     0.071 A 
HETATM   18  C13 UNL     1      14.599   2.660  53.814  1.00  0.00     0.039 A 
HETATM   19  C14 UNL     1      14.056   3.826  53.370  1.00  0.00     0.042 A 
HETATM   20  C15 UNL     1      14.843   4.968  53.293  1.00  0.00     0.105 A 
HETATM   21  C16 UNL     1      16.173   4.872  53.678  1.00  0.00     0.107 A 
HETATM   22  O4  UNL     1      14.598   6.285  52.893  1.00  0.00    -0.323 OA
HETATM   23  C17 UNL     1      16.712   3.666  54.129  1.00  0.00     0.076 A 
HETATM   24  O3  UNL     1      16.726   6.132  53.508  1.00  0.00    -0.323 OA
HETATM   25  C18 UNL     1      15.710   7.084  53.263  1.00  0.00     0.352 C 
ENDBRANCH  16  17
ENDBRANCH  15  16
ENDBRANCH  14  15
ENDBRANCH   3   8
BRANCH   1  26
HETATM   26  C2  UNL     1      12.135  -5.316  52.067  1.00  0.00     0.144 C 
BRANCH  26  27
HETATM   27  C1  UNL     1      12.263  -4.662  50.761  1.00  0.00     0.221 C 
HETATM   28  O1  UNL     1      13.127  -5.029  49.950  1.00  0.00    -0.273 OA
HETATM   29  N2  UNL     1      11.389  -3.601  50.425  1.00  0.00    -0.360 N 
ATOM     30  H2  UNL     1      10.699  -3.321  51.122  1.00  0.00     0.162 HD
BRANCH  29  31
HETATM   31  C22 UNL     1      11.400  -2.890  49.178  1.00  0.00     0.127 C 
BRANCH  31  32
HETATM   32  C23 UNL     1      11.925  -1.474  49.347  1.00  0.00     0.061 C 
BRANCH  32  33
HETATM   33  C24 UNL     1      13.278  -1.301  48.745  1.00  0.00    -0.023 A 
HETATM   34  C25 UNL     1      13.966  -2.209  47.965  1.00  0.00     0.115 A 
HETATM   35  N3  UNL     1      15.136  -1.647  47.648  1.00  0.00    -0.312 N 
HETATM   36  N4  UNL     1      15.226  -0.428  48.188  1.00  0.00    -0.312 N 
ATOM     37  H3  UNL     1      15.858  -2.086  47.077  1.00  0.00     0.186 HD
HETATM   38  C26 UNL     1      14.083  -0.178  48.882  1.00  0.00     0.115 A 
ATOM     39  H4  UNL     1      16.018   0.207  48.096  1.00  0.00     0.186 HD
ENDBRANCH  32  33
ENDBRANCH  31  32
ENDBRANCH  29  31
ENDBRANCH  26  27
ENDBRANCH   1  26
TORSDOF 9
ENDMDL
