MODEL 10
REMARK VINA RESULT: -9.872494370      3.074      8.114
REMARK  9 active torsions:
REMARK  status: ('A' for Active; 'I' for Inactive)
REMARK    1  A    between atoms: C1_2  and  C2_3 
REMARK       I    between atoms: C1_2  and  N2_29 
REMARK    2  A    between atoms: C2_3  and  C3_4 
REMARK    3  A    between atoms: C5_6  and  C6_7 
REMARK    4  A    between atoms: C10_13  and  C11_14 
REMARK    5  A    between atoms: C11_14  and  O2_15 
REMARK    6  A    between atoms: O2_15  and  C12_16 
REMARK    7  A    between atoms: N2_29  and  C22_31 
REMARK    8  A    between atoms: C22_31  and  C23_32 
REMARK    9  A    between atoms: C23_32  and  C24_33 
ROOT
HETATM    1  C3  UNL     1      14.866  -0.365  50.069  1.00  0.00    -0.010 A 
HETATM    2  C4  UNL     1      14.292  -1.576  50.416  1.00  0.00     0.018 A 
HETATM    3  C5  UNL     1      13.915  -2.491  49.432  1.00  0.00    -0.052 A 
HETATM    4  C19 UNL     1      14.104  -2.214  48.099  1.00  0.00     0.011 A 
HETATM    5  C20 UNL     1      14.685  -0.991  47.740  1.00  0.00     0.043 A 
HETATM    6  C21 UNL     1      15.051  -0.098  48.731  1.00  0.00     0.123 A 
HETATM    7  F1  UNL     1      15.614   1.100  48.389  1.00  0.00    -0.206 F 
ENDROOT
BRANCH   3   8
HETATM    8  C6  UNL     1      13.302  -3.763  49.875  1.00  0.00     0.034 C 
HETATM    9  C7  UNL     1      13.232  -4.848  48.897  1.00  0.00     0.054 C 
HETATM   10  C8  UNL     1      12.023  -4.976  48.037  1.00  0.00     0.061 C 
HETATM   11  N1  UNL     1      10.853  -4.431  48.572  1.00  0.00    -0.382 N 
HETATM   12  C9  UNL     1      10.874  -3.377  49.489  1.00  0.00     0.067 C 
ATOM     13  H1  UNL     1       9.953  -4.815  48.283  1.00  0.00     0.164 HD
HETATM   14  C10 UNL     1      11.945  -3.478  50.543  1.00  0.00     0.057 C 
BRANCH  14  15
HETATM   15  C11 UNL     1      11.655  -4.520  51.582  1.00  0.00     0.186 C 
BRANCH  15  16
HETATM   16  O2  UNL     1      11.505  -3.991  52.868  1.00  0.00    -0.350 OA
BRANCH  16  17
HETATM   17  C12 UNL     1      12.521  -3.219  53.407  1.00  0.00     0.071 A 
HETATM   18  C13 UNL     1      13.748  -3.825  53.703  1.00  0.00     0.039 A 
HETATM   19  C14 UNL     1      14.808  -3.156  54.234  1.00  0.00     0.042 A 
HETATM   20  C15 UNL     1      14.700  -1.798  54.506  1.00  0.00     0.105 A 
HETATM   21  C16 UNL     1      13.497  -1.169  54.221  1.00  0.00     0.107 A 
HETATM   22  O4  UNL     1      15.577  -0.847  55.035  1.00  0.00    -0.323 OA
HETATM   23  C17 UNL     1      12.420  -1.872  53.679  1.00  0.00     0.076 A 
HETATM   24  O3  UNL     1      13.651   0.161  54.580  1.00  0.00    -0.323 OA
HETATM   25  C18 UNL     1      15.011   0.441  54.850  1.00  0.00     0.352 C 
ENDBRANCH  16  17
ENDBRANCH  15  16
ENDBRANCH  14  15
ENDBRANCH   3   8
BRANCH   1  26
HETATM   26  C2  UNL     1      15.238   0.617  51.140  1.00  0.00     0.144 C 
BRANCH  26  27
HETATM   27  C1  UNL     1      14.159   1.535  51.514  1.00  0.00     0.221 C 
HETATM   28  O1  UNL     1      12.970   1.198  51.400  1.00  0.00    -0.273 OA
HETATM   29  N2  UNL     1      14.480   2.820  52.014  1.00  0.00    -0.360 N 
ATOM     30  H2  UNL     1      15.467   3.065  52.083  1.00  0.00     0.162 HD
BRANCH  29  31
HETATM   31  C22 UNL     1      13.521   3.805  52.429  1.00  0.00     0.127 C 
BRANCH  31  32
HETATM   32  C23 UNL     1      13.866   4.379  53.793  1.00  0.00     0.061 C 
BRANCH  32  33
HETATM   33  C24 UNL     1      14.967   5.382  53.718  1.00  0.00    -0.023 A 
HETATM   34  C25 UNL     1      16.323   5.140  53.799  1.00  0.00     0.115 A 
HETATM   35  N3  UNL     1      16.940   6.320  53.693  1.00  0.00    -0.312 N 
HETATM   36  N4  UNL     1      16.044   7.300  53.548  1.00  0.00    -0.312 N 
ATOM     37  H3  UNL     1      17.952   6.454  53.719  1.00  0.00     0.186 HD
HETATM   38  C26 UNL     1      14.799   6.752  53.560  1.00  0.00     0.115 A 
ATOM     39  H4  UNL     1      16.258   8.292  53.446  1.00  0.00     0.186 HD
ENDBRANCH  32  33
ENDBRANCH  31  32
ENDBRANCH  29  31
ENDBRANCH  26  27
ENDBRANCH   1  26
TORSDOF 9
ENDMDL
