MODEL 5
REMARK VINA RESULT: -10.199637537      2.745      4.771
REMARK  9 active torsions:
REMARK  status: ('A' for Active; 'I' for Inactive)
REMARK    1  A    between atoms: C1_2  and  C2_3 
REMARK       I    between atoms: C1_2  and  N2_29 
REMARK    2  A    between atoms: C2_3  and  C3_4 
REMARK    3  A    between atoms: C5_6  and  C6_7 
REMARK    4  A    between atoms: C10_13  and  C11_14 
REMARK    5  A    between atoms: C11_14  and  O2_15 
REMARK    6  A    between atoms: O2_15  and  C12_16 
REMARK    7  A    between atoms: N2_29  and  C22_31 
REMARK    8  A    between atoms: C22_31  and  C23_32 
REMARK    9  A    between atoms: C23_32  and  C24_33 
ROOT
HETATM    1  C3  UNL     1      12.268  -3.185  49.681  1.00  0.00    -0.010 A 
HETATM    2  C4  UNL     1      12.657  -1.968  50.211  1.00  0.00     0.018 A 
HETATM    3  C5  UNL     1      13.626  -1.192  49.573  1.00  0.00    -0.052 A 
HETATM    4  C19 UNL     1      14.215  -1.617  48.406  1.00  0.00     0.011 A 
HETATM    5  C20 UNL     1      13.826  -2.848  47.863  1.00  0.00     0.043 A 
HETATM    6  C21 UNL     1      12.864  -3.601  48.512  1.00  0.00     0.123 A 
HETATM    7  F1  UNL     1      12.482  -4.805  47.990  1.00  0.00    -0.206 F 
ENDROOT
BRANCH   3   8
HETATM    8  C6  UNL     1      13.997   0.096  50.200  1.00  0.00     0.034 C 
HETATM    9  C7  UNL     1      15.053   0.874  49.553  1.00  0.00     0.054 C 
HETATM   10  C8  UNL     1      16.468   0.669  49.971  1.00  0.00     0.061 C 
HETATM   11  N1  UNL     1      16.641   0.189  51.271  1.00  0.00    -0.382 N 
HETATM   12  C9  UNL     1      15.668  -0.580  51.916  1.00  0.00     0.067 C 
ATOM     13  H1  UNL     1      17.506   0.406  51.766  1.00  0.00     0.164 HD
HETATM   14  C10 UNL     1      14.252  -0.115  51.703  1.00  0.00     0.057 C 
BRANCH  14  15
HETATM   15  C11 UNL     1      13.921   1.137  52.461  1.00  0.00     0.186 C 
BRANCH  15  16
HETATM   16  O2  UNL     1      14.956   1.567  53.295  1.00  0.00    -0.350 OA
BRANCH  16  17
HETATM   17  C12 UNL     1      15.207   2.923  53.422  1.00  0.00     0.071 A 
HETATM   18  C13 UNL     1      16.535   3.363  53.487  1.00  0.00     0.039 A 
HETATM   19  C14 UNL     1      16.888   4.672  53.611  1.00  0.00     0.042 A 
HETATM   20  C15 UNL     1      15.903   5.649  53.678  1.00  0.00     0.105 A 
HETATM   21  C16 UNL     1      14.578   5.244  53.613  1.00  0.00     0.107 A 
HETATM   22  O4  UNL     1      15.930   7.041  53.801  1.00  0.00    -0.323 OA
HETATM   23  C17 UNL     1      14.235   3.897  53.488  1.00  0.00     0.076 A 
HETATM   24  O3  UNL     1      13.808   6.395  53.699  1.00  0.00    -0.323 OA
HETATM   25  C18 UNL     1      14.624   7.541  53.561  1.00  0.00     0.352 C 
ENDBRANCH  16  17
ENDBRANCH  15  16
ENDBRANCH  14  15
ENDBRANCH   3   8
BRANCH   1  26
HETATM   26  C2  UNL     1      11.245  -4.017  50.397  1.00  0.00     0.144 C 
BRANCH  26  27
HETATM   27  C1  UNL     1      11.731  -4.629  51.638  1.00  0.00     0.221 C 
HETATM   28  O1  UNL     1      12.197  -5.779  51.638  1.00  0.00    -0.273 OA
HETATM   29  N2  UNL     1      11.666  -3.897  52.847  1.00  0.00    -0.360 N 
ATOM     30  H2  UNL     1      11.267  -2.959  52.809  1.00  0.00     0.162 HD
BRANCH  29  31
HETATM   31  C22 UNL     1      12.120  -4.373  54.123  1.00  0.00     0.127 C 
BRANCH  31  32
HETATM   32  C23 UNL     1      13.637  -4.398  54.202  1.00  0.00     0.061 C 
BRANCH  32  33
HETATM   33  C24 UNL     1      14.195  -3.109  54.700  1.00  0.00    -0.023 A 
HETATM   34  C25 UNL     1      13.584  -1.871  54.678  1.00  0.00     0.115 A 
HETATM   35  N3  UNL     1      14.443  -1.000  55.216  1.00  0.00    -0.312 N 
HETATM   36  N4  UNL     1      15.568  -1.622  55.579  1.00  0.00    -0.312 N 
ATOM     37  H3  UNL     1      14.264  -0.002  55.332  1.00  0.00     0.186 HD
HETATM   38  C26 UNL     1      15.450  -2.942  55.271  1.00  0.00     0.115 A 
ATOM     39  H4  UNL     1      16.378  -1.181  56.014  1.00  0.00     0.186 HD
ENDBRANCH  32  33
ENDBRANCH  31  32
ENDBRANCH  29  31
ENDBRANCH  26  27
ENDBRANCH   1  26
TORSDOF 9
ENDMDL
