MODEL 5
REMARK VINA RESULT: -8.377596414      1.081      1.240
REMARK  12 active torsions:
REMARK  status: ('A' for Active; 'I' for Inactive)
REMARK    1  A    between atoms: C2_2  and  C3_3 
REMARK    2  A    between atoms: C3_3  and  C4_4 
REMARK    3  A    between atoms: C4_4  and  C5_5 
REMARK    4  A    between atoms: C4_4  and  C8_8 
REMARK    5  A    between atoms: C5_5  and  C6_6 
REMARK    6  A    between atoms: C8_8  and  O1_9 
REMARK    7  A    between atoms: O1_9  and  C9_10 
REMARK    8  A    between atoms: C13_14  and  C14_15 
REMARK    9  A    between atoms: C14_15  and  O2_16 
REMARK   10  A    between atoms: C14_15  and  C15_18 
REMARK   11  A    between atoms: C15_18  and  C16_19 
REMARK   12  A    between atoms: C16_19  and  N1_20 
ROOT
HETATM    1  C9  UNL     1     -54.344 113.798 -41.871  1.00  0.00     0.069 A 
HETATM    2  C10 UNL     1     -54.106 113.744 -43.255  1.00  0.00     0.037 A 
HETATM    3  C11 UNL     1     -52.837 113.455 -43.674  1.00  0.00     0.003 A 
HETATM    4  C12 UNL     1     -51.819 113.223 -42.775  1.00  0.00     0.010 A 
HETATM    5  C13 UNL     1     -52.018 113.268 -41.411  1.00  0.00    -0.027 A 
HETATM    6  C17 UNL     1     -53.282 113.555 -40.981  1.00  0.00     0.046 A 
ENDROOT
BRANCH   1   7
HETATM    7  O1  UNL     1     -55.522 114.065 -41.408  1.00  0.00    -0.351 OA
BRANCH   7   8
HETATM    8  C8  UNL     1     -56.697 114.330 -40.946  1.00  0.00     0.180 C 
BRANCH   8   9
HETATM    9  C4  UNL     1     -56.771 115.241 -39.674  1.00  0.00     0.010 C 
BRANCH   9  10
HETATM   10  C3  UNL     1     -57.988 114.997 -38.913  1.00  0.00     0.006 C 
BRANCH  10  11
HETATM   11  C2  UNL     1     -59.112 114.227 -39.473  1.00  0.00    -0.004 C 
HETATM   12  C1  UNL     1     -59.620 113.339 -38.301  1.00  0.00     0.005 C 
ENDBRANCH  10  11
ENDBRANCH   9  10
BRANCH   9  13
HETATM   13  C5  UNL     1     -56.297 116.586 -40.006  1.00  0.00     0.006 C 
BRANCH  13  14
HETATM   14  C6  UNL     1     -56.920 117.790 -39.443  1.00  0.00    -0.004 C 
HETATM   15  C7  UNL     1     -56.285 118.984 -40.210  1.00  0.00     0.005 C 
ENDBRANCH  13  14
ENDBRANCH   9  13
ENDBRANCH   8   9
ENDBRANCH   7   8
ENDBRANCH   1   7
BRANCH   5  16
HETATM   16  C14 UNL     1     -50.874 113.007 -40.499  1.00  0.00     0.152 C 
BRANCH  16  17
HETATM   17  O2  UNL     1     -50.890 113.994 -39.514  1.00  0.00    -0.391 OA
ATOM     18  H2  UNL     1     -49.992 114.133 -39.236  1.00  0.00     0.210 HD
ENDBRANCH  16  17
BRANCH  16  19
HETATM   19  C15 UNL     1     -49.544 113.105 -41.211  1.00  0.00     0.064 C 
BRANCH  19  20
HETATM   20  C16 UNL     1     -48.592 112.174 -40.453  1.00  0.00     0.232 C 
BRANCH  20  21
HETATM   21  N1  UNL     1     -48.364 112.643 -39.105  1.00  0.00    -0.079 N 
ATOM     22  H13 UNL     1     -47.368 112.711 -38.895  1.00  0.00     0.274 HD
ATOM     23  H12 UNL     1     -48.612 113.627 -39.004  1.00  0.00     0.274 HD
ATOM     24  H11 UNL     1     -48.852 112.061 -38.424  1.00  0.00     0.274 HD
ENDBRANCH  20  21
ENDBRANCH  19  20
ENDBRANCH  16  19
ENDBRANCH   5  16
TORSDOF 12
ENDMDL
