MODEL 3
REMARK VINA RESULT: -8.449603275      1.259      2.755
REMARK  12 active torsions:
REMARK  status: ('A' for Active; 'I' for Inactive)
REMARK    1  A    between atoms: C2_2  and  C3_3 
REMARK    2  A    between atoms: C3_3  and  C4_4 
REMARK    3  A    between atoms: C4_4  and  C5_5 
REMARK    4  A    between atoms: C4_4  and  C8_8 
REMARK    5  A    between atoms: C5_5  and  C6_6 
REMARK    6  A    between atoms: C8_8  and  O1_9 
REMARK    7  A    between atoms: O1_9  and  C9_10 
REMARK    8  A    between atoms: C13_14  and  C14_15 
REMARK    9  A    between atoms: C14_15  and  O2_16 
REMARK   10  A    between atoms: C14_15  and  C15_18 
REMARK   11  A    between atoms: C15_18  and  C16_19 
REMARK   12  A    between atoms: C16_19  and  N1_20 
ROOT
HETATM    1  C9  UNL     1     -54.356 113.784 -41.951  1.00  0.00     0.069 A 
HETATM    2  C10 UNL     1     -54.067 113.712 -43.325  1.00  0.00     0.037 A 
HETATM    3  C11 UNL     1     -52.779 113.442 -43.694  1.00  0.00     0.003 A 
HETATM    4  C12 UNL     1     -51.789 113.245 -42.756  1.00  0.00     0.010 A 
HETATM    5  C13 UNL     1     -52.039 113.308 -41.400  1.00  0.00    -0.027 A 
HETATM    6  C17 UNL     1     -53.322 113.577 -41.020  1.00  0.00     0.046 A 
ENDROOT
BRANCH   1   7
HETATM    7  O1  UNL     1     -55.555 114.034 -41.536  1.00  0.00    -0.351 OA
BRANCH   7   8
HETATM    8  C8  UNL     1     -56.751 114.284 -41.121  1.00  0.00     0.180 C 
BRANCH   8   9
HETATM    9  C4  UNL     1     -56.891 115.265 -39.907  1.00  0.00     0.010 C 
BRANCH   9  10
HETATM   10  C3  UNL     1     -56.190 116.518 -40.150  1.00  0.00     0.006 C 
BRANCH  10  11
HETATM   11  C2  UNL     1     -56.425 117.712 -39.321  1.00  0.00    -0.004 C 
HETATM   12  C1  UNL     1     -56.263 118.918 -40.290  1.00  0.00     0.005 C 
ENDBRANCH  10  11
ENDBRANCH   9  10
BRANCH   9  13
HETATM   13  C5  UNL     1     -56.772 114.515 -38.655  1.00  0.00     0.006 C 
BRANCH  13  14
HETATM   14  C6  UNL     1     -55.469 114.232 -38.041  1.00  0.00    -0.004 C 
HETATM   15  C7  UNL     1     -55.676 112.937 -37.205  1.00  0.00     0.005 C 
ENDBRANCH  13  14
ENDBRANCH   9  13
ENDBRANCH   8   9
ENDBRANCH   7   8
ENDBRANCH   1   7
BRANCH   5  16
HETATM   16  C14 UNL     1     -50.923 113.085 -40.444  1.00  0.00     0.152 C 
BRANCH  16  17
HETATM   17  O2  UNL     1     -51.003 114.078 -39.468  1.00  0.00    -0.391 OA
ATOM     18  H2  UNL     1     -51.058 113.644 -38.624  1.00  0.00     0.210 HD
ENDBRANCH  16  17
BRANCH  16  19
HETATM   19  C15 UNL     1     -49.570 113.215 -41.107  1.00  0.00     0.064 C 
BRANCH  19  20
HETATM   20  C16 UNL     1     -48.631 112.285 -40.330  1.00  0.00     0.232 C 
BRANCH  20  21
HETATM   21  N1  UNL     1     -48.437 112.748 -38.975  1.00  0.00    -0.079 N 
ATOM     22  H13 UNL     1     -49.271 113.212 -38.615  1.00  0.00     0.274 HD
ATOM     23  H12 UNL     1     -48.393 111.971 -38.316  1.00  0.00     0.274 HD
ATOM     24  H11 UNL     1     -47.614 113.348 -38.905  1.00  0.00     0.274 HD
ENDBRANCH  20  21
ENDBRANCH  19  20
ENDBRANCH  16  19
ENDBRANCH   5  16
TORSDOF 12
ENDMDL
