MODEL 9
REMARK VINA RESULT: -7.906641556      2.950      6.948
REMARK  12 active torsions:
REMARK  status: ('A' for Active; 'I' for Inactive)
REMARK    1  A    between atoms: C2_2  and  C3_3 
REMARK    2  A    between atoms: C3_3  and  C4_4 
REMARK    3  A    between atoms: C4_4  and  C5_5 
REMARK    4  A    between atoms: C4_4  and  C8_8 
REMARK    5  A    between atoms: C5_5  and  C6_6 
REMARK    6  A    between atoms: C8_8  and  O1_9 
REMARK    7  A    between atoms: O1_9  and  C9_10 
REMARK    8  A    between atoms: C13_14  and  C14_15 
REMARK    9  A    between atoms: C14_15  and  O2_16 
REMARK   10  A    between atoms: C14_15  and  C15_18 
REMARK   11  A    between atoms: C15_18  and  C16_19 
REMARK   12  A    between atoms: C16_19  and  N1_20 
ROOT
HETATM    1  C9  UNL     1     -54.239 114.223 -40.416  1.00  0.00     0.069 A 
HETATM    2  C10 UNL     1     -54.385 115.617 -40.526  1.00  0.00     0.037 A 
HETATM    3  C11 UNL     1     -55.110 116.260 -39.561  1.00  0.00     0.003 A 
HETATM    4  C12 UNL     1     -55.682 115.573 -38.513  1.00  0.00     0.010 A 
HETATM    5  C13 UNL     1     -55.557 114.205 -38.376  1.00  0.00    -0.027 A 
HETATM    6  C17 UNL     1     -54.835 113.552 -39.333  1.00  0.00     0.046 A 
ENDROOT
BRANCH   1   7
HETATM    7  O1  UNL     1     -53.564 113.554 -41.294  1.00  0.00    -0.351 OA
BRANCH   7   8
HETATM    8  C8  UNL     1     -52.892 112.886 -42.169  1.00  0.00     0.180 C 
BRANCH   8   9
HETATM    9  C4  UNL     1     -51.354 113.171 -42.252  1.00  0.00     0.010 C 
BRANCH   9  10
HETATM   10  C3  UNL     1     -50.815 112.819 -43.559  1.00  0.00     0.006 C 
BRANCH  10  11
HETATM   11  C2  UNL     1     -51.616 112.946 -44.788  1.00  0.00    -0.004 C 
HETATM   12  C1  UNL     1     -51.174 111.756 -45.686  1.00  0.00     0.005 C 
ENDBRANCH  10  11
ENDBRANCH   9  10
BRANCH   9  13
HETATM   13  C5  UNL     1     -50.714 112.778 -40.996  1.00  0.00     0.006 C 
BRANCH  13  14
HETATM   14  C6  UNL     1     -49.916 113.722 -40.203  1.00  0.00    -0.004 C 
HETATM   15  C7  UNL     1     -48.672 112.918 -39.728  1.00  0.00     0.005 C 
ENDBRANCH  13  14
ENDBRANCH   9  13
ENDBRANCH   8   9
ENDBRANCH   7   8
ENDBRANCH   1   7
BRANCH   5  16
HETATM   16  C14 UNL     1     -56.201 113.529 -37.220  1.00  0.00     0.152 C 
BRANCH  16  17
HETATM   17  O2  UNL     1     -56.286 114.460 -36.185  1.00  0.00    -0.391 OA
ATOM     18  H2  UNL     1     -55.591 114.262 -35.566  1.00  0.00     0.210 HD
ENDBRANCH  16  17
BRANCH  16  19
HETATM   19  C15 UNL     1     -55.380 112.366 -36.711  1.00  0.00     0.064 C 
BRANCH  19  20
HETATM   20  C16 UNL     1     -56.373 111.419 -36.026  1.00  0.00     0.232 C 
BRANCH  20  21
HETATM   21  N1  UNL     1     -57.662 111.452 -36.678  1.00  0.00    -0.079 N 
ATOM     22  H13 UNL     1     -57.671 110.880 -37.522  1.00  0.00     0.274 HD
ATOM     23  H12 UNL     1     -58.367 110.948 -36.140  1.00  0.00     0.274 HD
ATOM     24  H11 UNL     1     -57.954 112.411 -36.872  1.00  0.00     0.274 HD
ENDBRANCH  20  21
ENDBRANCH  19  20
ENDBRANCH  16  19
ENDBRANCH   5  16
TORSDOF 12
ENDMDL
