MODEL 15
REMARK VINA RESULT: -7.734476292      3.141      7.187
REMARK  12 active torsions:
REMARK  status: ('A' for Active; 'I' for Inactive)
REMARK    1  A    between atoms: C2_2  and  C3_3 
REMARK    2  A    between atoms: C3_3  and  C4_4 
REMARK    3  A    between atoms: C4_4  and  C5_5 
REMARK    4  A    between atoms: C4_4  and  C8_8 
REMARK    5  A    between atoms: C5_5  and  C6_6 
REMARK    6  A    between atoms: C8_8  and  O1_9 
REMARK    7  A    between atoms: O1_9  and  C9_10 
REMARK    8  A    between atoms: C13_14  and  C14_15 
REMARK    9  A    between atoms: C14_15  and  O2_16 
REMARK   10  A    between atoms: C14_15  and  C15_18 
REMARK   11  A    between atoms: C15_18  and  C16_19 
REMARK   12  A    between atoms: C16_19  and  N1_20 
ROOT
HETATM    1  C9  UNL     1     -54.511 114.744 -40.159  1.00  0.00     0.069 A 
HETATM    2  C10 UNL     1     -54.664 116.130 -39.983  1.00  0.00     0.037 A 
HETATM    3  C11 UNL     1     -55.930 116.644 -40.026  1.00  0.00     0.003 A 
HETATM    4  C12 UNL     1     -57.027 115.836 -40.234  1.00  0.00     0.010 A 
HETATM    5  C13 UNL     1     -56.912 114.473 -40.409  1.00  0.00    -0.027 A 
HETATM    6  C17 UNL     1     -55.652 113.949 -40.368  1.00  0.00     0.046 A 
ENDROOT
BRANCH   1   7
HETATM    7  O1  UNL     1     -53.341 114.195 -40.128  1.00  0.00    -0.351 OA
BRANCH   7   8
HETATM    8  C8  UNL     1     -52.173 113.647 -40.098  1.00  0.00     0.180 C 
BRANCH   8   9
HETATM    9  C4  UNL     1     -51.452 113.434 -41.473  1.00  0.00     0.010 C 
BRANCH   9  10
HETATM   10  C3  UNL     1     -52.305 112.728 -42.419  1.00  0.00     0.006 C 
BRANCH  10  11
HETATM   11  C2  UNL     1     -52.509 113.216 -43.794  1.00  0.00    -0.004 C 
HETATM   12  C1  UNL     1     -53.845 114.011 -43.749  1.00  0.00     0.005 C 
ENDBRANCH  10  11
ENDBRANCH   9  10
BRANCH   9  13
HETATM   13  C5  UNL     1     -50.052 113.075 -41.242  1.00  0.00     0.006 C 
BRANCH  13  14
HETATM   14  C6  UNL     1     -49.258 113.695 -40.174  1.00  0.00    -0.004 C 
HETATM   15  C7  UNL     1     -48.341 112.564 -39.628  1.00  0.00     0.005 C 
ENDBRANCH  13  14
ENDBRANCH   9  13
ENDBRANCH   8   9
ENDBRANCH   7   8
ENDBRANCH   1   7
BRANCH   5  16
HETATM   16  C14 UNL     1     -58.138 113.662 -40.629  1.00  0.00     0.152 C 
BRANCH  16  17
HETATM   17  O2  UNL     1     -57.879 112.375 -40.160  1.00  0.00    -0.391 OA
ATOM     18  H2  UNL     1     -57.759 112.433 -39.219  1.00  0.00     0.210 HD
ENDBRANCH  16  17
BRANCH  16  19
HETATM   19  C15 UNL     1     -58.488 113.544 -42.095  1.00  0.00     0.064 C 
BRANCH  19  20
HETATM   20  C16 UNL     1     -59.886 112.916 -42.143  1.00  0.00     0.232 C 
BRANCH  20  21
HETATM   21  N1  UNL     1     -60.648 113.241 -40.959  1.00  0.00    -0.079 N 
ATOM     22  H13 UNL     1     -61.132 112.424 -40.589  1.00  0.00     0.274 HD
ATOM     23  H12 UNL     1     -60.039 113.435 -40.164  1.00  0.00     0.274 HD
ATOM     24  H11 UNL     1     -61.293 114.012 -41.134  1.00  0.00     0.274 HD
ENDBRANCH  20  21
ENDBRANCH  19  20
ENDBRANCH  16  19
ENDBRANCH   5  16
TORSDOF 12
ENDMDL
