MODEL 8
REMARK VINA RESULT: -7.923378101      2.762      7.112
REMARK  12 active torsions:
REMARK  status: ('A' for Active; 'I' for Inactive)
REMARK    1  A    between atoms: C2_2  and  C3_3 
REMARK    2  A    between atoms: C3_3  and  C4_4 
REMARK    3  A    between atoms: C4_4  and  C5_5 
REMARK    4  A    between atoms: C4_4  and  C8_8 
REMARK    5  A    between atoms: C5_5  and  C6_6 
REMARK    6  A    between atoms: C8_8  and  O1_9 
REMARK    7  A    between atoms: O1_9  and  C9_10 
REMARK    8  A    between atoms: C13_14  and  C14_15 
REMARK    9  A    between atoms: C14_15  and  O2_16 
REMARK   10  A    between atoms: C14_15  and  C15_18 
REMARK   11  A    between atoms: C15_18  and  C16_19 
REMARK   12  A    between atoms: C16_19  and  N1_20 
ROOT
HETATM    1  C9  UNL     1     -54.748 115.309 -39.674  1.00  0.00     0.069 A 
HETATM    2  C10 UNL     1     -54.841 116.611 -40.196  1.00  0.00     0.037 A 
HETATM    3  C11 UNL     1     -56.029 117.273 -40.054  1.00  0.00     0.003 A 
HETATM    4  C12 UNL     1     -57.105 116.690 -39.421  1.00  0.00     0.010 A 
HETATM    5  C13 UNL     1     -57.047 115.415 -38.897  1.00  0.00    -0.027 A 
HETATM    6  C17 UNL     1     -55.865 114.745 -39.032  1.00  0.00     0.046 A 
ENDROOT
BRANCH   1   7
HETATM    7  O1  UNL     1     -53.652 114.630 -39.773  1.00  0.00    -0.351 OA
BRANCH   7   8
HETATM    8  C8  UNL     1     -52.559 113.951 -39.873  1.00  0.00     0.180 C 
BRANCH   8   9
HETATM    9  C4  UNL     1     -52.145 113.477 -41.307  1.00  0.00     0.010 C 
BRANCH   9  10
HETATM   10  C3  UNL     1     -53.259 112.850 -42.004  1.00  0.00     0.006 C 
BRANCH  10  11
HETATM   11  C2  UNL     1     -54.152 113.617 -42.890  1.00  0.00    -0.004 C 
HETATM   12  C1  UNL     1     -53.262 114.045 -44.092  1.00  0.00     0.005 C 
ENDBRANCH  10  11
ENDBRANCH   9  10
BRANCH   9  13
HETATM   13  C5  UNL     1     -50.804 112.892 -41.262  1.00  0.00     0.006 C 
BRANCH  13  14
HETATM   14  C6  UNL     1     -49.639 113.656 -40.800  1.00  0.00    -0.004 C 
HETATM   15  C7  UNL     1     -48.796 112.658 -39.956  1.00  0.00     0.005 C 
ENDBRANCH  13  14
ENDBRANCH   9  13
ENDBRANCH   8   9
ENDBRANCH   7   8
ENDBRANCH   1   7
BRANCH   5  16
HETATM   16  C14 UNL     1     -58.246 114.849 -38.227  1.00  0.00     0.152 C 
BRANCH  16  17
HETATM   17  O2  UNL     1     -57.834 113.727 -37.508  1.00  0.00    -0.391 OA
ATOM     18  H2  UNL     1     -56.909 113.834 -37.319  1.00  0.00     0.210 HD
ENDBRANCH  16  17
BRANCH  16  19
HETATM   19  C15 UNL     1     -59.289 114.387 -39.219  1.00  0.00     0.064 C 
BRANCH  19  20
HETATM   20  C16 UNL     1     -59.456 112.882 -38.983  1.00  0.00     0.232 C 
BRANCH  20  21
HETATM   21  N1  UNL     1     -58.715 112.114 -39.959  1.00  0.00    -0.079 N 
ATOM     22  H13 UNL     1     -59.337 111.650 -40.620  1.00  0.00     0.274 HD
ATOM     23  H12 UNL     1     -58.217 112.719 -40.611  1.00  0.00     0.274 HD
ATOM     24  H11 UNL     1     -58.086 111.450 -39.506  1.00  0.00     0.274 HD
ENDBRANCH  20  21
ENDBRANCH  19  20
ENDBRANCH  16  19
ENDBRANCH   5  16
TORSDOF 12
ENDMDL
