MODEL 5
REMARK VINA RESULT: -7.197544490      4.408      9.061
REMARK  5 active torsions:
REMARK  status: ('A' for Active; 'I' for Inactive)
REMARK    1  A    between atoms: O1_2  and  C2_3 
REMARK    2  A    between atoms: C5_6  and  N1_7 
REMARK       I    between atoms: N1_7  and  C6_9 
REMARK    3  A    between atoms: C6_9  and  C7_11 
REMARK    4  A    between atoms: C10_14  and  N2_15 
REMARK    5  A    between atoms: N2_15  and  C11_17 
ROOT
HETATM    1  C7  UNL     1       9.001  -8.472  -4.223  1.00  0.00     0.034 A 
HETATM    2  C8  UNL     1       8.689  -9.120  -3.063  1.00  0.00     0.019 A 
HETATM    3  C9  UNL     1       7.590 -10.004  -3.031  1.00  0.00     0.032 A 
HETATM    4  C10 UNL     1       6.833 -10.214  -4.155  1.00  0.00     0.054 A 
HETATM    5  C17 UNL     1       7.136  -9.568  -5.328  1.00  0.00     0.061 A 
HETATM    6 CL1  UNL     1       6.211  -9.792  -6.798  1.00  0.00    -0.082 Cl
HETATM    7  C18 UNL     1       8.222  -8.705  -5.336  1.00  0.00     0.043 A 
ENDROOT
BRANCH   1   8
HETATM    8  C6  UNL     1      10.116  -7.535  -4.356  1.00  0.00     0.256 C 
HETATM    9  N1  UNL     1      10.997  -7.577  -5.439  1.00  0.00    -0.323 N 
ATOM     10  H1  UNL     1      10.814  -8.299  -6.135  1.00  0.00     0.169 HD
HETATM   11  O2  UNL     1      10.299  -6.644  -3.455  1.00  0.00    -0.267 OA
BRANCH   9  12
HETATM   12  C5  UNL     1      12.098  -6.753  -5.690  1.00  0.00     0.035 A 
HETATM   13  C4  UNL     1      13.278  -6.806  -5.031  1.00  0.00     0.032 A 
HETATM   14  C3  UNL     1      14.286  -5.914  -5.373  1.00  0.00     0.039 A 
HETATM   15  C2  UNL     1      14.165  -4.961  -6.355  1.00  0.00     0.068 A 
HETATM   16  C20 UNL     1      12.959  -4.913  -7.021  1.00  0.00     0.039 A 
HETATM   17  C19 UNL     1      11.951  -5.784  -6.699  1.00  0.00     0.032 A 
BRANCH  15  18
HETATM   18  O1  UNL     1      15.209  -4.076  -6.672  1.00  0.00    -0.356 OA
HETATM   19  C1  UNL     1      16.383  -4.173  -5.887  1.00  0.00     0.210 C 
ENDBRANCH  15  18
ENDBRANCH   9  12
ENDBRANCH   1   8
BRANCH   4  20
HETATM   20  N2  UNL     1       5.730 -11.097  -4.127  1.00  0.00    -0.358 N 
ATOM     21  H2  UNL     1       4.833 -10.755  -3.781  1.00  0.00     0.166 HD
BRANCH  20  22
HETATM   22  C11 UNL     1       5.830 -12.457  -4.568  1.00  0.00     0.019 C 
HETATM   23  C12 UNL     1       4.983 -13.416  -4.251  1.00  0.00     0.006 C 
HETATM   24  C13 UNL     1       3.763 -13.261  -3.374  1.00  0.00     0.054 C 
HETATM   25  C14 UNL     1       5.420 -14.652  -4.886  1.00  0.00     0.157 C 
HETATM   26  O3  UNL     1       4.754 -15.711  -5.052  1.00  0.00    -0.293 OA
HETATM   27  C15 UNL     1       6.842 -14.468  -5.329  1.00  0.00     0.089 C 
HETATM   28  C16 UNL     1       6.900 -12.972  -5.444  1.00  0.00     0.065 C 
ENDBRANCH  20  22
ENDBRANCH   4  20
TORSDOF 5
ENDMDL
