MODEL 6
REMARK VINA RESULT: -7.151761150      1.973      9.630
REMARK  5 active torsions:
REMARK  status: ('A' for Active; 'I' for Inactive)
REMARK    1  A    between atoms: O1_2  and  C2_3 
REMARK    2  A    between atoms: C5_6  and  N1_7 
REMARK       I    between atoms: N1_7  and  C6_9 
REMARK    3  A    between atoms: C6_9  and  C7_11 
REMARK    4  A    between atoms: C10_14  and  N2_15 
REMARK    5  A    between atoms: N2_15  and  C11_17 
ROOT
HETATM    1  C7  UNL     1       7.583  -9.321  -4.904  1.00  0.00     0.034 A 
HETATM    2  C8  UNL     1       6.263  -9.070  -5.146  1.00  0.00     0.019 A 
HETATM    3  C9  UNL     1       5.670  -9.543  -6.336  1.00  0.00     0.032 A 
HETATM    4  C10 UNL     1       6.411 -10.250  -7.249  1.00  0.00     0.054 A 
HETATM    5  C17 UNL     1       7.739 -10.508  -7.017  1.00  0.00     0.061 A 
HETATM    6 CL1  UNL     1       8.739 -11.405  -8.140  1.00  0.00    -0.082 Cl
HETATM    7  C18 UNL     1       8.300 -10.035  -5.840  1.00  0.00     0.043 A 
ENDROOT
BRANCH   1   8
HETATM    8  C6  UNL     1       8.289  -8.870  -3.704  1.00  0.00     0.256 C 
HETATM    9  N1  UNL     1       9.140  -7.763  -3.715  1.00  0.00    -0.323 N 
ATOM     10  H1  UNL     1       9.238  -7.286  -4.611  1.00  0.00     0.169 HD
HETATM   11  O2  UNL     1       8.127  -9.504  -2.604  1.00  0.00    -0.267 OA
BRANCH   9  12
HETATM   12  C5  UNL     1       9.874  -7.227  -2.654  1.00  0.00     0.035 A 
HETATM   13  C4  UNL     1      11.062  -7.698  -2.211  1.00  0.00     0.032 A 
HETATM   14  C3  UNL     1      11.678  -7.077  -1.132  1.00  0.00     0.039 A 
HETATM   15  C2  UNL     1      11.154  -5.994  -0.469  1.00  0.00     0.068 A 
HETATM   16  C20 UNL     1       9.943  -5.520  -0.927  1.00  0.00     0.039 A 
HETATM   17  C19 UNL     1       9.318  -6.119  -1.990  1.00  0.00     0.032 A 
BRANCH  15  18
HETATM   18  O1  UNL     1      11.808  -5.393   0.618  1.00  0.00    -0.356 OA
HETATM   19  C1  UNL     1      11.035  -4.525   1.424  1.00  0.00     0.210 C 
ENDBRANCH  15  18
ENDBRANCH   9  12
ENDBRANCH   1   8
BRANCH   4  20
HETATM   20  N2  UNL     1       5.821 -10.724  -8.443  1.00  0.00    -0.358 N 
ATOM     21  H2  UNL     1       5.835 -11.725  -8.637  1.00  0.00     0.166 HD
BRANCH  20  22
HETATM   22  C11 UNL     1       5.203  -9.843  -9.390  1.00  0.00     0.019 C 
HETATM   23  C12 UNL     1       5.742  -9.469 -10.534  1.00  0.00     0.006 C 
HETATM   24  C13 UNL     1       7.096  -9.895 -11.052  1.00  0.00     0.054 C 
HETATM   25  C14 UNL     1       4.816  -8.574 -11.214  1.00  0.00     0.157 C 
HETATM   26  O3  UNL     1       4.834  -8.222 -12.426  1.00  0.00    -0.293 OA
HETATM   27  C15 UNL     1       3.795  -8.115 -10.214  1.00  0.00     0.089 C 
HETATM   28  C16 UNL     1       3.871  -9.233  -9.215  1.00  0.00     0.065 C 
ENDBRANCH  20  22
ENDBRANCH   4  20
TORSDOF 5
ENDMDL
