MODEL 4
REMARK VINA RESULT: -7.235767438      2.145      9.695
REMARK  5 active torsions:
REMARK  status: ('A' for Active; 'I' for Inactive)
REMARK    1  A    between atoms: O1_2  and  C2_3 
REMARK    2  A    between atoms: C5_6  and  N1_7 
REMARK       I    between atoms: N1_7  and  C6_9 
REMARK    3  A    between atoms: C6_9  and  C7_11 
REMARK    4  A    between atoms: C10_14  and  N2_15 
REMARK    5  A    between atoms: N2_15  and  C11_17 
ROOT
HETATM    1  C7  UNL     1       7.617  -9.329  -4.927  1.00  0.00     0.034 A 
HETATM    2  C8  UNL     1       6.417  -8.840  -5.358  1.00  0.00     0.019 A 
HETATM    3  C9  UNL     1       5.850  -9.335  -6.552  1.00  0.00     0.032 A 
HETATM    4  C10 UNL     1       6.497 -10.301  -7.280  1.00  0.00     0.054 A 
HETATM    5  C17 UNL     1       7.704 -10.801  -6.858  1.00  0.00     0.061 A 
HETATM    6 CL1  UNL     1       8.580 -12.034  -7.739  1.00  0.00    -0.082 Cl
HETATM    7  C18 UNL     1       8.241 -10.299  -5.681  1.00  0.00     0.043 A 
ENDROOT
BRANCH   1   8
HETATM    8  C6  UNL     1       8.286  -8.877  -3.708  1.00  0.00     0.256 C 
HETATM    9  N1  UNL     1       9.177  -7.801  -3.705  1.00  0.00    -0.323 N 
ATOM     10  H1  UNL     1       9.331  -7.348  -4.605  1.00  0.00     0.169 HD
HETATM   11  O2  UNL     1       8.055  -9.479  -2.603  1.00  0.00    -0.267 OA
BRANCH   9  12
HETATM   12  C5  UNL     1       9.885  -7.268  -2.624  1.00  0.00     0.035 A 
HETATM   13  C4  UNL     1      11.037  -7.769  -2.123  1.00  0.00     0.032 A 
HETATM   14  C3  UNL     1      11.629  -7.147  -1.031  1.00  0.00     0.039 A 
HETATM   15  C2  UNL     1      11.114  -6.034  -0.412  1.00  0.00     0.068 A 
HETATM   16  C20 UNL     1       9.940  -5.529  -0.929  1.00  0.00     0.039 A 
HETATM   17  C19 UNL     1       9.340  -6.129  -2.006  1.00  0.00     0.032 A 
BRANCH  15  18
HETATM   18  O1  UNL     1      11.744  -5.433   0.691  1.00  0.00    -0.356 OA
HETATM   19  C1  UNL     1      10.988  -4.476   1.408  1.00  0.00     0.210 C 
ENDBRANCH  15  18
ENDBRANCH   9  12
ENDBRANCH   1   8
BRANCH   4  20
HETATM   20  N2  UNL     1       5.934 -10.799  -8.478  1.00  0.00    -0.358 N 
ATOM     21  H2  UNL     1       5.341 -11.629  -8.436  1.00  0.00     0.166 HD
BRANCH  20  22
HETATM   22  C11 UNL     1       6.167 -10.176  -9.747  1.00  0.00     0.019 C 
HETATM   23  C12 UNL     1       5.366  -9.294 -10.312  1.00  0.00     0.006 C 
HETATM   24  C13 UNL     1       4.068  -8.783  -9.732  1.00  0.00     0.054 C 
HETATM   25  C14 UNL     1       5.940  -8.897 -11.590  1.00  0.00     0.157 C 
HETATM   26  O3  UNL     1       5.632  -7.897 -12.296  1.00  0.00    -0.293 OA
HETATM   27  C15 UNL     1       6.996  -9.898 -11.956  1.00  0.00     0.089 C 
HETATM   28  C16 UNL     1       7.344 -10.436 -10.599  1.00  0.00     0.065 C 
ENDBRANCH  20  22
ENDBRANCH   4  20
TORSDOF 5
ENDMDL
