MODEL 15
REMARK VINA RESULT: -6.621330048      4.003      5.580
REMARK  6 active torsions:
REMARK  status: ('A' for Active; 'I' for Inactive)
REMARK    1  A    between atoms: N1_1  and  S1_4 
REMARK    2  A    between atoms: S1_4  and  C1_7 
REMARK    3  A    between atoms: C4_10  and  N2_11 
REMARK    4  A    between atoms: N2_11  and  C5_13 
REMARK    5  A    between atoms: C5_13  and  N3_15 
REMARK    6  A    between atoms: N3_15  and  C6_17 
ROOT
HETATM    1  N2  UNL     1      -1.017   5.926  83.351  1.00  0.00    -0.333 N 
ATOM      2  H2  UNL     1      -1.553   6.792  83.295  1.00  0.00     0.168 HD
ENDROOT
BRANCH   1   3
HETATM    3  C4  UNL     1      -1.463   4.900  84.205  1.00  0.00     0.034 A 
HETATM    4  C3  UNL     1      -2.761   4.778  84.586  1.00  0.00     0.031 A 
HETATM    5  C2  UNL     1      -3.174   3.768  85.464  1.00  0.00     0.027 A 
HETATM    6  C1  UNL     1      -2.246   2.892  85.939  1.00  0.00     0.079 A 
HETATM    7  C13 UNL     1      -0.923   2.978  85.579  1.00  0.00     0.027 A 
HETATM    8  C12 UNL     1      -0.546   3.973  84.722  1.00  0.00     0.031 A 
BRANCH   6   9
HETATM    9  S1  UNL     1      -2.812   1.639  87.039  1.00  0.00     0.256 S 
HETATM   10  O1  UNL     1      -1.781   0.551  87.090  1.00  0.00    -0.201 OA
HETATM   11  O2  UNL     1      -4.078   1.055  86.499  1.00  0.00    -0.201 OA
BRANCH   9  12
HETATM   12  N1  UNL     1      -3.127   2.341  88.562  1.00  0.00    -0.324 N 
ATOM     13  H12 UNL     1      -2.485   2.253  89.350  1.00  0.00     0.169 HD
ATOM     14  H11 UNL     1      -4.010   2.849  88.598  1.00  0.00     0.169 HD
ENDBRANCH   9  12
ENDBRANCH   6   9
ENDBRANCH   1   3
BRANCH   1  15
HETATM   15  C5  UNL     1       0.146   5.792  82.573  1.00  0.00     0.176 C 
HETATM   16  S2  UNL     1       0.100   4.926  81.158  1.00  0.00    -0.041 SA
BRANCH  15  17
HETATM   17  N3  UNL     1       1.367   6.418  82.949  1.00  0.00    -0.333 N 
ATOM     18  H3  UNL     1       2.233   5.880  82.904  1.00  0.00     0.168 HD
BRANCH  17  19
HETATM   19  C6  UNL     1       1.416   7.764  83.385  1.00  0.00     0.034 A 
HETATM   20  C7  UNL     1       1.352   8.749  82.389  1.00  0.00     0.032 A 
HETATM   21  C8  UNL     1       1.350  10.058  82.736  1.00  0.00     0.044 A 
HETATM   22  C9  UNL     1       1.411  10.417  84.066  1.00  0.00     0.116 A 
HETATM   23  F1  UNL     1       1.407  11.736  84.358  1.00  0.00    -0.206 F 
HETATM   24  C10 UNL     1       1.475   9.468  85.068  1.00  0.00     0.044 A 
HETATM   25  C11 UNL     1       1.476   8.142  84.708  1.00  0.00     0.032 A 
ENDBRANCH  17  19
ENDBRANCH  15  17
ENDBRANCH   1  15
TORSDOF 6
ENDMDL
