MODEL 3
REMARK VINA RESULT: -7.910774583      0.143      1.480
REMARK  6 active torsions:
REMARK  status: ('A' for Active; 'I' for Inactive)
REMARK    1  A    between atoms: N1_1  and  S1_4 
REMARK    2  A    between atoms: S1_4  and  C1_7 
REMARK    3  A    between atoms: C4_10  and  N2_11 
REMARK    4  A    between atoms: N2_11  and  C5_13 
REMARK    5  A    between atoms: C5_13  and  N3_15 
REMARK    6  A    between atoms: N3_15  and  C6_17 
ROOT
HETATM    1  N2  UNL     1      -0.772   5.355  83.326  1.00  0.00    -0.333 N 
ATOM      2  H2  UNL     1      -1.078   6.328  83.323  1.00  0.00     0.168 HD
ENDROOT
BRANCH   1   3
HETATM    3  C4  UNL     1      -1.290   4.479  84.298  1.00  0.00     0.034 A 
HETATM    4  C3  UNL     1      -0.532   3.527  84.902  1.00  0.00     0.031 A 
HETATM    5  C2  UNL     1      -1.078   2.644  85.842  1.00  0.00     0.027 A 
HETATM    6  C1  UNL     1      -2.400   2.752  86.153  1.00  0.00     0.079 A 
HETATM    7  C13 UNL     1      -3.202   3.701  85.567  1.00  0.00     0.027 A 
HETATM    8  C12 UNL     1      -2.645   4.549  84.653  1.00  0.00     0.031 A 
BRANCH   6   9
HETATM    9  S1  UNL     1      -3.042   1.621  87.340  1.00  0.00     0.256 S 
HETATM   10  O1  UNL     1      -2.141   0.422  87.388  1.00  0.00    -0.201 OA
HETATM   11  O2  UNL     1      -4.396   1.169  86.896  1.00  0.00    -0.201 OA
BRANCH   9  12
HETATM   12  N1  UNL     1      -3.184   2.418  88.842  1.00  0.00    -0.324 N 
ATOM     13  H12 UNL     1      -2.875   3.379  88.984  1.00  0.00     0.169 HD
ATOM     14  H11 UNL     1      -3.604   1.838  89.568  1.00  0.00     0.169 HD
ENDBRANCH   9  12
ENDBRANCH   6   9
ENDBRANCH   1   3
BRANCH   1  15
HETATM   15  C5  UNL     1       0.154   4.927  82.358  1.00  0.00     0.176 C 
HETATM   16  S2  UNL     1       1.768   5.260  82.553  1.00  0.00    -0.041 SA
BRANCH  15  17
HETATM   17  N3  UNL     1      -0.255   4.173  81.224  1.00  0.00    -0.333 N 
ATOM     18  H3  UNL     1      -0.532   4.667  80.375  1.00  0.00     0.168 HD
BRANCH  17  19
HETATM   19  C6  UNL     1      -0.289   2.757  81.237  1.00  0.00     0.034 A 
HETATM   20  C7  UNL     1       0.915   2.098  80.950  1.00  0.00     0.032 A 
HETATM   21  C8  UNL     1       0.967   0.745  80.987  1.00  0.00     0.044 A 
HETATM   22  C9  UNL     1      -0.164   0.022  81.307  1.00  0.00     0.116 A 
HETATM   23  F1  UNL     1      -0.058  -1.325  81.329  1.00  0.00    -0.206 F 
HETATM   24  C10 UNL     1      -1.363   0.646  81.593  1.00  0.00     0.044 A 
HETATM   25  C11 UNL     1      -1.407   2.018  81.554  1.00  0.00     0.032 A 
ENDBRANCH  17  19
ENDBRANCH  15  17
ENDBRANCH   1  15
TORSDOF 6
ENDMDL
