MODEL 14
REMARK VINA RESULT: -6.661485118      4.232      5.707
REMARK  6 active torsions:
REMARK  status: ('A' for Active; 'I' for Inactive)
REMARK    1  A    between atoms: N1_1  and  S1_4 
REMARK    2  A    between atoms: S1_4  and  C1_7 
REMARK    3  A    between atoms: C4_10  and  N2_11 
REMARK    4  A    between atoms: N2_11  and  C5_13 
REMARK    5  A    between atoms: C5_13  and  N3_15 
REMARK    6  A    between atoms: N3_15  and  C6_17 
ROOT
HETATM    1  N2  UNL     1      -1.965   6.320  82.637  1.00  0.00    -0.333 N 
ATOM      2  H2  UNL     1      -2.876   6.724  82.423  1.00  0.00     0.168 HD
ENDROOT
BRANCH   1   3
HETATM    3  C4  UNL     1      -1.904   5.108  83.350  1.00  0.00     0.034 A 
HETATM    4  C3  UNL     1      -2.300   5.001  84.645  1.00  0.00     0.031 A 
HETATM    5  C2  UNL     1      -2.198   3.792  85.345  1.00  0.00     0.027 A 
HETATM    6  C1  UNL     1      -1.689   2.704  84.702  1.00  0.00     0.079 A 
HETATM    7  C13 UNL     1      -1.278   2.767  83.393  1.00  0.00     0.027 A 
HETATM    8  C12 UNL     1      -1.387   3.959  82.734  1.00  0.00     0.031 A 
BRANCH   6   9
HETATM    9  S1  UNL     1      -1.580   1.206  85.621  1.00  0.00     0.256 S 
HETATM   10  O1  UNL     1      -0.247   1.166  86.306  1.00  0.00    -0.201 OA
HETATM   11  O2  UNL     1      -1.652   0.050  84.674  1.00  0.00    -0.201 OA
BRANCH   9  12
HETATM   12  N1  UNL     1      -2.898   1.124  86.702  1.00  0.00    -0.324 N 
ATOM     13  H12 UNL     1      -2.813   0.734  87.641  1.00  0.00     0.169 HD
ATOM     14  H11 UNL     1      -3.762   1.500  86.314  1.00  0.00     0.169 HD
ENDBRANCH   9  12
ENDBRANCH   6   9
ENDBRANCH   1   3
BRANCH   1  15
HETATM   15  C5  UNL     1      -0.804   6.989  82.210  1.00  0.00     0.176 C 
HETATM   16  S2  UNL     1      -0.900   8.124  81.003  1.00  0.00    -0.041 SA
BRANCH  15  17
HETATM   17  N3  UNL     1       0.458   6.746  82.818  1.00  0.00    -0.333 N 
ATOM     18  H3  UNL     1       0.867   5.814  82.754  1.00  0.00     0.168 HD
BRANCH  17  19
HETATM   19  C6  UNL     1       1.165   7.760  83.511  1.00  0.00     0.034 A 
HETATM   20  C7  UNL     1       0.646   8.149  84.753  1.00  0.00     0.032 A 
HETATM   21  C8  UNL     1       1.294   9.082  85.491  1.00  0.00     0.044 A 
HETATM   22  C9  UNL     1       2.461   9.644  85.017  1.00  0.00     0.116 A 
HETATM   23  F1  UNL     1       3.068  10.570  85.792  1.00  0.00    -0.206 F 
HETATM   24  C10 UNL     1       2.995   9.279  83.796  1.00  0.00     0.044 A 
HETATM   25  C11 UNL     1       2.332   8.331  83.054  1.00  0.00     0.032 A 
ENDBRANCH  17  19
ENDBRANCH  15  17
ENDBRANCH   1  15
TORSDOF 6
ENDMDL
