MODEL 16
REMARK VINA RESULT: -6.606173946      4.221      5.768
REMARK  6 active torsions:
REMARK  status: ('A' for Active; 'I' for Inactive)
REMARK    1  A    between atoms: N1_1  and  S1_4 
REMARK    2  A    between atoms: S1_4  and  C1_7 
REMARK    3  A    between atoms: C4_10  and  N2_11 
REMARK    4  A    between atoms: N2_11  and  C5_13 
REMARK    5  A    between atoms: C5_13  and  N3_15 
REMARK    6  A    between atoms: N3_15  and  C6_17 
ROOT
HETATM    1  N2  UNL     1      -1.692   6.287  82.504  1.00  0.00    -0.333 N 
ATOM      2  H2  UNL     1      -2.577   6.768  82.342  1.00  0.00     0.168 HD
ENDROOT
BRANCH   1   3
HETATM    3  C4  UNL     1      -1.692   5.085  83.238  1.00  0.00     0.034 A 
HETATM    4  C3  UNL     1      -2.060   5.026  84.544  1.00  0.00     0.031 A 
HETATM    5  C2  UNL     1      -2.019   3.823  85.262  1.00  0.00     0.027 A 
HETATM    6  C1  UNL     1      -1.599   2.694  84.626  1.00  0.00     0.079 A 
HETATM    7  C13 UNL     1      -1.218   2.710  83.306  1.00  0.00     0.027 A 
HETATM    8  C12 UNL     1      -1.267   3.895  82.629  1.00  0.00     0.031 A 
BRANCH   6   9
HETATM    9  S1  UNL     1      -1.564   1.207  85.568  1.00  0.00     0.256 S 
HETATM   10  O1  UNL     1      -0.259   1.144  86.305  1.00  0.00    -0.201 OA
HETATM   11  O2  UNL     1      -1.630   0.040  84.636  1.00  0.00    -0.201 OA
BRANCH   9  12
HETATM   12  N1  UNL     1      -2.923   1.174  86.600  1.00  0.00    -0.324 N 
ATOM     13  H12 UNL     1      -2.916   0.695  87.500  1.00  0.00     0.169 HD
ATOM     14  H11 UNL     1      -3.726   1.678  86.225  1.00  0.00     0.169 HD
ENDBRANCH   9  12
ENDBRANCH   6   9
ENDBRANCH   1   3
BRANCH   1  15
HETATM   15  C5  UNL     1      -0.508   6.843  81.989  1.00  0.00     0.176 C 
HETATM   16  S2  UNL     1      -0.558   7.764  80.609  1.00  0.00    -0.041 SA
BRANCH  15  17
HETATM   17  N3  UNL     1       0.740   6.669  82.648  1.00  0.00    -0.333 N 
ATOM     18  H3  UNL     1       1.263   5.806  82.498  1.00  0.00     0.168 HD
BRANCH  17  19
HETATM   19  C6  UNL     1       1.280   7.658  83.507  1.00  0.00     0.034 A 
HETATM   20  C7  UNL     1       2.454   8.291  83.076  1.00  0.00     0.032 A 
HETATM   21  C8  UNL     1       3.002   9.277  83.825  1.00  0.00     0.044 A 
HETATM   22  C9  UNL     1       2.402   9.654  85.008  1.00  0.00     0.116 A 
HETATM   23  F1  UNL     1       2.989  10.643  85.718  1.00  0.00    -0.206 F 
HETATM   24  C10 UNL     1       1.245   9.048  85.458  1.00  0.00     0.044 A 
HETATM   25  C11 UNL     1       0.695   8.049  84.691  1.00  0.00     0.032 A 
ENDBRANCH  17  19
ENDBRANCH  15  17
ENDBRANCH   1  15
TORSDOF 6
ENDMDL
