MODEL 2
REMARK VINA RESULT: -7.942548339      0.143      1.046
REMARK  6 active torsions:
REMARK  status: ('A' for Active; 'I' for Inactive)
REMARK    1  A    between atoms: N1_1  and  S1_4 
REMARK    2  A    between atoms: S1_4  and  C1_7 
REMARK    3  A    between atoms: C4_10  and  N2_11 
REMARK    4  A    between atoms: N2_11  and  C5_13 
REMARK    5  A    between atoms: C5_13  and  N3_15 
REMARK    6  A    between atoms: N3_15  and  C6_17 
ROOT
HETATM    1  N2  UNL     1      -0.731   5.379  83.378  1.00  0.00    -0.333 N 
ATOM      2  H2  UNL     1      -0.991   6.364  83.416  1.00  0.00     0.168 HD
ENDROOT
BRANCH   1   3
HETATM    3  C4  UNL     1      -1.259   4.494  84.338  1.00  0.00     0.034 A 
HETATM    4  C3  UNL     1      -0.505   3.545  84.950  1.00  0.00     0.031 A 
HETATM    5  C2  UNL     1      -1.060   2.654  85.877  1.00  0.00     0.027 A 
HETATM    6  C1  UNL     1      -2.388   2.752  86.166  1.00  0.00     0.079 A 
HETATM    7  C13 UNL     1      -3.187   3.698  85.571  1.00  0.00     0.027 A 
HETATM    8  C12 UNL     1      -2.620   4.554  84.670  1.00  0.00     0.031 A 
BRANCH   6   9
HETATM    9  S1  UNL     1      -3.042   1.612  87.338  1.00  0.00     0.256 S 
HETATM   10  O1  UNL     1      -2.139   0.415  87.389  1.00  0.00    -0.201 OA
HETATM   11  O2  UNL     1      -4.389   1.159  86.873  1.00  0.00    -0.201 OA
BRANCH   9  12
HETATM   12  N1  UNL     1      -3.206   2.398  88.843  1.00  0.00    -0.324 N 
ATOM     13  H12 UNL     1      -3.459   1.901  89.696  1.00  0.00     0.169 HD
ATOM     14  H11 UNL     1      -3.027   3.401  88.796  1.00  0.00     0.169 HD
ENDBRANCH   9  12
ENDBRANCH   6   9
ENDBRANCH   1   3
BRANCH   1  15
HETATM   15  C5  UNL     1       0.144   4.941  82.368  1.00  0.00     0.176 C 
HETATM   16  S2  UNL     1       1.756   5.328  82.445  1.00  0.00    -0.041 SA
BRANCH  15  17
HETATM   17  N3  UNL     1      -0.313   4.134  81.290  1.00  0.00    -0.333 N 
ATOM     18  H3  UNL     1      -0.721   4.586  80.471  1.00  0.00     0.168 HD
BRANCH  17  19
HETATM   19  C6  UNL     1      -0.218   2.721  81.318  1.00  0.00     0.034 A 
HETATM   20  C7  UNL     1      -1.391   2.020  81.633  1.00  0.00     0.032 A 
HETATM   21  C8  UNL     1      -1.385   0.666  81.635  1.00  0.00     0.044 A 
HETATM   22  C9  UNL     1      -0.227  -0.017  81.329  1.00  0.00     0.116 A 
HETATM   23  F1  UNL     1      -0.275  -1.368  81.346  1.00  0.00    -0.206 F 
HETATM   24  C10 UNL     1       0.943   0.648  81.016  1.00  0.00     0.044 A 
HETATM   25  C11 UNL     1       0.929   2.022  81.014  1.00  0.00     0.032 A 
ENDBRANCH  17  19
ENDBRANCH  15  17
ENDBRANCH   1  15
TORSDOF 6
ENDMDL
