MODEL 12
REMARK VINA RESULT: -6.676183622      4.080      5.665
REMARK  6 active torsions:
REMARK  status: ('A' for Active; 'I' for Inactive)
REMARK    1  A    between atoms: N1_1  and  S1_4 
REMARK    2  A    between atoms: S1_4  and  C1_7 
REMARK    3  A    between atoms: C4_10  and  N2_11 
REMARK    4  A    between atoms: N2_11  and  C5_13 
REMARK    5  A    between atoms: C5_13  and  N3_15 
REMARK    6  A    between atoms: N3_15  and  C6_17 
ROOT
HETATM    1  N2  UNL     1      -0.861   5.694  83.649  1.00  0.00    -0.333 N 
ATOM      2  H2  UNL     1      -1.420   6.542  83.555  1.00  0.00     0.168 HD
ENDROOT
BRANCH   1   3
HETATM    3  C4  UNL     1      -1.350   4.636  84.438  1.00  0.00     0.034 A 
HETATM    4  C3  UNL     1      -2.669   4.490  84.728  1.00  0.00     0.031 A 
HETATM    5  C2  UNL     1      -3.128   3.448  85.544  1.00  0.00     0.027 A 
HETATM    6  C1  UNL     1      -2.223   2.565  86.052  1.00  0.00     0.079 A 
HETATM    7  C13 UNL     1      -0.880   2.676  85.783  1.00  0.00     0.027 A 
HETATM    8  C12 UNL     1      -0.459   3.701  84.986  1.00  0.00     0.031 A 
BRANCH   6   9
HETATM    9  S1  UNL     1      -2.846   1.272  87.072  1.00  0.00     0.256 S 
HETATM   10  O1  UNL     1      -2.309   1.462  88.459  1.00  0.00    -0.201 OA
HETATM   11  O2  UNL     1      -2.345  -0.038  86.553  1.00  0.00    -0.201 OA
BRANCH   9  12
HETATM   12  N1  UNL     1      -4.551   1.285  87.001  1.00  0.00    -0.324 N 
ATOM     13  H12 UNL     1      -5.132   0.799  87.683  1.00  0.00     0.169 HD
ATOM     14  H11 UNL     1      -4.918   1.822  86.215  1.00  0.00     0.169 HD
ENDBRANCH   9  12
ENDBRANCH   6   9
ENDBRANCH   1   3
BRANCH   1  15
HETATM   15  C5  UNL     1       0.377   5.615  82.987  1.00  0.00     0.176 C 
HETATM   16  S2  UNL     1       0.539   4.649  81.647  1.00  0.00    -0.041 SA
BRANCH  15  17
HETATM   17  N3  UNL     1       1.498   6.379  83.415  1.00  0.00    -0.333 N 
ATOM     18  H3  UNL     1       2.376   5.900  83.614  1.00  0.00     0.168 HD
BRANCH  17  19
HETATM   19  C6  UNL     1       1.430   7.785  83.575  1.00  0.00     0.034 A 
HETATM   20  C7  UNL     1       1.464   8.269  84.890  1.00  0.00     0.032 A 
HETATM   21  C8  UNL     1       1.447   9.604  85.116  1.00  0.00     0.044 A 
HETATM   22  C9  UNL     1       1.398  10.481  84.052  1.00  0.00     0.116 A 
HETATM   23  F1  UNL     1       1.383  11.803  84.333  1.00  0.00    -0.206 F 
HETATM   24  C10 UNL     1       1.364  10.032  82.746  1.00  0.00     0.044 A 
HETATM   25  C11 UNL     1       1.382   8.675  82.525  1.00  0.00     0.032 A 
ENDBRANCH  17  19
ENDBRANCH  15  17
ENDBRANCH   1  15
TORSDOF 6
ENDMDL
