MODEL 1
REMARK VINA RESULT: -7.952238146      0.000      0.000
REMARK  6 active torsions:
REMARK  status: ('A' for Active; 'I' for Inactive)
REMARK    1  A    between atoms: N1_1  and  S1_4 
REMARK    2  A    between atoms: S1_4  and  C1_7 
REMARK    3  A    between atoms: C4_10  and  N2_11 
REMARK    4  A    between atoms: N2_11  and  C5_13 
REMARK    5  A    between atoms: C5_13  and  N3_15 
REMARK    6  A    between atoms: N3_15  and  C6_17 
ROOT
HETATM    1  N2  UNL     1      -0.857   5.371  83.247  1.00  0.00    -0.333 N 
ATOM      2  H2  UNL     1      -1.124   6.354  83.292  1.00  0.00     0.168 HD
ENDROOT
BRANCH   1   3
HETATM    3  C4  UNL     1      -1.390   4.473  84.191  1.00  0.00     0.034 A 
HETATM    4  C3  UNL     1      -2.693   4.504  84.575  1.00  0.00     0.031 A 
HETATM    5  C2  UNL     1      -3.193   3.623  85.542  1.00  0.00     0.027 A 
HETATM    6  C1  UNL     1      -2.344   2.717  86.104  1.00  0.00     0.079 A 
HETATM    7  C13 UNL     1      -1.020   2.651  85.745  1.00  0.00     0.027 A 
HETATM    8  C12 UNL     1      -0.559   3.522  84.800  1.00  0.00     0.031 A 
BRANCH   6   9
HETATM    9  S1  UNL     1      -3.017   1.629  87.315  1.00  0.00     0.256 S 
HETATM   10  O1  UNL     1      -2.133   0.421  87.410  1.00  0.00    -0.201 OA
HETATM   11  O2  UNL     1      -4.371   1.182  86.865  1.00  0.00    -0.201 OA
BRANCH   9  12
HETATM   12  N1  UNL     1      -3.169   2.472  88.791  1.00  0.00    -0.324 N 
ATOM     13  H12 UNL     1      -3.742   2.128  89.561  1.00  0.00     0.169 HD
ATOM     14  H11 UNL     1      -2.635   3.340  88.817  1.00  0.00     0.169 HD
ENDBRANCH   9  12
ENDBRANCH   6   9
ENDBRANCH   1   3
BRANCH   1  15
HETATM   15  C5  UNL     1       0.032   4.949  82.242  1.00  0.00     0.176 C 
HETATM   16  S2  UNL     1       1.635   5.369  82.326  1.00  0.00    -0.041 SA
BRANCH  15  17
HETATM   17  N3  UNL     1      -0.403   4.130  81.164  1.00  0.00    -0.333 N 
ATOM     18  H3  UNL     1      -0.805   4.572  80.337  1.00  0.00     0.168 HD
BRANCH  17  19
HETATM   19  C6  UNL     1      -0.295   2.718  81.203  1.00  0.00     0.034 A 
HETATM   20  C7  UNL     1      -1.486   2.003  81.391  1.00  0.00     0.032 A 
HETATM   21  C8  UNL     1      -1.464   0.649  81.396  1.00  0.00     0.044 A 
HETATM   22  C9  UNL     1      -0.271  -0.020  81.215  1.00  0.00     0.116 A 
HETATM   23  F1  UNL     1      -0.305  -1.371  81.228  1.00  0.00    -0.206 F 
HETATM   24  C10 UNL     1       0.917   0.659  81.027  1.00  0.00     0.044 A 
HETATM   25  C11 UNL     1       0.886   2.033  81.023  1.00  0.00     0.032 A 
ENDBRANCH  17  19
ENDBRANCH  15  17
ENDBRANCH   1  15
TORSDOF 6
ENDMDL
