MODEL 2
REMARK VINA RESULT: -9.689563844      2.038      2.488
REMARK  12 active torsions:
REMARK  status: ('A' for Active; 'I' for Inactive)
REMARK    1  A    between atoms: N5_13  and  C6_14 
REMARK    2  A    between atoms: C7_16  and  C8_17 
REMARK    3  A    between atoms: C8_17  and  N6_18 
REMARK    4  A    between atoms: N6_18  and  C9_19 
REMARK    5  A    between atoms: N6_18  and  C13_29 
REMARK    6  A    between atoms: C9_19  and  C10_20 
REMARK    7  A    between atoms: C10_20  and  C11_21 
REMARK    8  A    between atoms: C11_21  and  N7_22 
REMARK    9  A    between atoms: C11_21  and  C12_26 
REMARK   10  A    between atoms: C13_29  and  C14_30 
REMARK   11  A    between atoms: C20_37  and  O4_38 
REMARK   12  A    between atoms: C21_40  and  O5_41 
ROOT
HETATM    1  C6  UNL     1      -2.692   0.714  27.251  1.00  0.00     0.262 C 
HETATM    2  O1  UNL     1      -3.973   0.373  27.750  1.00  0.00    -0.354 OA
HETATM    3  C7  UNL     1      -3.639  -0.086  29.000  1.00  0.00     0.183 C 
HETATM    4  C20 UNL     1      -2.700   0.909  29.587  1.00  0.00     0.182 C 
HETATM    5  C21 UNL     1      -2.217   1.656  28.335  1.00  0.00     0.198 C 
ENDROOT
BRANCH   3   6
HETATM    6  C8  UNL     1      -4.758  -0.535  29.861  1.00  0.00     0.307 C 
BRANCH   6   7
HETATM    7  N6  UNL     1      -4.871  -1.909  30.166  1.00  0.00     0.095 N 
BRANCH   7   8
HETATM    8  C9  UNL     1      -4.795  -2.791  29.038  1.00  0.00     0.275 C 
BRANCH   8   9
HETATM    9  C10 UNL     1      -6.126  -2.951  28.339  1.00  0.00     0.074 C 
BRANCH   9  10
HETATM   10  C11 UNL     1      -6.031  -2.947  26.841  1.00  0.00     0.285 C 
BRANCH  10  11
HETATM   11  N7  UNL     1      -4.730  -2.399  26.429  1.00  0.00    -0.065 N 
ATOM     12  H73 UNL     1      -3.951  -2.963  26.769  1.00  0.00     0.275 HD
ATOM     13  H72 UNL     1      -4.567  -2.512  25.428  1.00  0.00     0.275 HD
ATOM     14  H71 UNL     1      -4.659  -1.425  26.722  1.00  0.00     0.275 HD
ENDBRANCH  10  11
BRANCH  10  15
HETATM   15  C12 UNL     1      -7.094  -2.037  26.304  1.00  0.00     0.204 C 
HETATM   16  O2  UNL     1      -7.191  -0.864  26.738  1.00  0.00    -0.646 OA
HETATM   17  O3  UNL     1      -7.990  -2.448  25.330  1.00  0.00    -0.646 OA
ENDBRANCH  10  15
ENDBRANCH   9  10
ENDBRANCH   8   9
ENDBRANCH   7   8
BRANCH   7  18
HETATM   18  C13 UNL     1      -6.011  -2.277  30.983  1.00  0.00     0.311 C 
BRANCH  18  19
HETATM   19  C14 UNL     1      -5.641  -3.075  32.180  1.00  0.00    -0.030 A 
HETATM   20  C15 UNL     1      -4.820  -2.479  33.115  1.00  0.00     0.012 A 
HETATM   21  C16 UNL     1      -4.412  -3.133  34.268  1.00  0.00     0.043 A 
HETATM   22  C17 UNL     1      -4.876  -4.418  34.429  1.00  0.00     0.116 A 
HETATM   23  F1  UNL     1      -4.499  -5.109  35.559  1.00  0.00    -0.206 F 
HETATM   24  C18 UNL     1      -5.697  -5.036  33.511  1.00  0.00     0.043 A 
HETATM   25  C19 UNL     1      -6.080  -4.359  32.382  1.00  0.00     0.012 A 
ENDBRANCH  18  19
ENDBRANCH   7  18
ENDBRANCH   6   7
ENDBRANCH   3   6
BRANCH   4  26
HETATM   26  O4  UNL     1      -1.558   0.306  30.121  1.00  0.00    -0.390 OA
ATOM     27  H4  UNL     1      -1.076   0.892  30.692  1.00  0.00     0.210 HD
ENDBRANCH   4  26
BRANCH   1  28
HETATM   28  N5  UNL     1      -2.775   1.327  25.953  1.00  0.00    -0.297 N 
HETATM   29  C3  UNL     1      -1.879   1.100  24.975  1.00  0.00     0.142 A 
HETATM   30  N3  UNL     1      -0.766   0.339  24.890  1.00  0.00    -0.336 N 
HETATM   31  C4  UNL     1      -2.220   1.825  23.848  1.00  0.00     0.119 A 
HETATM   32  C2  UNL     1      -0.020   0.278  23.777  1.00  0.00     0.183 A 
ATOM     33  H3  UNL     1      -0.483  -0.210  25.702  1.00  0.00     0.168 HD
HETATM   34  N2  UNL     1      -0.339   0.975  22.673  1.00  0.00    -0.339 N 
HETATM   35  C1  UNL     1      -1.431   1.743  22.709  1.00  0.00     0.148 A 
ATOM     36  H2  UNL     1       0.237   0.918  21.833  1.00  0.00     0.167 HD
HETATM   37  N1  UNL     1      -1.782   2.489  21.547  1.00  0.00    -0.080 NA
HETATM   38  N4  UNL     1      -3.342   2.491  24.170  1.00  0.00    -0.346 N 
HETATM   39  C5  UNL     1      -3.674   2.184  25.454  1.00  0.00     0.188 A 
ATOM     40  H4  UNL     1      -3.858   3.121  23.556  1.00  0.00     0.167 HD
ENDBRANCH   1  28
BRANCH   5  41
HETATM   41  O5  UNL     1      -0.840   1.787  28.315  1.00  0.00    -0.388 OA
ATOM     42  H5  UNL     1      -0.417   1.033  28.710  1.00  0.00     0.210 HD
ENDBRANCH   5  41
TORSDOF 12
ENDMDL
