MODEL 1
REMARK VINA RESULT: -9.758069365      0.000      0.000
REMARK  12 active torsions:
REMARK  status: ('A' for Active; 'I' for Inactive)
REMARK    1  A    between atoms: N5_13  and  C6_14 
REMARK    2  A    between atoms: C7_16  and  C8_17 
REMARK    3  A    between atoms: C8_17  and  N6_18 
REMARK    4  A    between atoms: N6_18  and  C9_19 
REMARK    5  A    between atoms: N6_18  and  C13_29 
REMARK    6  A    between atoms: C9_19  and  C10_20 
REMARK    7  A    between atoms: C10_20  and  C11_21 
REMARK    8  A    between atoms: C11_21  and  N7_22 
REMARK    9  A    between atoms: C11_21  and  C12_26 
REMARK   10  A    between atoms: C13_29  and  C14_30 
REMARK   11  A    between atoms: C20_37  and  O4_38 
REMARK   12  A    between atoms: C21_40  and  O5_41 
ROOT
HETATM    1  C6  UNL     1      -2.168   0.654  26.846  1.00  0.00     0.262 C 
HETATM    2  O1  UNL     1      -3.144  -0.342  27.094  1.00  0.00    -0.354 OA
HETATM    3  C7  UNL     1      -2.850  -0.659  28.397  1.00  0.00     0.183 C 
HETATM    4  C20 UNL     1      -2.697   0.628  29.130  1.00  0.00     0.182 C 
HETATM    5  C21 UNL     1      -2.463   1.615  27.977  1.00  0.00     0.198 C 
ENDROOT
BRANCH   3   6
HETATM    6  C8  UNL     1      -3.698  -1.693  29.035  1.00  0.00     0.307 C 
BRANCH   6   7
HETATM    7  N6  UNL     1      -5.092  -1.662  28.810  1.00  0.00     0.095 N 
BRANCH   7   8
HETATM    8  C9  UNL     1      -5.644  -0.357  28.591  1.00  0.00     0.275 C 
BRANCH   8   9
HETATM    9  C10 UNL     1      -6.487  -0.289  27.338  1.00  0.00     0.074 C 
BRANCH   9  10
HETATM   10  C11 UNL     1      -6.198  -1.382  26.351  1.00  0.00     0.285 C 
BRANCH  10  11
HETATM   11  N7  UNL     1      -5.732  -0.798  25.086  1.00  0.00    -0.065 N 
ATOM     12  H73 UNL     1      -6.501  -0.618  24.440  1.00  0.00     0.275 HD
ATOM     13  H72 UNL     1      -5.411   0.164  25.203  1.00  0.00     0.275 HD
ATOM     14  H71 UNL     1      -5.015  -1.395  24.674  1.00  0.00     0.275 HD
ENDBRANCH  10  11
BRANCH  10  15
HETATM   15  C12 UNL     1      -7.477  -2.112  26.067  1.00  0.00     0.204 C 
HETATM   16  O2  UNL     1      -8.132  -2.616  27.012  1.00  0.00    -0.646 OA
HETATM   17  O3  UNL     1      -7.972  -2.254  24.781  1.00  0.00    -0.646 OA
ENDBRANCH  10  15
ENDBRANCH   9  10
ENDBRANCH   8   9
ENDBRANCH   7   8
BRANCH   7  18
HETATM   18  C13 UNL     1      -5.899  -2.364  29.789  1.00  0.00     0.311 C 
BRANCH  18  19
HETATM   19  C14 UNL     1      -5.899  -3.838  29.600  1.00  0.00    -0.030 A 
HETATM   20  C15 UNL     1      -6.101  -4.623  30.715  1.00  0.00     0.012 A 
HETATM   21  C16 UNL     1      -6.119  -6.009  30.653  1.00  0.00     0.043 A 
HETATM   22  C17 UNL     1      -5.923  -6.560  29.408  1.00  0.00     0.116 A 
HETATM   23  F1  UNL     1      -5.933  -7.932  29.295  1.00  0.00    -0.206 F 
HETATM   24  C18 UNL     1      -5.720  -5.798  28.278  1.00  0.00     0.043 A 
HETATM   25  C19 UNL     1      -5.708  -4.431  28.377  1.00  0.00     0.012 A 
ENDBRANCH  18  19
ENDBRANCH   7  18
ENDBRANCH   6   7
ENDBRANCH   3   6
BRANCH   4  26
HETATM   26  O4  UNL     1      -1.526   0.665  29.892  1.00  0.00    -0.390 OA
ATOM     27  H4  UNL     1      -0.782   0.975  29.390  1.00  0.00     0.210 HD
ENDBRANCH   4  26
BRANCH   1  28
HETATM   28  N5  UNL     1      -2.327   1.237  25.541  1.00  0.00    -0.297 N 
HETATM   29  C3  UNL     1      -1.462   1.024  24.531  1.00  0.00     0.142 A 
HETATM   30  N3  UNL     1      -0.326   0.302  24.416  1.00  0.00    -0.336 N 
HETATM   31  C4  UNL     1      -1.876   1.712  23.406  1.00  0.00     0.119 A 
HETATM   32  C2  UNL     1       0.376   0.246  23.275  1.00  0.00     0.183 A 
ATOM     33  H3  UNL     1       0.010  -0.219  25.226  1.00  0.00     0.168 HD
HETATM   34  N2  UNL     1      -0.012   0.907  22.172  1.00  0.00    -0.339 N 
HETATM   35  C1  UNL     1      -1.131   1.636  22.237  1.00  0.00     0.148 A 
ATOM     36  H2  UNL     1       0.531   0.855  21.310  1.00  0.00     0.167 HD
HETATM   37  N1  UNL     1      -1.556   2.344  21.077  1.00  0.00    -0.080 NA
HETATM   38  N4  UNL     1      -3.008   2.343  23.762  1.00  0.00    -0.346 N 
HETATM   39  C5  UNL     1      -3.276   2.050  25.064  1.00  0.00     0.188 A 
ATOM     40  H4  UNL     1      -3.572   2.940  23.157  1.00  0.00     0.167 HD
ENDBRANCH   1  28
BRANCH   5  41
HETATM   41  O5  UNL     1      -1.383   2.444  28.223  1.00  0.00    -0.388 OA
ATOM     42  H5  UNL     1      -0.789   2.056  28.855  1.00  0.00     0.210 HD
ENDBRANCH   5  41
TORSDOF 12
ENDMDL
