MODEL 3
REMARK VINA RESULT: -9.573909592      0.715      1.200
REMARK  12 active torsions:
REMARK  status: ('A' for Active; 'I' for Inactive)
REMARK    1  A    between atoms: N5_13  and  C6_14 
REMARK    2  A    between atoms: C7_16  and  C8_17 
REMARK    3  A    between atoms: C8_17  and  N6_18 
REMARK    4  A    between atoms: N6_18  and  C9_19 
REMARK    5  A    between atoms: N6_18  and  C13_29 
REMARK    6  A    between atoms: C9_19  and  C10_20 
REMARK    7  A    between atoms: C10_20  and  C11_21 
REMARK    8  A    between atoms: C11_21  and  N7_22 
REMARK    9  A    between atoms: C11_21  and  C12_26 
REMARK   10  A    between atoms: C13_29  and  C14_30 
REMARK   11  A    between atoms: C20_37  and  O4_38 
REMARK   12  A    between atoms: C21_40  and  O5_41 
ROOT
HETATM    1  C6  UNL     1      -2.137   0.817  26.958  1.00  0.00     0.262 C 
HETATM    2  O1  UNL     1      -3.011  -0.278  27.161  1.00  0.00    -0.354 OA
HETATM    3  C7  UNL     1      -2.751  -0.563  28.478  1.00  0.00     0.183 C 
HETATM    4  C20 UNL     1      -2.774   0.731  29.212  1.00  0.00     0.182 C 
HETATM    5  C21 UNL     1      -2.589   1.739  28.069  1.00  0.00     0.198 C 
ENDROOT
BRANCH   3   6
HETATM    6  C8  UNL     1      -3.515  -1.683  29.077  1.00  0.00     0.307 C 
BRANCH   6   7
HETATM    7  N6  UNL     1      -4.887  -1.810  28.771  1.00  0.00     0.095 N 
BRANCH   7   8
HETATM    8  C9  UNL     1      -5.609  -0.573  28.685  1.00  0.00     0.275 C 
BRANCH   8   9
HETATM    9  C10 UNL     1      -6.029  -0.248  27.270  1.00  0.00     0.074 C 
BRANCH   9  10
HETATM   10  C11 UNL     1      -6.055  -1.436  26.354  1.00  0.00     0.285 C 
BRANCH  10  11
HETATM   11  N7  UNL     1      -4.872  -1.416  25.482  1.00  0.00    -0.065 N 
ATOM     12  H73 UNL     1      -5.068  -1.810  24.561  1.00  0.00     0.275 HD
ATOM     13  H72 UNL     1      -4.628  -0.470  25.188  1.00  0.00     0.275 HD
ATOM     14  H71 UNL     1      -4.095  -1.887  25.945  1.00  0.00     0.275 HD
ENDBRANCH  10  11
BRANCH  10  15
HETATM   15  C12 UNL     1      -7.265  -1.329  25.476  1.00  0.00     0.204 C 
HETATM   16  O2  UNL     1      -7.570  -0.225  24.963  1.00  0.00    -0.646 OA
HETATM   17  O3  UNL     1      -8.075  -2.420  25.204  1.00  0.00    -0.646 OA
ENDBRANCH  10  15
ENDBRANCH   9  10
ENDBRANCH   8   9
ENDBRANCH   7   8
BRANCH   7  18
HETATM   18  C13 UNL     1      -5.630  -2.739  29.600  1.00  0.00     0.311 C 
BRANCH  18  19
HETATM   19  C14 UNL     1      -5.718  -4.103  29.017  1.00  0.00    -0.030 A 
HETATM   20  C15 UNL     1      -5.654  -4.215  27.645  1.00  0.00     0.012 A 
HETATM   21  C16 UNL     1      -5.727  -5.440  26.996  1.00  0.00     0.043 A 
HETATM   22  C17 UNL     1      -5.867  -6.543  27.805  1.00  0.00     0.116 A 
HETATM   23  F1  UNL     1      -5.943  -7.782  27.208  1.00  0.00    -0.206 F 
HETATM   24  C18 UNL     1      -5.932  -6.459  29.179  1.00  0.00     0.043 A 
HETATM   25  C19 UNL     1      -5.857  -5.232  29.785  1.00  0.00     0.012 A 
ENDBRANCH  18  19
ENDBRANCH   7  18
ENDBRANCH   6   7
ENDBRANCH   3   6
BRANCH   4  26
HETATM   26  O4  UNL     1      -1.653   0.893  30.032  1.00  0.00    -0.390 OA
ATOM     27  H4  UNL     1      -1.477   1.807  30.222  1.00  0.00     0.210 HD
ENDBRANCH   4  26
BRANCH   1  28
HETATM   28  N5  UNL     1      -2.291   1.381  25.645  1.00  0.00    -0.297 N 
HETATM   29  C3  UNL     1      -1.466   1.096  24.620  1.00  0.00     0.142 A 
HETATM   30  N3  UNL     1      -0.377   0.305  24.495  1.00  0.00    -0.336 N 
HETATM   31  C4  UNL     1      -1.864   1.784  23.489  1.00  0.00     0.119 A 
HETATM   32  C2  UNL     1       0.293   0.183  23.340  1.00  0.00     0.183 A 
ATOM     33  H3  UNL     1      -0.054  -0.219  25.309  1.00  0.00     0.168 HD
HETATM   34  N2  UNL     1      -0.081   0.844  22.232  1.00  0.00    -0.339 N 
HETATM   35  C1  UNL     1      -1.153   1.639  22.306  1.00  0.00     0.148 A 
ATOM     36  H2  UNL     1       0.437   0.741  21.360  1.00  0.00     0.167 HD
HETATM   37  N1  UNL     1      -1.562   2.347  21.140  1.00  0.00    -0.080 NA
HETATM   38  N4  UNL     1      -2.948   2.489  23.856  1.00  0.00    -0.346 N 
HETATM   39  C5  UNL     1      -3.202   2.240  25.170  1.00  0.00     0.188 A 
ATOM     40  H4  UNL     1      -3.489   3.107  23.252  1.00  0.00     0.167 HD
ENDBRANCH   1  28
BRANCH   5  41
HETATM   41  O5  UNL     1      -1.618   2.679  28.365  1.00  0.00    -0.388 OA
ATOM     42  H5  UNL     1      -0.871   2.278  28.793  1.00  0.00     0.210 HD
ENDBRANCH   5  41
TORSDOF 12
ENDMDL
