MODEL 11
REMARK VINA RESULT: -9.636569030      1.659     10.477
REMARK  14 active torsions:
REMARK  status: ('A' for Active; 'I' for Inactive)
REMARK    1  A    between atoms: O1_2  and  C2_3 
REMARK    2  A    between atoms: C5_6  and  S1_7 
REMARK    3  A    between atoms: S1_7  and  N1_10 
REMARK    4  A    between atoms: N1_10  and  C6_11 
REMARK    5  A    between atoms: N1_10  and  C10_15 
REMARK    6  A    between atoms: C6_11  and  C7_12 
REMARK    7  A    between atoms: C10_15  and  C11_16 
REMARK    8  A    between atoms: C11_16  and  O4_17 
REMARK    9  A    between atoms: C11_16  and  C12_19 
REMARK   10  A    between atoms: C12_19  and  C13_20 
REMARK   11  A    between atoms: C12_19  and  N2_27 
REMARK   12  A    between atoms: C13_20  and  C14_21 
REMARK       I    between atoms: N2_27  and  C20_29 
REMARK   13  A    between atoms: C20_29  and  O6_31 
REMARK   14  A    between atoms: O6_31  and  C21_32 
ROOT
HETATM    1  C12 UNL     1      16.324  23.037  17.178  1.00  0.00     0.121 C 
ENDROOT
BRANCH   1   2
HETATM    2  C11 UNL     1      16.215  24.346  17.838  1.00  0.00     0.160 C 
BRANCH   2   3
HETATM    3  C10 UNL     1      17.100  25.456  17.413  1.00  0.00     0.174 C 
BRANCH   3   4
HETATM    4  N1  UNL     1      18.496  25.098  17.353  1.00  0.00    -0.283 N 
BRANCH   4   5
HETATM    5  S1  UNL     1      19.296  25.325  15.914  1.00  0.00     0.264 S 
HETATM    6  O2  UNL     1      18.348  25.758  14.810  1.00  0.00    -0.200 OA
HETATM    7  O3  UNL     1      19.802  23.955  15.434  1.00  0.00    -0.200 OA
BRANCH   5   8
HETATM    8  C5  UNL     1      20.703  26.339  15.947  1.00  0.00     0.080 A 
HETATM    9  C4  UNL     1      20.879  27.289  16.924  1.00  0.00     0.028 A 
HETATM   10  C3  UNL     1      22.010  28.076  16.949  1.00  0.00     0.038 A 
HETATM   11  C2  UNL     1      22.988  27.933  16.003  1.00  0.00     0.068 A 
HETATM   12  C30 UNL     1      22.837  26.997  15.021  1.00  0.00     0.038 A 
HETATM   13  C29 UNL     1      21.688  26.196  14.995  1.00  0.00     0.028 A 
BRANCH  11  14
HETATM   14  O1  UNL     1      24.127  28.740  16.044  1.00  0.00    -0.356 OA
HETATM   15  C1  UNL     1      25.315  28.374  15.382  1.00  0.00     0.210 C 
ENDBRANCH  11  14
ENDBRANCH   5   8
ENDBRANCH   4   5
BRANCH   4  16
HETATM   16  C6  UNL     1      19.164  24.850  18.548  1.00  0.00     0.080 C 
BRANCH  16  17
HETATM   17  C7  UNL     1      20.099  23.678  18.436  1.00  0.00     0.017 C 
HETATM   18  C8  UNL     1      21.476  23.946  18.971  1.00  0.00     0.015 C 
HETATM   19  C9  UNL     1      19.561  22.480  19.199  1.00  0.00     0.015 C 
ENDBRANCH  16  17
ENDBRANCH   4  16
ENDBRANCH   3   4
ENDBRANCH   2   3
BRANCH   2  20
HETATM   20  O4  UNL     1      14.897  24.688  18.089  1.00  0.00    -0.392 OA
ATOM     21  H4  UNL     1      14.402  24.070  18.613  1.00  0.00     0.210 HD
ENDBRANCH   2  20
ENDBRANCH   1   2
BRANCH   1  22
HETATM   22  C13 UNL     1      16.369  22.952  15.704  1.00  0.00     0.066 C 
BRANCH  22  23
HETATM   23  C14 UNL     1      15.164  22.540  14.988  1.00  0.00    -0.056 A 
HETATM   24  C15 UNL     1      15.003  21.234  14.579  1.00  0.00     0.007 A 
HETATM   25  C16 UNL     1      13.889  20.786  13.903  1.00  0.00     0.001 A 
HETATM   26  C17 UNL     1      12.891  21.699  13.629  1.00  0.00     0.000 A 
HETATM   27  C18 UNL     1      13.042  23.003  14.033  1.00  0.00     0.001 A 
HETATM   28  C19 UNL     1      14.166  23.429  14.708  1.00  0.00     0.007 A 
ENDBRANCH  22  23
ENDBRANCH   1  22
BRANCH   1  29
HETATM   29  N2  UNL     1      15.166  22.246  17.669  1.00  0.00    -0.329 N 
HETATM   30  C20 UNL     1      15.270  21.240  18.637  1.00  0.00     0.361 C 
HETATM   31  O5  UNL     1      16.414  21.002  19.111  1.00  0.00    -0.238 OA
ATOM     32  H2  UNL     1      14.246  22.447  17.279  1.00  0.00     0.165 HD
BRANCH  30  33
HETATM   33  O6  UNL     1      14.226  20.486  19.117  1.00  0.00    -0.298 OA
BRANCH  33  34
HETATM   34  C21 UNL     1      14.011  19.196  18.652  1.00  0.00     0.146 C 
HETATM   35  C22 UNL     1      13.106  19.111  17.456  1.00  0.00     0.048 C 
HETATM   36  C23 UNL     1      12.084  20.206  17.390  1.00  0.00     0.178 C 
HETATM   37  C28 UNL     1      12.277  17.870  17.674  1.00  0.00     0.050 C 
HETATM   38  O7  UNL     1      10.856  19.685  17.724  1.00  0.00    -0.360 OA
HETATM   39  C24 UNL     1      11.020  18.444  18.282  1.00  0.00     0.264 C 
HETATM   40  O8  UNL     1      10.984  18.406  19.644  1.00  0.00    -0.360 OA
HETATM   41  C25 UNL     1      12.133  18.822  20.282  1.00  0.00     0.178 C 
HETATM   42  C26 UNL     1      13.393  18.281  19.682  1.00  0.00     0.040 C 
HETATM   43  C27 UNL     1      12.984  17.100  18.791  1.00  0.00     0.019 C 
ENDBRANCH  33  34
ENDBRANCH  30  33
ENDBRANCH   1  29
TORSDOF 14
ENDMDL
