MODEL 2
REMARK VINA RESULT: -10.122132625      1.653      4.761
REMARK  14 active torsions:
REMARK  status: ('A' for Active; 'I' for Inactive)
REMARK    1  A    between atoms: O1_2  and  C2_3 
REMARK    2  A    between atoms: C5_6  and  S1_7 
REMARK    3  A    between atoms: S1_7  and  N1_10 
REMARK    4  A    between atoms: N1_10  and  C6_11 
REMARK    5  A    between atoms: N1_10  and  C10_15 
REMARK    6  A    between atoms: C6_11  and  C7_12 
REMARK    7  A    between atoms: C10_15  and  C11_16 
REMARK    8  A    between atoms: C11_16  and  O4_17 
REMARK    9  A    between atoms: C11_16  and  C12_19 
REMARK   10  A    between atoms: C12_19  and  C13_20 
REMARK   11  A    between atoms: C12_19  and  N2_27 
REMARK   12  A    between atoms: C13_20  and  C14_21 
REMARK       I    between atoms: N2_27  and  C20_29 
REMARK   13  A    between atoms: C20_29  and  O6_31 
REMARK   14  A    between atoms: O6_31  and  C21_32 
ROOT
HETATM    1  C12 UNL     1      17.185  22.960  15.480  1.00  0.00     0.121 C 
ENDROOT
BRANCH   1   2
HETATM    2  C11 UNL     1      17.880  21.949  16.288  1.00  0.00     0.160 C 
BRANCH   2   3
HETATM    3  C10 UNL     1      17.091  20.992  17.101  1.00  0.00     0.174 C 
BRANCH   3   4
HETATM    4  N1  UNL     1      16.775  21.474  18.423  1.00  0.00    -0.283 N 
BRANCH   4   5
HETATM    5  S1  UNL     1      15.172  21.596  18.844  1.00  0.00     0.264 S 
HETATM    6  O2  UNL     1      14.582  22.930  18.419  1.00  0.00    -0.200 OA
HETATM    7  O3  UNL     1      15.088  21.642  20.378  1.00  0.00    -0.200 OA
BRANCH   5   8
HETATM    8  C5  UNL     1      14.132  20.289  18.373  1.00  0.00     0.080 A 
HETATM    9  C4  UNL     1      14.149  19.086  19.036  1.00  0.00     0.028 A 
HETATM   10  C3  UNL     1      13.304  18.063  18.662  1.00  0.00     0.038 A 
HETATM   11  C2  UNL     1      12.428  18.216  17.623  1.00  0.00     0.068 A 
HETATM   12  C30 UNL     1      12.393  19.402  16.948  1.00  0.00     0.038 A 
HETATM   13  C29 UNL     1      13.250  20.443  17.327  1.00  0.00     0.028 A 
BRANCH  11  14
HETATM   14  O1  UNL     1      11.581  17.168  17.259  1.00  0.00    -0.356 OA
HETATM   15  C1  UNL     1      10.365  16.933  17.931  1.00  0.00     0.210 C 
ENDBRANCH  11  14
ENDBRANCH   5   8
ENDBRANCH   4   5
BRANCH   4  16
HETATM   16  C6  UNL     1      17.800  21.545  19.361  1.00  0.00     0.080 C 
BRANCH  16  17
HETATM   17  C7  UNL     1      18.611  22.803  19.212  1.00  0.00     0.017 C 
HETATM   18  C8  UNL     1      18.182  23.912  20.127  1.00  0.00     0.015 C 
HETATM   19  C9  UNL     1      20.079  22.540  19.502  1.00  0.00     0.015 C 
ENDBRANCH  16  17
ENDBRANCH   4  16
ENDBRANCH   3   4
ENDBRANCH   2   3
BRANCH   2  20
HETATM   20  O4  UNL     1      18.971  21.417  15.621  1.00  0.00    -0.392 OA
ATOM     21  H4  UNL     1      19.699  22.010  15.481  1.00  0.00     0.210 HD
ENDBRANCH   2  20
ENDBRANCH   1   2
BRANCH   1  22
HETATM   22  C13 UNL     1      16.646  22.605  14.151  1.00  0.00     0.066 C 
BRANCH  22  23
HETATM   23  C14 UNL     1      15.232  22.258  14.038  1.00  0.00    -0.056 A 
HETATM   24  C15 UNL     1      14.845  21.078  13.440  1.00  0.00     0.007 A 
HETATM   25  C16 UNL     1      13.528  20.696  13.305  1.00  0.00     0.001 A 
HETATM   26  C17 UNL     1      12.558  21.544  13.799  1.00  0.00     0.000 A 
HETATM   27  C18 UNL     1      12.933  22.722  14.397  1.00  0.00     0.001 A 
HETATM   28  C19 UNL     1      14.257  23.084  14.520  1.00  0.00     0.007 A 
ENDBRANCH  22  23
ENDBRANCH   1  22
BRANCH   1  29
HETATM   29  N2  UNL     1      18.152  24.077  15.322  1.00  0.00    -0.329 N 
HETATM   30  C20 UNL     1      18.109  25.252  16.082  1.00  0.00     0.361 C 
HETATM   31  O5  UNL     1      17.194  25.356  16.945  1.00  0.00    -0.238 OA
ATOM     32  H2  UNL     1      18.887  23.982  14.622  1.00  0.00     0.165 HD
BRANCH  30  33
HETATM   33  O6  UNL     1      18.982  26.307  15.968  1.00  0.00    -0.298 OA
BRANCH  33  34
HETATM   34  C21 UNL     1      20.286  26.104  15.539  1.00  0.00     0.146 C 
HETATM   35  C22 UNL     1      21.326  26.285  16.608  1.00  0.00     0.048 C 
HETATM   36  C23 UNL     1      20.939  27.270  17.670  1.00  0.00     0.178 C 
HETATM   37  C28 UNL     1      22.489  26.953  15.919  1.00  0.00     0.050 C 
HETATM   38  O7  UNL     1      21.655  28.427  17.483  1.00  0.00    -0.360 OA
HETATM   39  C24 UNL     1      22.246  28.406  16.247  1.00  0.00     0.264 C 
HETATM   40  O8  UNL     1      21.593  29.103  15.274  1.00  0.00    -0.360 OA
HETATM   41  C25 UNL     1      20.489  28.478  14.734  1.00  0.00     0.178 C 
HETATM   42  C26 UNL     1      20.702  27.030  14.421  1.00  0.00     0.040 C 
HETATM   43  C27 UNL     1      22.219  26.798  14.421  1.00  0.00     0.019 C 
ENDBRANCH  33  34
ENDBRANCH  30  33
ENDBRANCH   1  29
TORSDOF 14
ENDMDL
