MODEL 5
REMARK VINA RESULT: -9.965981855      1.542     10.398
REMARK  14 active torsions:
REMARK  status: ('A' for Active; 'I' for Inactive)
REMARK    1  A    between atoms: O1_2  and  C2_3 
REMARK    2  A    between atoms: C5_6  and  S1_7 
REMARK    3  A    between atoms: S1_7  and  N1_10 
REMARK    4  A    between atoms: N1_10  and  C6_11 
REMARK    5  A    between atoms: N1_10  and  C10_15 
REMARK    6  A    between atoms: C6_11  and  C7_12 
REMARK    7  A    between atoms: C10_15  and  C11_16 
REMARK    8  A    between atoms: C11_16  and  O4_17 
REMARK    9  A    between atoms: C11_16  and  C12_19 
REMARK   10  A    between atoms: C12_19  and  C13_20 
REMARK   11  A    between atoms: C12_19  and  N2_27 
REMARK   12  A    between atoms: C13_20  and  C14_21 
REMARK       I    between atoms: N2_27  and  C20_29 
REMARK   13  A    between atoms: C20_29  and  O6_31 
REMARK   14  A    between atoms: O6_31  and  C21_32 
ROOT
HETATM    1  C12 UNL     1      15.157  23.156  16.923  1.00  0.00     0.121 C 
ENDROOT
BRANCH   1   2
HETATM    2  C11 UNL     1      15.511  24.226  17.865  1.00  0.00     0.160 C 
BRANCH   2   3
HETATM    3  C10 UNL     1      16.788  24.960  17.694  1.00  0.00     0.174 C 
BRANCH   3   4
HETATM    4  N1  UNL     1      17.897  24.118  17.319  1.00  0.00    -0.283 N 
BRANCH   4   5
HETATM    5  S1  UNL     1      18.653  24.425  15.871  1.00  0.00     0.264 S 
HETATM    6  O2  UNL     1      17.682  24.345  14.706  1.00  0.00    -0.200 OA
HETATM    7  O3  UNL     1      19.634  23.275  15.597  1.00  0.00    -0.200 OA
BRANCH   5   8
HETATM    8  C5  UNL     1      19.610  25.869  15.772  1.00  0.00     0.080 A 
HETATM    9  C4  UNL     1      20.434  26.254  16.801  1.00  0.00     0.028 A 
HETATM   10  C3  UNL     1      21.203  27.394  16.702  1.00  0.00     0.038 A 
HETATM   11  C2  UNL     1      21.165  28.173  15.578  1.00  0.00     0.068 A 
HETATM   12  C30 UNL     1      20.353  27.813  14.541  1.00  0.00     0.038 A 
HETATM   13  C29 UNL     1      19.573  26.654  14.641  1.00  0.00     0.028 A 
BRANCH  11  14
HETATM   14  O1  UNL     1      21.950  29.324  15.496  1.00  0.00    -0.356 OA
HETATM   15  C1  UNL     1      23.340  29.288  15.721  1.00  0.00     0.210 C 
ENDBRANCH  11  14
ENDBRANCH   5   8
ENDBRANCH   4   5
BRANCH   4  16
HETATM   16  C6  UNL     1      18.452  23.289  18.289  1.00  0.00     0.080 C 
BRANCH  16  17
HETATM   17  C7  UNL     1      19.308  24.056  19.259  1.00  0.00     0.017 C 
HETATM   18  C8  UNL     1      18.624  24.363  20.560  1.00  0.00     0.015 C 
HETATM   19  C9  UNL     1      20.568  23.279  19.602  1.00  0.00     0.015 C 
ENDBRANCH  16  17
ENDBRANCH   4  16
ENDBRANCH   3   4
ENDBRANCH   2   3
BRANCH   2  20
HETATM   20  O4  UNL     1      14.413  24.999  18.203  1.00  0.00    -0.392 OA
ATOM     21  H4  UNL     1      14.375  25.860  17.805  1.00  0.00     0.210 HD
ENDBRANCH   2  20
ENDBRANCH   1   2
BRANCH   1  22
HETATM   22  C13 UNL     1      14.495  23.483  15.643  1.00  0.00     0.066 C 
BRANCH  22  23
HETATM   23  C14 UNL     1      14.017  22.388  14.802  1.00  0.00    -0.056 A 
HETATM   24  C15 UNL     1      14.907  21.530  14.194  1.00  0.00     0.007 A 
HETATM   25  C16 UNL     1      14.516  20.480  13.392  1.00  0.00     0.001 A 
HETATM   26  C17 UNL     1      13.164  20.288  13.195  1.00  0.00     0.000 A 
HETATM   27  C18 UNL     1      12.268  21.138  13.796  1.00  0.00     0.001 A 
HETATM   28  C19 UNL     1      12.682  22.182  14.595  1.00  0.00     0.007 A 
ENDBRANCH  22  23
ENDBRANCH   1  22
BRANCH   1  29
HETATM   29  N2  UNL     1      14.289  22.224  17.687  1.00  0.00    -0.329 N 
HETATM   30  C20 UNL     1      14.759  21.062  18.311  1.00  0.00     0.361 C 
HETATM   31  O5  UNL     1      15.989  20.803  18.211  1.00  0.00    -0.238 OA
ATOM     32  H2  UNL     1      13.295  22.443  17.762  1.00  0.00     0.165 HD
BRANCH  30  33
HETATM   33  O6  UNL     1      13.991  20.175  19.026  1.00  0.00    -0.298 OA
BRANCH  33  34
HETATM   34  C21 UNL     1      13.758  18.893  18.547  1.00  0.00     0.146 C 
HETATM   35  C22 UNL     1      12.795  18.827  17.395  1.00  0.00     0.048 C 
HETATM   36  C23 UNL     1      11.767  19.918  17.401  1.00  0.00     0.178 C 
HETATM   37  C28 UNL     1      11.982  17.579  17.630  1.00  0.00     0.050 C 
HETATM   38  O7  UNL     1      10.559  19.386  17.785  1.00  0.00    -0.360 OA
HETATM   39  C24 UNL     1      10.755  18.135  18.309  1.00  0.00     0.264 C 
HETATM   40  O8  UNL     1      10.786  18.070  19.671  1.00  0.00    -0.360 OA
HETATM   41  C25 UNL     1      11.963  18.479  20.260  1.00  0.00     0.178 C 
HETATM   42  C26 UNL     1      13.194  17.956  19.588  1.00  0.00     0.040 C 
HETATM   43  C27 UNL     1      12.746  16.790  18.695  1.00  0.00     0.019 C 
ENDBRANCH  33  34
ENDBRANCH  30  33
ENDBRANCH   1  29
TORSDOF 14
ENDMDL
