MODEL 1
REMARK VINA RESULT: -10.177536529      0.000      0.000
REMARK  14 active torsions:
REMARK  status: ('A' for Active; 'I' for Inactive)
REMARK    1  A    between atoms: O1_2  and  C2_3 
REMARK    2  A    between atoms: C5_6  and  S1_7 
REMARK    3  A    between atoms: S1_7  and  N1_10 
REMARK    4  A    between atoms: N1_10  and  C6_11 
REMARK    5  A    between atoms: N1_10  and  C10_15 
REMARK    6  A    between atoms: C6_11  and  C7_12 
REMARK    7  A    between atoms: C10_15  and  C11_16 
REMARK    8  A    between atoms: C11_16  and  O4_17 
REMARK    9  A    between atoms: C11_16  and  C12_19 
REMARK   10  A    between atoms: C12_19  and  C13_20 
REMARK   11  A    between atoms: C12_19  and  N2_27 
REMARK   12  A    between atoms: C13_20  and  C14_21 
REMARK       I    between atoms: N2_27  and  C20_29 
REMARK   13  A    between atoms: C20_29  and  O6_31 
REMARK   14  A    between atoms: O6_31  and  C21_32 
ROOT
HETATM    1  C12 UNL     1      17.441  24.262  18.093  1.00  0.00     0.121 C 
ENDROOT
BRANCH   1   2
HETATM    2  C11 UNL     1      16.018  24.545  17.861  1.00  0.00     0.160 C 
BRANCH   2   3
HETATM    3  C10 UNL     1      15.031  23.440  17.923  1.00  0.00     0.174 C 
BRANCH   3   4
HETATM    4  N1  UNL     1      15.454  22.243  17.237  1.00  0.00    -0.283 N 
BRANCH   4   5
HETATM    5  S1  UNL     1      15.594  20.846  18.125  1.00  0.00     0.264 S 
HETATM    6  O2  UNL     1      16.472  21.046  19.348  1.00  0.00    -0.200 OA
HETATM    7  O3  UNL     1      16.380  19.828  17.284  1.00  0.00    -0.200 OA
BRANCH   5   8
HETATM    8  C5  UNL     1      14.121  20.035  18.555  1.00  0.00     0.080 A 
HETATM    9  C4  UNL     1      13.037  20.025  17.713  1.00  0.00     0.028 A 
HETATM   10  C3  UNL     1      11.879  19.361  18.059  1.00  0.00     0.038 A 
HETATM   11  C2  UNL     1      11.779  18.695  19.250  1.00  0.00     0.068 A 
HETATM   12  C30 UNL     1      12.843  18.690  20.105  1.00  0.00     0.038 A 
HETATM   13  C29 UNL     1      14.019  19.364  19.754  1.00  0.00     0.028 A 
BRANCH  11  14
HETATM   14  O1  UNL     1      10.599  18.029  19.584  1.00  0.00    -0.356 OA
HETATM   15  C1  UNL     1      10.096  16.976  18.795  1.00  0.00     0.210 C 
ENDBRANCH  11  14
ENDBRANCH   5   8
ENDBRANCH   4   5
BRANCH   4  16
HETATM   16  C6  UNL     1      15.451  22.247  15.846  1.00  0.00     0.080 C 
BRANCH  16  17
HETATM   17  C7  UNL     1      14.056  22.309  15.288  1.00  0.00     0.017 C 
HETATM   18  C8  UNL     1      13.745  23.593  14.576  1.00  0.00     0.015 C 
HETATM   19  C9  UNL     1      13.821  21.189  14.289  1.00  0.00     0.015 C 
ENDBRANCH  16  17
ENDBRANCH   4  16
ENDBRANCH   3   4
ENDBRANCH   2   3
BRANCH   2  20
HETATM   20  O4  UNL     1      15.627  25.736  18.450  1.00  0.00    -0.392 OA
ATOM     21  H4  UNL     1      16.271  26.433  18.439  1.00  0.00     0.210 HD
ENDBRANCH   2  20
ENDBRANCH   1   2
BRANCH   1  22
HETATM   22  C13 UNL     1      17.953  24.113  19.471  1.00  0.00     0.066 C 
BRANCH  22  23
HETATM   23  C14 UNL     1      19.398  24.125  19.687  1.00  0.00    -0.056 A 
HETATM   24  C15 UNL     1      19.998  25.167  20.359  1.00  0.00     0.007 A 
HETATM   25  C16 UNL     1      21.353  25.233  20.595  1.00  0.00     0.001 A 
HETATM   26  C17 UNL     1      22.139  24.198  20.131  1.00  0.00     0.000 A 
HETATM   27  C18 UNL     1      21.551  23.153  19.460  1.00  0.00     0.001 A 
HETATM   28  C19 UNL     1      20.192  23.109  19.235  1.00  0.00     0.007 A 
ENDBRANCH  22  23
ENDBRANCH   1  22
BRANCH   1  29
HETATM   29  N2  UNL     1      18.180  25.363  17.424  1.00  0.00    -0.329 N 
HETATM   30  C20 UNL     1      18.632  25.301  16.100  1.00  0.00     0.361 C 
HETATM   31  O5  UNL     1      18.392  24.247  15.450  1.00  0.00    -0.238 OA
ATOM     32  H2  UNL     1      18.368  26.211  17.958  1.00  0.00     0.165 HD
BRANCH  30  33
HETATM   33  O6  UNL     1      19.318  26.295  15.445  1.00  0.00    -0.298 OA
BRANCH  33  34
HETATM   34  C21 UNL     1      20.684  26.185  15.223  1.00  0.00     0.146 C 
HETATM   35  C22 UNL     1      21.529  26.364  16.452  1.00  0.00     0.048 C 
HETATM   36  C23 UNL     1      20.918  27.268  17.481  1.00  0.00     0.178 C 
HETATM   37  C28 UNL     1      22.743  27.130  15.991  1.00  0.00     0.050 C 
HETATM   38  O7  UNL     1      21.582  28.471  17.464  1.00  0.00    -0.360 OA
HETATM   39  C24 UNL     1      22.362  28.548  16.339  1.00  0.00     0.264 C 
HETATM   40  O8  UNL     1      21.830  29.260  15.306  1.00  0.00    -0.360 OA
HETATM   41  C25 UNL     1      20.866  28.606  14.567  1.00  0.00     0.178 C 
HETATM   42  C26 UNL     1      21.214  27.191  14.229  1.00  0.00     0.040 C 
HETATM   43  C27 UNL     1      22.724  27.041  14.463  1.00  0.00     0.019 C 
ENDBRANCH  33  34
ENDBRANCH  30  33
ENDBRANCH   1  29
TORSDOF 14
ENDMDL
