MODEL 3
REMARK VINA RESULT: -10.036147799      1.836      5.143
REMARK  14 active torsions:
REMARK  status: ('A' for Active; 'I' for Inactive)
REMARK    1  A    between atoms: O1_2  and  C2_3 
REMARK    2  A    between atoms: C5_6  and  S1_7 
REMARK    3  A    between atoms: S1_7  and  N1_10 
REMARK    4  A    between atoms: N1_10  and  C6_11 
REMARK    5  A    between atoms: N1_10  and  C10_15 
REMARK    6  A    between atoms: C6_11  and  C7_12 
REMARK    7  A    between atoms: C10_15  and  C11_16 
REMARK    8  A    between atoms: C11_16  and  O4_17 
REMARK    9  A    between atoms: C11_16  and  C12_19 
REMARK   10  A    between atoms: C12_19  and  C13_20 
REMARK   11  A    between atoms: C12_19  and  N2_27 
REMARK   12  A    between atoms: C13_20  and  C14_21 
REMARK       I    between atoms: N2_27  and  C20_29 
REMARK   13  A    between atoms: C20_29  and  O6_31 
REMARK   14  A    between atoms: O6_31  and  C21_32 
ROOT
HETATM    1  C12 UNL     1      17.022  24.318  15.967  1.00  0.00     0.121 C 
ENDROOT
BRANCH   1   2
HETATM    2  C11 UNL     1      16.916  24.256  17.431  1.00  0.00     0.160 C 
BRANCH   2   3
HETATM    3  C10 UNL     1      18.052  24.711  18.268  1.00  0.00     0.174 C 
BRANCH   3   4
HETATM    4  N1  UNL     1      18.513  23.723  19.211  1.00  0.00    -0.283 N 
BRANCH   4   5
HETATM    5  S1  UNL     1      18.491  22.129  18.742  1.00  0.00     0.264 S 
HETATM    6  O2  UNL     1      19.442  21.288  19.576  1.00  0.00    -0.200 OA
HETATM    7  O3  UNL     1      19.085  22.044  17.328  1.00  0.00    -0.200 OA
BRANCH   5   8
HETATM    8  C5  UNL     1      16.938  21.364  18.626  1.00  0.00     0.080 A 
HETATM    9  C4  UNL     1      16.605  20.577  17.551  1.00  0.00     0.028 A 
HETATM   10  C3  UNL     1      15.374  19.961  17.481  1.00  0.00     0.038 A 
HETATM   11  C2  UNL     1      14.451  20.115  18.479  1.00  0.00     0.068 A 
HETATM   12  C30 UNL     1      14.758  20.893  19.559  1.00  0.00     0.038 A 
HETATM   13  C29 UNL     1      16.008  21.519  19.631  1.00  0.00     0.028 A 
BRANCH  11  14
HETATM   14  O1  UNL     1      13.210  19.484  18.391  1.00  0.00    -0.356 OA
HETATM   15  C1  UNL     1      12.529  19.028  19.536  1.00  0.00     0.210 C 
ENDBRANCH  11  14
ENDBRANCH   5   8
ENDBRANCH   4   5
BRANCH   4  16
HETATM   16  C6  UNL     1      19.204  24.160  20.337  1.00  0.00     0.080 C 
BRANCH  16  17
HETATM   17  C7  UNL     1      20.431  24.950  19.971  1.00  0.00     0.017 C 
HETATM   18  C8  UNL     1      20.862  25.924  21.028  1.00  0.00     0.015 C 
HETATM   19  C9  UNL     1      21.613  24.030  19.718  1.00  0.00     0.015 C 
ENDBRANCH  16  17
ENDBRANCH   4  16
ENDBRANCH   3   4
ENDBRANCH   2   3
BRANCH   2  20
HETATM   20  O4  UNL     1      15.656  24.626  17.872  1.00  0.00    -0.392 OA
ATOM     21  H4  UNL     1      15.046  23.914  18.023  1.00  0.00     0.210 HD
ENDBRANCH   2  20
ENDBRANCH   1   2
BRANCH   1  22
HETATM   22  C13 UNL     1      16.875  23.089  15.160  1.00  0.00     0.066 C 
BRANCH  22  23
HETATM   23  C14 UNL     1      15.562  22.769  14.604  1.00  0.00    -0.056 A 
HETATM   24  C15 UNL     1      15.396  21.678  13.780  1.00  0.00     0.007 A 
HETATM   25  C16 UNL     1      14.184  21.325  13.228  1.00  0.00     0.001 A 
HETATM   26  C17 UNL     1      13.089  22.109  13.524  1.00  0.00     0.000 A 
HETATM   27  C18 UNL     1      13.243  23.199  14.346  1.00  0.00     0.001 A 
HETATM   28  C19 UNL     1      14.465  23.534  14.887  1.00  0.00     0.007 A 
ENDBRANCH  22  23
ENDBRANCH   1  22
BRANCH   1  29
HETATM   29  N2  UNL     1      18.354  24.916  15.690  1.00  0.00    -0.329 N 
HETATM   30  C20 UNL     1      18.544  26.041  14.878  1.00  0.00     0.361 C 
HETATM   31  O5  UNL     1      17.522  26.567  14.360  1.00  0.00    -0.238 OA
ATOM     32  H2  UNL     1      19.174  24.483  16.115  1.00  0.00     0.165 HD
BRANCH  30  33
HETATM   33  O6  UNL     1      19.756  26.625  14.597  1.00  0.00    -0.298 OA
BRANCH  33  34
HETATM   34  C21 UNL     1      20.387  27.433  15.533  1.00  0.00     0.146 C 
HETATM   35  C22 UNL     1      20.985  28.689  14.966  1.00  0.00     0.048 C 
HETATM   36  C23 UNL     1      21.426  28.559  13.539  1.00  0.00     0.178 C 
HETATM   37  C28 UNL     1      22.278  28.886  15.716  1.00  0.00     0.050 C 
HETATM   38  O7  UNL     1      22.798  28.492  13.505  1.00  0.00    -0.360 OA
HETATM   39  C24 UNL     1      23.279  28.269  14.769  1.00  0.00     0.264 C 
HETATM   40  O8  UNL     1      23.601  26.976  15.053  1.00  0.00    -0.360 OA
HETATM   41  C25 UNL     1      22.538  26.145  15.333  1.00  0.00     0.178 C 
HETATM   42  C26 UNL     1      21.522  26.745  16.253  1.00  0.00     0.040 C 
HETATM   43  C27 UNL     1      22.194  27.951  16.924  1.00  0.00     0.019 C 
ENDBRANCH  33  34
ENDBRANCH  30  33
ENDBRANCH   1  29
TORSDOF 14
ENDMDL
