MODEL 20
REMARK VINA RESULT: -9.418260514      1.713     10.607
REMARK  14 active torsions:
REMARK  status: ('A' for Active; 'I' for Inactive)
REMARK    1  A    between atoms: O1_2  and  C2_3 
REMARK    2  A    between atoms: C5_6  and  S1_7 
REMARK    3  A    between atoms: S1_7  and  N1_10 
REMARK    4  A    between atoms: N1_10  and  C6_11 
REMARK    5  A    between atoms: N1_10  and  C10_15 
REMARK    6  A    between atoms: C6_11  and  C7_12 
REMARK    7  A    between atoms: C10_15  and  C11_16 
REMARK    8  A    between atoms: C11_16  and  O4_17 
REMARK    9  A    between atoms: C11_16  and  C12_19 
REMARK   10  A    between atoms: C12_19  and  C13_20 
REMARK   11  A    between atoms: C12_19  and  N2_27 
REMARK   12  A    between atoms: C13_20  and  C14_21 
REMARK       I    between atoms: N2_27  and  C20_29 
REMARK   13  A    between atoms: C20_29  and  O6_31 
REMARK   14  A    between atoms: O6_31  and  C21_32 
ROOT
HETATM    1  C12 UNL     1      15.832  22.514  17.571  1.00  0.00     0.121 C 
ENDROOT
BRANCH   1   2
HETATM    2  C11 UNL     1      16.740  23.152  18.534  1.00  0.00     0.160 C 
BRANCH   2   3
HETATM    3  C10 UNL     1      17.211  24.537  18.290  1.00  0.00     0.174 C 
BRANCH   3   4
HETATM    4  N1  UNL     1      18.571  24.614  17.817  1.00  0.00    -0.283 N 
BRANCH   4   5
HETATM    5  S1  UNL     1      18.818  24.834  16.188  1.00  0.00     0.264 S 
HETATM    6  O2  UNL     1      17.550  25.293  15.488  1.00  0.00    -0.200 OA
HETATM    7  O3  UNL     1      19.093  23.458  15.562  1.00  0.00    -0.200 OA
BRANCH   5   8
HETATM    8  C5  UNL     1      20.166  25.821  15.722  1.00  0.00     0.080 A 
HETATM    9  C4  UNL     1      21.129  25.357  14.859  1.00  0.00     0.028 A 
HETATM   10  C3  UNL     1      22.185  26.159  14.483  1.00  0.00     0.038 A 
HETATM   11  C2  UNL     1      22.304  27.436  14.958  1.00  0.00     0.068 A 
HETATM   12  C30 UNL     1      21.360  27.921  15.817  1.00  0.00     0.038 A 
HETATM   13  C29 UNL     1      20.286  27.107  16.200  1.00  0.00     0.028 A 
BRANCH  11  14
HETATM   14  O1  UNL     1      23.381  28.233  14.566  1.00  0.00    -0.356 OA
HETATM   15  C1  UNL     1      24.410  28.579  15.464  1.00  0.00     0.210 C 
ENDBRANCH  11  14
ENDBRANCH   5   8
ENDBRANCH   4   5
BRANCH   4  16
HETATM   16  C6  UNL     1      19.586  24.780  18.755  1.00  0.00     0.080 C 
BRANCH  16  17
HETATM   17  C7  UNL     1      20.574  23.648  18.718  1.00  0.00     0.017 C 
HETATM   18  C8  UNL     1      21.955  24.034  19.163  1.00  0.00     0.015 C 
HETATM   19  C9  UNL     1      20.129  22.509  19.620  1.00  0.00     0.015 C 
ENDBRANCH  16  17
ENDBRANCH   4  16
ENDBRANCH   3   4
ENDBRANCH   2   3
BRANCH   2  20
HETATM   20  O4  UNL     1      16.395  22.855  19.842  1.00  0.00    -0.392 OA
ATOM     21  H4  UNL     1      17.091  22.941  20.483  1.00  0.00     0.210 HD
ENDBRANCH   2  20
ENDBRANCH   1   2
BRANCH   1  22
HETATM   22  C13 UNL     1      15.012  23.343  16.663  1.00  0.00     0.066 C 
BRANCH  22  23
HETATM   23  C14 UNL     1      14.856  22.917  15.274  1.00  0.00    -0.056 A 
HETATM   24  C15 UNL     1      13.676  23.139  14.600  1.00  0.00     0.007 A 
HETATM   25  C16 UNL     1      13.470  22.763  13.291  1.00  0.00     0.001 A 
HETATM   26  C17 UNL     1      14.506  22.133  12.632  1.00  0.00     0.000 A 
HETATM   27  C18 UNL     1      15.688  21.907  13.294  1.00  0.00     0.001 A 
HETATM   28  C19 UNL     1      15.871  22.292  14.605  1.00  0.00     0.007 A 
ENDBRANCH  22  23
ENDBRANCH   1  22
BRANCH   1  29
HETATM   29  N2  UNL     1      14.929  21.657  18.382  1.00  0.00    -0.329 N 
HETATM   30  C20 UNL     1      14.805  20.274  18.202  1.00  0.00     0.361 C 
HETATM   31  O5  UNL     1      15.504  19.738  17.298  1.00  0.00    -0.238 OA
ATOM     32  H2  UNL     1      14.370  22.101  19.111  1.00  0.00     0.165 HD
BRANCH  30  33
HETATM   33  O6  UNL     1      13.985  19.446  18.929  1.00  0.00    -0.298 OA
BRANCH  33  34
HETATM   34  C21 UNL     1      12.626  19.376  18.654  1.00  0.00     0.146 C 
HETATM   35  C22 UNL     1      11.797  18.798  19.766  1.00  0.00     0.048 C 
HETATM   36  C23 UNL     1      12.531  17.805  20.616  1.00  0.00     0.178 C 
HETATM   37  C28 UNL     1      10.744  17.963  19.082  1.00  0.00     0.050 C 
HETATM   38  O7  UNL     1      12.084  16.543  20.306  1.00  0.00    -0.360 OA
HETATM   39  C24 UNL     1      11.356  16.585  19.147  1.00  0.00     0.264 C 
HETATM   40  O8  UNL     1      12.027  16.212  18.020  1.00  0.00    -0.360 OA
HETATM   41  C25 UNL     1      12.880  17.159  17.495  1.00  0.00     0.178 C 
HETATM   42  C26 UNL     1      12.301  18.538  17.441  1.00  0.00     0.040 C 
HETATM   43  C27 UNL     1      10.783  18.384  17.611  1.00  0.00     0.019 C 
ENDBRANCH  33  34
ENDBRANCH  30  33
ENDBRANCH   1  29
TORSDOF 14
ENDMDL
