MODEL 3
REMARK VINA RESULT: -7.979974545      0.915      1.267
REMARK  9 active torsions:
REMARK  status: ('A' for Active; 'I' for Inactive)
REMARK    1  A    between atoms: N4_17  and  C9_18 
REMARK    2  A    between atoms: C9_18  and  C10_19 
REMARK    3  A    between atoms: C10_19  and  O3_20 
REMARK    4  A    between atoms: C10_19  and  C11_22 
REMARK    5  A    between atoms: C11_22  and  O4_23 
REMARK    6  A    between atoms: C11_22  and  C12_25 
REMARK    7  A    between atoms: C12_25  and  O5_26 
REMARK    8  A    between atoms: C12_25  and  C13_28 
REMARK    9  A    between atoms: C13_28  and  O6_29 
ROOT
HETATM    1  C1  UNL     1      28.717  -3.222 170.873  1.00  0.00     0.049 C 
HETATM    2  C2  UNL     1      28.928  -1.794 171.255  1.00  0.00    -0.054 A 
HETATM    3  C3  UNL     1      29.278  -0.870 170.315  1.00  0.00     0.039 A 
HETATM    4  C4  UNL     1      29.475   0.453 170.660  1.00  0.00     0.060 A 
HETATM    5  N1  UNL     1      29.817   1.349 169.723  1.00  0.00    -0.347 N 
ATOM      6  H1  UNL     1      29.936   1.066 168.750  1.00  0.00     0.166 HD
HETATM    7  C5  UNL     1      29.998   2.629 170.092  1.00  0.00     0.146 A 
HETATM    8  C6  UNL     1      30.351   3.625 169.200  1.00  0.00     0.280 A 
HETATM    9  O1  UNL     1      30.514   3.339 167.976  1.00  0.00    -0.265 OA
HETATM   10  N2  UNL     1      30.505   4.869 169.683  1.00  0.00    -0.273 N 
ATOM     11  H2  UNL     1      30.763   5.612 169.035  1.00  0.00     0.173 HD
HETATM   12  C7  UNL     1      30.334   5.181 170.980  1.00  0.00     0.328 A 
HETATM   13  O2  UNL     1      30.507   6.381 171.312  1.00  0.00    -0.247 OA
HETATM   14  N3  UNL     1      29.987   4.255 171.915  1.00  0.00    -0.292 N 
ATOM     15  H3  UNL     1      29.860   4.510 172.894  1.00  0.00     0.172 HD
HETATM   16  C8  UNL     1      29.818   2.991 171.492  1.00  0.00     0.145 A 
HETATM   17  N4  UNL     1      29.472   2.069 172.428  1.00  0.00    -0.327 N 
HETATM   18  C14 UNL     1      29.302   0.806 172.009  1.00  0.00     0.063 A 
HETATM   19  C15 UNL     1      28.948  -0.142 172.945  1.00  0.00     0.039 A 
HETATM   20  C16 UNL     1      28.754  -1.468 172.580  1.00  0.00    -0.054 A 
HETATM   21  C17 UNL     1      28.376  -2.478 173.583  1.00  0.00     0.049 C 
ENDROOT
BRANCH  17  22
HETATM   22  C9  UNL     1      29.298   2.429 173.783  1.00  0.00     0.165 C 
BRANCH  22  23
HETATM   23  C10 UNL     1      30.422   2.096 174.710  1.00  0.00     0.167 C 
BRANCH  23  24
HETATM   24  O3  UNL     1      30.109   1.688 175.963  1.00  0.00    -0.391 OA
ATOM     25  H3  UNL     1      30.713   1.101 176.402  1.00  0.00     0.210 HD
ENDBRANCH  23  24
BRANCH  23  26
HETATM   26  C11 UNL     1      31.381   3.288 174.690  1.00  0.00     0.179 C 
BRANCH  26  27
HETATM   27  O4  UNL     1      32.617   2.934 175.224  1.00  0.00    -0.390 OA
ATOM     28  H4  UNL     1      33.163   3.701 175.344  1.00  0.00     0.210 HD
ENDBRANCH  26  27
BRANCH  26  29
HETATM   29  C12 UNL     1      30.796   4.490 175.362  1.00  0.00     0.173 C 
BRANCH  29  30
HETATM   30  O5  UNL     1      30.693   5.495 174.400  1.00  0.00    -0.391 OA
ATOM     31  H5  UNL     1      29.816   5.856 174.461  1.00  0.00     0.210 HD
ENDBRANCH  29  30
BRANCH  29  32
HETATM   32  C13 UNL     1      31.664   4.995 176.495  1.00  0.00     0.198 C 
BRANCH  32  33
HETATM   33  O6  UNL     1      32.622   5.861 175.952  1.00  0.00    -0.398 OA
ATOM     34  H6  UNL     1      33.371   5.872 176.536  1.00  0.00     0.209 HD
ENDBRANCH  32  33
ENDBRANCH  29  32
ENDBRANCH  26  29
ENDBRANCH  23  26
ENDBRANCH  22  23
ENDBRANCH  17  22
TORSDOF 9
ENDMDL
