MODEL 2
REMARK VINA RESULT: -8.102677800      2.201      4.793
REMARK  9 active torsions:
REMARK  status: ('A' for Active; 'I' for Inactive)
REMARK    1  A    between atoms: N4_17  and  C9_18 
REMARK    2  A    between atoms: C9_18  and  C10_19 
REMARK    3  A    between atoms: C10_19  and  O3_20 
REMARK    4  A    between atoms: C10_19  and  C11_22 
REMARK    5  A    between atoms: C11_22  and  O4_23 
REMARK    6  A    between atoms: C11_22  and  C12_25 
REMARK    7  A    between atoms: C12_25  and  O5_26 
REMARK    8  A    between atoms: C12_25  and  C13_28 
REMARK    9  A    between atoms: C13_28  and  O6_29 
ROOT
HETATM    1  C1  UNL     1      30.724   3.532 168.336  1.00  0.00     0.049 C 
HETATM    2  C2  UNL     1      30.282   2.847 169.588  1.00  0.00    -0.054 A 
HETATM    3  C3  UNL     1      30.022   1.509 169.591  1.00  0.00     0.039 A 
HETATM    4  C4  UNL     1      29.613   0.868 170.744  1.00  0.00     0.060 A 
HETATM    5  N1  UNL     1      29.364  -0.450 170.729  1.00  0.00    -0.347 N 
ATOM      6  H1  UNL     1      29.471  -0.991 169.871  1.00  0.00     0.166 HD
HETATM    7  C5  UNL     1      28.971  -1.044 171.870  1.00  0.00     0.146 A 
HETATM    8  C6  UNL     1      28.691  -2.395 171.956  1.00  0.00     0.280 A 
HETATM    9  O1  UNL     1      28.805  -3.124 170.925  1.00  0.00    -0.265 OA
HETATM   10  N2  UNL     1      28.307  -2.877 173.148  1.00  0.00    -0.273 N 
ATOM     11  H2  UNL     1      28.098  -3.872 173.225  1.00  0.00     0.173 HD
HETATM   12  C7  UNL     1      28.183  -2.111 174.247  1.00  0.00     0.328 A 
HETATM   13  O2  UNL     1      27.815  -2.679 175.306  1.00  0.00    -0.247 OA
HETATM   14  N3  UNL     1      28.441  -0.776 174.239  1.00  0.00    -0.292 N 
ATOM     15  H3  UNL     1      28.343  -0.211 175.083  1.00  0.00     0.172 HD
HETATM   16  C8  UNL     1      28.830  -0.234 173.074  1.00  0.00     0.145 A 
HETATM   17  N4  UNL     1      29.088   1.101 173.069  1.00  0.00    -0.327 N 
HETATM   18  C14 UNL     1      29.478   1.645 171.906  1.00  0.00     0.063 A 
HETATM   19  C15 UNL     1      29.745   2.996 171.885  1.00  0.00     0.039 A 
HETATM   20  C16 UNL     1      30.155   3.625 170.715  1.00  0.00    -0.054 A 
HETATM   21  C17 UNL     1      30.440   5.069 170.696  1.00  0.00     0.049 C 
ENDROOT
BRANCH  17  22
HETATM   22  C9  UNL     1      28.950   1.878 174.240  1.00  0.00     0.165 C 
BRANCH  22  23
HETATM   23  C10 UNL     1      30.114   1.878 175.179  1.00  0.00     0.167 C 
BRANCH  23  24
HETATM   24  O3  UNL     1      30.152   0.925 176.139  1.00  0.00    -0.391 OA
ATOM     25  H3  UNL     1      30.942   0.854 176.663  1.00  0.00     0.210 HD
ENDBRANCH  23  24
BRANCH  23  26
HETATM   26  C11 UNL     1      30.231   3.298 175.739  1.00  0.00     0.179 C 
BRANCH  26  27
HETATM   27  O4  UNL     1      29.177   4.091 175.294  1.00  0.00    -0.390 OA
ATOM     28  H4  UNL     1      28.359   3.813 175.687  1.00  0.00     0.210 HD
ENDBRANCH  26  27
BRANCH  26  29
HETATM   29  C12 UNL     1      31.565   3.909 175.444  1.00  0.00     0.173 C 
BRANCH  29  30
HETATM   30  O5  UNL     1      32.475   2.863 175.289  1.00  0.00    -0.391 OA
ATOM     31  H5  UNL     1      32.149   2.127 175.794  1.00  0.00     0.210 HD
ENDBRANCH  29  30
BRANCH  29  32
HETATM   32  C13 UNL     1      32.047   4.805 176.565  1.00  0.00     0.198 C 
BRANCH  32  33
HETATM   33  O6  UNL     1      32.751   4.010 177.481  1.00  0.00    -0.398 OA
ATOM     34  H6  UNL     1      33.569   3.750 177.073  1.00  0.00     0.209 HD
ENDBRANCH  32  33
ENDBRANCH  29  32
ENDBRANCH  26  29
ENDBRANCH  23  26
ENDBRANCH  22  23
ENDBRANCH  17  22
TORSDOF 9
ENDMDL
