MODEL 1
REMARK VINA RESULT: -8.352041586      0.000      0.000
REMARK  9 active torsions:
REMARK  status: ('A' for Active; 'I' for Inactive)
REMARK    1  A    between atoms: N4_17  and  C9_18 
REMARK    2  A    between atoms: C9_18  and  C10_19 
REMARK    3  A    between atoms: C10_19  and  O3_20 
REMARK    4  A    between atoms: C10_19  and  C11_22 
REMARK    5  A    between atoms: C11_22  and  O4_23 
REMARK    6  A    between atoms: C11_22  and  C12_25 
REMARK    7  A    between atoms: C12_25  and  O5_26 
REMARK    8  A    between atoms: C12_25  and  C13_28 
REMARK    9  A    between atoms: C13_28  and  O6_29 
ROOT
HETATM    1  C1  UNL     1      28.847  -2.970 170.857  1.00  0.00     0.049 C 
HETATM    2  C2  UNL     1      28.991  -1.578 171.377  1.00  0.00    -0.054 A 
HETATM    3  C3  UNL     1      29.363  -0.562 170.547  1.00  0.00     0.039 A 
HETATM    4  C4  UNL     1      29.499   0.728 171.021  1.00  0.00     0.060 A 
HETATM    5  N1  UNL     1      29.864   1.715 170.189  1.00  0.00    -0.347 N 
ATOM      6  H1  UNL     1      30.047   1.525 169.204  1.00  0.00     0.166 HD
HETATM    7  C5  UNL     1      29.984   2.960 170.682  1.00  0.00     0.146 A 
HETATM    8  C6  UNL     1      30.354   4.043 169.906  1.00  0.00     0.280 A 
HETATM    9  O1  UNL     1      30.596   3.875 168.673  1.00  0.00    -0.265 OA
HETATM   10  N2  UNL     1      30.441   5.240 170.507  1.00  0.00    -0.273 N 
ATOM     11  H2  UNL     1      30.712   6.047 169.946  1.00  0.00     0.173 HD
HETATM   12  C7  UNL     1      30.187   5.428 171.815  1.00  0.00     0.328 A 
HETATM   13  O2  UNL     1      30.303   6.596 172.263  1.00  0.00    -0.247 OA
HETATM   14  N3  UNL     1      29.818   4.412 172.640  1.00  0.00    -0.292 N 
ATOM     15  H3  UNL     1      29.628   4.573 173.629  1.00  0.00     0.172 HD
HETATM   16  C8  UNL     1      29.713   3.188 172.097  1.00  0.00     0.145 A 
HETATM   17  N4  UNL     1      29.344   2.174 172.924  1.00  0.00    -0.327 N 
HETATM   18  C14 UNL     1      29.239   0.951 172.383  1.00  0.00     0.063 A 
HETATM   19  C15 UNL     1      28.862  -0.087 173.207  1.00  0.00     0.039 A 
HETATM   20  C16 UNL     1      28.731  -1.379 172.714  1.00  0.00    -0.054 A 
HETATM   21  C17 UNL     1      28.329  -2.486 173.598  1.00  0.00     0.049 C 
ENDROOT
BRANCH  17  22
HETATM   22  C9  UNL     1      29.083   2.404 174.292  1.00  0.00     0.165 C 
BRANCH  22  23
HETATM   23  C10 UNL     1      30.263   2.380 175.209  1.00  0.00     0.167 C 
BRANCH  23  24
HETATM   24  O3  UNL     1      30.422   1.297 176.006  1.00  0.00    -0.391 OA
ATOM     25  H3  UNL     1      30.719   0.489 175.604  1.00  0.00     0.210 HD
ENDBRANCH  23  24
BRANCH  23  26
HETATM   26  C11 UNL     1      30.248   3.698 175.986  1.00  0.00     0.179 C 
BRANCH  26  27
HETATM   27  O4  UNL     1      29.268   4.552 175.487  1.00  0.00    -0.390 OA
ATOM     28  H4  UNL     1      29.424   5.444 175.772  1.00  0.00     0.210 HD
ENDBRANCH  26  27
BRANCH  26  29
HETATM   29  C12 UNL     1      31.599   4.343 176.023  1.00  0.00     0.173 C 
BRANCH  29  30
HETATM   30  O5  UNL     1      32.522   3.398 175.576  1.00  0.00    -0.391 OA
ATOM     31  H5  UNL     1      33.279   3.873 175.254  1.00  0.00     0.210 HD
ENDBRANCH  29  30
BRANCH  29  32
HETATM   32  C13 UNL     1      31.990   4.776 177.419  1.00  0.00     0.198 C 
BRANCH  32  33
HETATM   33  O6  UNL     1      33.074   3.986 177.828  1.00  0.00    -0.398 OA
ATOM     34  H6  UNL     1      33.033   3.900 178.773  1.00  0.00     0.209 HD
ENDBRANCH  32  33
ENDBRANCH  29  32
ENDBRANCH  26  29
ENDBRANCH  23  26
ENDBRANCH  22  23
ENDBRANCH  17  22
TORSDOF 9
ENDMDL
