MODEL 6
REMARK VINA RESULT: -7.739222222      2.404      5.055
REMARK  9 active torsions:
REMARK  status: ('A' for Active; 'I' for Inactive)
REMARK    1  A    between atoms: N4_17  and  C9_18 
REMARK    2  A    between atoms: C9_18  and  C10_19 
REMARK    3  A    between atoms: C10_19  and  O3_20 
REMARK    4  A    between atoms: C10_19  and  C11_22 
REMARK    5  A    between atoms: C11_22  and  O4_23 
REMARK    6  A    between atoms: C11_22  and  C12_25 
REMARK    7  A    between atoms: C12_25  and  O5_26 
REMARK    8  A    between atoms: C12_25  and  C13_28 
REMARK    9  A    between atoms: C13_28  and  O6_29 
ROOT
HETATM    1  C1  UNL     1       6.522  -0.593   5.983  1.00  0.00     0.049 C 
HETATM    2  C2  UNL     1       7.360  -1.828   6.044  1.00  0.00    -0.054 A 
HETATM    3  C3  UNL     1       8.258  -2.006   7.054  1.00  0.00     0.039 A 
HETATM    4  C4  UNL     1       9.037  -3.145   7.119  1.00  0.00     0.060 A 
HETATM    5  N1  UNL     1       9.914  -3.305   8.121  1.00  0.00    -0.347 N 
ATOM      6  H1  UNL     1      10.016  -2.591   8.843  1.00  0.00     0.166 HD
HETATM    7  C5  UNL     1      10.654  -4.426   8.155  1.00  0.00     0.146 A 
HETATM    8  C6  UNL     1      11.583  -4.683   9.146  1.00  0.00     0.280 A 
HETATM    9  O1  UNL     1      11.759  -3.836  10.073  1.00  0.00    -0.265 OA
HETATM   10  N2  UNL     1      12.265  -5.838   9.078  1.00  0.00    -0.273 N 
ATOM     11  H2  UNL     1      12.952  -6.039   9.804  1.00  0.00     0.173 HD
HETATM   12  C7  UNL     1      12.085  -6.742   8.099  1.00  0.00     0.328 A 
HETATM   13  O2  UNL     1      12.784  -7.786   8.143  1.00  0.00    -0.247 OA
HETATM   14  N3  UNL     1      11.190  -6.559   7.091  1.00  0.00    -0.292 N 
ATOM     15  H3  UNL     1      11.066  -7.257   6.357  1.00  0.00     0.172 HD
HETATM   16  C8  UNL     1      10.477  -5.421   7.105  1.00  0.00     0.145 A 
HETATM   17  N4  UNL     1       9.583  -5.241   6.096  1.00  0.00    -0.327 N 
HETATM   18  C14 UNL     1       8.868  -4.106   6.108  1.00  0.00     0.063 A 
HETATM   19  C15 UNL     1       7.956  -3.909   5.095  1.00  0.00     0.039 A 
HETATM   20  C16 UNL     1       7.180  -2.757   5.046  1.00  0.00    -0.054 A 
HETATM   21  C17 UNL     1       6.206  -2.550   3.961  1.00  0.00     0.049 C 
ENDROOT
BRANCH  17  22
HETATM   22  C9  UNL     1       9.416  -6.211   5.083  1.00  0.00     0.165 C 
BRANCH  22  23
HETATM   23  C10 UNL     1      10.019  -5.894   3.753  1.00  0.00     0.167 C 
BRANCH  23  24
HETATM   24  O3  UNL     1       9.213  -5.940   2.666  1.00  0.00    -0.391 OA
ATOM     25  H3  UNL     1       8.881  -6.788   2.395  1.00  0.00     0.210 HD
ENDBRANCH  23  24
BRANCH  23  26
HETATM   26  C11 UNL     1      11.266  -6.771   3.612  1.00  0.00     0.179 C 
BRANCH  26  27
HETATM   27  O4  UNL     1      11.237  -7.818   4.528  1.00  0.00    -0.390 OA
ATOM     28  H4  UNL     1      10.766  -8.562   4.172  1.00  0.00     0.210 HD
ENDBRANCH  26  27
BRANCH  26  29
HETATM   29  C12 UNL     1      12.528  -5.971   3.703  1.00  0.00     0.173 C 
BRANCH  29  30
HETATM   30  O5  UNL     1      12.837  -5.536   2.414  1.00  0.00    -0.391 OA
ATOM     31  H5  UNL     1      13.424  -4.793   2.500  1.00  0.00     0.210 HD
ENDBRANCH  29  30
BRANCH  29  32
HETATM   32  C13 UNL     1      13.689  -6.787   4.228  1.00  0.00     0.198 C 
BRANCH  32  33
HETATM   33  O6  UNL     1      13.976  -6.342   5.526  1.00  0.00    -0.398 OA
ATOM     34  H6  UNL     1      14.669  -6.891   5.876  1.00  0.00     0.209 HD
ENDBRANCH  32  33
ENDBRANCH  29  32
ENDBRANCH  26  29
ENDBRANCH  23  26
ENDBRANCH  22  23
ENDBRANCH  17  22
TORSDOF 9
ENDMDL
