MODEL 9
REMARK VINA RESULT: -7.575312687      2.356      4.939
REMARK  9 active torsions:
REMARK  status: ('A' for Active; 'I' for Inactive)
REMARK    1  A    between atoms: N4_17  and  C9_18 
REMARK    2  A    between atoms: C9_18  and  C10_19 
REMARK    3  A    between atoms: C10_19  and  O3_20 
REMARK    4  A    between atoms: C10_19  and  C11_22 
REMARK    5  A    between atoms: C11_22  and  O4_23 
REMARK    6  A    between atoms: C11_22  and  C12_25 
REMARK    7  A    between atoms: C12_25  and  O5_26 
REMARK    8  A    between atoms: C12_25  and  C13_28 
REMARK    9  A    between atoms: C13_28  and  O6_29 
ROOT
HETATM    1  C1  UNL     1       6.523  -0.525   6.044  1.00  0.00     0.049 C 
HETATM    2  C2  UNL     1       7.345  -1.771   6.083  1.00  0.00    -0.054 A 
HETATM    3  C3  UNL     1       8.258  -1.968   7.076  1.00  0.00     0.039 A 
HETATM    4  C4  UNL     1       9.023  -3.118   7.120  1.00  0.00     0.060 A 
HETATM    5  N1  UNL     1       9.915  -3.296   8.106  1.00  0.00    -0.347 N 
ATOM      6  H1  UNL     1      10.040  -2.587   8.829  1.00  0.00     0.166 HD
HETATM    7  C5  UNL     1      10.640  -4.427   8.120  1.00  0.00     0.146 A 
HETATM    8  C6  UNL     1      11.583  -4.702   9.093  1.00  0.00     0.280 A 
HETATM    9  O1  UNL     1      11.787  -3.863  10.021  1.00  0.00    -0.265 OA
HETATM   10  N2  UNL     1      12.248  -5.866   9.006  1.00  0.00    -0.273 N 
ATOM     11  H2  UNL     1      12.945  -6.081   9.718  1.00  0.00     0.173 HD
HETATM   12  C7  UNL     1      12.039  -6.761   8.024  1.00  0.00     0.328 A 
HETATM   13  O2  UNL     1      12.724  -7.815   8.050  1.00  0.00    -0.247 OA
HETATM   14  N3  UNL     1      11.128  -6.560   7.034  1.00  0.00    -0.292 N 
ATOM     15  H3  UNL     1      10.982  -7.252   6.299  1.00  0.00     0.172 HD
HETATM   16  C8  UNL     1      10.431  -5.413   7.067  1.00  0.00     0.145 A 
HETATM   17  N4  UNL     1       9.522  -5.215   6.076  1.00  0.00    -0.327 N 
HETATM   18  C14 UNL     1       8.823  -4.070   6.107  1.00  0.00     0.063 A 
HETATM   19  C15 UNL     1       7.895  -3.855   5.111  1.00  0.00     0.039 A 
HETATM   20  C16 UNL     1       7.135  -2.692   5.083  1.00  0.00    -0.054 A 
HETATM   21  C17 UNL     1       6.145  -2.466   4.017  1.00  0.00     0.049 C 
ENDROOT
BRANCH  17  22
HETATM   22  C9  UNL     1       9.324  -6.176   5.060  1.00  0.00     0.165 C 
BRANCH  22  23
HETATM   23  C10 UNL     1       9.846  -5.829   3.704  1.00  0.00     0.167 C 
BRANCH  23  24
HETATM   24  O3  UNL     1       8.948  -5.517   2.741  1.00  0.00    -0.391 OA
ATOM     25  H3  UNL     1       9.243  -4.979   2.015  1.00  0.00     0.210 HD
ENDBRANCH  23  24
BRANCH  23  26
HETATM   26  C11 UNL     1      10.797  -6.955   3.293  1.00  0.00     0.179 C 
BRANCH  26  27
HETATM   27  O4  UNL     1      11.430  -7.496   4.409  1.00  0.00    -0.390 OA
ATOM     28  H4  UNL     1      12.318  -7.758   4.198  1.00  0.00     0.210 HD
ENDBRANCH  26  27
BRANCH  26  29
HETATM   29  C12 UNL     1      11.772  -6.514   2.246  1.00  0.00     0.173 C 
BRANCH  29  30
HETATM   30  O5  UNL     1      11.797  -5.119   2.265  1.00  0.00    -0.391 OA
ATOM     31  H5  UNL     1      12.335  -4.837   1.534  1.00  0.00     0.210 HD
ENDBRANCH  29  30
BRANCH  29  32
HETATM   32  C13 UNL     1      11.371  -6.970   0.860  1.00  0.00     0.198 C 
BRANCH  32  33
HETATM   33  O6  UNL     1      10.645  -5.932   0.257  1.00  0.00    -0.398 OA
ATOM     34  H6  UNL     1      10.206  -6.288  -0.507  1.00  0.00     0.209 HD
ENDBRANCH  32  33
ENDBRANCH  29  32
ENDBRANCH  26  29
ENDBRANCH  23  26
ENDBRANCH  22  23
ENDBRANCH  17  22
TORSDOF 9
ENDMDL
