MODEL 1
REMARK VINA RESULT: -8.334686248      0.000      0.000
REMARK  9 active torsions:
REMARK  status: ('A' for Active; 'I' for Inactive)
REMARK    1  A    between atoms: N4_17  and  C9_18 
REMARK    2  A    between atoms: C9_18  and  C10_19 
REMARK    3  A    between atoms: C10_19  and  O3_20 
REMARK    4  A    between atoms: C10_19  and  C11_22 
REMARK    5  A    between atoms: C11_22  and  O4_23 
REMARK    6  A    between atoms: C11_22  and  C12_25 
REMARK    7  A    between atoms: C12_25  and  O5_26 
REMARK    8  A    between atoms: C12_25  and  C13_28 
REMARK    9  A    between atoms: C13_28  and  O6_29 
ROOT
HETATM    1  C1  UNL     1      12.110  -3.812  10.180  1.00  0.00     0.049 C 
HETATM    2  C2  UNL     1      11.171  -3.921   9.024  1.00  0.00    -0.054 A 
HETATM    3  C3  UNL     1      10.289  -2.918   8.751  1.00  0.00     0.039 A 
HETATM    4  C4  UNL     1       9.417  -3.010   7.684  1.00  0.00     0.060 A 
HETATM    5  N1  UNL     1       8.557  -2.012   7.429  1.00  0.00    -0.347 N 
ATOM      6  H1  UNL     1       8.535  -1.180   8.018  1.00  0.00     0.166 HD
HETATM    7  C5  UNL     1       7.724  -2.132   6.380  1.00  0.00     0.146 A 
HETATM    8  C6  UNL     1       6.804  -1.160   6.037  1.00  0.00     0.280 A 
HETATM    9  O1  UNL     1       6.726  -0.100   6.728  1.00  0.00    -0.265 OA
HETATM   10  N2  UNL     1       6.024  -1.389   4.968  1.00  0.00    -0.273 N 
ATOM     11  H2  UNL     1       5.342  -0.679   4.704  1.00  0.00     0.173 HD
HETATM   12  C7  UNL     1       6.099  -2.510   4.229  1.00  0.00     0.328 A 
HETATM   13  O2  UNL     1       5.315  -2.610   3.252  1.00  0.00    -0.247 OA
HETATM   14  N3  UNL     1       6.979  -3.510   4.505  1.00  0.00    -0.292 N 
ATOM     15  H3  UNL     1       7.023  -4.353   3.933  1.00  0.00     0.172 HD
HETATM   16  C8  UNL     1       7.788  -3.339   5.564  1.00  0.00     0.145 A 
HETATM   17  N4  UNL     1       8.666  -4.339   5.838  1.00  0.00    -0.327 N 
HETATM   18  C14 UNL     1       9.476  -4.170   6.895  1.00  0.00     0.063 A 
HETATM   19  C15 UNL     1      10.374  -5.174   7.184  1.00  0.00     0.039 A 
HETATM   20  C16 UNL     1      11.244  -5.065   8.263  1.00  0.00    -0.054 A 
HETATM   21  C17 UNL     1      12.202  -6.139   8.569  1.00  0.00     0.049 C 
ENDROOT
BRANCH  17  22
HETATM   22  C9  UNL     1       8.722  -5.504   5.041  1.00  0.00     0.165 C 
BRANCH  22  23
HETATM   23  C10 UNL     1       9.476  -5.395   3.755  1.00  0.00     0.167 C 
BRANCH  23  24
HETATM   24  O3  UNL     1       8.763  -5.369   2.605  1.00  0.00    -0.391 OA
ATOM     25  H3  UNL     1       8.011  -4.790   2.561  1.00  0.00     0.210 HD
ENDBRANCH  23  24
BRANCH  23  26
HETATM   26  C11 UNL     1      10.545  -6.490   3.773  1.00  0.00     0.179 C 
BRANCH  26  27
HETATM   27  O4  UNL     1      11.814  -5.936   3.913  1.00  0.00    -0.390 OA
ATOM     28  H4  UNL     1      12.484  -6.591   3.760  1.00  0.00     0.210 HD
ENDBRANCH  26  27
BRANCH  26  29
HETATM   29  C12 UNL     1      10.445  -7.391   2.582  1.00  0.00     0.173 C 
BRANCH  29  30
HETATM   30  O5  UNL     1       9.402  -8.285   2.824  1.00  0.00    -0.391 OA
ATOM     31  H5  UNL     1       8.591  -7.837   2.614  1.00  0.00     0.210 HD
ENDBRANCH  29  30
BRANCH  29  32
HETATM   32  C13 UNL     1      11.715  -8.182   2.352  1.00  0.00     0.198 C 
BRANCH  32  33
HETATM   33  O6  UNL     1      12.532  -7.442   1.486  1.00  0.00    -0.398 OA
ATOM     34  H6  UNL     1      13.437  -7.649   1.690  1.00  0.00     0.209 HD
ENDBRANCH  32  33
ENDBRANCH  29  32
ENDBRANCH  26  29
ENDBRANCH  23  26
ENDBRANCH  22  23
ENDBRANCH  17  22
TORSDOF 9
ENDMDL
