MODEL 3
REMARK VINA RESULT: -7.913492721      3.898      7.668
REMARK  9 active torsions:
REMARK  status: ('A' for Active; 'I' for Inactive)
REMARK    1  A    between atoms: N4_17  and  C9_18 
REMARK    2  A    between atoms: C9_18  and  C10_19 
REMARK    3  A    between atoms: C10_19  and  O3_20 
REMARK    4  A    between atoms: C10_19  and  C11_22 
REMARK    5  A    between atoms: C11_22  and  O4_23 
REMARK    6  A    between atoms: C11_22  and  C12_25 
REMARK    7  A    between atoms: C12_25  and  O5_26 
REMARK    8  A    between atoms: C12_25  and  C13_28 
REMARK    9  A    between atoms: C13_28  and  O6_29 
ROOT
HETATM    1  C1  UNL     1       7.492  -3.612   4.982  1.00  0.00     0.049 C 
HETATM    2  C2  UNL     1       8.575  -4.363   5.685  1.00  0.00    -0.054 A 
HETATM    3  C3  UNL     1       8.968  -5.591   5.241  1.00  0.00     0.039 A 
HETATM    4  C4  UNL     1       9.968  -6.292   5.884  1.00  0.00     0.060 A 
HETATM    5  N1  UNL     1      10.343  -7.498   5.432  1.00  0.00    -0.347 N 
ATOM      6  H1  UNL     1       9.894  -7.910   4.614  1.00  0.00     0.166 HD
HETATM    7  C5  UNL     1      11.322  -8.153   6.080  1.00  0.00     0.146 A 
HETATM    8  C6  UNL     1      11.778  -9.399   5.692  1.00  0.00     0.280 A 
HETATM    9  O1  UNL     1      11.262  -9.966   4.682  1.00  0.00    -0.265 OA
HETATM   10  N2  UNL     1      12.762  -9.957   6.416  1.00  0.00    -0.273 N 
ATOM     11  H2  UNL     1      13.107 -10.875   6.139  1.00  0.00     0.173 HD
HETATM   12  C7  UNL     1      13.314  -9.362   7.488  1.00  0.00     0.328 A 
HETATM   13  O2  UNL     1      14.229  -9.984   8.085  1.00  0.00    -0.247 OA
HETATM   14  N3  UNL     1      12.919  -8.138   7.929  1.00  0.00    -0.292 N 
ATOM     15  H3  UNL     1      13.351  -7.701   8.744  1.00  0.00     0.172 HD
HETATM   16  C8  UNL     1      11.937  -7.528   7.246  1.00  0.00     0.145 A 
HETATM   17  N4  UNL     1      11.543  -6.304   7.689  1.00  0.00    -0.327 N 
HETATM   18  C14 UNL     1      10.563  -5.693   7.007  1.00  0.00     0.063 A 
HETATM   19  C15 UNL     1      10.155  -4.451   7.441  1.00  0.00     0.039 A 
HETATM   20  C16 UNL     1       9.146  -3.760   6.782  1.00  0.00    -0.054 A 
HETATM   21  C17 UNL     1       8.712  -2.432   7.249  1.00  0.00     0.049 C 
ENDROOT
BRANCH  17  22
HETATM   22  C9  UNL     1      12.145  -5.706   8.817  1.00  0.00     0.165 C 
BRANCH  22  23
HETATM   23  C10 UNL     1      13.302  -4.798   8.552  1.00  0.00     0.167 C 
BRANCH  23  24
HETATM   24  O3  UNL     1      14.549  -5.313   8.663  1.00  0.00    -0.391 OA
ATOM     25  H3  UNL     1      15.264  -4.712   8.838  1.00  0.00     0.210 HD
ENDBRANCH  23  24
BRANCH  23  26
HETATM   26  C11 UNL     1      13.092  -3.548   9.411  1.00  0.00     0.179 C 
BRANCH  26  27
HETATM   27  O4  UNL     1      14.313  -3.034   9.837  1.00  0.00    -0.390 OA
ATOM     28  H4  UNL     1      14.602  -2.336   9.262  1.00  0.00     0.210 HD
ENDBRANCH  26  27
BRANCH  26  29
HETATM   29  C12 UNL     1      12.153  -3.801  10.548  1.00  0.00     0.173 C 
BRANCH  29  30
HETATM   30  O5  UNL     1      11.083  -2.918  10.408  1.00  0.00    -0.391 OA
ATOM     31  H5  UNL     1      10.416  -3.180  11.032  1.00  0.00     0.210 HD
ENDBRANCH  29  30
BRANCH  29  32
HETATM   32  C13 UNL     1      12.803  -3.562  11.894  1.00  0.00     0.198 C 
BRANCH  32  33
HETATM   33  O6  UNL     1      13.820  -4.514  12.057  1.00  0.00    -0.398 OA
ATOM     34  H6  UNL     1      14.562  -4.082  12.464  1.00  0.00     0.209 HD
ENDBRANCH  32  33
ENDBRANCH  29  32
ENDBRANCH  26  29
ENDBRANCH  23  26
ENDBRANCH  22  23
ENDBRANCH  17  22
TORSDOF 9
ENDMDL
