MODEL 2
REMARK VINA RESULT: -8.123495258      0.942      1.236
REMARK  9 active torsions:
REMARK  status: ('A' for Active; 'I' for Inactive)
REMARK    1  A    between atoms: N4_17  and  C9_18 
REMARK    2  A    between atoms: C9_18  and  C10_19 
REMARK    3  A    between atoms: C10_19  and  O3_20 
REMARK    4  A    between atoms: C10_19  and  C11_22 
REMARK    5  A    between atoms: C11_22  and  O4_23 
REMARK    6  A    between atoms: C11_22  and  C12_25 
REMARK    7  A    between atoms: C12_25  and  O5_26 
REMARK    8  A    between atoms: C12_25  and  C13_28 
REMARK    9  A    between atoms: C13_28  and  O6_29 
ROOT
HETATM    1  C1  UNL     1      12.295  -4.520   9.984  1.00  0.00     0.049 C 
HETATM    2  C2  UNL     1      11.332  -4.458   8.844  1.00  0.00    -0.054 A 
HETATM    3  C3  UNL     1      10.490  -3.395   8.704  1.00  0.00     0.039 A 
HETATM    4  C4  UNL     1       9.597  -3.330   7.652  1.00  0.00     0.060 A 
HETATM    5  N1  UNL     1       8.778  -2.275   7.530  1.00  0.00    -0.347 N 
ATOM      6  H1  UNL     1       8.803  -1.514   8.208  1.00  0.00     0.166 HD
HETATM    7  C5  UNL     1       7.923  -2.242   6.493  1.00  0.00     0.146 A 
HETATM    8  C6  UNL     1       7.040  -1.200   6.280  1.00  0.00     0.280 A 
HETATM    9  O1  UNL     1       7.021  -0.222   7.087  1.00  0.00    -0.265 OA
HETATM   10  N2  UNL     1       6.232  -1.275   5.209  1.00  0.00    -0.273 N 
ATOM     11  H2  UNL     1       5.578  -0.512   5.041  1.00  0.00     0.173 HD
HETATM   12  C7  UNL     1       6.246  -2.308   4.348  1.00  0.00     0.328 A 
HETATM   13  O2  UNL     1       5.442  -2.264   3.383  1.00  0.00    -0.247 OA
HETATM   14  N3  UNL     1       7.086  -3.368   4.492  1.00  0.00    -0.292 N 
ATOM     15  H3  UNL     1       7.084  -4.142   3.828  1.00  0.00     0.172 HD
HETATM   16  C8  UNL     1       7.919  -3.351   5.546  1.00  0.00     0.145 A 
HETATM   17  N4  UNL     1       8.758  -4.411   5.687  1.00  0.00    -0.327 N 
HETATM   18  C14 UNL     1       9.592  -4.396   6.738  1.00  0.00     0.063 A 
HETATM   19  C15 UNL     1      10.450  -5.462   6.894  1.00  0.00     0.039 A 
HETATM   20  C16 UNL     1      11.342  -5.511   7.959  1.00  0.00    -0.054 A 
HETATM   21  C17 UNL     1      12.258  -6.652   8.122  1.00  0.00     0.049 C 
ENDROOT
BRANCH  17  22
HETATM   22  C9  UNL     1       8.749  -5.480   4.764  1.00  0.00     0.165 C 
BRANCH  22  23
HETATM   23  C10 UNL     1       9.554  -5.291   3.519  1.00  0.00     0.167 C 
BRANCH  23  24
HETATM   24  O3  UNL     1       9.075  -4.442   2.579  1.00  0.00    -0.391 OA
ATOM     25  H3  UNL     1       8.451  -3.781   2.855  1.00  0.00     0.210 HD
ENDBRANCH  23  24
BRANCH  23  26
HETATM   26  C11 UNL     1       9.853  -6.687   2.968  1.00  0.00     0.179 C 
BRANCH  26  27
HETATM   27  O4  UNL     1       9.844  -7.631   3.991  1.00  0.00    -0.390 OA
ATOM     28  H4  UNL     1      10.543  -7.462   4.610  1.00  0.00     0.210 HD
ENDBRANCH  26  27
BRANCH  26  29
HETATM   29  C12 UNL     1      11.124  -6.718   2.177  1.00  0.00     0.173 C 
BRANCH  29  30
HETATM   30  O5  UNL     1      11.792  -5.518   2.418  1.00  0.00    -0.391 OA
ATOM     31  H5  UNL     1      11.626  -4.948   1.676  1.00  0.00     0.210 HD
ENDBRANCH  29  30
BRANCH  29  32
HETATM   32  C13 UNL     1      10.871  -6.839   0.690  1.00  0.00     0.198 C 
BRANCH  32  33
HETATM   33  O6  UNL     1      10.590  -5.558   0.194  1.00  0.00    -0.398 OA
ATOM     34  H6  UNL     1      11.269  -5.331  -0.432  1.00  0.00     0.209 HD
ENDBRANCH  32  33
ENDBRANCH  29  32
ENDBRANCH  26  29
ENDBRANCH  23  26
ENDBRANCH  22  23
ENDBRANCH  17  22
TORSDOF 9
ENDMDL
