MODEL 2
REMARK VINA RESULT: -8.989129154      3.955      8.535
REMARK  6 active torsions:
REMARK  status: ('A' for Active; 'I' for Inactive)
REMARK    1  A    between atoms: O1_2  and  C2_3 
REMARK    2  A    between atoms: C7_8  and  O2_9 
REMARK    3  A    between atoms: C13_17  and  O4_18 
REMARK    4  A    between atoms: C17_25  and  C18_26 
REMARK    5  A    between atoms: C18_26  and  O7_28 
REMARK    6  A    between atoms: C27_37  and  O8_38 
ROOT
HETATM    1  C2  UNL     1       4.019  10.997 -19.383  1.00  0.00     0.102 A 
HETATM    2  C3  UNL     1       5.229  11.014 -18.727  1.00  0.00     0.040 A 
HETATM    3  C4  UNL     1       5.522  10.128 -17.712  1.00  0.00     0.019 A 
HETATM    4  C5  UNL     1       4.582   9.201 -17.340  1.00  0.00     0.032 A 
HETATM    5  C6  UNL     1       3.376   9.183 -17.993  1.00  0.00     0.065 A 
HETATM    6  C7  UNL     1       3.069  10.067 -19.014  1.00  0.00     0.114 A 
HETATM    7  C8  UNL     1       2.352   8.194 -17.610  1.00  0.00     0.199 A 
HETATM    8  O3  UNL     1       1.274   8.208 -18.217  1.00  0.00    -0.286 OA
HETATM    9  C9  UNL     1       2.628   7.256 -16.555  1.00  0.00     0.059 A 
HETATM   10  C10 UNL     1       1.686   6.327 -16.178  1.00  0.00     0.057 A 
HETATM   11  C11 UNL     1       1.891   5.404 -15.162  1.00  0.00     0.013 A 
HETATM   12  C12 UNL     1       3.083   5.428 -14.522  1.00  0.00     0.050 A 
HETATM   13  C13 UNL     1       4.092   6.357 -14.864  1.00  0.00     0.081 A 
HETATM   14  C14 UNL     1       3.867   7.262 -15.871  1.00  0.00     0.065 A 
HETATM   15  C15 UNL     1       4.867   8.249 -16.265  1.00  0.00     0.197 A 
HETATM   16  O5  UNL     1       5.968   8.293 -15.695  1.00  0.00    -0.286 OA
HETATM   17  C16 UNL     1       0.863   4.442 -14.771  1.00  0.00     0.160 A 
HETATM   18  O6  UNL     1       0.163   4.988 -13.800  1.00  0.00    -0.345 OA
HETATM   19  C17 UNL     1      -0.563   4.892 -14.959  1.00  0.00     0.168 A 
HETATM   20  C20 UNL     1      -0.696   5.800 -16.076  1.00  0.00     0.051 C 
HETATM   21  C21 UNL     1      -1.918   5.510 -16.869  1.00  0.00     0.028 C 
HETATM   22  C22 UNL     1      -2.286   4.922 -17.927  1.00  0.00     0.002 C 
HETATM   23  C23 UNL     1      -1.725   4.159 -19.026  1.00  0.00     0.000 C 
HETATM   24  C24 UNL     1      -0.584   3.457 -18.972  1.00  0.00    -0.000 C 
HETATM   25  C25 UNL     1       0.209   3.418 -17.728  1.00  0.00    -0.001 C 
HETATM   26  C26 UNL     1       0.063   3.013 -16.547  1.00  0.00     0.008 C 
HETATM   27  C27 UNL     1       0.899   3.023 -15.283  1.00  0.00     0.184 C 
HETATM   28  N1  UNL     1       0.438   6.224 -16.838  1.00  0.00    -0.356 N 
ATOM     29  H1  UNL     1       0.350   6.444 -17.830  1.00  0.00     0.166 HD
ENDROOT
BRANCH  19  30
HETATM   30  C18 UNL     1      -1.774   4.120 -14.532  1.00  0.00     0.158 C 
HETATM   31  C19 UNL     1      -1.330   3.266 -13.328  1.00  0.00     0.043 C 
BRANCH  30  32
HETATM   32  O7  UNL     1      -2.871   4.787 -14.123  1.00  0.00    -0.392 OA
ATOM     33  H7  UNL     1      -3.654   4.299 -13.896  1.00  0.00     0.210 HD
ENDBRANCH  30  32
ENDBRANCH  19  30
BRANCH  27  34
HETATM   34  O8  UNL     1       2.128   2.484 -15.307  1.00  0.00    -0.388 OA
ATOM     35  H8  UNL     1       2.163   1.588 -14.992  1.00  0.00     0.210 HD
ENDBRANCH  27  34
BRANCH  13  36
HETATM   36  O4  UNL     1       5.277   6.326 -14.175  1.00  0.00    -0.360 OA
ATOM     37  H4  UNL     1       6.035   6.760 -14.550  1.00  0.00     0.217 HD
ENDBRANCH  13  36
BRANCH   6  38
HETATM   38  O2  UNL     1       1.824   9.998 -19.641  1.00  0.00    -0.357 OA
ATOM     39  H2  UNL     1       1.549  10.644 -20.282  1.00  0.00     0.217 HD
ENDBRANCH   6  38
BRANCH   1  40
HETATM   40  O1  UNL     1       3.704  11.875 -20.404  1.00  0.00    -0.353 OA
HETATM   41  C1  UNL     1       4.535  12.167 -21.492  1.00  0.00     0.210 C 
ENDBRANCH   1  40
TORSDOF 6
ENDMDL
