MODEL 1
REMARK VINA RESULT: -11.604641575      0.000      0.000
REMARK  6 active torsions:
REMARK  status: ('A' for Active; 'I' for Inactive)
REMARK    1  A    between atoms: O1_2  and  C2_3 
REMARK    2  A    between atoms: C7_8  and  O2_9 
REMARK    3  A    between atoms: C13_17  and  O4_18 
REMARK    4  A    between atoms: C17_25  and  C18_26 
REMARK    5  A    between atoms: C18_26  and  O7_28 
REMARK    6  A    between atoms: C27_37  and  O8_38 
ROOT
HETATM    1  C2  UNL     1      -8.333   5.642 -19.571  1.00  0.00     0.102 A 
HETATM    2  C3  UNL     1      -8.225   4.913 -20.733  1.00  0.00     0.040 A 
HETATM    3  C4  UNL     1      -7.039   4.321 -21.116  1.00  0.00     0.019 A 
HETATM    4  C5  UNL     1      -5.932   4.461 -20.318  1.00  0.00     0.032 A 
HETATM    5  C6  UNL     1      -6.039   5.187 -19.160  1.00  0.00     0.065 A 
HETATM    6  C7  UNL     1      -7.223   5.786 -18.764  1.00  0.00     0.114 A 
HETATM    7  C8  UNL     1      -4.862   5.349 -18.288  1.00  0.00     0.199 A 
HETATM    8  O3  UNL     1      -4.992   6.013 -17.252  1.00  0.00    -0.286 OA
HETATM    9  C9  UNL     1      -3.611   4.743 -18.660  1.00  0.00     0.059 A 
HETATM   10  C10 UNL     1      -2.499   4.884 -17.863  1.00  0.00     0.057 A 
HETATM   11  C11 UNL     1      -1.265   4.331 -18.175  1.00  0.00     0.013 A 
HETATM   12  C12 UNL     1      -1.167   3.617 -19.319  1.00  0.00     0.050 A 
HETATM   13  C13 UNL     1      -2.274   3.434 -20.180  1.00  0.00     0.081 A 
HETATM   14  C14 UNL     1      -3.485   3.992 -19.852  1.00  0.00     0.065 A 
HETATM   15  C15 UNL     1      -4.661   3.843 -20.702  1.00  0.00     0.197 A 
HETATM   16  O5  UNL     1      -4.600   3.194 -21.757  1.00  0.00    -0.286 OA
HETATM   17  C16 UNL     1      -0.095   4.515 -17.318  1.00  0.00     0.160 A 
HETATM   18  O6  UNL     1       0.546   5.579 -17.752  1.00  0.00    -0.345 OA
HETATM   19  C17 UNL     1      -0.050   5.805 -16.538  1.00  0.00     0.168 A 
HETATM   20  C20 UNL     1      -1.374   6.275 -16.202  1.00  0.00     0.051 C 
HETATM   21  C21 UNL     1      -1.426   6.804 -14.815  1.00  0.00     0.028 C 
HETATM   22  C22 UNL     1      -1.775   6.466 -13.646  1.00  0.00     0.002 C 
HETATM   23  C23 UNL     1      -2.346   5.334 -12.942  1.00  0.00     0.000 C 
HETATM   24  C24 UNL     1      -2.260   4.056 -13.340  1.00  0.00    -0.000 C 
HETATM   25  C25 UNL     1      -1.544   3.711 -14.584  1.00  0.00    -0.001 C 
HETATM   26  C26 UNL     1      -0.372   3.787 -15.031  1.00  0.00     0.008 C 
HETATM   27  C27 UNL     1       0.319   3.447 -16.336  1.00  0.00     0.184 C 
HETATM   28  N1  UNL     1      -2.550   5.582 -16.633  1.00  0.00    -0.356 N 
ATOM     29  H1  UNL     1      -3.400   5.591 -16.069  1.00  0.00     0.166 HD
ENDROOT
BRANCH  19  30
HETATM   30  C18 UNL     1       1.095   6.254 -15.682  1.00  0.00     0.158 C 
HETATM   31  C19 UNL     1       2.331   6.276 -16.603  1.00  0.00     0.043 C 
BRANCH  30  32
HETATM   32  O7  UNL     1       1.048   7.470 -15.102  1.00  0.00    -0.392 OA
ATOM     33  H7  UNL     1       1.715   7.709 -14.469  1.00  0.00     0.210 HD
ENDBRANCH  30  32
ENDBRANCH  19  30
BRANCH  27  34
HETATM   34  O8  UNL     1       0.225   2.198 -16.820  1.00  0.00    -0.388 OA
ATOM     35  H8  UNL     1      -0.549   1.729 -16.530  1.00  0.00     0.210 HD
ENDBRANCH  27  34
BRANCH  13  36
HETATM   36  O4  UNL     1      -2.105   2.699 -21.324  1.00  0.00    -0.360 OA
ATOM     37  H4  UNL     1      -2.765   2.755 -22.005  1.00  0.00     0.217 HD
ENDBRANCH  13  36
BRANCH   6  38
HETATM   38  O2  UNL     1      -7.269   6.512 -17.572  1.00  0.00    -0.357 OA
ATOM     39  H2  UNL     1      -6.623   6.391 -16.887  1.00  0.00     0.217 HD
ENDBRANCH   6  38
BRANCH   1  40
HETATM   40  O1  UNL     1      -9.511   6.243 -19.167  1.00  0.00    -0.353 OA
HETATM   41  C1  UNL     1     -10.588   5.574 -18.575  1.00  0.00     0.210 C 
ENDBRANCH   1  40
TORSDOF 6
ENDMDL
