MODEL 3
REMARK VINA RESULT: -8.881319354      2.326      8.532
REMARK  6 active torsions:
REMARK  status: ('A' for Active; 'I' for Inactive)
REMARK    1  A    between atoms: O1_2  and  C2_3 
REMARK    2  A    between atoms: C7_8  and  O2_9 
REMARK    3  A    between atoms: C13_17  and  O4_18 
REMARK    4  A    between atoms: C17_25  and  C18_26 
REMARK    5  A    between atoms: C18_26  and  O7_28 
REMARK    6  A    between atoms: C27_37  and  O8_38 
ROOT
HETATM    1  C2  UNL     1      -2.533   6.100 -16.467  1.00  0.00     0.102 A 
HETATM    2  C3  UNL     1      -1.626   5.383 -17.213  1.00  0.00     0.040 A 
HETATM    3  C4  UNL     1      -1.998   4.687 -18.344  1.00  0.00     0.019 A 
HETATM    4  C5  UNL     1      -3.312   4.706 -18.740  1.00  0.00     0.032 A 
HETATM    5  C6  UNL     1      -4.216   5.419 -17.996  1.00  0.00     0.065 A 
HETATM    6  C7  UNL     1      -3.856   6.122 -16.859  1.00  0.00     0.114 A 
HETATM    7  C8  UNL     1      -5.632   5.453 -18.404  1.00  0.00     0.199 A 
HETATM    8  O3  UNL     1      -6.423   6.103 -17.709  1.00  0.00    -0.286 OA
HETATM    9  C9  UNL     1      -6.052   4.737 -19.580  1.00  0.00     0.059 A 
HETATM   10  C10 UNL     1      -7.369   4.752 -19.977  1.00  0.00     0.057 A 
HETATM   11  C11 UNL     1      -7.834   4.074 -21.095  1.00  0.00     0.013 A 
HETATM   12  C12 UNL     1      -6.936   3.371 -21.823  1.00  0.00     0.050 A 
HETATM   13  C13 UNL     1      -5.568   3.318 -21.468  1.00  0.00     0.081 A 
HETATM   14  C14 UNL     1      -5.131   3.996 -20.357  1.00  0.00     0.065 A 
HETATM   15  C15 UNL     1      -3.734   3.974 -19.936  1.00  0.00     0.197 A 
HETATM   16  O5  UNL     1      -2.890   3.338 -20.585  1.00  0.00    -0.286 OA
HETATM   17  C16 UNL     1      -9.244   4.092 -21.481  1.00  0.00     0.160 A 
HETATM   18  O6  UNL     1      -9.819   3.053 -20.914  1.00  0.00    -0.345 OA
HETATM   19  C17 UNL     1     -10.232   4.233 -20.350  1.00  0.00     0.168 A 
HETATM   20  C20 UNL     1      -9.688   5.005 -19.257  1.00  0.00     0.051 C 
HETATM   21  C21 UNL     1     -10.698   5.940 -18.698  1.00  0.00     0.028 C 
HETATM   22  C22 UNL     1     -11.046   7.156 -18.747  1.00  0.00     0.002 C 
HETATM   23  C23 UNL     1     -10.659   8.396 -19.394  1.00  0.00     0.000 C 
HETATM   24  C24 UNL     1     -10.002   8.484 -20.559  1.00  0.00    -0.000 C 
HETATM   25  C25 UNL     1      -9.611   7.262 -21.288  1.00  0.00    -0.001 C 
HETATM   26  C26 UNL     1     -10.183   6.288 -21.840  1.00  0.00     0.008 C 
HETATM   27  C27 UNL     1      -9.738   5.028 -22.555  1.00  0.00     0.184 C 
HETATM   28  N1  UNL     1      -8.347   5.503 -19.282  1.00  0.00    -0.356 N 
ATOM     29  H1  UNL     1      -8.102   6.375 -18.813  1.00  0.00     0.166 HD
ENDROOT
BRANCH  19  30
HETATM   30  C18 UNL     1     -11.721   4.170 -20.496  1.00  0.00     0.158 C 
HETATM   31  C19 UNL     1     -12.014   2.906 -21.327  1.00  0.00     0.043 C 
BRANCH  30  32
HETATM   32  O7  UNL     1     -12.488   4.069 -19.392  1.00  0.00    -0.392 OA
ATOM     33  H7  UNL     1     -13.356   4.454 -19.393  1.00  0.00     0.210 HD
ENDBRANCH  30  32
ENDBRANCH  19  30
BRANCH  27  34
HETATM   34  O8  UNL     1      -8.913   5.131 -23.610  1.00  0.00    -0.388 OA
ATOM     35  H8  UNL     1      -8.604   4.296 -23.941  1.00  0.00     0.210 HD
ENDBRANCH  27  34
BRANCH  13  36
HETATM   36  O4  UNL     1      -4.712   2.588 -22.250  1.00  0.00    -0.360 OA
ATOM     37  H4  UNL     1      -4.594   2.841 -23.158  1.00  0.00     0.217 HD
ENDBRANCH  13  36
BRANCH   6  38
HETATM   38  O2  UNL     1      -4.823   6.831 -16.145  1.00  0.00    -0.357 OA
ATOM     39  H2  UNL     1      -5.715   6.917 -16.459  1.00  0.00     0.217 HD
ENDBRANCH   6  38
BRANCH   1  40
HETATM   40  O1  UNL     1      -2.182   6.805 -15.331  1.00  0.00    -0.353 OA
HETATM   41  C1  UNL     1      -2.006   6.241 -14.061  1.00  0.00     0.210 C 
ENDBRANCH   1  40
TORSDOF 6
ENDMDL
