MODEL 4
REMARK VINA RESULT: -8.270828435      3.279      9.996
REMARK  6 active torsions:
REMARK  status: ('A' for Active; 'I' for Inactive)
REMARK    1  A    between atoms: O1_2  and  C2_3 
REMARK    2  A    between atoms: C7_8  and  O2_9 
REMARK    3  A    between atoms: C13_17  and  O4_18 
REMARK    4  A    between atoms: C17_25  and  C18_26 
REMARK    5  A    between atoms: C18_26  and  O7_28 
REMARK    6  A    between atoms: C27_37  and  O8_38 
ROOT
HETATM    1  C2  UNL     1      -4.558   5.696 -18.037  1.00  0.00     0.102 A 
HETATM    2  C3  UNL     1      -4.173   4.958 -19.132  1.00  0.00     0.040 A 
HETATM    3  C4  UNL     1      -5.090   4.356 -19.968  1.00  0.00     0.019 A 
HETATM    4  C5  UNL     1      -6.429   4.495 -19.703  1.00  0.00     0.032 A 
HETATM    5  C6  UNL     1      -6.815   5.230 -18.611  1.00  0.00     0.065 A 
HETATM    6  C7  UNL     1      -5.904   5.839 -17.764  1.00  0.00     0.114 A 
HETATM    7  C8  UNL     1      -8.248   5.392 -18.309  1.00  0.00     0.199 A 
HETATM    8  O3  UNL     1      -8.561   6.058 -17.315  1.00  0.00    -0.286 OA
HETATM    9  C9  UNL     1      -9.230   4.778 -19.162  1.00  0.00     0.059 A 
HETATM   10  C10 UNL     1     -10.573   4.912 -18.897  1.00  0.00     0.057 A 
HETATM   11  C11 UNL     1     -11.564   4.336 -19.678  1.00  0.00     0.013 A 
HETATM   12  C12 UNL     1     -11.176   3.611 -20.752  1.00  0.00     0.050 A 
HETATM   13  C13 UNL     1      -9.812   3.437 -21.079  1.00  0.00     0.081 A 
HETATM   14  C14 UNL     1      -8.848   4.015 -20.292  1.00  0.00     0.065 A 
HETATM   15  C15 UNL     1      -7.424   3.867 -20.574  1.00  0.00     0.197 A 
HETATM   16  O5  UNL     1      -7.041   3.208 -21.552  1.00  0.00    -0.286 OA
HETATM   17  C16 UNL     1     -12.983   4.480 -19.359  1.00  0.00     0.160 A 
HETATM   18  O6  UNL     1     -13.323   3.456 -18.605  1.00  0.00    -0.345 OA
HETATM   19  C17 UNL     1     -13.315   4.629 -17.896  1.00  0.00     0.168 A 
HETATM   20  C20 UNL     1     -12.257   5.295 -17.171  1.00  0.00     0.051 C 
HETATM   21  C21 UNL     1     -12.801   6.269 -16.190  1.00  0.00     0.028 C 
HETATM   22  C22 UNL     1     -13.018   7.508 -16.052  1.00  0.00     0.002 C 
HETATM   23  C23 UNL     1     -12.864   8.751 -16.784  1.00  0.00     0.000 C 
HETATM   24  C24 UNL     1     -12.818   8.856 -18.120  1.00  0.00    -0.000 C 
HETATM   25  C25 UNL     1     -12.925   7.652 -18.966  1.00  0.00    -0.001 C 
HETATM   26  C26 UNL     1     -13.775   6.757 -19.203  1.00  0.00     0.008 C 
HETATM   27  C27 UNL     1     -13.832   5.510 -20.062  1.00  0.00     0.184 C 
HETATM   28  N1  UNL     1     -11.042   5.693 -17.814  1.00  0.00    -0.356 N 
ATOM     29  H1  UNL     1     -10.528   6.517 -17.500  1.00  0.00     0.166 HD
ENDROOT
BRANCH  19  30
HETATM   30  C18 UNL     1     -14.700   4.685 -17.328  1.00  0.00     0.158 C 
HETATM   31  C19 UNL     1     -15.453   3.479 -17.924  1.00  0.00     0.043 C 
BRANCH  30  32
HETATM   32  O7  UNL     1     -14.871   4.600 -15.994  1.00  0.00    -0.392 OA
ATOM     33  H7  UNL     1     -14.656   3.790 -15.548  1.00  0.00     0.210 HD
ENDBRANCH  30  32
ENDBRANCH  19  30
BRANCH  27  34
HETATM   34  O8  UNL     1     -13.586   5.611 -21.378  1.00  0.00    -0.388 OA
ATOM     35  H8  UNL     1     -13.458   4.776 -21.812  1.00  0.00     0.210 HD
ENDBRANCH  27  34
BRANCH  13  36
HETATM   36  O4  UNL     1      -9.488   2.691 -22.183  1.00  0.00    -0.360 OA
ATOM     37  H4  UNL     1      -9.088   1.838 -22.057  1.00  0.00     0.217 HD
ENDBRANCH  13  36
BRANCH   6  38
HETATM   38  O2  UNL     1      -6.358   6.575 -16.669  1.00  0.00    -0.357 OA
ATOM     39  H2  UNL     1      -6.129   7.490 -16.550  1.00  0.00     0.217 HD
ENDBRANCH   6  38
BRANCH   1  40
HETATM   40  O1  UNL     1      -3.657   6.307 -17.186  1.00  0.00    -0.353 OA
HETATM   41  C1  UNL     1      -2.455   5.736 -16.750  1.00  0.00     0.210 C 
ENDBRANCH   1  40
TORSDOF 6
ENDMDL
