MODEL 3
REMARK VINA RESULT: -7.124875941      1.118      1.325
REMARK  6 active torsions:
REMARK  status: ('A' for Active; 'I' for Inactive)
REMARK    1  A    between atoms: C2_2  and  N1_3 
REMARK    2  A    between atoms: N1_3  and  C3_5 
REMARK    3  A    between atoms: C6_11  and  C7_12 
REMARK    4  A    between atoms: C7_12  and  O2_13 
REMARK    5  A    between atoms: C8_15  and  O3_16 
REMARK    6  A    between atoms: C9_18  and  O4_19 
ROOT
HETATM    1  C3  UNL     1     119.272  -3.667 -56.643  1.00  0.00     0.139 C 
HETATM    2  N2  UNL     1     118.247  -3.293 -56.028  1.00  0.00    -0.360 N 
ATOM      3  H2  UNL     1     117.956  -2.316 -56.080  1.00  0.00     0.162 HD
HETATM    4  C4  UNL     1     117.495  -4.198 -55.271  1.00  0.00     0.154 C 
HETATM    5  C5  UNL     1     117.722  -5.611 -55.672  1.00  0.00     0.216 C 
HETATM    6  O1  UNL     1     117.574  -6.596 -54.791  1.00  0.00    -0.363 OA
HETATM    7  C6  UNL     1     117.553  -6.363 -53.465  1.00  0.00     0.178 C 
HETATM    8  C8  UNL     1     116.786  -5.092 -53.169  1.00  0.00     0.180 C 
HETATM    9  C9  UNL     1     117.655  -3.996 -53.756  1.00  0.00     0.175 C 
HETATM   10  S1  UNL     1     119.441  -5.422 -56.315  1.00  0.00    -0.060 SA
ENDROOT
BRANCH   1  11
HETATM   11  N1  UNL     1     120.110  -2.842 -57.437  1.00  0.00    -0.371 N 
ATOM     12  H1  UNL     1     120.083  -1.834 -57.288  1.00  0.00     0.161 HD
BRANCH  11  13
HETATM   13  C2  UNL     1     121.001  -3.366 -58.449  1.00  0.00     0.117 C 
HETATM   14  C1  UNL     1     120.310  -3.909 -59.655  1.00  0.00     0.026 C 
ENDBRANCH  11  13
ENDBRANCH   1  11
BRANCH   9  15
HETATM   15  O4  UNL     1     117.277  -2.734 -53.387  1.00  0.00    -0.391 OA
ATOM     16  H4  UNL     1     117.535  -2.096 -54.041  1.00  0.00     0.210 HD
ENDBRANCH   9  15
BRANCH   8  17
HETATM   17  O3  UNL     1     116.540  -4.918 -51.817  1.00  0.00    -0.390 OA
ATOM     18  H3  UNL     1     116.144  -5.682 -51.415  1.00  0.00     0.210 HD
ENDBRANCH   8  17
BRANCH   7  19
HETATM   19  C7  UNL     1     116.966  -7.546 -52.717  1.00  0.00     0.198 C 
BRANCH  19  20
HETATM   20  O2  UNL     1     115.577  -7.415 -52.587  1.00  0.00    -0.398 OA
ATOM     21  H2  UNL     1     115.194  -7.073 -53.386  1.00  0.00     0.209 HD
ENDBRANCH  19  20
ENDBRANCH   7  19
TORSDOF 6
ENDMDL
