MODEL 1
REMARK VINA RESULT: -7.347064001      0.000      0.000
REMARK  6 active torsions:
REMARK  status: ('A' for Active; 'I' for Inactive)
REMARK    1  A    between atoms: C2_2  and  N1_3 
REMARK    2  A    between atoms: N1_3  and  C3_5 
REMARK    3  A    between atoms: C6_11  and  C7_12 
REMARK    4  A    between atoms: C7_12  and  O2_13 
REMARK    5  A    between atoms: C8_15  and  O3_16 
REMARK    6  A    between atoms: C9_18  and  O4_19 
ROOT
HETATM    1  C3  UNL     1     118.712  -3.599 -56.441  1.00  0.00     0.139 C 
HETATM    2  N2  UNL     1     118.214  -3.221 -55.354  1.00  0.00    -0.360 N 
ATOM      3  H2  UNL     1     118.302  -2.245 -55.072  1.00  0.00     0.162 HD
HETATM    4  C4  UNL     1     117.540  -4.124 -54.523  1.00  0.00     0.154 C 
HETATM    5  C5  UNL     1     117.066  -5.330 -55.250  1.00  0.00     0.216 C 
HETATM    6  O1  UNL     1     116.923  -6.490 -54.615  1.00  0.00    -0.363 OA
HETATM    7  C6  UNL     1     117.501  -6.718 -53.420  1.00  0.00     0.178 C 
HETATM    8  C8  UNL     1     117.426  -5.478 -52.556  1.00  0.00     0.180 C 
HETATM    9  C9  UNL     1     118.334  -4.487 -53.258  1.00  0.00     0.175 C 
HETATM   10  S1  UNL     1     118.345  -5.348 -56.580  1.00  0.00    -0.060 SA
ENDROOT
BRANCH   1  11
HETATM   11  N1  UNL     1     119.415  -2.777 -57.360  1.00  0.00    -0.371 N 
ATOM     12  H1  UNL     1     118.878  -2.206 -58.012  1.00  0.00     0.161 HD
BRANCH  11  13
HETATM   13  C2  UNL     1     120.860  -2.713 -57.414  1.00  0.00     0.117 C 
HETATM   14  C1  UNL     1     121.430  -1.388 -57.032  1.00  0.00     0.026 C 
ENDBRANCH  11  13
ENDBRANCH   1  11
BRANCH   9  15
HETATM   15  O4  UNL     1     118.613  -3.371 -52.517  1.00  0.00    -0.391 OA
ATOM     16  H4  UNL     1     119.139  -3.590 -51.757  1.00  0.00     0.210 HD
ENDBRANCH   9  15
BRANCH   8  17
HETATM   17  O3  UNL     1     117.801  -5.716 -51.245  1.00  0.00    -0.390 OA
ATOM     18  H3  UNL     1     117.227  -6.331 -50.804  1.00  0.00     0.210 HD
ENDBRANCH   8  17
BRANCH   7  19
HETATM   19  C7  UNL     1     116.863  -7.909 -52.729  1.00  0.00     0.198 C 
BRANCH  19  20
HETATM   20  O2  UNL     1     115.542  -7.623 -52.360  1.00  0.00    -0.398 OA
ATOM     21  H2  UNL     1     115.355  -7.953 -51.489  1.00  0.00     0.209 HD
ENDBRANCH  19  20
ENDBRANCH   7  19
TORSDOF 6
ENDMDL
