MODEL 4
REMARK VINA RESULT: -6.633128598      3.374      5.974
REMARK  6 active torsions:
REMARK  status: ('A' for Active; 'I' for Inactive)
REMARK    1  A    between atoms: C2_2  and  N1_3 
REMARK    2  A    between atoms: N1_3  and  C3_5 
REMARK    3  A    between atoms: C6_11  and  C7_12 
REMARK    4  A    between atoms: C7_12  and  O2_13 
REMARK    5  A    between atoms: C8_15  and  O3_16 
REMARK    6  A    between atoms: C9_18  and  O4_19 
ROOT
HETATM    1  C3  UNL     1     117.051  -8.399 -52.299  1.00  0.00     0.139 C 
HETATM    2  N2  UNL     1     118.037  -7.627 -52.335  1.00  0.00    -0.360 N 
ATOM      3  H2  UNL     1     118.822  -7.782 -51.703  1.00  0.00     0.162 HD
HETATM    4  C4  UNL     1     118.074  -6.554 -53.233  1.00  0.00     0.154 C 
HETATM    5  C5  UNL     1     117.151  -6.735 -54.383  1.00  0.00     0.216 C 
HETATM    6  O1  UNL     1     116.630  -5.680 -55.005  1.00  0.00    -0.363 OA
HETATM    7  C6  UNL     1     116.630  -4.456 -54.443  1.00  0.00     0.178 C 
HETATM    8  C8  UNL     1     117.933  -4.215 -53.711  1.00  0.00     0.180 C 
HETATM    9  C9  UNL     1     117.886  -5.190 -52.550  1.00  0.00     0.175 C 
HETATM   10  S1  UNL     1     115.906  -7.810 -53.546  1.00  0.00    -0.060 SA
ENDROOT
BRANCH   1  11
HETATM   11  N1  UNL     1     116.903  -9.515 -51.434  1.00  0.00    -0.371 N 
ATOM     12  H1  UNL     1     117.451 -10.353 -51.623  1.00  0.00     0.161 HD
BRANCH  11  13
HETATM   13  C2  UNL     1     116.009  -9.516 -50.296  1.00  0.00     0.117 C 
HETATM   14  C1  UNL     1     114.708 -10.206 -50.537  1.00  0.00     0.026 C 
ENDBRANCH  11  13
ENDBRANCH   1  11
BRANCH   9  15
HETATM   15  O4  UNL     1     118.854  -4.975 -51.608  1.00  0.00    -0.391 OA
ATOM     16  H4  UNL     1     119.555  -4.435 -51.957  1.00  0.00     0.210 HD
ENDBRANCH   9  15
BRANCH   8  17
HETATM   17  O3  UNL     1     118.082  -2.900 -53.304  1.00  0.00    -0.390 OA
ATOM     18  H3  UNL     1     118.171  -2.815 -52.362  1.00  0.00     0.210 HD
ENDBRANCH   8  17
BRANCH   7  19
HETATM   19  C7  UNL     1     116.378  -3.382 -55.486  1.00  0.00     0.198 C 
BRANCH  19  20
HETATM   20  O2  UNL     1     117.521  -3.169 -56.268  1.00  0.00    -0.398 OA
ATOM     21  H2  UNL     1     117.461  -2.344 -56.736  1.00  0.00     0.209 HD
ENDBRANCH  19  20
ENDBRANCH   7  19
TORSDOF 6
ENDMDL
