MODEL 2
REMARK VINA RESULT: -7.239726026      1.295      1.368
REMARK  6 active torsions:
REMARK  status: ('A' for Active; 'I' for Inactive)
REMARK    1  A    between atoms: C2_2  and  N1_3 
REMARK    2  A    between atoms: N1_3  and  C3_5 
REMARK    3  A    between atoms: C6_11  and  C7_12 
REMARK    4  A    between atoms: C7_12  and  O2_13 
REMARK    5  A    between atoms: C8_15  and  O3_16 
REMARK    6  A    between atoms: C9_18  and  O4_19 
ROOT
HETATM    1  C3  UNL     1     119.316  -3.760 -57.023  1.00  0.00     0.139 C 
HETATM    2  N2  UNL     1     118.175  -3.538 -56.554  1.00  0.00    -0.360 N 
ATOM      3  H2  UNL     1     117.708  -2.655 -56.762  1.00  0.00     0.162 HD
HETATM    4  C4  UNL     1     117.535  -4.486 -55.748  1.00  0.00     0.154 C 
HETATM    5  C5  UNL     1     118.076  -5.857 -55.934  1.00  0.00     0.216 C 
HETATM    6  O1  UNL     1     118.027  -6.744 -54.944  1.00  0.00    -0.363 OA
HETATM    7  C6  UNL     1     117.814  -6.369 -53.668  1.00  0.00     0.178 C 
HETATM    8  C8  UNL     1     116.787  -5.259 -53.612  1.00  0.00     0.180 C 
HETATM    9  C9  UNL     1     117.485  -4.082 -54.266  1.00  0.00     0.175 C 
HETATM   10  S1  UNL     1     119.786  -5.392 -56.449  1.00  0.00    -0.060 SA
ENDROOT
BRANCH   1  11
HETATM   11  N1  UNL     1     120.059  -2.876 -57.849  1.00  0.00    -0.371 N 
ATOM     12  H1  UNL     1     119.616  -2.507 -58.689  1.00  0.00     0.161 HD
BRANCH  11  13
HETATM   13  C2  UNL     1     121.417  -2.474 -57.551  1.00  0.00     0.117 C 
HETATM   14  C1  UNL     1     121.530  -1.154 -56.864  1.00  0.00     0.026 C 
ENDBRANCH  11  13
ENDBRANCH   1  11
BRANCH   9  15
HETATM   15  O4  UNL     1     116.830  -2.892 -54.104  1.00  0.00    -0.391 OA
ATOM     16  H4  UNL     1     116.455  -2.825 -53.233  1.00  0.00     0.210 HD
ENDBRANCH   9  15
BRANCH   8  17
HETATM   17  O3  UNL     1     116.364  -4.985 -52.323  1.00  0.00    -0.390 OA
ATOM     18  H3  UNL     1     116.797  -4.228 -51.947  1.00  0.00     0.210 HD
ENDBRANCH   8  17
BRANCH   7  19
HETATM   19  C7  UNL     1     117.390  -7.554 -52.820  1.00  0.00     0.198 C 
BRANCH  19  20
HETATM   20  O2  UNL     1     117.766  -7.370 -51.483  1.00  0.00    -0.398 OA
ATOM     21  H2  UNL     1     117.981  -6.460 -51.314  1.00  0.00     0.209 HD
ENDBRANCH  19  20
ENDBRANCH   7  19
TORSDOF 6
ENDMDL
