MODEL 5
REMARK VINA RESULT: -8.858103158      1.603      4.796
REMARK  9 active torsions:
REMARK  status: ('A' for Active; 'I' for Inactive)
REMARK    1  A    between atoms: C2_2  and  C3_3 
REMARK    2  A    between atoms: C2_2  and  C9_9 
REMARK    3  A    between atoms: C12_12  and  O1_13 
REMARK    4  A    between atoms: C15_17  and  C16_18 
REMARK    5  A    between atoms: C16_18  and  C17_19 
REMARK    6  A    between atoms: C17_19  and  C18_20 
REMARK    7  A    between atoms: C18_20  and  C19_21 
REMARK    8  A    between atoms: C19_21  and  C20_22 
REMARK    9  A    between atoms: C22_24  and  C23_25 
ROOT
HETATM    1  C9  UNL     1      -8.638  17.285 -10.167  1.00  0.00     0.022 C 
HETATM    2  C10 UNL     1      -9.309  18.634 -10.248  1.00  0.00     0.022 C 
HETATM    3  C11 UNL     1     -10.663  18.423 -10.925  1.00  0.00     0.033 C 
HETATM    4  C12 UNL     1     -10.913  16.926 -10.812  1.00  0.00     0.124 C 
HETATM    5  C13 UNL     1      -9.478  16.429 -11.057  1.00  0.00     0.036 C 
HETATM    6  C14 UNL     1      -9.269  15.079 -10.480  1.00  0.00     0.047 C 
HETATM    7  C15 UNL     1      -9.237  15.392  -8.986  1.00  0.00    -0.053 C 
HETATM    8  C22 UNL     1      -8.877  16.649  -8.835  1.00  0.00    -0.028 C 
ENDROOT
BRANCH   1   9
HETATM    9  C2  UNL     1      -7.244  17.255 -10.582  1.00  0.00    -0.043 C 
HETATM   10  C1  UNL     1      -6.943  17.187 -11.876  1.00  0.00     0.021 C 
BRANCH   9  11
HETATM   11  C3  UNL     1      -6.090  17.295  -9.705  1.00  0.00    -0.030 A 
HETATM   12  C4  UNL     1      -5.400  16.175  -9.373  1.00  0.00     0.012 A 
HETATM   13  C5  UNL     1      -4.260  16.219  -8.544  1.00  0.00     0.001 A 
HETATM   14  C6  UNL     1      -3.849  17.428  -8.069  1.00  0.00     0.000 A 
HETATM   15  C7  UNL     1      -4.529  18.572  -8.391  1.00  0.00     0.001 A 
HETATM   16  C8  UNL     1      -5.662  18.506  -9.218  1.00  0.00     0.012 A 
ENDBRANCH   9  11
ENDBRANCH   1   9
BRANCH   8  17
HETATM   17  C23 UNL     1      -8.718  17.280  -7.533  1.00  0.00    -0.028 A 
HETATM   18  C24 UNL     1      -9.478  18.325  -7.055  1.00  0.00     0.012 A 
HETATM   19  C25 UNL     1      -9.274  18.920  -5.836  1.00  0.00     0.001 A 
HETATM   20  C26 UNL     1      -8.279  18.486  -5.022  1.00  0.00     0.000 A 
HETATM   21  C27 UNL     1      -7.478  17.436  -5.444  1.00  0.00     0.001 A 
HETATM   22  C28 UNL     1      -7.709  16.861  -6.675  1.00  0.00     0.012 A 
ENDBRANCH   8  17
BRANCH   4  23
HETATM   23  O1  UNL     1     -11.705  16.444 -11.845  1.00  0.00    -0.395 OA
ATOM     24  H1  UNL     1     -11.197  15.991 -12.508  1.00  0.00     0.210 HD
ENDBRANCH   4  23
BRANCH   7  25
HETATM   25  C16 UNL     1      -9.607  14.308  -8.084  1.00  0.00    -0.019 C 
BRANCH  25  26
HETATM   26  C17 UNL     1      -8.848  13.090  -7.964  1.00  0.00     0.027 C 
BRANCH  26  27
HETATM   27  C18 UNL     1      -8.064  13.072  -6.667  1.00  0.00     0.004 C 
BRANCH  27  28
HETATM   28  C19 UNL     1      -6.626  13.349  -6.918  1.00  0.00    -0.000 C 
BRANCH  28  29
HETATM   29  C20 UNL     1      -6.221  13.000  -8.345  1.00  0.00    -0.005 C 
HETATM   30  C21 UNL     1      -4.749  12.649  -8.309  1.00  0.00     0.005 C 
ENDBRANCH  28  29
ENDBRANCH  27  28
ENDBRANCH  26  27
ENDBRANCH  25  26
ENDBRANCH   7  25
TORSDOF 9
ENDMDL
