MODEL 6
REMARK VINA RESULT: -8.761790258      1.269      5.339
REMARK  9 active torsions:
REMARK  status: ('A' for Active; 'I' for Inactive)
REMARK    1  A    between atoms: C2_2  and  C3_3 
REMARK    2  A    between atoms: C2_2  and  C9_9 
REMARK    3  A    between atoms: C12_12  and  O1_13 
REMARK    4  A    between atoms: C15_17  and  C16_18 
REMARK    5  A    between atoms: C16_18  and  C17_19 
REMARK    6  A    between atoms: C17_19  and  C18_20 
REMARK    7  A    between atoms: C18_20  and  C19_21 
REMARK    8  A    between atoms: C19_21  and  C20_22 
REMARK    9  A    between atoms: C22_24  and  C23_25 
ROOT
HETATM    1  C9  UNL     1      -8.450  16.824  -8.821  1.00  0.00     0.022 C 
HETATM    2  C10 UNL     1      -9.871  16.525  -9.234  1.00  0.00     0.022 C 
HETATM    3  C11 UNL     1      -9.954  16.738 -10.745  1.00  0.00     0.033 C 
HETATM    4  C12 UNL     1      -8.503  16.719 -11.210  1.00  0.00     0.124 C 
HETATM    5  C13 UNL     1      -7.871  17.478 -10.031  1.00  0.00     0.036 C 
HETATM    6  C14 UNL     1      -6.428  17.160  -9.897  1.00  0.00     0.047 C 
HETATM    7  C15 UNL     1      -6.484  15.735  -9.353  1.00  0.00    -0.053 C 
HETATM    8  C22 UNL     1      -7.641  15.569  -8.748  1.00  0.00    -0.028 C 
ENDROOT
BRANCH   1   9
HETATM    9  C2  UNL     1      -8.307  17.676  -7.650  1.00  0.00    -0.043 C 
HETATM   10  C1  UNL     1      -8.581  18.974  -7.742  1.00  0.00     0.021 C 
BRANCH   9  11
HETATM   11  C3  UNL     1      -7.882  17.250  -6.330  1.00  0.00    -0.030 A 
HETATM   12  C4  UNL     1      -8.769  17.028  -5.327  1.00  0.00     0.012 A 
HETATM   13  C5  UNL     1      -8.358  16.585  -4.053  1.00  0.00     0.001 A 
HETATM   14  C6  UNL     1      -7.029  16.378  -3.835  1.00  0.00     0.000 A 
HETATM   15  C7  UNL     1      -6.117  16.595  -4.832  1.00  0.00     0.001 A 
HETATM   16  C8  UNL     1      -6.547  17.036  -6.094  1.00  0.00     0.012 A 
ENDBRANCH   9  11
ENDBRANCH   1   9
BRANCH   8  17
HETATM   17  C23 UNL     1      -8.022  14.329  -8.088  1.00  0.00    -0.028 A 
HETATM   18  C24 UNL     1      -7.655  13.959  -6.813  1.00  0.00     0.012 A 
HETATM   19  C25 UNL     1      -8.002  12.763  -6.236  1.00  0.00     0.001 A 
HETATM   20  C26 UNL     1      -8.749  11.864  -6.925  1.00  0.00     0.000 A 
HETATM   21  C27 UNL     1      -9.152  12.176  -8.215  1.00  0.00     0.001 A 
HETATM   22  C28 UNL     1      -8.786  13.386  -8.765  1.00  0.00     0.012 A 
ENDBRANCH   8  17
BRANCH   4  23
HETATM   23  O1  UNL     1      -8.307  17.481 -12.352  1.00  0.00    -0.395 OA
ATOM     24  H1  UNL     1      -7.518  17.233 -12.821  1.00  0.00     0.210 HD
ENDBRANCH   4  23
BRANCH   7  25
HETATM   25  C16 UNL     1      -5.324  14.891  -9.613  1.00  0.00    -0.019 C 
BRANCH  25  26
HETATM   26  C17 UNL     1      -4.287  14.657  -8.642  1.00  0.00     0.027 C 
BRANCH  26  27
HETATM   27  C18 UNL     1      -3.128  15.609  -8.855  1.00  0.00     0.004 C 
BRANCH  27  28
HETATM   28  C19 UNL     1      -3.131  16.680  -7.825  1.00  0.00    -0.000 C 
BRANCH  28  29
HETATM   29  C20 UNL     1      -3.313  18.061  -8.444  1.00  0.00    -0.005 C 
HETATM   30  C21 UNL     1      -2.275  18.191  -9.538  1.00  0.00     0.005 C 
ENDBRANCH  28  29
ENDBRANCH  27  28
ENDBRANCH  26  27
ENDBRANCH  25  26
ENDBRANCH   7  25
TORSDOF 9
ENDMDL
