MODEL 1
REMARK VINA RESULT: -9.271312837      0.000      0.000
REMARK  9 active torsions:
REMARK  status: ('A' for Active; 'I' for Inactive)
REMARK    1  A    between atoms: C2_2  and  C3_3 
REMARK    2  A    between atoms: C2_2  and  C9_9 
REMARK    3  A    between atoms: C12_12  and  O1_13 
REMARK    4  A    between atoms: C15_17  and  C16_18 
REMARK    5  A    between atoms: C16_18  and  C17_19 
REMARK    6  A    between atoms: C17_19  and  C18_20 
REMARK    7  A    between atoms: C18_20  and  C19_21 
REMARK    8  A    between atoms: C19_21  and  C20_22 
REMARK    9  A    between atoms: C22_24  and  C23_25 
ROOT
HETATM    1  C9  UNL     1      -7.252  15.784  -9.842  1.00  0.00     0.022 C 
HETATM    2  C10 UNL     1      -6.980  16.275 -11.243  1.00  0.00     0.022 C 
HETATM    3  C11 UNL     1      -8.154  17.168 -11.642  1.00  0.00     0.033 C 
HETATM    4  C12 UNL     1      -8.832  17.515 -10.323  1.00  0.00     0.124 C 
HETATM    5  C13 UNL     1      -8.681  16.156  -9.619  1.00  0.00     0.036 C 
HETATM    6  C14 UNL     1      -8.738  16.303  -8.144  1.00  0.00     0.047 C 
HETATM    7  C15 UNL     1      -7.388  16.953  -7.854  1.00  0.00    -0.053 C 
HETATM    8  C22 UNL     1      -6.563  16.645  -8.832  1.00  0.00    -0.028 C 
ENDROOT
BRANCH   1   9
HETATM    9  C2  UNL     1      -7.045  14.360  -9.629  1.00  0.00    -0.043 C 
HETATM   10  C1  UNL     1      -6.289  13.670 -10.478  1.00  0.00     0.021 C 
BRANCH   9  11
HETATM   11  C3  UNL     1      -7.592  13.569  -8.543  1.00  0.00    -0.030 A 
HETATM   12  C4  UNL     1      -8.691  12.789  -8.705  1.00  0.00     0.012 A 
HETATM   13  C5  UNL     1      -9.205  11.998  -7.657  1.00  0.00     0.001 A 
HETATM   14  C6  UNL     1      -8.570  12.026  -6.451  1.00  0.00     0.000 A 
HETATM   15  C7  UNL     1      -7.460  12.805  -6.265  1.00  0.00     0.001 A 
HETATM   16  C8  UNL     1      -6.965  13.586  -7.322  1.00  0.00     0.012 A 
ENDBRANCH   9  11
ENDBRANCH   1   9
BRANCH   8  17
HETATM   17  C23 UNL     1      -5.174  17.078  -8.867  1.00  0.00    -0.028 A 
HETATM   18  C24 UNL     1      -4.741  18.342  -9.202  1.00  0.00     0.012 A 
HETATM   19  C25 UNL     1      -3.419  18.705  -9.261  1.00  0.00     0.001 A 
HETATM   20  C26 UNL     1      -2.449  17.798  -8.980  1.00  0.00     0.000 A 
HETATM   21  C27 UNL     1      -2.818  16.507  -8.635  1.00  0.00     0.001 A 
HETATM   22  C28 UNL     1      -4.155  16.175  -8.585  1.00  0.00     0.012 A 
ENDBRANCH   8  17
BRANCH   4  23
HETATM   23  O1  UNL     1     -10.189  17.759 -10.476  1.00  0.00    -0.395 OA
ATOM     24  H1  UNL     1     -10.635  17.857  -9.642  1.00  0.00     0.210 HD
ENDBRANCH   4  23
BRANCH   7  25
HETATM   25  C16 UNL     1      -7.296  17.751  -6.638  1.00  0.00    -0.019 C 
BRANCH  25  26
HETATM   26  C17 UNL     1      -7.098  17.175  -5.332  1.00  0.00     0.027 C 
BRANCH  26  27
HETATM   27  C18 UNL     1      -8.034  17.805  -4.321  1.00  0.00     0.004 C 
BRANCH  27  28
HETATM   28  C19 UNL     1      -8.386  16.834  -3.253  1.00  0.00    -0.000 C 
BRANCH  28  29
HETATM   29  C20 UNL     1      -7.979  15.413  -3.622  1.00  0.00    -0.005 C 
HETATM   30  C21 UNL     1      -8.333  14.535  -2.441  1.00  0.00     0.005 C 
ENDBRANCH  28  29
ENDBRANCH  27  28
ENDBRANCH  26  27
ENDBRANCH  25  26
ENDBRANCH   7  25
TORSDOF 9
ENDMDL
