MODEL 2
REMARK VINA RESULT: -9.131238728      1.765      4.707
REMARK  9 active torsions:
REMARK  status: ('A' for Active; 'I' for Inactive)
REMARK    1  A    between atoms: C2_2  and  C3_3 
REMARK    2  A    between atoms: C2_2  and  C9_9 
REMARK    3  A    between atoms: C12_12  and  O1_13 
REMARK    4  A    between atoms: C15_17  and  C16_18 
REMARK    5  A    between atoms: C16_18  and  C17_19 
REMARK    6  A    between atoms: C17_19  and  C18_20 
REMARK    7  A    between atoms: C18_20  and  C19_21 
REMARK    8  A    between atoms: C19_21  and  C20_22 
REMARK    9  A    between atoms: C22_24  and  C23_25 
ROOT
HETATM    1  C9  UNL     1      -6.870  16.475  -9.311  1.00  0.00     0.022 C 
HETATM    2  C10 UNL     1      -5.511  15.886  -9.025  1.00  0.00     0.022 C 
HETATM    3  C11 UNL     1      -4.656  16.999  -8.421  1.00  0.00     0.033 C 
HETATM    4  C12 UNL     1      -5.664  18.049  -7.974  1.00  0.00     0.124 C 
HETATM    5  C13 UNL     1      -6.649  17.943  -9.150  1.00  0.00     0.036 C 
HETATM    6  C14 UNL     1      -8.000  18.422  -8.767  1.00  0.00     0.047 C 
HETATM    7  C15 UNL     1      -8.475  17.288  -7.861  1.00  0.00    -0.053 C 
HETATM    8  C22 UNL     1      -7.819  16.195  -8.189  1.00  0.00    -0.028 C 
ENDROOT
BRANCH   1   9
HETATM    9  C2  UNL     1      -7.420  16.172 -10.624  1.00  0.00    -0.043 C 
HETATM   10  C1  UNL     1      -6.747  15.376 -11.451  1.00  0.00     0.021 C 
BRANCH   9  11
HETATM   11  C3  UNL     1      -8.676  16.660 -11.158  1.00  0.00    -0.030 A 
HETATM   12  C4  UNL     1      -8.741  17.757 -11.954  1.00  0.00     0.012 A 
HETATM   13  C5  UNL     1      -9.959  18.213 -12.498  1.00  0.00     0.001 A 
HETATM   14  C6  UNL     1     -11.098  17.523 -12.208  1.00  0.00     0.000 A 
HETATM   15  C7  UNL     1     -11.057  16.413 -11.409  1.00  0.00     0.001 A 
HETATM   16  C8  UNL     1      -9.833  15.975 -10.878  1.00  0.00     0.012 A 
ENDBRANCH   9  11
ENDBRANCH   1   9
BRANCH   8  17
HETATM   17  C23 UNL     1      -8.041  14.911  -7.543  1.00  0.00    -0.028 A 
HETATM   18  C24 UNL     1      -7.443  14.491  -6.375  1.00  0.00     0.012 A 
HETATM   19  C25 UNL     1      -7.648  13.256  -5.814  1.00  0.00     0.001 A 
HETATM   20  C26 UNL     1      -8.481  12.365  -6.410  1.00  0.00     0.000 A 
HETATM   21  C27 UNL     1      -9.116  12.726  -7.589  1.00  0.00     0.001 A 
HETATM   22  C28 UNL     1      -8.887  13.975  -8.126  1.00  0.00     0.012 A 
ENDBRANCH   8  17
BRANCH   4  23
HETATM   23  O1  UNL     1      -5.131  19.330  -7.989  1.00  0.00    -0.395 OA
ATOM     24  H1  UNL     1      -5.300  19.782  -8.808  1.00  0.00     0.210 HD
ENDBRANCH   4  23
BRANCH   7  25
HETATM   25  C16 UNL     1      -9.483  17.628  -6.865  1.00  0.00    -0.019 C 
BRANCH  25  26
HETATM   26  C17 UNL     1      -9.227  18.505  -5.752  1.00  0.00     0.027 C 
BRANCH  26  27
HETATM   27  C18 UNL     1      -8.041  18.016  -4.946  1.00  0.00     0.004 C 
BRANCH  27  28
HETATM   28  C19 UNL     1      -8.493  17.276  -3.739  1.00  0.00    -0.000 C 
BRANCH  28  29
HETATM   29  C20 UNL     1      -7.556  16.125  -3.396  1.00  0.00    -0.005 C 
HETATM   30  C21 UNL     1      -8.384  15.091  -2.661  1.00  0.00     0.005 C 
ENDBRANCH  28  29
ENDBRANCH  27  28
ENDBRANCH  26  27
ENDBRANCH  25  26
ENDBRANCH   7  25
TORSDOF 9
ENDMDL
