MODEL 1
REMARK VINA RESULT: -8.792737406      0.000      0.000
REMARK  2 active torsions:
REMARK  status: ('A' for Active; 'I' for Inactive)
REMARK    1  A    between atoms: O1_2  and  C2_3 
REMARK    2  A    between atoms: C7_8  and  C8_9 
ROOT
HETATM    1  C2  UNL     1      21.001  -3.114   6.385  1.00  0.00     0.080 A 
HETATM    2  C3  UNL     1      19.887  -3.662   7.033  1.00  0.00     0.052 A 
HETATM    3  C4  UNL     1      19.891  -3.864   8.380  1.00  0.00     0.010 A 
HETATM    4  C5  UNL     1      21.042  -3.506   9.085  1.00  0.00     0.046 A 
HETATM    5  C6  UNL     1      22.142  -2.964   8.445  1.00  0.00     0.045 A 
HETATM    6  C7  UNL     1      22.133  -2.761   7.086  1.00  0.00     0.014 A 
HETATM    7  N2  UNL     1      20.803  -3.817  10.367  1.00  0.00    -0.341 N 
ATOM      8  H2  UNL     1      21.465  -3.670  11.129  1.00  0.00     0.167 HD
HETATM    9  C13 UNL     1      19.580  -4.344  10.513  1.00  0.00     0.120 A 
HETATM   10  N3  UNL     1      18.868  -4.829  11.545  1.00  0.00    -0.332 N 
ATOM     11  H3  UNL     1      19.300  -4.806  12.469  1.00  0.00     0.168 HD
HETATM   12  C14 UNL     1      17.634  -5.340  11.449  1.00  0.00     0.079 A 
HETATM   13  C15 UNL     1      16.918  -5.859  12.664  1.00  0.00     0.089 C 
HETATM   14  N4  UNL     1      17.054  -5.371  10.231  1.00  0.00    -0.345 N 
ATOM     15  H4  UNL     1      16.115  -5.753  10.131  1.00  0.00     0.167 HD
HETATM   16  C16 UNL     1      17.701  -4.902   9.143  1.00  0.00     0.059 A 
HETATM   17  C17 UNL     1      16.996  -4.965   7.885  1.00  0.00     0.005 A 
HETATM   18  C18 UNL     1      16.560  -3.813   7.264  1.00  0.00     0.031 A 
HETATM   19  C19 UNL     1      15.814  -3.903   6.111  1.00  0.00     0.089 A 
HETATM   20  N5  UNL     1      15.486  -5.086   5.555  1.00  0.00    -0.365 N 
ATOM     21  H5  UNL     1      14.932  -5.129   4.700  1.00  0.00     0.165 HD
HETATM   22  C20 UNL     1      15.915  -6.219   6.168  1.00  0.00     0.043 A 
HETATM   23  C21 UNL     1      15.590  -7.446   5.614  1.00  0.00     0.030 A 
HETATM   24  C22 UNL     1      16.004  -8.608   6.200  1.00  0.00     0.002 A 
HETATM   25  C23 UNL     1      16.753  -8.608   7.354  1.00  0.00     0.001 A 
HETATM   26  C24 UNL     1      17.067  -7.380   7.889  1.00  0.00     0.014 A 
HETATM   27  C25 UNL     1      16.663  -6.174   7.320  1.00  0.00     0.003 A 
HETATM   28  C26 UNL     1      18.965  -4.388   9.261  1.00  0.00     0.048 A 
ENDROOT
BRANCH   1  29
HETATM   29  O1  UNL     1      20.908  -2.944   5.023  1.00  0.00    -0.355 OA
HETATM   30  C1  UNL     1      20.235  -1.947   4.334  1.00  0.00     0.210 C 
ENDBRANCH   1  29
BRANCH   6  31
HETATM   31  C8  UNL     1      23.285  -2.195   6.414  1.00  0.00     0.032 A 
HETATM   32  C9  UNL     1      24.404  -2.880   6.010  1.00  0.00     0.042 A 
HETATM   33  C10 UNL     1      24.678  -4.323   6.169  1.00  0.00     0.071 C 
HETATM   34  N1  UNL     1      25.230  -1.976   5.427  1.00  0.00    -0.265 N 
HETATM   35  O2  UNL     1      24.652  -0.808   5.471  1.00  0.00    -0.242 OA
ATOM     36  H1  UNL     1      26.145  -2.175   5.023  1.00  0.00     0.194 HD
HETATM   37  C11 UNL     1      23.492  -0.882   6.049  1.00  0.00     0.085 A 
HETATM   38  C12 UNL     1      22.584   0.279   6.257  1.00  0.00     0.079 C 
ENDBRANCH   6  31
TORSDOF 2
ENDMDL
