MODEL 3
REMARK VINA RESULT: -8.763504833      1.846      4.877
REMARK  2 active torsions:
REMARK  status: ('A' for Active; 'I' for Inactive)
REMARK    1  A    between atoms: O1_2  and  C2_3 
REMARK    2  A    between atoms: C7_8  and  C8_9 
ROOT
HETATM    1  C2  UNL     1      21.887  -1.907   7.319  1.00  0.00     0.080 A 
HETATM    2  C3  UNL     1      20.964  -2.799   7.878  1.00  0.00     0.052 A 
HETATM    3  C4  UNL     1      19.927  -3.286   7.140  1.00  0.00     0.010 A 
HETATM    4  C5  UNL     1      19.822  -2.863   5.813  1.00  0.00     0.046 A 
HETATM    5  C6  UNL     1      20.735  -1.982   5.261  1.00  0.00     0.045 A 
HETATM    6  C7  UNL     1      21.779  -1.494   6.009  1.00  0.00     0.014 A 
HETATM    7  N2  UNL     1      18.728  -3.460   5.319  1.00  0.00    -0.341 N 
ATOM      8  H2  UNL     1      18.388  -3.344   4.365  1.00  0.00     0.167 HD
HETATM    9  C13 UNL     1      18.142  -4.229   6.246  1.00  0.00     0.120 A 
HETATM   10  N3  UNL     1      17.044  -5.006   6.286  1.00  0.00    -0.332 N 
ATOM     11  H3  UNL     1      16.488  -5.081   5.435  1.00  0.00     0.168 HD
HETATM   12  C14 UNL     1      16.628  -5.686   7.361  1.00  0.00     0.079 A 
HETATM   13  C15 UNL     1      15.385  -6.529   7.307  1.00  0.00     0.089 C 
HETATM   14  N4  UNL     1      17.361  -5.595   8.491  1.00  0.00    -0.345 N 
ATOM     15  H4  UNL     1      17.066  -6.104   9.323  1.00  0.00     0.167 HD
HETATM   16  C16 UNL     1      18.478  -4.838   8.535  1.00  0.00     0.059 A 
HETATM   17  C17 UNL     1      19.202  -4.811   9.782  1.00  0.00     0.005 A 
HETATM   18  C18 UNL     1      20.439  -5.410   9.891  1.00  0.00     0.031 A 
HETATM   19  C19 UNL     1      21.071  -5.448  11.113  1.00  0.00     0.089 A 
HETATM   20  N5  UNL     1      20.524  -4.919  12.224  1.00  0.00    -0.365 N 
ATOM     21  H5  UNL     1      21.011  -4.959  13.120  1.00  0.00     0.165 HD
HETATM   22  C20 UNL     1      19.306  -4.330  12.116  1.00  0.00     0.043 A 
HETATM   23  C21 UNL     1      18.724  -3.778  13.246  1.00  0.00     0.030 A 
HETATM   24  C22 UNL     1      17.500  -3.177  13.178  1.00  0.00     0.002 A 
HETATM   25  C23 UNL     1      16.800  -3.095  11.996  1.00  0.00     0.001 A 
HETATM   26  C24 UNL     1      17.394  -3.648  10.886  1.00  0.00     0.014 A 
HETATM   27  C25 UNL     1      18.641  -4.269  10.915  1.00  0.00     0.003 A 
HETATM   28  C26 UNL     1      18.883  -4.144   7.425  1.00  0.00     0.048 A 
ENDROOT
BRANCH   1  29
HETATM   29  O1  UNL     1      22.902  -1.468   8.136  1.00  0.00    -0.355 OA
HETATM   30  C1  UNL     1      23.989  -2.189   8.605  1.00  0.00     0.210 C 
ENDBRANCH   1  29
BRANCH   6  31
HETATM   31  C8  UNL     1      22.734  -0.570   5.432  1.00  0.00     0.032 A 
HETATM   32  C9  UNL     1      22.587   0.791   5.336  1.00  0.00     0.042 A 
HETATM   33  C10 UNL     1      21.440   1.603   5.790  1.00  0.00     0.071 C 
HETATM   34  N1  UNL     1      23.707   1.267   4.736  1.00  0.00    -0.265 N 
HETATM   35  O2  UNL     1      24.493   0.258   4.480  1.00  0.00    -0.242 OA
ATOM     36  H1  UNL     1      23.902   2.245   4.523  1.00  0.00     0.194 HD
HETATM   37  C11 UNL     1      23.962  -0.859   4.874  1.00  0.00     0.085 A 
HETATM   38  C12 UNL     1      24.606  -2.192   4.724  1.00  0.00     0.079 C 
ENDBRANCH   6  31
TORSDOF 2
ENDMDL
