MODEL 2
REMARK VINA RESULT: -8.786647777      1.830      4.691
REMARK  2 active torsions:
REMARK  status: ('A' for Active; 'I' for Inactive)
REMARK    1  A    between atoms: O1_2  and  C2_3 
REMARK    2  A    between atoms: C7_8  and  C8_9 
ROOT
HETATM    1  C2  UNL     1      21.855  -1.882   7.301  1.00  0.00     0.080 A 
HETATM    2  C3  UNL     1      20.945  -2.781   7.869  1.00  0.00     0.052 A 
HETATM    3  C4  UNL     1      19.911  -3.285   7.139  1.00  0.00     0.010 A 
HETATM    4  C5  UNL     1      19.793  -2.871   5.811  1.00  0.00     0.046 A 
HETATM    5  C6  UNL     1      20.693  -1.982   5.249  1.00  0.00     0.045 A 
HETATM    6  C7  UNL     1      21.735  -1.478   5.989  1.00  0.00     0.014 A 
HETATM    7  N2  UNL     1      18.705  -3.483   5.326  1.00  0.00    -0.341 N 
ATOM      8  H2  UNL     1      18.358  -3.377   4.372  1.00  0.00     0.167 HD
HETATM    9  C13 UNL     1      18.132  -4.254   6.260  1.00  0.00     0.120 A 
HETATM   10  N3  UNL     1      17.044  -5.043   6.310  1.00  0.00    -0.332 N 
ATOM     11  H3  UNL     1      16.484  -5.130   5.462  1.00  0.00     0.168 HD
HETATM   12  C14 UNL     1      16.642  -5.723   7.391  1.00  0.00     0.079 A 
HETATM   13  C15 UNL     1      15.408  -6.580   7.348  1.00  0.00     0.089 C 
HETATM   14  N4  UNL     1      17.378  -5.616   8.516  1.00  0.00    -0.345 N 
ATOM     15  H4  UNL     1      17.094  -6.125   9.353  1.00  0.00     0.167 HD
HETATM   16  C16 UNL     1      18.487  -4.846   8.550  1.00  0.00     0.059 A 
HETATM   17  C17 UNL     1      19.217  -4.804   9.794  1.00  0.00     0.005 A 
HETATM   18  C18 UNL     1      20.462  -5.387   9.899  1.00  0.00     0.031 A 
HETATM   19  C19 UNL     1      21.100  -5.411  11.119  1.00  0.00     0.089 A 
HETATM   20  N5  UNL     1      20.553  -4.882  12.230  1.00  0.00    -0.365 N 
ATOM     21  H5  UNL     1      21.044  -4.911  13.123  1.00  0.00     0.165 HD
HETATM   22  C20 UNL     1      19.327  -4.308  12.125  1.00  0.00     0.043 A 
HETATM   23  C21 UNL     1      18.744  -3.757  13.254  1.00  0.00     0.030 A 
HETATM   24  C22 UNL     1      17.512  -3.171  13.189  1.00  0.00     0.002 A 
HETATM   25  C23 UNL     1      16.806  -3.104  12.011  1.00  0.00     0.001 A 
HETATM   26  C24 UNL     1      17.401  -3.656  10.900  1.00  0.00     0.014 A 
HETATM   27  C25 UNL     1      18.655  -4.262  10.927  1.00  0.00     0.003 A 
HETATM   28  C26 UNL     1      18.878  -4.154   7.435  1.00  0.00     0.048 A 
ENDROOT
BRANCH   1  29
HETATM   29  O1  UNL     1      22.869  -1.426   8.111  1.00  0.00    -0.355 OA
HETATM   30  C1  UNL     1      23.965  -2.132   8.580  1.00  0.00     0.210 C 
ENDBRANCH   1  29
BRANCH   6  31
HETATM   31  C8  UNL     1      22.676  -0.545   5.403  1.00  0.00     0.032 A 
HETATM   32  C9  UNL     1      23.890  -0.863   4.845  1.00  0.00     0.042 A 
HETATM   33  C10 UNL     1      24.496  -2.204   4.723  1.00  0.00     0.071 C 
HETATM   34  N1  UNL     1      24.443   0.299   4.418  1.00  0.00    -0.265 N 
HETATM   35  O2  UNL     1      23.619   1.271   4.698  1.00  0.00    -0.242 OA
ATOM     36  H1  UNL     1      25.348   0.397   3.958  1.00  0.00     0.194 HD
HETATM   37  C11 UNL     1      22.551   0.823   5.285  1.00  0.00     0.085 A 
HETATM   38  C12 UNL     1      21.420   1.679   5.732  1.00  0.00     0.079 C 
ENDBRANCH   6  31
TORSDOF 2
ENDMDL
