MODEL 1
REMARK VINA RESULT: -13.362022879      0.000      0.000
REMARK  6 active torsions:
REMARK  status: ('A' for Active; 'I' for Inactive)
REMARK       I    between atoms: C1_2  and  N1_3 
REMARK    1  A    between atoms: C1_2  and  C11_14 
REMARK    2  A    between atoms: N1_3  and  C2_5 
REMARK    3  A    between atoms: C2_5  and  C3_6 
REMARK    4  A    between atoms: C3_6  and  C4_7 
REMARK    5  A    between atoms: C4_7  and  C5_8 
REMARK    6  A    between atoms: C14_17  and  N2_18 
REMARK       I    between atoms: N2_18  and  C15_20 
REMARK       I    between atoms: C15_20  and  N3_22 
ROOT
HETATM    1  C11 UNL     1      14.658   6.207  -0.196  1.00  0.00     0.032 A 
HETATM    2  C12 UNL     1      15.058   4.904  -0.101  1.00  0.00     0.019 A 
HETATM    3  C13 UNL     1      14.641   3.968  -1.016  1.00  0.00     0.030 A 
HETATM    4  C14 UNL     1      13.787   4.288  -2.091  1.00  0.00     0.036 A 
HETATM    5  C24 UNL     1      13.399   5.594  -2.170  1.00  0.00     0.030 A 
HETATM    6  C25 UNL     1      13.811   6.566  -1.247  1.00  0.00     0.019 A 
ENDROOT
BRANCH   1   7
HETATM    7  C1  UNL     1      15.054   7.249   0.726  1.00  0.00     0.251 C 
HETATM    8  O1  UNL     1      14.351   8.308   0.842  1.00  0.00    -0.268 OA
HETATM    9  N1  UNL     1      16.217   7.113   1.509  1.00  0.00    -0.357 N 
ATOM     10  H1  UNL     1      16.797   6.277   1.436  1.00  0.00     0.162 HD
BRANCH   9  11
HETATM   11  C2  UNL     1      16.577   8.182   2.421  1.00  0.00     0.123 C 
BRANCH  11  12
HETATM   12  C3  UNL     1      15.781   8.011   3.689  1.00  0.00     0.024 C 
BRANCH  12  13
HETATM   13  C4  UNL     1      15.177   9.315   4.090  1.00  0.00     0.040 C 
BRANCH  13  14
HETATM   14  C5  UNL     1      14.931   9.346   5.549  1.00  0.00    -0.058 A 
HETATM   15  C6  UNL     1      13.986  10.153   6.130  1.00  0.00     0.007 A 
HETATM   16  C7  UNL     1      13.824  10.121   7.509  1.00  0.00     0.001 A 
HETATM   17  C8  UNL     1      14.605   9.291   8.259  1.00  0.00     0.000 A 
HETATM   18  C9  UNL     1      15.567   8.462   7.722  1.00  0.00     0.001 A 
HETATM   19  C10 UNL     1      15.716   8.507   6.336  1.00  0.00     0.007 A 
ENDBRANCH  13  14
ENDBRANCH  12  13
ENDBRANCH  11  12
ENDBRANCH   9  11
ENDBRANCH   1   7
BRANCH   4  20
HETATM   20  N2  UNL     1      13.413   3.295  -3.002  1.00  0.00    -0.308 N 
HETATM   21  C15 UNL     1      12.671   3.579  -4.163  1.00  0.00     0.330 C 
HETATM   22  O2  UNL     1      12.259   4.699  -4.518  1.00  0.00    -0.246 OA
HETATM   23  N3  UNL     1      12.345   2.475  -5.040  1.00  0.00    -0.284 N 
HETATM   24  C16 UNL     1      12.677   1.170  -4.871  1.00  0.00     0.113 A 
HETATM   25  C23 UNL     1      11.659   2.532  -6.174  1.00  0.00     0.113 A 
HETATM   26  C17 UNL     1      12.185   0.418  -5.922  1.00  0.00    -0.009 A 
HETATM   27  C18 UNL     1      12.224  -0.919  -6.256  1.00  0.00     0.014 A 
HETATM   28  C22 UNL     1      11.529   1.293  -6.762  1.00  0.00    -0.009 A 
HETATM   29  C19 UNL     1      11.614  -1.379  -7.418  1.00  0.00     0.001 A 
HETATM   30  C20 UNL     1      10.959  -0.509  -8.256  1.00  0.00     0.001 A 
HETATM   31  C21 UNL     1      10.925   0.821  -7.917  1.00  0.00     0.014 A 
ATOM     32  H2  UNL     1      13.688   2.331  -2.818  1.00  0.00     0.170 HD
ENDBRANCH   4  20
TORSDOF 6
ENDMDL
