MODEL 3
REMARK VINA RESULT: -13.212561824      0.156      1.237
REMARK  6 active torsions:
REMARK  status: ('A' for Active; 'I' for Inactive)
REMARK       I    between atoms: C1_2  and  N1_3 
REMARK    1  A    between atoms: C1_2  and  C11_14 
REMARK    2  A    between atoms: N1_3  and  C2_5 
REMARK    3  A    between atoms: C2_5  and  C3_6 
REMARK    4  A    between atoms: C3_6  and  C4_7 
REMARK    5  A    between atoms: C4_7  and  C5_8 
REMARK    6  A    between atoms: C14_17  and  N2_18 
REMARK       I    between atoms: N2_18  and  C15_20 
REMARK       I    between atoms: C15_20  and  N3_22 
ROOT
HETATM    1  C11 UNL     1      14.611   6.378  -0.211  1.00  0.00     0.032 A 
HETATM    2  C12 UNL     1      13.685   6.580  -1.195  1.00  0.00     0.019 A 
HETATM    3  C13 UNL     1      13.352   5.574  -2.069  1.00  0.00     0.030 A 
HETATM    4  C14 UNL     1      13.936   4.292  -2.007  1.00  0.00     0.036 A 
HETATM    5  C24 UNL     1      14.859   4.110  -1.018  1.00  0.00     0.030 A 
HETATM    6  C25 UNL     1      15.215   5.122  -0.115  1.00  0.00     0.019 A 
ENDROOT
BRANCH   1   7
HETATM    7  C1  UNL     1      15.015   7.386   0.746  1.00  0.00     0.251 C 
HETATM    8  O1  UNL     1      14.296   8.425   0.930  1.00  0.00    -0.268 OA
HETATM    9  N1  UNL     1      16.203   7.238   1.488  1.00  0.00    -0.357 N 
ATOM     10  H1  UNL     1      16.796   6.418   1.361  1.00  0.00     0.162 HD
BRANCH   9  11
HETATM   11  C2  UNL     1      16.569   8.272   2.437  1.00  0.00     0.123 C 
BRANCH  11  12
HETATM   12  C3  UNL     1      15.826   8.020   3.723  1.00  0.00     0.024 C 
BRANCH  12  13
HETATM   13  C4  UNL     1      15.205   9.287   4.209  1.00  0.00     0.040 C 
BRANCH  13  14
HETATM   14  C5  UNL     1      15.041   9.254   5.679  1.00  0.00    -0.058 A 
HETATM   15  C6  UNL     1      15.817   8.476   6.500  1.00  0.00     0.007 A 
HETATM   16  C7  UNL     1      15.591   8.504   7.870  1.00  0.00     0.001 A 
HETATM   17  C8  UNL     1      14.605   9.302   8.373  1.00  0.00     0.000 A 
HETATM   18  C9  UNL     1      13.800  10.101   7.590  1.00  0.00     0.001 A 
HETATM   19  C10 UNL     1      14.041  10.060   6.217  1.00  0.00     0.007 A 
ENDBRANCH  13  14
ENDBRANCH  12  13
ENDBRANCH  11  12
ENDBRANCH   9  11
ENDBRANCH   1   7
BRANCH   4  20
HETATM   20  N2  UNL     1      13.541   3.303  -2.912  1.00  0.00    -0.308 N 
HETATM   21  C15 UNL     1      12.824   3.599  -4.086  1.00  0.00     0.330 C 
HETATM   22  O2  UNL     1      12.455   4.729  -4.458  1.00  0.00    -0.246 OA
HETATM   23  N3  UNL     1      12.472   2.498  -4.956  1.00  0.00    -0.284 N 
HETATM   24  C16 UNL     1      12.757   1.184  -4.769  1.00  0.00     0.113 A 
HETATM   25  C23 UNL     1      11.803   2.566  -6.100  1.00  0.00     0.113 A 
HETATM   26  C17 UNL     1      12.254   0.438  -5.819  1.00  0.00    -0.009 A 
HETATM   27  C18 UNL     1      12.252  -0.903  -6.138  1.00  0.00     0.014 A 
HETATM   28  C22 UNL     1      11.639   1.326  -6.676  1.00  0.00    -0.009 A 
HETATM   29  C19 UNL     1      11.642  -1.354  -7.304  1.00  0.00     0.001 A 
HETATM   30  C20 UNL     1      11.028  -0.472  -8.160  1.00  0.00     0.001 A 
HETATM   31  C21 UNL     1      11.034   0.862  -7.835  1.00  0.00     0.014 A 
ATOM     32  H2  UNL     1      13.780   2.331  -2.714  1.00  0.00     0.170 HD
ENDBRANCH   4  20
TORSDOF 6
ENDMDL
