MODEL 2
REMARK VINA RESULT: -13.225832019      1.230      1.597
REMARK  6 active torsions:
REMARK  status: ('A' for Active; 'I' for Inactive)
REMARK       I    between atoms: C1_2  and  N1_3 
REMARK    1  A    between atoms: C1_2  and  C11_14 
REMARK    2  A    between atoms: N1_3  and  C2_5 
REMARK    3  A    between atoms: C2_5  and  C3_6 
REMARK    4  A    between atoms: C3_6  and  C4_7 
REMARK    5  A    between atoms: C4_7  and  C5_8 
REMARK    6  A    between atoms: C14_17  and  N2_18 
REMARK       I    between atoms: N2_18  and  C15_20 
REMARK       I    between atoms: C15_20  and  N3_22 
ROOT
HETATM    1  C11 UNL     1      14.616   6.734   0.156  1.00  0.00     0.032 A 
HETATM    2  C12 UNL     1      13.821   6.936  -0.937  1.00  0.00     0.019 A 
HETATM    3  C13 UNL     1      13.524   5.906  -1.795  1.00  0.00     0.030 A 
HETATM    4  C14 UNL     1      14.013   4.597  -1.605  1.00  0.00     0.036 A 
HETATM    5  C24 UNL     1      14.804   4.415  -0.508  1.00  0.00     0.030 A 
HETATM    6  C25 UNL     1      15.122   5.451   0.380  1.00  0.00     0.019 A 
ENDROOT
BRANCH   1   7
HETATM    7  C1  UNL     1      14.974   7.767   1.104  1.00  0.00     0.251 C 
HETATM    8  O1  UNL     1      14.210   8.775   1.278  1.00  0.00    -0.268 OA
HETATM    9  N1  UNL     1      16.166   7.677   1.849  1.00  0.00    -0.357 N 
ATOM     10  H1  UNL     1      16.794   6.883   1.729  1.00  0.00     0.162 HD
BRANCH   9  11
HETATM   11  C2  UNL     1      16.486   8.734   2.789  1.00  0.00     0.123 C 
BRANCH  11  12
HETATM   12  C3  UNL     1      15.849   8.400   4.113  1.00  0.00     0.024 C 
BRANCH  12  13
HETATM   13  C4  UNL     1      14.938   9.504   4.532  1.00  0.00     0.040 C 
BRANCH  13  14
HETATM   14  C5  UNL     1      14.726   9.474   5.997  1.00  0.00    -0.058 A 
HETATM   15  C6  UNL     1      13.730  10.181   6.621  1.00  0.00     0.007 A 
HETATM   16  C7  UNL     1      13.605  10.098   8.002  1.00  0.00     0.001 A 
HETATM   17  C8  UNL     1      14.473   9.318   8.710  1.00  0.00     0.000 A 
HETATM   18  C9  UNL     1      15.489   8.590   8.128  1.00  0.00     0.001 A 
HETATM   19  C10 UNL     1      15.599   8.685   6.741  1.00  0.00     0.007 A 
ENDBRANCH  13  14
ENDBRANCH  12  13
ENDBRANCH  11  12
ENDBRANCH   9  11
ENDBRANCH   1   7
BRANCH   4  20
HETATM   20  N2  UNL     1      13.658   3.585  -2.502  1.00  0.00    -0.308 N 
HETATM   21  C15 UNL     1      14.378   3.340  -3.685  1.00  0.00     0.330 C 
HETATM   22  O2  UNL     1      15.381   3.966  -4.080  1.00  0.00    -0.246 OA
HETATM   23  N3  UNL     1      13.927   2.262  -4.538  1.00  0.00    -0.284 N 
HETATM   24  C16 UNL     1      12.867   1.441  -4.327  1.00  0.00     0.113 A 
HETATM   25  C23 UNL     1      14.465   1.873  -5.687  1.00  0.00     0.113 A 
HETATM   26  C17 UNL     1      12.757   0.536  -5.366  1.00  0.00    -0.009 A 
HETATM   27  C18 UNL     1      11.892  -0.496  -5.662  1.00  0.00     0.014 A 
HETATM   28  C22 UNL     1      13.785   0.812  -6.243  1.00  0.00    -0.009 A 
HETATM   29  C19 UNL     1      12.051  -1.245  -6.823  1.00  0.00     0.001 A 
HETATM   30  C20 UNL     1      13.074  -0.972  -7.699  1.00  0.00     0.001 A 
HETATM   31  C21 UNL     1      13.932   0.057  -7.397  1.00  0.00     0.014 A 
ATOM     32  H2  UNL     1      12.847   3.003  -2.292  1.00  0.00     0.170 HD
ENDBRANCH   4  20
TORSDOF 6
ENDMDL
