MODEL 4
REMARK VINA RESULT: -11.108794105      1.737      2.295
REMARK  4 active torsions:
REMARK  status: ('A' for Active; 'I' for Inactive)
REMARK    1  A    between atoms: C2_2  and  O1_4 
REMARK    2  A    between atoms: C2_2  and  C4_6 
REMARK       I    between atoms: C4_6  and  N1_8 
REMARK    3  A    between atoms: C7_11  and  C8_12 
REMARK    4  A    between atoms: C11_15  and  N2_16 
REMARK       I    between atoms: N2_16  and  C12_18 
REMARK       I    between atoms: C12_18  and  N3_20 
ROOT
HETATM    1  C8  UNL     1      14.160   1.880  -4.780  1.00  0.00    -0.054 A 
HETATM    2  C9  UNL     1      15.173   2.792  -4.882  1.00  0.00     0.010 A 
HETATM    3  C10 UNL     1      15.483   3.711  -3.880  1.00  0.00     0.030 A 
HETATM    4  C11 UNL     1      14.770   3.739  -2.724  1.00  0.00     0.036 A 
HETATM    5  C21 UNL     1      13.727   2.807  -2.607  1.00  0.00     0.030 A 
HETATM    6  C22 UNL     1      13.433   1.906  -3.606  1.00  0.00     0.010 A 
ENDROOT
BRANCH   4   7
HETATM    7  N2  UNL     1      14.964   4.610  -1.633  1.00  0.00    -0.308 N 
HETATM    8  C12 UNL     1      14.177   5.719  -1.267  1.00  0.00     0.330 C 
HETATM    9  O3  UNL     1      13.179   6.009  -1.953  1.00  0.00    -0.246 OA
HETATM   10  N3  UNL     1      14.483   6.534  -0.126  1.00  0.00    -0.284 N 
HETATM   11  C13 UNL     1      15.497   6.390   0.728  1.00  0.00     0.113 A 
HETATM   12  C20 UNL     1      13.786   7.601   0.287  1.00  0.00     0.113 A 
HETATM   13  C14 UNL     1      15.463   7.368   1.702  1.00  0.00    -0.008 A 
HETATM   14  C15 UNL     1      16.235   7.690   2.795  1.00  0.00     0.017 A 
HETATM   15  C19 UNL     1      14.363   8.152   1.424  1.00  0.00    -0.005 A 
HETATM   16  C16 UNL     1      15.909   8.776   3.594  1.00  0.00     0.043 A 
HETATM   17  C17 UNL     1      14.810   9.554   3.310  1.00  0.00     0.117 A 
HETATM   18  F1  UNL     1      14.452  10.624   4.061  1.00  0.00    -0.206 F 
HETATM   19  C18 UNL     1      14.037   9.248   2.232  1.00  0.00     0.056 A 
ATOM     20  H2  UNL     1      15.769   4.414  -1.038  1.00  0.00     0.170 HD
ENDBRANCH   4   7
BRANCH   1  21
HETATM   21  C7  UNL     1      13.799   0.900  -5.798  1.00  0.00     0.021 C 
HETATM   22  C6  UNL     1      14.921  -0.122  -6.028  1.00  0.00     0.029 C 
HETATM   23  C5  UNL     1      14.637  -0.705  -7.418  1.00  0.00     0.126 C 
HETATM   24  N1  UNL     1      13.244  -1.087  -7.530  1.00  0.00    -0.350 N 
HETATM   25  C4  UNL     1      12.813  -1.621  -8.767  1.00  0.00     0.253 C 
HETATM   26  C24 UNL     1      12.294  -0.952  -6.463  1.00  0.00     0.126 C 
HETATM   27  O2  UNL     1      11.574  -1.953  -8.846  1.00  0.00    -0.270 OA
HETATM   28  C23 UNL     1      12.579   0.086  -5.447  1.00  0.00     0.029 C 
BRANCH  25  29
HETATM   29  C2  UNL     1      13.655  -1.830  -9.961  1.00  0.00     0.131 C 
HETATM   30  C1  UNL     1      14.556  -3.040  -9.811  1.00  0.00     0.056 C 
HETATM   31  C3  UNL     1      12.725  -2.131 -11.143  1.00  0.00     0.056 C 
BRANCH  29  32
HETATM   32  O1  UNL     1      14.407  -0.729 -10.333  1.00  0.00    -0.381 OA
ATOM     33  H1  UNL     1      14.272  -0.545 -11.255  1.00  0.00     0.211 HD
ENDBRANCH  29  32
ENDBRANCH  25  29
ENDBRANCH   1  21
TORSDOF 4
ENDMDL
