MODEL 1
REMARK VINA RESULT: -11.597108300      0.000      0.000
REMARK  4 active torsions:
REMARK  status: ('A' for Active; 'I' for Inactive)
REMARK    1  A    between atoms: C2_2  and  O1_4 
REMARK    2  A    between atoms: C2_2  and  C4_6 
REMARK       I    between atoms: C4_6  and  N1_8 
REMARK    3  A    between atoms: C7_11  and  C8_12 
REMARK    4  A    between atoms: C11_15  and  N2_16 
REMARK       I    between atoms: N2_16  and  C12_18 
REMARK       I    between atoms: C12_18  and  N3_20 
ROOT
HETATM    1  C8  UNL     1      12.790   2.193  -4.924  1.00  0.00    -0.054 A 
HETATM    2  C9  UNL     1      13.708   1.907  -3.952  1.00  0.00     0.010 A 
HETATM    3  C10 UNL     1      14.012   2.776  -2.905  1.00  0.00     0.030 A 
HETATM    4  C11 UNL     1      13.390   3.979  -2.802  1.00  0.00     0.036 A 
HETATM    5  C21 UNL     1      12.445   4.284  -3.794  1.00  0.00     0.030 A 
HETATM    6  C22 UNL     1      12.156   3.415  -4.823  1.00  0.00     0.010 A 
ENDROOT
BRANCH   4   7
HETATM    7  N2  UNL     1      13.598   4.956  -1.808  1.00  0.00    -0.308 N 
HETATM    8  C12 UNL     1      14.537   4.931  -0.759  1.00  0.00     0.330 C 
HETATM    9  O3  UNL     1      15.301   3.953  -0.651  1.00  0.00    -0.246 OA
HETATM   10  N3  UNL     1      14.649   5.994   0.198  1.00  0.00    -0.284 N 
HETATM   11  C13 UNL     1      13.930   7.116   0.254  1.00  0.00     0.113 A 
HETATM   12  C20 UNL     1      15.514   6.045   1.219  1.00  0.00     0.113 A 
HETATM   13  C14 UNL     1      14.327   7.902   1.317  1.00  0.00    -0.008 A 
HETATM   14  C15 UNL     1      13.945   9.120   1.832  1.00  0.00     0.017 A 
HETATM   15  C19 UNL     1      15.348   7.218   1.945  1.00  0.00    -0.005 A 
HETATM   16  C16 UNL     1      14.575   9.642   2.954  1.00  0.00     0.043 A 
HETATM   17  C17 UNL     1      15.592   8.952   3.573  1.00  0.00     0.117 A 
HETATM   18  F1  UNL     1      16.236   9.421   4.670  1.00  0.00    -0.206 F 
HETATM   19  C18 UNL     1      15.981   7.746   3.075  1.00  0.00     0.056 A 
ATOM     20  H2  UNL     1      12.996   5.779  -1.852  1.00  0.00     0.170 HD
ENDBRANCH   4   7
BRANCH   1  21
HETATM   21  C7  UNL     1      12.438   1.318  -6.037  1.00  0.00     0.021 C 
HETATM   22  C6  UNL     1      13.134   1.744  -7.338  1.00  0.00     0.029 C 
HETATM   23  C5  UNL     1      12.290   1.115  -8.454  1.00  0.00     0.126 C 
HETATM   24  N1  UNL     1      12.034  -0.282  -8.166  1.00  0.00    -0.350 N 
HETATM   25  C4  UNL     1      11.244  -1.003  -9.091  1.00  0.00     0.253 C 
HETATM   26  C24 UNL     1      12.536  -0.960  -7.005  1.00  0.00     0.126 C 
HETATM   27  O2  UNL     1      11.027  -2.239  -8.817  1.00  0.00    -0.270 OA
HETATM   28  C23 UNL     1      12.833  -0.121  -5.823  1.00  0.00     0.029 C 
BRANCH  25  29
HETATM   29  C2  UNL     1      10.653  -0.463 -10.332  1.00  0.00     0.131 C 
HETATM   30  C1  UNL     1      11.705   0.145 -11.238  1.00  0.00     0.056 C 
HETATM   31  C3  UNL     1      10.043  -1.637 -11.109  1.00  0.00     0.056 C 
BRANCH  29  32
HETATM   32  O1  UNL     1       9.627   0.442 -10.132  1.00  0.00    -0.381 OA
ATOM     33  H1  UNL     1       9.976   1.326 -10.111  1.00  0.00     0.211 HD
ENDBRANCH  29  32
ENDBRANCH  25  29
ENDBRANCH   1  21
TORSDOF 4
ENDMDL
