MODEL 2
REMARK VINA RESULT: -11.400496580      1.347      1.726
REMARK  4 active torsions:
REMARK  status: ('A' for Active; 'I' for Inactive)
REMARK    1  A    between atoms: C2_2  and  O1_4 
REMARK    2  A    between atoms: C2_2  and  C4_6 
REMARK       I    between atoms: C4_6  and  N1_8 
REMARK    3  A    between atoms: C7_11  and  C8_12 
REMARK    4  A    between atoms: C11_15  and  N2_16 
REMARK       I    between atoms: N2_16  and  C12_18 
REMARK       I    between atoms: C12_18  and  N3_20 
ROOT
HETATM    1  C8  UNL     1      14.024   2.288  -5.042  1.00  0.00    -0.054 A 
HETATM    2  C9  UNL     1      15.169   3.033  -5.025  1.00  0.00     0.010 A 
HETATM    3  C10 UNL     1      15.518   3.882  -3.975  1.00  0.00     0.030 A 
HETATM    4  C11 UNL     1      14.709   4.008  -2.891  1.00  0.00     0.036 A 
HETATM    5  C21 UNL     1      13.529   3.248  -2.897  1.00  0.00     0.030 A 
HETATM    6  C22 UNL     1      13.199   2.414  -3.941  1.00  0.00     0.010 A 
ENDROOT
BRANCH   4   7
HETATM    7  N2  UNL     1      14.927   4.827  -1.765  1.00  0.00    -0.308 N 
HETATM    8  C12 UNL     1      14.131   5.897  -1.311  1.00  0.00     0.330 C 
HETATM    9  O3  UNL     1      13.100   6.197  -1.942  1.00  0.00    -0.246 OA
HETATM   10  N3  UNL     1      14.464   6.660  -0.143  1.00  0.00    -0.284 N 
HETATM   11  C13 UNL     1      15.516   6.499   0.662  1.00  0.00     0.113 A 
HETATM   12  C20 UNL     1      13.761   7.687   0.352  1.00  0.00     0.113 A 
HETATM   13  C14 UNL     1      15.498   7.424   1.685  1.00  0.00    -0.008 A 
HETATM   14  C15 UNL     1      16.307   7.709   2.763  1.00  0.00     0.017 A 
HETATM   15  C19 UNL     1      14.371   8.194   1.493  1.00  0.00    -0.005 A 
HETATM   16  C16 UNL     1      15.989   8.745   3.629  1.00  0.00     0.043 A 
HETATM   17  C17 UNL     1      14.862   9.509   3.429  1.00  0.00     0.117 A 
HETATM   18  F1  UNL     1      14.511  10.530   4.248  1.00  0.00    -0.206 F 
HETATM   19  C18 UNL     1      14.053   9.239   2.368  1.00  0.00     0.056 A 
ATOM     20  H2  UNL     1      15.760   4.621  -1.213  1.00  0.00     0.170 HD
ENDBRANCH   4   7
BRANCH   1  21
HETATM   21  C7  UNL     1      13.617   1.387  -6.114  1.00  0.00     0.021 C 
HETATM   22  C6  UNL     1      13.242   2.154  -7.390  1.00  0.00     0.029 C 
HETATM   23  C5  UNL     1      12.367   1.178  -8.187  1.00  0.00     0.126 C 
HETATM   24  N1  UNL     1      12.997  -0.125  -8.256  1.00  0.00    -0.350 N 
HETATM   25  C4  UNL     1      12.301  -1.149  -8.938  1.00  0.00     0.253 C 
HETATM   26  C24 UNL     1      14.275  -0.422  -7.674  1.00  0.00     0.126 C 
HETATM   27  O2  UNL     1      12.876  -2.297  -8.987  1.00  0.00    -0.270 OA
HETATM   28  C23 UNL     1      14.695   0.417  -6.529  1.00  0.00     0.029 C 
BRANCH  25  29
HETATM   29  C2  UNL     1      10.985  -1.015  -9.594  1.00  0.00     0.131 C 
HETATM   30  C1  UNL     1      11.064  -0.167 -10.847  1.00  0.00     0.056 C 
HETATM   31  C3  UNL     1      10.543  -2.412 -10.048  1.00  0.00     0.056 C 
BRANCH  29  32
HETATM   32  O1  UNL     1       9.980  -0.541  -8.770  1.00  0.00    -0.381 OA
ATOM     33  H1  UNL     1      10.028   0.406  -8.715  1.00  0.00     0.211 HD
ENDBRANCH  29  32
ENDBRANCH  25  29
ENDBRANCH   1  21
TORSDOF 4
ENDMDL
