MODEL 5
REMARK VINA RESULT: -7.902144830      2.769      6.214
REMARK  4 active torsions:
REMARK  status: ('A' for Active; 'I' for Inactive)
REMARK    1  A    between atoms: C2_2  and  C3_3 
REMARK    2  A    between atoms: C3_3  and  C4_4 
REMARK    3  A    between atoms: C3_3  and  C10_10 
REMARK    4  A    between atoms: C11_11  and  O1_12 
ROOT
HETATM    1  C10 UNL     1       0.434  16.115  19.448  1.00  0.00     0.060 A 
HETATM    2  C11 UNL     1      -0.188  16.909  18.468  1.00  0.00     0.087 A 
HETATM    3  C12 UNL     1      -0.477  16.317  17.283  1.00  0.00     0.006 A 
HETATM    4  C13 UNL     1      -0.180  14.978  17.015  1.00  0.00     0.066 A 
HETATM    5  O2  UNL     1       0.395  14.282  17.955  1.00  0.00    -0.279 OA
HETATM    6  C14 UNL     1       0.702  14.800  19.131  1.00  0.00     0.297 A 
HETATM    7  O3  UNL     1       1.267  14.061  20.010  1.00  0.00    -0.259 OA
HETATM    8  C15 UNL     1      -0.345  14.053  15.883  1.00  0.00     0.066 C 
HETATM    9  C16 UNL     1       0.320  14.614  14.617  1.00  0.00     0.006 C 
HETATM   10  C17 UNL     1      -0.598  15.586  13.990  1.00  0.00     0.000 C 
HETATM   11  C18 UNL     1      -0.267  17.014  14.041  1.00  0.00     0.000 C 
HETATM   12  C19 UNL     1      -0.091  17.682  15.343  1.00  0.00     0.005 C 
HETATM   13  C20 UNL     1      -1.133  17.296  16.389  1.00  0.00     0.044 C 
ENDROOT
BRANCH   1  14
HETATM   14  C3  UNL     1       0.790  16.642  20.764  1.00  0.00     0.060 C 
BRANCH  14  15
HETATM   15  C2  UNL     1       2.119  17.379  20.707  1.00  0.00     0.010 C 
HETATM   16  C1  UNL     1       3.105  16.624  21.591  1.00  0.00     0.006 C 
ENDBRANCH  14  15
BRANCH  14  17
HETATM   17  C4  UNL     1      -0.247  17.382  21.479  1.00  0.00    -0.049 A 
HETATM   18  C5  UNL     1      -1.556  16.968  21.609  1.00  0.00     0.008 A 
HETATM   19  C6  UNL     1      -2.503  17.695  22.297  1.00  0.00     0.001 A 
HETATM   20  C7  UNL     1      -2.165  18.890  22.893  1.00  0.00     0.000 A 
HETATM   21  C8  UNL     1      -0.872  19.326  22.778  1.00  0.00     0.001 A 
HETATM   22  C9  UNL     1       0.059  18.592  22.091  1.00  0.00     0.008 A 
ENDBRANCH  14  17
ENDBRANCH   1  14
BRANCH   2  23
HETATM   23  O1  UNL     1      -0.425  18.176  18.822  1.00  0.00    -0.359 OA
ATOM     24  H1  UNL     1      -1.284  18.510  18.591  1.00  0.00     0.217 HD
ENDBRANCH   2  23
TORSDOF 4
ENDMDL
