MODEL 1
REMARK VINA RESULT: -9.152346512      0.000      0.000
REMARK  4 active torsions:
REMARK  status: ('A' for Active; 'I' for Inactive)
REMARK    1  A    between atoms: C2_2  and  C3_3 
REMARK    2  A    between atoms: C3_3  and  C4_4 
REMARK    3  A    between atoms: C3_3  and  C10_10 
REMARK    4  A    between atoms: C11_11  and  O1_12 
ROOT
HETATM    1  C10 UNL     1      -0.889  18.477  21.076  1.00  0.00     0.060 A 
HETATM    2  C11 UNL     1      -0.646  19.851  20.901  1.00  0.00     0.087 A 
HETATM    3  C12 UNL     1      -1.660  20.702  21.194  1.00  0.00     0.006 A 
HETATM    4  C13 UNL     1      -2.907  20.264  21.649  1.00  0.00     0.066 A 
HETATM    5  O2  UNL     1      -3.084  18.982  21.797  1.00  0.00    -0.279 OA
HETATM    6  C14 UNL     1      -2.136  18.100  21.529  1.00  0.00     0.297 A 
HETATM    7  O3  UNL     1      -2.377  16.855  21.695  1.00  0.00    -0.259 OA
HETATM    8  C15 UNL     1      -4.180  20.887  22.043  1.00  0.00     0.066 C 
HETATM    9  C16 UNL     1      -4.732  21.767  20.910  1.00  0.00     0.006 C 
HETATM   10  C17 UNL     1      -4.049  23.075  20.951  1.00  0.00     0.000 C 
HETATM   11  C18 UNL     1      -3.085  23.410  19.897  1.00  0.00     0.000 C 
HETATM   12  C19 UNL     1      -1.907  22.550  19.678  1.00  0.00     0.005 C 
HETATM   13  C20 UNL     1      -1.219  22.095  20.962  1.00  0.00     0.044 C 
ENDROOT
BRANCH   1  14
HETATM   14  C3  UNL     1       0.128  17.466  20.796  1.00  0.00     0.060 C 
BRANCH  14  15
HETATM   15  C2  UNL     1       0.310  16.541  21.988  1.00  0.00     0.010 C 
HETATM   16  C1  UNL     1       1.625  16.911  22.665  1.00  0.00     0.006 C 
ENDBRANCH  14  15
BRANCH  14  17
HETATM   17  C4  UNL     1       0.012  16.750  19.527  1.00  0.00    -0.049 A 
HETATM   18  C5  UNL     1       0.151  15.386  19.381  1.00  0.00     0.008 A 
HETATM   19  C6  UNL     1       0.029  14.749  18.165  1.00  0.00     0.001 A 
HETATM   20  C7  UNL     1      -0.243  15.473  17.026  1.00  0.00     0.000 A 
HETATM   21  C8  UNL     1      -0.385  16.830  17.141  1.00  0.00     0.001 A 
HETATM   22  C9  UNL     1      -0.262  17.449  18.357  1.00  0.00     0.008 A 
ENDBRANCH  14  17
ENDBRANCH   1  14
BRANCH   2  23
HETATM   23  O1  UNL     1       0.575  20.166  20.458  1.00  0.00    -0.359 OA
ATOM     24  H1  UNL     1       1.278  20.057  21.088  1.00  0.00     0.217 HD
ENDBRANCH   2  23
TORSDOF 4
ENDMDL
