MODEL 4
REMARK VINA RESULT: -8.266769918      2.949      5.453
REMARK  4 active torsions:
REMARK  status: ('A' for Active; 'I' for Inactive)
REMARK    1  A    between atoms: C2_2  and  C3_3 
REMARK    2  A    between atoms: C3_3  and  C4_4 
REMARK    3  A    between atoms: C3_3  and  C10_10 
REMARK    4  A    between atoms: C11_11  and  O1_12 
ROOT
HETATM    1  C10 UNL     1       0.210  16.727  17.249  1.00  0.00     0.060 A 
HETATM    2  C11 UNL     1       0.155  17.917  17.997  1.00  0.00     0.087 A 
HETATM    3  C12 UNL     1       0.582  17.860  19.282  1.00  0.00     0.006 A 
HETATM    4  C13 UNL     1       1.061  16.686  19.869  1.00  0.00     0.066 A 
HETATM    5  O2  UNL     1       1.094  15.610  19.136  1.00  0.00    -0.279 OA
HETATM    6  C14 UNL     1       0.692  15.598  17.877  1.00  0.00     0.297 A 
HETATM    7  O3  UNL     1       0.751  14.506  17.213  1.00  0.00    -0.259 OA
HETATM    8  C15 UNL     1       1.581  16.284  21.185  1.00  0.00     0.066 C 
HETATM    9  C16 UNL     1       0.569  16.609  22.296  1.00  0.00     0.006 C 
HETATM   10  C17 UNL     1       0.699  18.036  22.651  1.00  0.00     0.000 C 
HETATM   11  C18 UNL     1      -0.369  18.966  22.268  1.00  0.00     0.000 C 
HETATM   12  C19 UNL     1      -0.733  19.122  20.848  1.00  0.00     0.005 C 
HETATM   13  C20 UNL     1       0.461  19.199  19.903  1.00  0.00     0.044 C 
ENDROOT
BRANCH   1  14
HETATM   14  C3  UNL     1      -0.220  16.666  15.854  1.00  0.00     0.060 C 
BRANCH  14  15
HETATM   15  C2  UNL     1       0.617  15.664  15.075  1.00  0.00     0.010 C 
HETATM   16  C1  UNL     1       0.151  15.698  13.625  1.00  0.00     0.006 C 
ENDBRANCH  14  15
BRANCH  14  17
HETATM   17  C4  UNL     1      -1.655  16.524  15.614  1.00  0.00    -0.049 A 
HETATM   18  C5  UNL     1      -2.366  15.355  15.789  1.00  0.00     0.008 A 
HETATM   19  C6  UNL     1      -3.721  15.265  15.556  1.00  0.00     0.001 A 
HETATM   20  C7  UNL     1      -4.428  16.366  15.129  1.00  0.00     0.000 A 
HETATM   21  C8  UNL     1      -3.747  17.540  14.946  1.00  0.00     0.001 A 
HETATM   22  C9  UNL     1      -2.400  17.615  15.182  1.00  0.00     0.008 A 
ENDBRANCH  14  17
ENDBRANCH   1  14
BRANCH   2  23
HETATM   23  O1  UNL     1      -0.321  18.982  17.346  1.00  0.00    -0.359 OA
ATOM     24  H1  UNL     1      -1.266  19.085  17.367  1.00  0.00     0.217 HD
ENDBRANCH   2  23
TORSDOF 4
ENDMDL
