MODEL 2
REMARK VINA RESULT: -9.144865103      1.461      1.795
REMARK  4 active torsions:
REMARK  status: ('A' for Active; 'I' for Inactive)
REMARK    1  A    between atoms: C2_2  and  C3_3 
REMARK    2  A    between atoms: C3_3  and  C4_4 
REMARK    3  A    between atoms: C3_3  and  C10_10 
REMARK    4  A    between atoms: C11_11  and  O1_12 
ROOT
HETATM    1  C10 UNL     1      -0.023  17.766  20.663  1.00  0.00     0.060 A 
HETATM    2  C11 UNL     1       0.164  19.143  20.878  1.00  0.00     0.087 A 
HETATM    3  C12 UNL     1      -0.618  19.735  21.815  1.00  0.00     0.006 A 
HETATM    4  C13 UNL     1      -1.579  19.035  22.550  1.00  0.00     0.066 A 
HETATM    5  O2  UNL     1      -1.714  17.761  22.316  1.00  0.00    -0.279 OA
HETATM    6  C14 UNL     1      -0.984  17.125  21.417  1.00  0.00     0.297 A 
HETATM    7  O3  UNL     1      -1.168  15.872  21.236  1.00  0.00    -0.259 OA
HETATM    8  C15 UNL     1      -2.561  19.352  23.598  1.00  0.00     0.066 C 
HETATM    9  C16 UNL     1      -3.505  20.475  23.143  1.00  0.00     0.006 C 
HETATM   10  C17 UNL     1      -2.831  21.772  23.347  1.00  0.00     0.000 C 
HETATM   11  C18 UNL     1      -2.376  22.532  22.177  1.00  0.00     0.000 C 
HETATM   12  C19 UNL     1      -1.415  21.927  21.236  1.00  0.00     0.005 C 
HETATM   13  C20 UNL     1      -0.274  21.171  21.910  1.00  0.00     0.044 C 
ENDROOT
BRANCH   1  14
HETATM   14  C3  UNL     1       0.762  17.019  19.683  1.00  0.00     0.060 C 
BRANCH  14  15
HETATM   15  C2  UNL     1       1.508  15.875  20.349  1.00  0.00     0.010 C 
HETATM   16  C1  UNL     1       2.634  16.478  21.180  1.00  0.00     0.006 C 
ENDBRANCH  14  15
BRANCH  14  17
HETATM   17  C4  UNL     1       0.074  16.619  18.457  1.00  0.00    -0.049 A 
HETATM   18  C5  UNL     1      -0.079  15.315  18.035  1.00  0.00     0.008 A 
HETATM   19  C6  UNL     1      -0.740  14.980  16.873  1.00  0.00     0.001 A 
HETATM   20  C7  UNL     1      -1.283  15.961  16.074  1.00  0.00     0.000 A 
HETATM   21  C8  UNL     1      -1.145  17.265  16.469  1.00  0.00     0.001 A 
HETATM   22  C9  UNL     1      -0.486  17.583  17.627  1.00  0.00     0.008 A 
ENDBRANCH  14  17
ENDBRANCH   1  14
BRANCH   2  23
HETATM   23  O1  UNL     1       1.103  19.720  20.123  1.00  0.00    -0.359 OA
ATOM     24  H1  UNL     1       0.839  19.933  19.236  1.00  0.00     0.217 HD
ENDBRANCH   2  23
TORSDOF 4
ENDMDL
