MODEL 6
REMARK VINA RESULT: -7.524114360      2.443      6.785
REMARK  4 active torsions:
REMARK  status: ('A' for Active; 'I' for Inactive)
REMARK    1  A    between atoms: C2_2  and  C3_3 
REMARK    2  A    between atoms: C3_3  and  C4_4 
REMARK    3  A    between atoms: C3_3  and  C10_10 
REMARK    4  A    between atoms: C11_11  and  O1_12 
ROOT
HETATM    1  C10 UNL     1      -1.566  20.009  22.149  1.00  0.00     0.060 A 
HETATM    2  C11 UNL     1      -1.438  18.609  22.185  1.00  0.00     0.087 A 
HETATM    3  C12 UNL     1      -0.427  18.061  21.467  1.00  0.00     0.006 A 
HETATM    4  C13 UNL     1       0.464  18.826  20.709  1.00  0.00     0.066 A 
HETATM    5  O2  UNL     1       0.305  20.119  20.707  1.00  0.00    -0.279 OA
HETATM    6  C14 UNL     1      -0.659  20.715  21.386  1.00  0.00     0.297 A 
HETATM    7  O3  UNL     1      -0.759  21.990  21.340  1.00  0.00    -0.259 OA
HETATM    8  C15 UNL     1       1.625  18.568  19.843  1.00  0.00     0.066 C 
HETATM    9  C16 UNL     1       1.258  17.595  18.712  1.00  0.00     0.006 C 
HETATM   10  C17 UNL     1       1.311  16.217  19.237  1.00  0.00     0.000 C 
HETATM   11  C18 UNL     1       0.057  15.479  19.431  1.00  0.00     0.000 C 
HETATM   12  C19 UNL     1      -0.982  16.019  20.327  1.00  0.00     0.005 C 
HETATM   13  C20 UNL     1      -0.443  16.590  21.635  1.00  0.00     0.044 C 
ENDROOT
BRANCH   1  14
HETATM   14  C3  UNL     1      -2.614  20.713  22.885  1.00  0.00     0.060 C 
BRANCH  14  15
HETATM   15  C2  UNL     1      -3.965  20.518  22.216  1.00  0.00     0.010 C 
HETATM   16  C1  UNL     1      -4.410  21.869  21.668  1.00  0.00     0.006 C 
ENDBRANCH  14  15
BRANCH  14  17
HETATM   17  C4  UNL     1      -2.653  20.508  24.331  1.00  0.00    -0.049 A 
HETATM   18  C5  UNL     1      -3.481  19.610  24.972  1.00  0.00     0.008 A 
HETATM   19  C6  UNL     1      -3.483  19.443  26.340  1.00  0.00     0.001 A 
HETATM   20  C7  UNL     1      -2.638  20.187  27.132  1.00  0.00     0.000 A 
HETATM   21  C8  UNL     1      -1.806  21.087  26.522  1.00  0.00     0.001 A 
HETATM   22  C9  UNL     1      -1.814  21.241  25.161  1.00  0.00     0.008 A 
ENDBRANCH  14  17
ENDBRANCH   1  14
BRANCH   2  23
HETATM   23  O1  UNL     1      -2.340  17.970  22.935  1.00  0.00    -0.359 OA
ATOM     24  H1  UNL     1      -2.193  17.038  23.045  1.00  0.00     0.217 HD
ENDBRANCH   2  23
TORSDOF 4
ENDMDL
