MODEL 3
REMARK VINA RESULT: -8.508019837      1.523      2.148
REMARK  4 active torsions:
REMARK  status: ('A' for Active; 'I' for Inactive)
REMARK    1  A    between atoms: C2_2  and  C3_3 
REMARK    2  A    between atoms: C3_3  and  C4_4 
REMARK    3  A    between atoms: C3_3  and  C10_10 
REMARK    4  A    between atoms: C11_11  and  O1_12 
ROOT
HETATM    1  C10 UNL     1      -0.211  17.666  20.553  1.00  0.00     0.060 A 
HETATM    2  C11 UNL     1       0.077  19.026  20.764  1.00  0.00     0.087 A 
HETATM    3  C12 UNL     1      -0.644  19.671  21.713  1.00  0.00     0.006 A 
HETATM    4  C13 UNL     1      -1.639  19.042  22.465  1.00  0.00     0.066 A 
HETATM    5  O2  UNL     1      -1.869  17.781  22.234  1.00  0.00    -0.279 OA
HETATM    6  C14 UNL     1      -1.202  17.095  21.323  1.00  0.00     0.297 A 
HETATM    7  O3  UNL     1      -1.479  15.858  21.146  1.00  0.00    -0.259 OA
HETATM    8  C15 UNL     1      -2.578  19.427  23.530  1.00  0.00     0.066 C 
HETATM    9  C16 UNL     1      -3.447  20.615  23.091  1.00  0.00     0.006 C 
HETATM   10  C17 UNL     1      -2.678  21.861  23.282  1.00  0.00     0.000 C 
HETATM   11  C18 UNL     1      -2.190  22.587  22.104  1.00  0.00     0.000 C 
HETATM   12  C19 UNL     1      -1.292  21.915  21.147  1.00  0.00     0.005 C 
HETATM   13  C20 UNL     1      -0.196  21.079  21.801  1.00  0.00     0.044 C 
ENDROOT
BRANCH   1  14
HETATM   14  C3  UNL     1       0.502  16.865  19.559  1.00  0.00     0.060 C 
BRANCH  14  15
HETATM   15  C2  UNL     1       0.945  15.538  20.154  1.00  0.00     0.010 C 
HETATM   16  C1  UNL     1       2.419  15.349  19.816  1.00  0.00     0.006 C 
ENDBRANCH  14  15
BRANCH  14  17
HETATM   17  C4  UNL     1      -0.133  16.724  18.250  1.00  0.00    -0.049 A 
HETATM   18  C5  UNL     1      -0.525  17.778  17.453  1.00  0.00     0.008 A 
HETATM   19  C6  UNL     1      -1.117  17.602  16.221  1.00  0.00     0.001 A 
HETATM   20  C7  UNL     1      -1.343  16.334  15.733  1.00  0.00     0.000 A 
HETATM   21  C8  UNL     1      -0.965  15.268  16.505  1.00  0.00     0.001 A 
HETATM   22  C9  UNL     1      -0.377  15.459  17.728  1.00  0.00     0.008 A 
ENDBRANCH  14  17
ENDBRANCH   1  14
BRANCH   2  23
HETATM   23  O1  UNL     1       1.043  19.534  19.992  1.00  0.00    -0.359 OA
ATOM     24  H1  UNL     1       1.924  19.461  20.339  1.00  0.00     0.217 HD
ENDBRANCH   2  23
TORSDOF 4
ENDMDL
