MODEL 9
REMARK VINA RESULT: -9.437929083      2.749     11.586
REMARK  19 active torsions:
REMARK  status: ('A' for Active; 'I' for Inactive)
REMARK    1  A    between atoms: C4_5  and  C5_6 
REMARK    2  A    between atoms: C5_6  and  N1_7 
REMARK    3  A    between atoms: N1_7  and  C7_9 
REMARK    4  A    between atoms: C7_9  and  O2_10 
REMARK    5  A    between atoms: C7_9  and  C8_12 
REMARK    6  A    between atoms: C12_16  and  C13_17 
REMARK       I    between atoms: C13_17  and  N2_19 
REMARK    7  A    between atoms: N2_19  and  C14_21 
REMARK    8  A    between atoms: C14_21  and  C15_22 
REMARK    9  A    between atoms: C14_21  and  C22_29 
REMARK   10  A    between atoms: C15_22  and  C16_23 
REMARK   11  A    between atoms: C22_29  and  O4_30 
REMARK   12  A    between atoms: C22_29  and  C23_32 
REMARK   13  A    between atoms: C23_32  and  N3_33 
REMARK   14  A    between atoms: N3_33  and  C24_34 
REMARK   15  A    between atoms: N3_33  and  S1_38 
REMARK   16  A    between atoms: C24_34  and  C25_35 
REMARK   17  A    between atoms: S1_38  and  C28_41 
REMARK   18  A    between atoms: C31_44  and  C32_45 
REMARK   19  A    between atoms: C32_45  and  O7_46 
ROOT
HETATM    1  C14 UNL     1      16.748  22.497  16.606  1.00  0.00     0.119 C 
ENDROOT
BRANCH   1   2
HETATM    2  N2  UNL     1      17.253  23.696  16.011  1.00  0.00    -0.349 N 
HETATM    3  C13 UNL     1      18.626  23.990  15.995  1.00  0.00     0.252 C 
HETATM    4  O3  UNL     1      19.445  23.195  16.500  1.00  0.00    -0.268 OA
ATOM      5  H2  UNL     1      16.599  24.354  15.589  1.00  0.00     0.163 HD
BRANCH   3   6
HETATM    6  C12 UNL     1      19.184  25.221  15.395  1.00  0.00     0.033 A 
HETATM    7  C11 UNL     1      18.357  26.022  14.660  1.00  0.00     0.017 A 
HETATM    8  C10 UNL     1      18.855  27.164  14.087  1.00  0.00     0.002 A 
HETATM    9  C9  UNL     1      20.197  27.510  14.249  1.00  0.00     0.016 A 
HETATM   10  C8  UNL     1      21.028  26.709  14.986  1.00  0.00     0.015 A 
HETATM   11  C35 UNL     1      20.504  25.534  15.573  1.00  0.00     0.032 A 
BRANCH  10  12
HETATM   12  C7  UNL     1      22.411  27.014  15.209  1.00  0.00     0.148 C 
BRANCH  12  13
HETATM   13  N1  UNL     1      23.029  28.237  15.350  1.00  0.00    -0.358 N 
HETATM   14  C6  UNL     1      23.139  29.325  14.445  1.00  0.00     0.152 C 
BRANCH  13  15
HETATM   15  C5  UNL     1      23.680  28.486  16.679  1.00  0.00     0.209 C 
BRANCH  15  16
HETATM   16  C4  UNL     1      22.817  27.912  17.719  1.00  0.00     0.141 A 
HETATM   17  O1  UNL     1      21.668  28.402  18.076  1.00  0.00    -0.306 OA
HETATM   18  C3  UNL     1      21.120  27.682  19.026  1.00  0.00     0.168 A 
HETATM   19  C2  UNL     1      22.007  26.652  19.284  1.00  0.00     0.029 A 
HETATM   20  C1  UNL     1      21.859  25.553  20.281  1.00  0.00     0.070 C 
HETATM   21  N4  UNL     1      23.039  26.828  18.459  1.00  0.00    -0.341 N 
ATOM     22  H4  UNL     1      23.863  26.231  18.403  1.00  0.00     0.167 HD
ENDBRANCH  15  16
ENDBRANCH  13  15
ENDBRANCH  12  13
BRANCH  12  23
HETATM   23  O2  UNL     1      23.187  25.966  15.289  1.00  0.00    -0.346 OA
ATOM     24  H2  UNL     1      22.797  25.185  15.664  1.00  0.00     0.219 HD
ENDBRANCH  12  23
ENDBRANCH  10  12
ENDBRANCH   3   6
ENDBRANCH   1   2
BRANCH   1  25
HETATM   25  C15 UNL     1      16.178  22.727  17.989  1.00  0.00     0.066 C 
BRANCH  25  26
HETATM   26  C16 UNL     1      17.167  22.767  19.047  1.00  0.00    -0.056 A 
HETATM   27  C17 UNL     1      17.600  23.959  19.561  1.00  0.00     0.007 A 
HETATM   28  C18 UNL     1      18.561  23.956  20.580  1.00  0.00     0.001 A 
HETATM   29  C19 UNL     1      19.071  22.777  21.068  1.00  0.00     0.000 A 
HETATM   30  C20 UNL     1      18.642  21.588  20.557  1.00  0.00     0.001 A 
HETATM   31  C21 UNL     1      17.695  21.607  19.554  1.00  0.00     0.007 A 
ENDBRANCH  25  26
ENDBRANCH   1  25
BRANCH   1  32
HETATM   32  C22 UNL     1      15.875  21.667  15.713  1.00  0.00     0.160 C 
BRANCH  32  33
HETATM   33  O4  UNL     1      16.073  21.806  14.374  1.00  0.00    -0.392 OA
ATOM     34  H4  UNL     1      16.622  21.151  13.957  1.00  0.00     0.210 HD
ENDBRANCH  32  33
BRANCH  32  35
HETATM   35  C23 UNL     1      14.424  21.826  16.042  1.00  0.00     0.174 C 
BRANCH  35  36
HETATM   36  N3  UNL     1      13.810  20.553  16.271  1.00  0.00    -0.283 N 
BRANCH  36  37
HETATM   37  C24 UNL     1      14.629  19.479  16.652  1.00  0.00     0.080 C 
BRANCH  37  38
HETATM   38  C25 UNL     1      14.684  19.126  18.097  1.00  0.00     0.017 C 
HETATM   39  C26 UNL     1      13.866  19.955  19.020  1.00  0.00     0.015 C 
HETATM   40  C27 UNL     1      14.180  17.684  18.249  1.00  0.00     0.015 C 
ENDBRANCH  37  38
ENDBRANCH  36  37
BRANCH  36  41
HETATM   41  S1  UNL     1      12.516  20.251  15.222  1.00  0.00     0.264 S 
HETATM   42  O5  UNL     1      12.989  19.721  13.881  1.00  0.00    -0.200 OA
HETATM   43  O6  UNL     1      11.753  21.499  14.934  1.00  0.00    -0.200 OA
BRANCH  41  44
HETATM   44  C28 UNL     1      11.443  19.028  15.893  1.00  0.00     0.080 A 
HETATM   45  C29 UNL     1      11.216  17.889  15.189  1.00  0.00     0.026 A 
HETATM   46  C30 UNL     1      10.375  16.933  15.726  1.00  0.00     0.011 A 
HETATM   47  C31 UNL     1       9.784  17.143  16.960  1.00  0.00    -0.035 A 
HETATM   48  C33 UNL     1      10.037  18.299  17.639  1.00  0.00     0.011 A 
HETATM   49  C34 UNL     1      10.879  19.284  17.125  1.00  0.00     0.026 A 
BRANCH  47  50
HETATM   50  C32 UNL     1       8.878  16.105  17.528  1.00  0.00     0.202 C 
BRANCH  50  51
HETATM   51  O7  UNL     1       7.701  16.070  16.758  1.00  0.00    -0.396 OA
ATOM     52  H7  UNL     1       7.146  16.795  17.021  1.00  0.00     0.209 HD
ENDBRANCH  50  51
ENDBRANCH  47  50
ENDBRANCH  41  44
ENDBRANCH  36  41
ENDBRANCH  35  36
ENDBRANCH  32  35
ENDBRANCH   1  32
TORSDOF 19
ENDMDL
