MODEL 6
REMARK VINA RESULT: -9.631315023      2.226      5.201
REMARK  19 active torsions:
REMARK  status: ('A' for Active; 'I' for Inactive)
REMARK    1  A    between atoms: C4_5  and  C5_6 
REMARK    2  A    between atoms: C5_6  and  N1_7 
REMARK    3  A    between atoms: N1_7  and  C7_9 
REMARK    4  A    between atoms: C7_9  and  O2_10 
REMARK    5  A    between atoms: C7_9  and  C8_12 
REMARK    6  A    between atoms: C12_16  and  C13_17 
REMARK       I    between atoms: C13_17  and  N2_19 
REMARK    7  A    between atoms: N2_19  and  C14_21 
REMARK    8  A    between atoms: C14_21  and  C15_22 
REMARK    9  A    between atoms: C14_21  and  C22_29 
REMARK   10  A    between atoms: C15_22  and  C16_23 
REMARK   11  A    between atoms: C22_29  and  O4_30 
REMARK   12  A    between atoms: C22_29  and  C23_32 
REMARK   13  A    between atoms: C23_32  and  N3_33 
REMARK   14  A    between atoms: N3_33  and  C24_34 
REMARK   15  A    between atoms: N3_33  and  S1_38 
REMARK   16  A    between atoms: C24_34  and  C25_35 
REMARK   17  A    between atoms: S1_38  and  C28_41 
REMARK   18  A    between atoms: C31_44  and  C32_45 
REMARK   19  A    between atoms: C32_45  and  O7_46 
ROOT
HETATM    1  C14 UNL     1      16.475  24.389  16.548  1.00  0.00     0.119 C 
ENDROOT
BRANCH   1   2
HETATM    2  N2  UNL     1      15.460  23.602  15.920  1.00  0.00    -0.349 N 
HETATM    3  C13 UNL     1      15.745  22.355  15.340  1.00  0.00     0.252 C 
HETATM    4  O3  UNL     1      16.908  21.901  15.368  1.00  0.00    -0.268 OA
ATOM      5  H2  UNL     1      14.504  23.956  15.893  1.00  0.00     0.163 HD
BRANCH   3   6
HETATM    6  C12 UNL     1      14.724  21.518  14.677  1.00  0.00     0.033 A 
HETATM    7  C11 UNL     1      15.080  20.813  13.561  1.00  0.00     0.017 A 
HETATM    8  C10 UNL     1      14.146  20.037  12.924  1.00  0.00     0.002 A 
HETATM    9  C9  UNL     1      12.838  19.965  13.407  1.00  0.00     0.016 A 
HETATM   10  C8  UNL     1      12.479  20.669  14.524  1.00  0.00     0.015 A 
HETATM   11  C35 UNL     1      13.450  21.466  15.174  1.00  0.00     0.032 A 
BRANCH  10  12
HETATM   12  C7  UNL     1      11.160  20.626  15.085  1.00  0.00     0.148 C 
BRANCH  12  13
HETATM   13  N1  UNL     1      10.406  19.539  15.472  1.00  0.00    -0.358 N 
HETATM   14  C6  UNL     1       9.862  18.474  14.708  1.00  0.00     0.152 C 
BRANCH  13  15
HETATM   15  C5  UNL     1      10.120  19.439  16.942  1.00  0.00     0.209 C 
BRANCH  15  16
HETATM   16  C4  UNL     1      11.287  18.825  17.587  1.00  0.00     0.141 A 
HETATM   17  O1  UNL     1      12.191  18.127  16.967  1.00  0.00    -0.306 OA
HETATM   18  C3  UNL     1      13.116  17.705  17.795  1.00  0.00     0.168 A 
HETATM   19  C2  UNL     1      12.756  18.182  19.043  1.00  0.00     0.029 A 
HETATM   20  C1  UNL     1      13.476  17.982  20.335  1.00  0.00     0.070 C 
HETATM   21  N4  UNL     1      11.626  18.866  18.874  1.00  0.00    -0.341 N 
ATOM     22  H4  UNL     1      11.105  19.344  19.609  1.00  0.00     0.167 HD
ENDBRANCH  15  16
ENDBRANCH  13  15
ENDBRANCH  12  13
BRANCH  12  23
HETATM   23  O2  UNL     1      10.605  21.797  15.246  1.00  0.00    -0.346 OA
ATOM     24  H2  UNL     1      10.835  22.460  14.607  1.00  0.00     0.219 HD
ENDBRANCH  12  23
ENDBRANCH  10  12
ENDBRANCH   3   6
ENDBRANCH   1   2
BRANCH   1  25
HETATM   25  C15 UNL     1      16.904  25.570  15.705  1.00  0.00     0.066 C 
BRANCH  25  26
HETATM   26  C16 UNL     1      18.300  25.557  15.319  1.00  0.00    -0.056 A 
HETATM   27  C17 UNL     1      19.116  24.515  15.665  1.00  0.00     0.007 A 
HETATM   28  C18 UNL     1      20.461  24.541  15.276  1.00  0.00     0.001 A 
HETATM   29  C19 UNL     1      20.969  25.595  14.554  1.00  0.00     0.000 A 
HETATM   30  C20 UNL     1      20.158  26.635  14.208  1.00  0.00     0.001 A 
HETATM   31  C21 UNL     1      18.835  26.595  14.598  1.00  0.00     0.007 A 
ENDBRANCH  25  26
ENDBRANCH   1  25
BRANCH   1  32
HETATM   32  C22 UNL     1      16.216  24.724  17.987  1.00  0.00     0.160 C 
BRANCH  32  33
HETATM   33  O4  UNL     1      15.752  25.978  18.243  1.00  0.00    -0.392 OA
ATOM     34  H4  UNL     1      14.963  26.038  18.768  1.00  0.00     0.210 HD
ENDBRANCH  32  33
BRANCH  32  35
HETATM   35  C23 UNL     1      17.396  24.420  18.856  1.00  0.00     0.174 C 
BRANCH  35  36
HETATM   36  N3  UNL     1      17.473  23.019  19.140  1.00  0.00    -0.283 N 
BRANCH  36  37
HETATM   37  C24 UNL     1      16.294  22.347  19.496  1.00  0.00     0.080 C 
BRANCH  37  38
HETATM   38  C25 UNL     1      15.670  21.454  18.483  1.00  0.00     0.017 C 
HETATM   39  C26 UNL     1      16.093  20.029  18.494  1.00  0.00     0.015 C 
HETATM   40  C27 UNL     1      14.153  21.455  18.723  1.00  0.00     0.015 C 
ENDBRANCH  37  38
ENDBRANCH  36  37
BRANCH  36  41
HETATM   41  S1  UNL     1      18.915  22.585  19.913  1.00  0.00     0.264 S 
HETATM   42  O5  UNL     1      19.644  21.482  19.170  1.00  0.00    -0.200 OA
HETATM   43  O6  UNL     1      18.656  22.066  21.286  1.00  0.00    -0.200 OA
BRANCH  41  44
HETATM   44  C28 UNL     1      20.019  23.954  19.984  1.00  0.00     0.080 A 
HETATM   45  C29 UNL     1      20.863  24.178  18.944  1.00  0.00     0.026 A 
HETATM   46  C30 UNL     1      21.723  25.258  19.007  1.00  0.00     0.011 A 
HETATM   47  C31 UNL     1      21.713  26.089  20.114  1.00  0.00    -0.035 A 
HETATM   48  C33 UNL     1      20.850  25.834  21.140  1.00  0.00     0.011 A 
HETATM   49  C34 UNL     1      19.971  24.752  21.108  1.00  0.00     0.026 A 
BRANCH  47  50
HETATM   50  C32 UNL     1      22.646  27.249  20.171  1.00  0.00     0.202 C 
BRANCH  50  51
HETATM   51  O7  UNL     1      21.920  28.387  20.572  1.00  0.00    -0.396 OA
ATOM     52  H7  UNL     1      22.332  29.156  20.195  1.00  0.00     0.209 HD
ENDBRANCH  50  51
ENDBRANCH  47  50
ENDBRANCH  41  44
ENDBRANCH  36  41
ENDBRANCH  35  36
ENDBRANCH  32  35
ENDBRANCH   1  32
TORSDOF 19
ENDMDL
