MODEL 14
REMARK VINA RESULT: -9.299605731      1.767      2.367
REMARK  19 active torsions:
REMARK  status: ('A' for Active; 'I' for Inactive)
REMARK    1  A    between atoms: C4_5  and  C5_6 
REMARK    2  A    between atoms: C5_6  and  N1_7 
REMARK    3  A    between atoms: N1_7  and  C7_9 
REMARK    4  A    between atoms: C7_9  and  O2_10 
REMARK    5  A    between atoms: C7_9  and  C8_12 
REMARK    6  A    between atoms: C12_16  and  C13_17 
REMARK       I    between atoms: C13_17  and  N2_19 
REMARK    7  A    between atoms: N2_19  and  C14_21 
REMARK    8  A    between atoms: C14_21  and  C15_22 
REMARK    9  A    between atoms: C14_21  and  C22_29 
REMARK   10  A    between atoms: C15_22  and  C16_23 
REMARK   11  A    between atoms: C22_29  and  O4_30 
REMARK   12  A    between atoms: C22_29  and  C23_32 
REMARK   13  A    between atoms: C23_32  and  N3_33 
REMARK   14  A    between atoms: N3_33  and  C24_34 
REMARK   15  A    between atoms: N3_33  and  S1_38 
REMARK   16  A    between atoms: C24_34  and  C25_35 
REMARK   17  A    between atoms: S1_38  and  C28_41 
REMARK   18  A    between atoms: C31_44  and  C32_45 
REMARK   19  A    between atoms: C32_45  and  O7_46 
ROOT
HETATM    1  C14 UNL     1      15.951  23.273  17.462  1.00  0.00     0.119 C 
ENDROOT
BRANCH   1   2
HETATM    2  N2  UNL     1      14.883  22.442  17.925  1.00  0.00    -0.349 N 
HETATM    3  C13 UNL     1      15.028  21.050  18.043  1.00  0.00     0.252 C 
HETATM    4  O3  UNL     1      16.112  20.504  17.749  1.00  0.00    -0.268 OA
ATOM      5  H2  UNL     1      13.992  22.872  18.174  1.00  0.00     0.163 HD
BRANCH   3   6
HETATM    6  C12 UNL     1      13.944  20.160  18.510  1.00  0.00     0.033 A 
HETATM    7  C11 UNL     1      14.112  19.490  19.689  1.00  0.00     0.017 A 
HETATM    8  C10 UNL     1      13.124  18.651  20.137  1.00  0.00     0.002 A 
HETATM    9  C9  UNL     1      11.953  18.478  19.397  1.00  0.00     0.016 A 
HETATM   10  C8  UNL     1      11.782  19.149  18.216  1.00  0.00     0.015 A 
HETATM   11  C35 UNL     1      12.807  20.011  17.763  1.00  0.00     0.032 A 
BRANCH  10  12
HETATM   12  C7  UNL     1      10.598  19.034  17.415  1.00  0.00     0.148 C 
BRANCH  12  13
HETATM   13  N1  UNL     1      10.194  18.007  16.590  1.00  0.00    -0.358 N 
HETATM   14  C6  UNL     1       9.112  17.096  16.710  1.00  0.00     0.152 C 
BRANCH  13  15
HETATM   15  C5  UNL     1      11.009  17.820  15.342  1.00  0.00     0.209 C 
BRANCH  15  16
HETATM   16  C4  UNL     1      10.518  18.769  14.337  1.00  0.00     0.141 A 
HETATM   17  O1  UNL     1      10.902  18.793  13.096  1.00  0.00    -0.306 OA
HETATM   18  C3  UNL     1      10.296  19.746  12.429  1.00  0.00     0.168 A 
HETATM   19  C2  UNL     1       9.460  20.373  13.336  1.00  0.00     0.029 A 
HETATM   20  C1  UNL     1       8.546  21.526  13.084  1.00  0.00     0.070 C 
HETATM   21  N4  UNL     1       9.624  19.742  14.498  1.00  0.00    -0.341 N 
ATOM     22  H4  UNL     1       9.144  19.968  15.369  1.00  0.00     0.167 HD
ENDBRANCH  15  16
ENDBRANCH  13  15
ENDBRANCH  12  13
BRANCH  12  23
HETATM   23  O2  UNL     1       9.795  20.060  17.491  1.00  0.00    -0.346 OA
ATOM     24  H2  UNL     1       9.412  20.229  18.344  1.00  0.00     0.219 HD
ENDBRANCH  12  23
ENDBRANCH  10  12
ENDBRANCH   3   6
ENDBRANCH   1   2
BRANCH   1  25
HETATM   25  C15 UNL     1      15.793  23.674  16.012  1.00  0.00     0.066 C 
BRANCH  25  26
HETATM   26  C16 UNL     1      15.076  22.714  15.198  1.00  0.00    -0.056 A 
HETATM   27  C17 UNL     1      15.746  21.793  14.440  1.00  0.00     0.007 A 
HETATM   28  C18 UNL     1      15.015  20.885  13.663  1.00  0.00     0.001 A 
HETATM   29  C19 UNL     1      13.641  20.907  13.653  1.00  0.00     0.000 A 
HETATM   30  C20 UNL     1      12.970  21.824  14.408  1.00  0.00     0.001 A 
HETATM   31  C21 UNL     1      13.704  22.712  15.168  1.00  0.00     0.007 A 
ENDBRANCH  25  26
ENDBRANCH   1  25
BRANCH   1  32
HETATM   32  C22 UNL     1      16.312  24.406  18.377  1.00  0.00     0.160 C 
BRANCH  32  33
HETATM   33  O4  UNL     1      15.442  25.451  18.419  1.00  0.00    -0.392 OA
ATOM     34  H4  UNL     1      15.257  25.813  19.278  1.00  0.00     0.210 HD
ENDBRANCH  32  33
BRANCH  32  35
HETATM   35  C23 UNL     1      17.705  24.899  18.136  1.00  0.00     0.174 C 
BRANCH  35  36
HETATM   36  N3  UNL     1      18.630  24.270  19.029  1.00  0.00    -0.283 N 
BRANCH  36  37
HETATM   37  C24 UNL     1      18.157  23.829  20.274  1.00  0.00     0.080 C 
BRANCH  37  38
HETATM   38  C25 UNL     1      18.256  22.376  20.579  1.00  0.00     0.017 C 
HETATM   39  C26 UNL     1      18.646  21.481  19.458  1.00  0.00     0.015 C 
HETATM   40  C27 UNL     1      19.323  22.194  21.668  1.00  0.00     0.015 C 
ENDBRANCH  37  38
ENDBRANCH  36  37
BRANCH  36  41
HETATM   41  S1  UNL     1      20.181  24.944  18.946  1.00  0.00     0.264 S 
HETATM   42  O5  UNL     1      21.262  23.881  18.999  1.00  0.00    -0.200 OA
HETATM   43  O6  UNL     1      20.435  25.857  20.097  1.00  0.00    -0.200 OA
BRANCH  41  44
HETATM   44  C28 UNL     1      20.404  25.809  17.430  1.00  0.00     0.080 A 
HETATM   45  C29 UNL     1      20.410  25.110  16.265  1.00  0.00     0.026 A 
HETATM   46  C30 UNL     1      20.581  25.798  15.078  1.00  0.00     0.011 A 
HETATM   47  C31 UNL     1      20.739  27.173  15.090  1.00  0.00    -0.035 A 
HETATM   48  C33 UNL     1      20.727  27.842  16.280  1.00  0.00     0.011 A 
HETATM   49  C34 UNL     1      20.557  27.177  17.494  1.00  0.00     0.026 A 
BRANCH  47  50
HETATM   50  C32 UNL     1      20.924  27.904  13.805  1.00  0.00     0.202 C 
BRANCH  50  51
HETATM   51  O7  UNL     1      21.031  29.279  14.085  1.00  0.00    -0.396 OA
ATOM     52  H7  UNL     1      21.712  29.403  14.736  1.00  0.00     0.209 HD
ENDBRANCH  50  51
ENDBRANCH  47  50
ENDBRANCH  41  44
ENDBRANCH  36  41
ENDBRANCH  35  36
ENDBRANCH  32  35
ENDBRANCH   1  32
TORSDOF 19
ENDMDL
