MODEL 1
REMARK VINA RESULT: -10.129539324      0.000      0.000
REMARK  19 active torsions:
REMARK  status: ('A' for Active; 'I' for Inactive)
REMARK    1  A    between atoms: C4_5  and  C5_6 
REMARK    2  A    between atoms: C5_6  and  N1_7 
REMARK    3  A    between atoms: N1_7  and  C7_9 
REMARK    4  A    between atoms: C7_9  and  O2_10 
REMARK    5  A    between atoms: C7_9  and  C8_12 
REMARK    6  A    between atoms: C12_16  and  C13_17 
REMARK       I    between atoms: C13_17  and  N2_19 
REMARK    7  A    between atoms: N2_19  and  C14_21 
REMARK    8  A    between atoms: C14_21  and  C15_22 
REMARK    9  A    between atoms: C14_21  and  C22_29 
REMARK   10  A    between atoms: C15_22  and  C16_23 
REMARK   11  A    between atoms: C22_29  and  O4_30 
REMARK   12  A    between atoms: C22_29  and  C23_32 
REMARK   13  A    between atoms: C23_32  and  N3_33 
REMARK   14  A    between atoms: N3_33  and  C24_34 
REMARK   15  A    between atoms: N3_33  and  S1_38 
REMARK   16  A    between atoms: C24_34  and  C25_35 
REMARK   17  A    between atoms: S1_38  and  C28_41 
REMARK   18  A    between atoms: C31_44  and  C32_45 
REMARK   19  A    between atoms: C32_45  and  O7_46 
ROOT
HETATM    1  C14 UNL     1      14.690  22.542  17.041  1.00  0.00     0.119 C 
ENDROOT
BRANCH   1   2
HETATM    2  N2  UNL     1      13.919  21.496  17.637  1.00  0.00    -0.349 N 
HETATM    3  C13 UNL     1      14.483  20.246  17.943  1.00  0.00     0.252 C 
HETATM    4  O3  UNL     1      15.688  20.024  17.702  1.00  0.00    -0.268 OA
ATOM      5  H2  UNL     1      12.935  21.661  17.846  1.00  0.00     0.163 HD
BRANCH   3   6
HETATM    6  C12 UNL     1      13.717  19.139  18.552  1.00  0.00     0.033 A 
HETATM    7  C11 UNL     1      13.695  19.031  19.914  1.00  0.00     0.017 A 
HETATM    8  C10 UNL     1      12.998  18.006  20.501  1.00  0.00     0.002 A 
HETATM    9  C9  UNL     1      12.314  17.075  19.717  1.00  0.00     0.016 A 
HETATM   10  C8  UNL     1      12.334  17.182  18.353  1.00  0.00     0.015 A 
HETATM   11  C35 UNL     1      13.055  18.242  17.758  1.00  0.00     0.032 A 
BRANCH  10  12
HETATM   12  C7  UNL     1      11.638  16.273  17.488  1.00  0.00     0.148 C 
BRANCH  12  13
HETATM   13  N1  UNL     1      10.399  15.691  17.642  1.00  0.00    -0.358 N 
HETATM   14  C6  UNL     1      10.021  14.324  17.696  1.00  0.00     0.152 C 
BRANCH  13  15
HETATM   15  C5  UNL     1       9.250  16.644  17.798  1.00  0.00     0.209 C 
BRANCH  15  16
HETATM   16  C4  UNL     1       9.290  17.587  16.674  1.00  0.00     0.141 A 
HETATM   17  O1  UNL     1       9.476  17.249  15.434  1.00  0.00    -0.306 OA
HETATM   18  C3  UNL     1       9.463  18.298  14.648  1.00  0.00     0.168 A 
HETATM   19  C2  UNL     1       9.252  19.389  15.472  1.00  0.00     0.029 A 
HETATM   20  C1  UNL     1       9.153  20.824  15.075  1.00  0.00     0.070 C 
HETATM   21  N4  UNL     1       9.150  18.910  16.712  1.00  0.00    -0.341 N 
ATOM     22  H4  UNL     1       8.990  19.466  17.552  1.00  0.00     0.167 HD
ENDBRANCH  15  16
ENDBRANCH  13  15
ENDBRANCH  12  13
BRANCH  12  23
HETATM   23  O2  UNL     1      12.289  15.961  16.400  1.00  0.00    -0.346 OA
ATOM     24  H2  UNL     1      12.785  16.662  15.994  1.00  0.00     0.219 HD
ENDBRANCH  12  23
ENDBRANCH  10  12
ENDBRANCH   3   6
ENDBRANCH   1   2
BRANCH   1  25
HETATM   25  C15 UNL     1      14.156  22.963  15.690  1.00  0.00     0.066 C 
BRANCH  25  26
HETATM   26  C16 UNL     1      13.920  21.870  14.770  1.00  0.00    -0.056 A 
HETATM   27  C17 UNL     1      12.711  21.231  14.731  1.00  0.00     0.007 A 
HETATM   28  C18 UNL     1      12.524  20.175  13.830  1.00  0.00     0.001 A 
HETATM   29  C19 UNL     1      13.535  19.774  12.989  1.00  0.00     0.000 A 
HETATM   30  C20 UNL     1      14.741  20.409  13.026  1.00  0.00     0.001 A 
HETATM   31  C21 UNL     1      14.910  21.448  13.918  1.00  0.00     0.007 A 
ENDBRANCH  25  26
ENDBRANCH   1  25
BRANCH   1  32
HETATM   32  C22 UNL     1      15.018  23.685  17.955  1.00  0.00     0.160 C 
BRANCH  32  33
HETATM   33  O4  UNL     1      13.988  24.513  18.283  1.00  0.00    -0.392 OA
ATOM     34  H4  UNL     1      13.236  24.108  18.700  1.00  0.00     0.210 HD
ENDBRANCH  32  33
BRANCH  32  35
HETATM   35  C23 UNL     1      16.187  24.480  17.463  1.00  0.00     0.174 C 
BRANCH  35  36
HETATM   36  N3  UNL     1      17.420  23.858  17.837  1.00  0.00    -0.283 N 
BRANCH  36  37
HETATM   37  C24 UNL     1      18.067  24.310  18.998  1.00  0.00     0.080 C 
BRANCH  37  38
HETATM   38  C25 UNL     1      18.025  23.435  20.201  1.00  0.00     0.017 C 
HETATM   39  C26 UNL     1      17.754  21.991  19.970  1.00  0.00     0.015 C 
HETATM   40  C27 UNL     1      19.395  23.512  20.888  1.00  0.00     0.015 C 
ENDBRANCH  37  38
ENDBRANCH  36  37
BRANCH  36  41
HETATM   41  S1  UNL     1      18.366  23.424  16.502  1.00  0.00     0.264 S 
HETATM   42  O5  UNL     1      17.533  22.800  15.399  1.00  0.00    -0.200 OA
HETATM   43  O6  UNL     1      19.393  22.409  16.877  1.00  0.00    -0.200 OA
BRANCH  41  44
HETATM   44  C28 UNL     1      19.143  24.839  15.803  1.00  0.00     0.080 A 
HETATM   45  C29 UNL     1      20.445  25.092  16.097  1.00  0.00     0.026 A 
HETATM   46  C30 UNL     1      21.049  26.203  15.540  1.00  0.00     0.011 A 
HETATM   47  C31 UNL     1      20.330  27.034  14.698  1.00  0.00    -0.035 A 
HETATM   48  C33 UNL     1      19.024  26.748  14.424  1.00  0.00     0.011 A 
HETATM   49  C34 UNL     1      18.385  25.636  14.971  1.00  0.00     0.026 A 
BRANCH  47  50
HETATM   50  C32 UNL     1      20.991  28.230  14.104  1.00  0.00     0.202 C 
BRANCH  50  51
HETATM   51  O7  UNL     1      20.639  29.359  14.868  1.00  0.00    -0.396 OA
ATOM     52  H7  UNL     1      21.024  30.128  14.464  1.00  0.00     0.209 HD
ENDBRANCH  50  51
ENDBRANCH  47  50
ENDBRANCH  41  44
ENDBRANCH  36  41
ENDBRANCH  35  36
ENDBRANCH  32  35
ENDBRANCH   1  32
TORSDOF 19
ENDMDL
