MODEL 10
REMARK VINA RESULT: -9.421334341      2.862      5.929
REMARK  19 active torsions:
REMARK  status: ('A' for Active; 'I' for Inactive)
REMARK    1  A    between atoms: C4_5  and  C5_6 
REMARK    2  A    between atoms: C5_6  and  N1_7 
REMARK    3  A    between atoms: N1_7  and  C7_9 
REMARK    4  A    between atoms: C7_9  and  O2_10 
REMARK    5  A    between atoms: C7_9  and  C8_12 
REMARK    6  A    between atoms: C12_16  and  C13_17 
REMARK       I    between atoms: C13_17  and  N2_19 
REMARK    7  A    between atoms: N2_19  and  C14_21 
REMARK    8  A    between atoms: C14_21  and  C15_22 
REMARK    9  A    between atoms: C14_21  and  C22_29 
REMARK   10  A    between atoms: C15_22  and  C16_23 
REMARK   11  A    between atoms: C22_29  and  O4_30 
REMARK   12  A    between atoms: C22_29  and  C23_32 
REMARK   13  A    between atoms: C23_32  and  N3_33 
REMARK   14  A    between atoms: N3_33  and  C24_34 
REMARK   15  A    between atoms: N3_33  and  S1_38 
REMARK   16  A    between atoms: C24_34  and  C25_35 
REMARK   17  A    between atoms: S1_38  and  C28_41 
REMARK   18  A    between atoms: C31_44  and  C32_45 
REMARK   19  A    between atoms: C32_45  and  O7_46 
ROOT
HETATM    1  C14 UNL     1      18.291  24.183  16.471  1.00  0.00     0.119 C 
ENDROOT
BRANCH   1   2
HETATM    2  N2  UNL     1      17.463  23.412  15.596  1.00  0.00    -0.349 N 
HETATM    3  C13 UNL     1      16.166  23.018  15.962  1.00  0.00     0.252 C 
HETATM    4  O3  UNL     1      15.701  23.345  17.074  1.00  0.00    -0.268 OA
ATOM      5  H2  UNL     1      17.825  23.141  14.681  1.00  0.00     0.163 HD
BRANCH   3   6
HETATM    6  C12 UNL     1      15.286  22.216  15.087  1.00  0.00     0.033 A 
HETATM    7  C11 UNL     1      15.770  21.797  13.880  1.00  0.00     0.017 A 
HETATM    8  C10 UNL     1      14.968  21.060  13.048  1.00  0.00     0.002 A 
HETATM    9  C9  UNL     1      13.663  20.737  13.425  1.00  0.00     0.016 A 
HETATM   10  C8  UNL     1      13.175  21.155  14.634  1.00  0.00     0.015 A 
HETATM   11  C35 UNL     1      14.011  21.915  15.485  1.00  0.00     0.032 A 
BRANCH  10  12
HETATM   12  C7  UNL     1      11.853  20.844  15.094  1.00  0.00     0.148 C 
BRANCH  12  13
HETATM   13  N1  UNL     1      11.365  19.676  15.638  1.00  0.00    -0.358 N 
HETATM   14  C6  UNL     1      11.446  18.336  15.175  1.00  0.00     0.152 C 
BRANCH  13  15
HETATM   15  C5  UNL     1      10.644  19.822  16.946  1.00  0.00     0.209 C 
BRANCH  15  16
HETATM   16  C4  UNL     1      11.554  19.389  18.014  1.00  0.00     0.141 A 
HETATM   17  O1  UNL     1      12.749  19.863  18.201  1.00  0.00    -0.306 OA
HETATM   18  C3  UNL     1      13.330  19.292  19.228  1.00  0.00     0.168 A 
HETATM   19  C2  UNL     1      12.417  18.380  19.725  1.00  0.00     0.029 A 
HETATM   20  C1  UNL     1      12.586  17.467  20.894  1.00  0.00     0.070 C 
HETATM   21  N4  UNL     1      11.336  18.470  18.951  1.00  0.00    -0.341 N 
ATOM     22  H4  UNL     1      10.481  17.924  19.059  1.00  0.00     0.167 HD
ENDBRANCH  15  16
ENDBRANCH  13  15
ENDBRANCH  12  13
BRANCH  12  23
HETATM   23  O2  UNL     1      10.997  21.822  14.971  1.00  0.00    -0.346 OA
ATOM     24  H2  UNL     1      10.214  21.632  14.467  1.00  0.00     0.219 HD
ENDBRANCH  12  23
ENDBRANCH  10  12
ENDBRANCH   3   6
ENDBRANCH   1   2
BRANCH   1  25
HETATM   25  C15 UNL     1      19.373  23.356  17.131  1.00  0.00     0.066 C 
BRANCH  25  26
HETATM   26  C16 UNL     1      19.131  23.055  18.527  1.00  0.00    -0.056 A 
HETATM   27  C17 UNL     1      18.535  21.881  18.900  1.00  0.00     0.007 A 
HETATM   28  C18 UNL     1      18.314  21.628  20.260  1.00  0.00     0.001 A 
HETATM   29  C19 UNL     1      18.687  22.540  21.219  1.00  0.00     0.000 A 
HETATM   30  C20 UNL     1      19.280  23.711  20.850  1.00  0.00     0.001 A 
HETATM   31  C21 UNL     1      19.491  23.945  19.506  1.00  0.00     0.007 A 
ENDBRANCH  25  26
ENDBRANCH   1  25
BRANCH   1  32
HETATM   32  C22 UNL     1      18.773  25.484  15.902  1.00  0.00     0.160 C 
BRANCH  32  33
HETATM   33  O4  UNL     1      18.095  25.962  14.823  1.00  0.00    -0.392 OA
ATOM     34  H4  UNL     1      17.149  26.003  14.902  1.00  0.00     0.210 HD
ENDBRANCH  32  33
BRANCH  32  35
HETATM   35  C23 UNL     1      20.244  25.464  15.624  1.00  0.00     0.174 C 
BRANCH  35  36
HETATM   36  N3  UNL     1      20.893  26.585  16.231  1.00  0.00    -0.283 N 
BRANCH  36  37
HETATM   37  C24 UNL     1      20.529  26.937  17.540  1.00  0.00     0.080 C 
BRANCH  37  38
HETATM   38  C25 UNL     1      21.614  27.317  18.485  1.00  0.00     0.017 C 
HETATM   39  C26 UNL     1      21.195  27.912  19.781  1.00  0.00     0.015 C 
HETATM   40  C27 UNL     1      22.406  26.048  18.828  1.00  0.00     0.015 C 
ENDBRANCH  37  38
ENDBRANCH  36  37
BRANCH  36  41
HETATM   41  S1  UNL     1      21.233  27.823  15.127  1.00  0.00     0.264 S 
HETATM   42  O5  UNL     1      20.518  29.111  15.485  1.00  0.00    -0.200 OA
HETATM   43  O6  UNL     1      20.780  27.459  13.754  1.00  0.00    -0.200 OA
BRANCH  41  44
HETATM   44  C28 UNL     1      22.954  28.192  15.116  1.00  0.00     0.080 A 
HETATM   45  C29 UNL     1      23.365  29.416  14.693  1.00  0.00     0.026 A 
HETATM   46  C30 UNL     1      24.718  29.699  14.692  1.00  0.00     0.011 A 
HETATM   47  C31 UNL     1      25.626  28.745  15.120  1.00  0.00    -0.035 A 
HETATM   48  C33 UNL     1      25.176  27.527  15.539  1.00  0.00     0.011 A 
HETATM   49  C34 UNL     1      23.818  27.210  15.551  1.00  0.00     0.026 A 
BRANCH  47  50
HETATM   50  C32 UNL     1      27.082  29.061  15.113  1.00  0.00     0.202 C 
BRANCH  50  51
HETATM   51  O7  UNL     1      27.702  28.285  14.115  1.00  0.00    -0.396 OA
ATOM     52  H7  UNL     1      28.465  27.863  14.493  1.00  0.00     0.209 HD
ENDBRANCH  50  51
ENDBRANCH  47  50
ENDBRANCH  41  44
ENDBRANCH  36  41
ENDBRANCH  35  36
ENDBRANCH  32  35
ENDBRANCH   1  32
TORSDOF 19
ENDMDL
