MODEL 2
REMARK VINA RESULT: -9.956385822      0.934      1.439
REMARK  19 active torsions:
REMARK  status: ('A' for Active; 'I' for Inactive)
REMARK    1  A    between atoms: C4_5  and  C5_6 
REMARK    2  A    between atoms: C5_6  and  N1_7 
REMARK    3  A    between atoms: N1_7  and  C7_9 
REMARK    4  A    between atoms: C7_9  and  O2_10 
REMARK    5  A    between atoms: C7_9  and  C8_12 
REMARK    6  A    between atoms: C12_16  and  C13_17 
REMARK       I    between atoms: C13_17  and  N2_19 
REMARK    7  A    between atoms: N2_19  and  C14_21 
REMARK    8  A    between atoms: C14_21  and  C15_22 
REMARK    9  A    between atoms: C14_21  and  C22_29 
REMARK   10  A    between atoms: C15_22  and  C16_23 
REMARK   11  A    between atoms: C22_29  and  O4_30 
REMARK   12  A    between atoms: C22_29  and  C23_32 
REMARK   13  A    between atoms: C23_32  and  N3_33 
REMARK   14  A    between atoms: N3_33  and  C24_34 
REMARK   15  A    between atoms: N3_33  and  S1_38 
REMARK   16  A    between atoms: C24_34  and  C25_35 
REMARK   17  A    between atoms: S1_38  and  C28_41 
REMARK   18  A    between atoms: C31_44  and  C32_45 
REMARK   19  A    between atoms: C32_45  and  O7_46 
ROOT
HETATM    1  C14 UNL     1      14.645  22.511  17.039  1.00  0.00     0.119 C 
ENDROOT
BRANCH   1   2
HETATM    2  N2  UNL     1      13.859  21.480  17.643  1.00  0.00    -0.349 N 
HETATM    3  C13 UNL     1      14.402  20.221  17.948  1.00  0.00     0.252 C 
HETATM    4  O3  UNL     1      15.601  19.977  17.699  1.00  0.00    -0.268 OA
ATOM      5  H2  UNL     1      12.879  21.664  17.858  1.00  0.00     0.163 HD
BRANCH   3   6
HETATM    6  C12 UNL     1      13.619  19.130  18.565  1.00  0.00     0.033 A 
HETATM    7  C11 UNL     1      13.723  18.933  19.913  1.00  0.00     0.017 A 
HETATM    8  C10 UNL     1      13.014  17.921  20.506  1.00  0.00     0.002 A 
HETATM    9  C9  UNL     1      12.189  17.092  19.742  1.00  0.00     0.016 A 
HETATM   10  C8  UNL     1      12.083  17.288  18.391  1.00  0.00     0.015 A 
HETATM   11  C35 UNL     1      12.818  18.335  17.790  1.00  0.00     0.032 A 
BRANCH  10  12
HETATM   12  C7  UNL     1      11.241  16.488  17.550  1.00  0.00     0.148 C 
BRANCH  12  13
HETATM   13  N1  UNL     1       9.888  16.593  17.309  1.00  0.00    -0.358 N 
HETATM   14  C6  UNL     1       8.818  15.727  17.657  1.00  0.00     0.152 C 
BRANCH  13  15
HETATM   15  C5  UNL     1       9.453  17.829  16.576  1.00  0.00     0.209 C 
BRANCH  15  16
HETATM   16  C4  UNL     1       9.653  17.595  15.141  1.00  0.00     0.141 A 
HETATM   17  O1  UNL     1       8.882  18.060  14.204  1.00  0.00    -0.306 OA
HETATM   18  C3  UNL     1       9.303  17.693  13.017  1.00  0.00     0.168 A 
HETATM   19  C2  UNL     1      10.436  16.930  13.234  1.00  0.00     0.029 A 
HETATM   20  C1  UNL     1      11.298  16.270  12.210  1.00  0.00     0.070 C 
HETATM   21  N4  UNL     1      10.619  16.893  14.553  1.00  0.00    -0.341 N 
ATOM     22  H4  UNL     1      11.376  16.408  15.034  1.00  0.00     0.167 HD
ENDBRANCH  15  16
ENDBRANCH  13  15
ENDBRANCH  12  13
BRANCH  12  23
HETATM   23  O2  UNL     1      11.862  15.524  16.928  1.00  0.00    -0.346 OA
ATOM     24  H2  UNL     1      12.666  15.764  16.480  1.00  0.00     0.219 HD
ENDBRANCH  12  23
ENDBRANCH  10  12
ENDBRANCH   3   6
ENDBRANCH   1   2
BRANCH   1  25
HETATM   25  C15 UNL     1      14.128  22.917  15.676  1.00  0.00     0.066 C 
BRANCH  25  26
HETATM   26  C16 UNL     1      13.715  21.811  14.837  1.00  0.00    -0.056 A 
HETATM   27  C17 UNL     1      14.631  21.102  14.108  1.00  0.00     0.007 A 
HETATM   28  C18 UNL     1      14.191  20.042  13.304  1.00  0.00     0.001 A 
HETATM   29  C19 UNL     1      12.860  19.707  13.239  1.00  0.00     0.000 A 
HETATM   30  C20 UNL     1      11.946  20.413  13.964  1.00  0.00     0.001 A 
HETATM   31  C21 UNL     1      12.393  21.454  14.751  1.00  0.00     0.007 A 
ENDBRANCH  25  26
ENDBRANCH   1  25
BRANCH   1  32
HETATM   32  C22 UNL     1      14.974  23.665  17.939  1.00  0.00     0.160 C 
BRANCH  32  33
HETATM   33  O4  UNL     1      13.944  24.493  18.264  1.00  0.00    -0.392 OA
ATOM     34  H4  UNL     1      14.179  25.365  18.559  1.00  0.00     0.210 HD
ENDBRANCH  32  33
BRANCH  32  35
HETATM   35  C23 UNL     1      16.138  24.458  17.432  1.00  0.00     0.174 C 
BRANCH  35  36
HETATM   36  N3  UNL     1      17.374  23.809  17.746  1.00  0.00    -0.283 N 
BRANCH  36  37
HETATM   37  C24 UNL     1      18.062  24.211  18.901  1.00  0.00     0.080 C 
BRANCH  37  38
HETATM   38  C25 UNL     1      17.979  23.332  20.100  1.00  0.00     0.017 C 
HETATM   39  C26 UNL     1      17.755  21.884  19.854  1.00  0.00     0.015 C 
HETATM   40  C27 UNL     1      19.311  23.441  20.855  1.00  0.00     0.015 C 
ENDBRANCH  37  38
ENDBRANCH  36  37
BRANCH  36  41
HETATM   41  S1  UNL     1      18.272  23.409  16.368  1.00  0.00     0.264 S 
HETATM   42  O5  UNL     1      17.393  22.866  15.258  1.00  0.00    -0.200 OA
HETATM   43  O6  UNL     1      19.274  22.346  16.667  1.00  0.00    -0.200 OA
BRANCH  41  44
HETATM   44  C28 UNL     1      19.078  24.832  15.717  1.00  0.00     0.080 A 
HETATM   45  C29 UNL     1      20.374  25.069  16.051  1.00  0.00     0.026 A 
HETATM   46  C30 UNL     1      21.000  26.186  15.532  1.00  0.00     0.011 A 
HETATM   47  C31 UNL     1      20.310  27.038  14.686  1.00  0.00    -0.035 A 
HETATM   48  C33 UNL     1      19.010  26.767  14.372  1.00  0.00     0.011 A 
HETATM   49  C34 UNL     1      18.349  25.649  14.880  1.00  0.00     0.026 A 
BRANCH  47  50
HETATM   50  C32 UNL     1      20.995  28.240  14.134  1.00  0.00     0.202 C 
BRANCH  50  51
HETATM   51  O7  UNL     1      20.648  29.354  14.922  1.00  0.00    -0.396 OA
ATOM     52  H7  UNL     1      20.639  30.125  14.367  1.00  0.00     0.209 HD
ENDBRANCH  50  51
ENDBRANCH  47  50
ENDBRANCH  41  44
ENDBRANCH  36  41
ENDBRANCH  35  36
ENDBRANCH  32  35
ENDBRANCH   1  32
TORSDOF 19
ENDMDL
