MODEL 8
REMARK VINA RESULT: -8.249484588      3.052      5.269
REMARK  5 active torsions:
REMARK  status: ('A' for Active; 'I' for Inactive)
REMARK    1  A    between atoms: C5_5  and  C6_6 
REMARK    2  A    between atoms: C6_6  and  S1_7 
REMARK    3  A    between atoms: S1_7  and  N1_10 
REMARK    4  A    between atoms: N1_10  and  C7_12 
REMARK    5  A    between atoms: C12_18  and  C13_19 
ROOT
HETATM    1  C7  UNL     1      83.999  12.651  20.629  1.00  0.00     0.043 A 
HETATM    2  C8  UNL     1      84.340  13.212  19.430  1.00  0.00     0.031 A 
HETATM    3  C9  UNL     1      85.213  12.557  18.551  1.00  0.00     0.025 A 
HETATM    4  C10 UNL     1      85.766  11.335  18.844  1.00  0.00     0.051 A 
HETATM    5  C11 UNL     1      86.662  10.671  17.928  1.00  0.00     0.100 C 
HETATM    6  N2  UNL     1      87.382  10.123  17.207  1.00  0.00    -0.191 NA
HETATM    7  C12 UNL     1      85.430  10.756  20.052  1.00  0.00    -0.031 A 
HETATM    8  C16 UNL     1      84.575  11.394  20.916  1.00  0.00     0.039 A 
ENDROOT
BRANCH   7   9
HETATM    9  C13 UNL     1      86.037   9.442  20.345  1.00  0.00     0.020 A 
HETATM   10  C14 UNL     1      87.145   9.383  21.395  1.00  0.00     0.010 A 
HETATM   11  C15 UNL     1      85.819   8.773  21.654  1.00  0.00     0.010 A 
ENDBRANCH   7   9
BRANCH   1  12
HETATM   12  N1  UNL     1      83.143  13.251  21.592  1.00  0.00    -0.284 N 
ATOM     13  H1  UNL     1      83.395  14.197  21.877  1.00  0.00     0.178 HD
BRANCH  12  14
HETATM   14  S1  UNL     1      81.767  12.611  22.328  1.00  0.00     0.234 S 
HETATM   15  O1  UNL     1      82.039  11.277  23.005  1.00  0.00    -0.205 OA
HETATM   16  O2  UNL     1      81.300  13.592  23.402  1.00  0.00    -0.205 OA
BRANCH  14  17
HETATM   17  C6  UNL     1      80.427  12.396  21.205  1.00  0.00     0.201 C 
BRANCH  17  18
HETATM   18  C5  UNL     1      80.906  11.826  19.903  1.00  0.00    -0.043 A 
HETATM   19  C4  UNL     1      81.320  10.514  19.820  1.00  0.00     0.009 A 
HETATM   20  C3  UNL     1      81.777   9.978  18.608  1.00  0.00     0.007 A 
HETATM   21  C2  UNL     1      81.825  10.748  17.465  1.00  0.00    -0.062 A 
HETATM   22  C1  UNL     1      82.304  10.210  16.166  1.00  0.00     0.048 C 
HETATM   23  C18 UNL     1      81.401  12.058  17.584  1.00  0.00     0.007 A 
HETATM   24  C17 UNL     1      80.947  12.597  18.785  1.00  0.00     0.009 A 
ENDBRANCH  17  18
ENDBRANCH  14  17
ENDBRANCH  12  14
ENDBRANCH   1  12
TORSDOF 5
ENDMDL
