MODEL 3
REMARK VINA RESULT: -8.438227341      2.911      5.567
REMARK  5 active torsions:
REMARK  status: ('A' for Active; 'I' for Inactive)
REMARK    1  A    between atoms: C5_5  and  C6_6 
REMARK    2  A    between atoms: C6_6  and  S1_7 
REMARK    3  A    between atoms: S1_7  and  N1_10 
REMARK    4  A    between atoms: N1_10  and  C7_12 
REMARK    5  A    between atoms: C12_18  and  C13_19 
ROOT
HETATM    1  C7  UNL     1      83.973  12.402  20.718  1.00  0.00     0.043 A 
HETATM    2  C8  UNL     1      84.245  13.022  19.531  1.00  0.00     0.031 A 
HETATM    3  C9  UNL     1      85.151  12.464  18.618  1.00  0.00     0.025 A 
HETATM    4  C10 UNL     1      85.805  11.284  18.866  1.00  0.00     0.051 A 
HETATM    5  C11 UNL     1      86.735  10.721  17.916  1.00  0.00     0.100 C 
HETATM    6  N2  UNL     1      87.483  10.253  17.167  1.00  0.00    -0.191 NA
HETATM    7  C12 UNL     1      85.541  10.646  20.062  1.00  0.00    -0.031 A 
HETATM    8  C16 UNL     1      84.653  11.188  20.958  1.00  0.00     0.039 A 
ENDROOT
BRANCH   7   9
HETATM    9  C13 UNL     1      86.257   9.378  20.306  1.00  0.00     0.020 A 
HETATM   10  C14 UNL     1      87.351   9.367  21.371  1.00  0.00     0.010 A 
HETATM   11  C15 UNL     1      86.081   8.632  21.579  1.00  0.00     0.010 A 
ENDBRANCH   7   9
BRANCH   1  12
HETATM   12  N1  UNL     1      83.090  12.903  21.713  1.00  0.00    -0.284 N 
ATOM     13  H1  UNL     1      83.354  13.798  22.126  1.00  0.00     0.178 HD
BRANCH  12  14
HETATM   14  S1  UNL     1      81.665  12.221  22.303  1.00  0.00     0.234 S 
HETATM   15  O1  UNL     1      81.927  11.084  23.277  1.00  0.00    -0.205 OA
HETATM   16  O2  UNL     1      80.890  13.305  23.049  1.00  0.00    -0.205 OA
BRANCH  14  17
HETATM   17  C6  UNL     1      80.613  11.620  21.024  1.00  0.00     0.201 C 
BRANCH  17  18
HETATM   18  C5  UNL     1      80.760  10.135  20.864  1.00  0.00    -0.043 A 
HETATM   19  C4  UNL     1      81.683   9.611  19.987  1.00  0.00     0.009 A 
HETATM   20  C3  UNL     1      81.819   8.225  19.827  1.00  0.00     0.007 A 
HETATM   21  C2  UNL     1      81.033   7.348  20.543  1.00  0.00    -0.062 A 
HETATM   22  C1  UNL     1      81.152   5.875  20.396  1.00  0.00     0.048 C 
HETATM   23  C18 UNL     1      80.117   7.907  21.414  1.00  0.00     0.007 A 
HETATM   24  C17 UNL     1      79.976   9.284  21.577  1.00  0.00     0.009 A 
ENDBRANCH  17  18
ENDBRANCH  14  17
ENDBRANCH  12  14
ENDBRANCH   1  12
TORSDOF 5
ENDMDL
