MODEL 1
REMARK VINA RESULT: -9.156754953      0.000      0.000
REMARK  5 active torsions:
REMARK  status: ('A' for Active; 'I' for Inactive)
REMARK    1  A    between atoms: C5_5  and  C6_6 
REMARK    2  A    between atoms: C6_6  and  S1_7 
REMARK    3  A    between atoms: S1_7  and  N1_10 
REMARK    4  A    between atoms: N1_10  and  C7_12 
REMARK    5  A    between atoms: C12_18  and  C13_19 
ROOT
HETATM    1  C7  UNL     1      81.440  12.496  20.149  1.00  0.00     0.043 A 
HETATM    2  C8  UNL     1      81.424  13.051  21.398  1.00  0.00     0.031 A 
HETATM    3  C9  UNL     1      81.547  12.251  22.543  1.00  0.00     0.025 A 
HETATM    4  C10 UNL     1      81.686  10.887  22.471  1.00  0.00     0.051 A 
HETATM    5  C11 UNL     1      81.813  10.076  23.658  1.00  0.00     0.100 C 
HETATM    6  N2  UNL     1      81.917   9.409  24.598  1.00  0.00    -0.191 NA
HETATM    7  C12 UNL     1      81.704  10.313  21.214  1.00  0.00    -0.031 A 
HETATM    8  C16 UNL     1      81.584  11.093  20.092  1.00  0.00     0.039 A 
ENDROOT
BRANCH   7   9
HETATM    9  C13 UNL     1      81.854   8.845  21.163  1.00  0.00     0.020 A 
HETATM   10  C14 UNL     1      80.615   8.010  20.847  1.00  0.00     0.010 A 
HETATM   11  C15 UNL     1      81.733   8.109  19.878  1.00  0.00     0.010 A 
ENDBRANCH   7   9
BRANCH   1  12
HETATM   12  N1  UNL     1      81.297  13.224  18.936  1.00  0.00    -0.284 N 
ATOM     13  H1  UNL     1      80.489  13.844  18.886  1.00  0.00     0.178 HD
BRANCH  12  14
HETATM   14  S1  UNL     1      82.283  13.202  17.568  1.00  0.00     0.234 S 
HETATM   15  O1  UNL     1      82.270  11.853  16.867  1.00  0.00    -0.205 OA
HETATM   16  O2  UNL     1      81.757  14.244  16.584  1.00  0.00    -0.205 OA
BRANCH  14  17
HETATM   17  C6  UNL     1      83.957  13.622  17.923  1.00  0.00     0.201 C 
BRANCH  17  18
HETATM   18  C5  UNL     1      84.582  12.606  18.833  1.00  0.00    -0.043 A 
HETATM   19  C4  UNL     1      84.839  12.908  20.152  1.00  0.00     0.009 A 
HETATM   20  C3  UNL     1      85.431  11.966  21.005  1.00  0.00     0.007 A 
HETATM   21  C2  UNL     1      85.772  10.711  20.548  1.00  0.00    -0.062 A 
HETATM   22  C1  UNL     1      86.400   9.692  21.427  1.00  0.00     0.048 C 
HETATM   23  C18 UNL     1      85.499  10.441  19.220  1.00  0.00     0.007 A 
HETATM   24  C17 UNL     1      84.912  11.373  18.368  1.00  0.00     0.009 A 
ENDBRANCH  17  18
ENDBRANCH  14  17
ENDBRANCH  12  14
ENDBRANCH   1  12
TORSDOF 5
ENDMDL
