MODEL 4
REMARK VINA RESULT: -8.375769654      2.954      5.792
REMARK  5 active torsions:
REMARK  status: ('A' for Active; 'I' for Inactive)
REMARK    1  A    between atoms: C5_5  and  C6_6 
REMARK    2  A    between atoms: C6_6  and  S1_7 
REMARK    3  A    between atoms: S1_7  and  N1_10 
REMARK    4  A    between atoms: N1_10  and  C7_12 
REMARK    5  A    between atoms: C12_18  and  C13_19 
ROOT
HETATM    1  C7  UNL     1      83.998  12.279  20.975  1.00  0.00     0.043 A 
HETATM    2  C8  UNL     1      85.173  11.585  21.036  1.00  0.00     0.031 A 
HETATM    3  C9  UNL     1      85.909  11.311  19.875  1.00  0.00     0.025 A 
HETATM    4  C10 UNL     1      85.492  11.719  18.632  1.00  0.00     0.051 A 
HETATM    5  C11 UNL     1      86.261  11.430  17.445  1.00  0.00     0.100 C 
HETATM    6  N2  UNL     1      86.863  11.210  16.482  1.00  0.00    -0.191 NA
HETATM    7  C12 UNL     1      84.305  12.422  18.555  1.00  0.00    -0.031 A 
HETATM    8  C16 UNL     1      83.583  12.692  19.690  1.00  0.00     0.039 A 
ENDROOT
BRANCH   7   9
HETATM    9  C13 UNL     1      83.878  12.848  17.208  1.00  0.00     0.020 A 
HETATM   10  C14 UNL     1      82.569  12.285  16.660  1.00  0.00     0.010 A 
HETATM   11  C15 UNL     1      82.688  13.718  17.022  1.00  0.00     0.010 A 
ENDBRANCH   7   9
BRANCH   1  12
HETATM   12  N1  UNL     1      83.174  12.582  22.094  1.00  0.00    -0.284 N 
ATOM     13  H1  UNL     1      83.540  13.287  22.733  1.00  0.00     0.178 HD
BRANCH  12  14
HETATM   14  S1  UNL     1      81.673  11.933  22.508  1.00  0.00     0.234 S 
HETATM   15  O1  UNL     1      81.795  10.759  23.466  1.00  0.00    -0.205 OA
HETATM   16  O2  UNL     1      80.858  13.021  23.204  1.00  0.00    -0.205 OA
BRANCH  14  17
HETATM   17  C6  UNL     1      80.744  11.406  21.106  1.00  0.00     0.201 C 
BRANCH  17  18
HETATM   18  C5  UNL     1      80.838   9.919  20.930  1.00  0.00    -0.043 A 
HETATM   19  C4  UNL     1      81.807   9.367  20.121  1.00  0.00     0.009 A 
HETATM   20  C3  UNL     1      81.894   7.979  19.946  1.00  0.00     0.007 A 
HETATM   21  C2  UNL     1      81.014   7.128  20.578  1.00  0.00    -0.062 A 
HETATM   22  C1  UNL     1      81.080   5.653  20.413  1.00  0.00     0.048 C 
HETATM   23  C18 UNL     1      80.055   7.715  21.383  1.00  0.00     0.007 A 
HETATM   24  C17 UNL     1      79.962   9.093  21.560  1.00  0.00     0.009 A 
ENDBRANCH  17  18
ENDBRANCH  14  17
ENDBRANCH  12  14
ENDBRANCH   1  12
TORSDOF 5
ENDMDL
