MODEL 1
REMARK VINA RESULT: -9.056825432      0.000      0.000
REMARK  5 active torsions:
REMARK  status: ('A' for Active; 'I' for Inactive)
REMARK    1  A    between atoms: C5_6  and  N2_7 
REMARK    2  A    between atoms: N2_7  and  C6_9 
REMARK    3  A    between atoms: C9_15  and  N5_16 
REMARK    4  A    between atoms: C12_19  and  C13_20 
REMARK    5  A    between atoms: C13_20  and  O1_21 
ROOT
HETATM    1  N1  UNL     1     -20.643   6.796  79.607  1.00  0.00    -0.191 NA
HETATM    2  C1  UNL     1     -21.392   7.666  79.455  1.00  0.00     0.099 C 
HETATM    3  C2  UNL     1     -22.351   8.742  79.262  1.00  0.00     0.044 A 
HETATM    4  C3  UNL     1     -22.119   9.963  79.855  1.00  0.00     0.025 A 
HETATM    5  C4  UNL     1     -23.022  11.025  79.692  1.00  0.00     0.031 A 
HETATM    6  C5  UNL     1     -24.153  10.848  78.930  1.00  0.00     0.049 A 
HETATM    7  C14 UNL     1     -24.356   9.588  78.339  1.00  0.00     0.031 A 
HETATM    8  C15 UNL     1     -23.480   8.546  78.495  1.00  0.00     0.025 A 
ENDROOT
BRANCH   6   9
HETATM    9  N2  UNL     1     -25.123  11.833  78.697  1.00  0.00    -0.192 N 
ATOM     10  H2  UNL     1     -24.819  12.671  78.202  1.00  0.00     0.184 HD
BRANCH   9  11
HETATM   11  C6  UNL     1     -26.478  11.777  79.081  1.00  0.00     0.685 A 
HETATM   12  N3  UNL     1     -26.996  10.914  79.963  1.00  0.00    -0.178 N 
HETATM   13  C7  UNL     1     -28.275  10.852  80.332  1.00  0.00     0.135 A 
ATOM     14  H3  UNL     1     -26.356  10.244  80.390  1.00  0.00     0.185 HD
HETATM   15  N4  UNL     1     -28.775   9.910  81.277  1.00  0.00    -0.082 NA
HETATM   16  C8  UNL     1     -29.125  11.780  79.733  1.00  0.00     0.096 A 
HETATM   17  C9  UNL     1     -28.648  12.696  78.815  1.00  0.00     0.145 A 
HETATM   18  N7  UNL     1     -27.344  12.684  78.503  1.00  0.00    -0.174 N 
ATOM     19  H7  UNL     1     -26.985  13.358  77.826  1.00  0.00     0.186 HD
BRANCH  17  20
HETATM   20  N5  UNL     1     -29.532  13.650  78.201  1.00  0.00    -0.250 N 
HETATM   21  C10 UNL     1     -30.791  13.926  78.584  1.00  0.00     0.120 A 
HETATM   22  C11 UNL     1     -31.328  14.901  77.750  1.00  0.00     0.048 A 
HETATM   23  C12 UNL     1     -30.322  15.185  76.855  1.00  0.00     0.051 A 
HETATM   24  N6  UNL     1     -29.253  14.397  77.174  1.00  0.00    -0.295 N 
ATOM     25  H6  UNL     1     -28.362  14.396  76.678  1.00  0.00     0.187 HD
BRANCH  23  26
HETATM   26  C13 UNL     1     -30.333  16.164  75.724  1.00  0.00     0.222 C 
BRANCH  26  27
HETATM   27  O1  UNL     1     -31.083  17.261  76.127  1.00  0.00    -0.395 OA
ATOM     28  H1  UNL     1     -31.997  17.057  75.969  1.00  0.00     0.209 HD
ENDBRANCH  26  27
ENDBRANCH  23  26
ENDBRANCH  17  20
ENDBRANCH   9  11
ENDBRANCH   6   9
TORSDOF 5
ENDMDL
