MODEL 3
REMARK VINA RESULT: -8.949564792      1.261      1.674
REMARK  5 active torsions:
REMARK  status: ('A' for Active; 'I' for Inactive)
REMARK    1  A    between atoms: C5_6  and  N2_7 
REMARK    2  A    between atoms: N2_7  and  C6_9 
REMARK    3  A    between atoms: C9_15  and  N5_16 
REMARK    4  A    between atoms: C12_19  and  C13_20 
REMARK    5  A    between atoms: C13_20  and  O1_21 
ROOT
HETATM    1  N1  UNL     1     -19.518   9.052  80.676  1.00  0.00    -0.191 NA
HETATM    2  C1  UNL     1     -20.536   9.239  80.158  1.00  0.00     0.099 C 
HETATM    3  C2  UNL     1     -21.809   9.495  79.502  1.00  0.00     0.044 A 
HETATM    4  C3  UNL     1     -22.493   8.446  78.930  1.00  0.00     0.025 A 
HETATM    5  C4  UNL     1     -23.723   8.653  78.288  1.00  0.00     0.031 A 
HETATM    6  C5  UNL     1     -24.256   9.921  78.228  1.00  0.00     0.049 A 
HETATM    7  C14 UNL     1     -23.529  10.967  78.823  1.00  0.00     0.031 A 
HETATM    8  C15 UNL     1     -22.327  10.771  79.451  1.00  0.00     0.025 A 
ENDROOT
BRANCH   6   9
HETATM    9  N2  UNL     1     -25.473  10.248  77.616  1.00  0.00    -0.192 N 
ATOM     10  H2  UNL     1     -25.595   9.956  76.647  1.00  0.00     0.184 HD
BRANCH   9  11
HETATM   11  C6  UNL     1     -26.546  10.943  78.210  1.00  0.00     0.685 A 
HETATM   12  N3  UNL     1     -27.027  10.717  79.439  1.00  0.00    -0.178 N 
HETATM   13  C7  UNL     1     -28.040  11.367  80.010  1.00  0.00     0.135 A 
ATOM     14  H3  UNL     1     -26.577   9.982  79.987  1.00  0.00     0.185 HD
HETATM   15  N4  UNL     1     -28.512  11.085  81.324  1.00  0.00    -0.082 NA
HETATM   16  C8  UNL     1     -28.632  12.365  79.238  1.00  0.00     0.096 A 
HETATM   17  C9  UNL     1     -28.180  12.644  77.963  1.00  0.00     0.145 A 
HETATM   18  N7  UNL     1     -27.153  11.937  77.470  1.00  0.00    -0.174 N 
ATOM     19  H7  UNL     1     -26.814  12.138  76.528  1.00  0.00     0.186 HD
BRANCH  17  20
HETATM   20  N5  UNL     1     -28.798  13.676  77.173  1.00  0.00    -0.250 N 
HETATM   21  C10 UNL     1     -30.090  13.727  76.805  1.00  0.00     0.120 A 
HETATM   22  C11 UNL     1     -30.312  14.872  76.048  1.00  0.00     0.048 A 
HETATM   23  C12 UNL     1     -29.086  15.493  75.989  1.00  0.00     0.051 A 
HETATM   24  N6  UNL     1     -28.201  14.725  76.689  1.00  0.00    -0.295 N 
ATOM     25  H6  UNL     1     -27.213  14.943  76.815  1.00  0.00     0.187 HD
BRANCH  23  26
HETATM   26  C13 UNL     1     -28.724  16.773  75.304  1.00  0.00     0.222 C 
BRANCH  26  27
HETATM   27  O1  UNL     1     -29.641  17.736  75.705  1.00  0.00    -0.395 OA
ATOM     28  H1  UNL     1     -30.396  17.282  76.062  1.00  0.00     0.209 HD
ENDBRANCH  26  27
ENDBRANCH  23  26
ENDBRANCH  17  20
ENDBRANCH   9  11
ENDBRANCH   6   9
TORSDOF 5
ENDMDL
