MODEL 2
REMARK VINA RESULT: -8.972380639      1.498      1.656
REMARK  5 active torsions:
REMARK  status: ('A' for Active; 'I' for Inactive)
REMARK    1  A    between atoms: C5_6  and  N2_7 
REMARK    2  A    between atoms: N2_7  and  C6_9 
REMARK    3  A    between atoms: C9_15  and  N5_16 
REMARK    4  A    between atoms: C12_19  and  C13_20 
REMARK    5  A    between atoms: C13_20  and  O1_21 
ROOT
HETATM    1  N1  UNL     1     -20.422   9.617  80.967  1.00  0.00    -0.191 NA
HETATM    2  C1  UNL     1     -21.392   9.746  80.347  1.00  0.00     0.099 C 
HETATM    3  C2  UNL     1     -22.614   9.884  79.572  1.00  0.00     0.044 A 
HETATM    4  C3  UNL     1     -23.281  11.089  79.578  1.00  0.00     0.025 A 
HETATM    5  C4  UNL     1     -24.463  11.261  78.842  1.00  0.00     0.031 A 
HETATM    6  C5  UNL     1     -24.965  10.215  78.103  1.00  0.00     0.049 A 
HETATM    7  C14 UNL     1     -24.257   9.000  78.121  1.00  0.00     0.031 A 
HETATM    8  C15 UNL     1     -23.102   8.825  78.838  1.00  0.00     0.025 A 
ENDROOT
BRANCH   6   9
HETATM    9  N2  UNL     1     -26.134  10.269  77.332  1.00  0.00    -0.192 N 
ATOM     10  H2  UNL     1     -26.063   9.950  76.366  1.00  0.00     0.184 HD
BRANCH   9  11
HETATM   11  C6  UNL     1     -27.398  10.722  77.762  1.00  0.00     0.685 A 
HETATM   12  N3  UNL     1     -28.211  10.063  78.597  1.00  0.00    -0.178 N 
HETATM   13  C7  UNL     1     -29.407  10.481  79.009  1.00  0.00     0.135 A 
ATOM     14  H3  UNL     1     -27.887   9.162  78.948  1.00  0.00     0.185 HD
HETATM   15  N4  UNL     1     -30.234   9.738  79.900  1.00  0.00    -0.082 NA
HETATM   16  C8  UNL     1     -29.822  11.716  78.513  1.00  0.00     0.096 A 
HETATM   17  C9  UNL     1     -29.026  12.443  77.649  1.00  0.00     0.145 A 
HETATM   18  N7  UNL     1     -27.836  11.942  77.287  1.00  0.00    -0.174 N 
ATOM     19  H7  UNL     1     -27.243  12.473  76.649  1.00  0.00     0.186 HD
BRANCH  17  20
HETATM   20  N5  UNL     1     -29.462  13.716  77.142  1.00  0.00    -0.250 N 
HETATM   21  C10 UNL     1     -30.681  14.259  77.305  1.00  0.00     0.120 A 
HETATM   22  C11 UNL     1     -30.727  15.497  76.672  1.00  0.00     0.048 A 
HETATM   23  C12 UNL     1     -29.473  15.655  76.127  1.00  0.00     0.051 A 
HETATM   24  N6  UNL     1     -28.745  14.544  76.442  1.00  0.00    -0.295 N 
ATOM     25  H6  UNL     1     -27.775  14.386  76.168  1.00  0.00     0.187 HD
BRANCH  23  26
HETATM   26  C13 UNL     1     -28.945  16.805  75.329  1.00  0.00     0.222 C 
BRANCH  26  27
HETATM   27  O1  UNL     1     -29.568  17.956  75.792  1.00  0.00    -0.395 OA
ATOM     28  H1  UNL     1     -29.009  18.692  75.573  1.00  0.00     0.209 HD
ENDBRANCH  26  27
ENDBRANCH  23  26
ENDBRANCH  17  20
ENDBRANCH   9  11
ENDBRANCH   6   9
TORSDOF 5
ENDMDL
