MODEL 3
REMARK VINA RESULT: -6.811866200      2.074      6.436
REMARK  8 active torsions:
REMARK  status: ('A' for Active; 'I' for Inactive)
REMARK       I    between atoms: C2_2  and  N1_4 
REMARK    1  A    between atoms: N1_4  and  C3_6 
REMARK    2  A    between atoms: N2_8  and  O2_10 
REMARK    3  A    between atoms: O2_10  and  C5_11 
REMARK       I    between atoms: C5_11  and  N3_13 
REMARK    4  A    between atoms: N3_13  and  C6_15 
REMARK    5  A    between atoms: C12_22  and  C13_23 
REMARK    6  A    between atoms: C13_23  and  O5_24 
REMARK    7  A    between atoms: C14_26  and  O6_27 
REMARK    8  A    between atoms: C15_29  and  O7_30 
ROOT
HETATM    1  C3  UNL     1       7.726  -1.555  53.999  1.00  0.00     0.192 C 
HETATM    2  C4  UNL     1       8.835  -2.277  53.330  1.00  0.00     0.165 C 
HETATM    3  N2  UNL     1       9.057  -2.049  52.085  1.00  0.00    -0.236 N 
ATOM      4  H2  UNL     1       8.456  -1.376  51.609  1.00  0.00     0.197 HD
HETATM    5  O4  UNL     1       9.566  -3.153  54.075  1.00  0.00    -0.326 OA
HETATM    6  C12 UNL     1       9.266  -3.575  55.377  1.00  0.00     0.185 C 
HETATM    7  C14 UNL     1       7.902  -3.249  55.849  1.00  0.00     0.180 C 
HETATM    8  C15 UNL     1       7.018  -2.564  54.877  1.00  0.00     0.180 C 
ENDROOT
BRANCH   1   9
HETATM    9  N1  UNL     1       8.238  -0.520  54.898  1.00  0.00    -0.347 N 
HETATM   10  C2  UNL     1       7.650   0.761  55.008  1.00  0.00     0.214 C 
HETATM   11  C1  UNL     1       8.142   1.827  55.905  1.00  0.00     0.117 C 
HETATM   12  O1  UNL     1       6.630   0.977  54.269  1.00  0.00    -0.274 OA
ATOM     13  H1  UNL     1       9.054  -0.733  55.471  1.00  0.00     0.163 HD
ENDBRANCH   1   9
BRANCH   3  14
HETATM   14  O2  UNL     1      10.041  -2.647  51.363  1.00  0.00    -0.179 OA
BRANCH  14  15
HETATM   15  C5  UNL     1       9.840  -4.010  51.013  1.00  0.00     0.387 C 
HETATM   16  O3  UNL     1      10.853  -4.736  50.900  1.00  0.00    -0.236 OA
HETATM   17  N3  UNL     1       8.552  -4.487  50.812  1.00  0.00    -0.301 N 
ATOM     18  H3  UNL     1       7.786  -3.823  50.922  1.00  0.00     0.171 HD
BRANCH  17  19
HETATM   19  C6  UNL     1       8.216  -5.797  50.472  1.00  0.00     0.036 A 
HETATM   20  C7  UNL     1       7.988  -6.063  49.118  1.00  0.00     0.029 A 
HETATM   21  C8  UNL     1       7.640  -7.323  48.716  1.00  0.00     0.002 A 
HETATM   22  C9  UNL     1       7.513  -8.328  49.648  1.00  0.00     0.000 A 
HETATM   23  C10 UNL     1       7.734  -8.078  50.979  1.00  0.00     0.002 A 
HETATM   24  C11 UNL     1       8.091  -6.790  51.393  1.00  0.00     0.029 A 
ENDBRANCH  17  19
ENDBRANCH  14  15
ENDBRANCH   3  14
BRANCH   8  25
HETATM   25  O7  UNL     1       6.329  -3.432  54.045  1.00  0.00    -0.390 OA
ATOM     26  H7  UNL     1       6.639  -4.311  54.227  1.00  0.00     0.210 HD
ENDBRANCH   8  25
BRANCH   6  27
HETATM   27  C13 UNL     1       9.494  -5.092  55.403  1.00  0.00     0.199 C 
BRANCH  27  28
HETATM   28  O5  UNL     1       8.463  -5.767  54.784  1.00  0.00    -0.398 OA
ATOM     29  H5  UNL     1       8.256  -6.575  55.237  1.00  0.00     0.209 HD
ENDBRANCH  27  28
ENDBRANCH   6  27
BRANCH   7  30
HETATM   30  O6  UNL     1       8.023  -2.488  57.034  1.00  0.00    -0.390 OA
ATOM     31  H6  UNL     1       7.437  -1.744  56.964  1.00  0.00     0.210 HD
ENDBRANCH   7  30
TORSDOF 8
ENDMDL
