MODEL 1
REMARK VINA RESULT: -7.397117261      0.000      0.000
REMARK  8 active torsions:
REMARK  status: ('A' for Active; 'I' for Inactive)
REMARK       I    between atoms: C2_2  and  N1_4 
REMARK    1  A    between atoms: N1_4  and  C3_6 
REMARK    2  A    between atoms: N2_8  and  O2_10 
REMARK    3  A    between atoms: O2_10  and  C5_11 
REMARK       I    between atoms: C5_11  and  N3_13 
REMARK    4  A    between atoms: N3_13  and  C6_15 
REMARK    5  A    between atoms: C12_22  and  C13_23 
REMARK    6  A    between atoms: C13_23  and  O5_24 
REMARK    7  A    between atoms: C14_26  and  O6_27 
REMARK    8  A    between atoms: C15_29  and  O7_30 
ROOT
HETATM    1  C3  UNL     1       8.148  -5.566  52.405  1.00  0.00     0.192 C 
HETATM    2  C4  UNL     1       8.936  -4.350  52.094  1.00  0.00     0.165 C 
HETATM    3  N2  UNL     1       8.310  -3.262  51.821  1.00  0.00    -0.236 N 
ATOM      4  H2  UNL     1       7.290  -3.283  51.831  1.00  0.00     0.197 HD
HETATM    5  O4  UNL     1      10.295  -4.449  52.112  1.00  0.00    -0.326 OA
HETATM    6  C12 UNL     1      11.032  -5.636  52.226  1.00  0.00     0.185 C 
HETATM    7  C14 UNL     1      10.257  -6.881  52.028  1.00  0.00     0.180 C 
HETATM    8  C15 UNL     1       8.824  -6.717  51.691  1.00  0.00     0.180 C 
ENDROOT
BRANCH   1   9
HETATM    9  N1  UNL     1       8.208  -5.881  53.833  1.00  0.00    -0.347 N 
HETATM   10  C2  UNL     1       7.590  -5.082  54.822  1.00  0.00     0.214 C 
HETATM   11  C1  UNL     1       7.631  -5.371  56.271  1.00  0.00     0.117 C 
HETATM   12  O1  UNL     1       6.964  -4.050  54.401  1.00  0.00    -0.274 OA
ATOM     13  H1  UNL     1       8.717  -6.714  54.128  1.00  0.00     0.163 HD
ENDBRANCH   1   9
BRANCH   3  14
HETATM   14  O2  UNL     1       8.919  -2.084  51.520  1.00  0.00    -0.179 OA
BRANCH  14  15
HETATM   15  C5  UNL     1       8.456  -0.931  52.210  1.00  0.00     0.387 C 
HETATM   16  O3  UNL     1       8.613   0.179  51.654  1.00  0.00    -0.236 OA
HETATM   17  N3  UNL     1       7.856  -1.066  53.454  1.00  0.00    -0.301 N 
ATOM     18  H3  UNL     1       7.773  -2.009  53.832  1.00  0.00     0.171 HD
BRANCH  17  19
HETATM   19  C6  UNL     1       7.356  -0.021  54.231  1.00  0.00     0.036 A 
HETATM   20  C7  UNL     1       8.264   0.646  55.057  1.00  0.00     0.029 A 
HETATM   21  C8  UNL     1       7.838   1.671  55.858  1.00  0.00     0.002 A 
HETATM   22  C9  UNL     1       6.513   2.041  55.848  1.00  0.00     0.000 A 
HETATM   23  C10 UNL     1       5.613   1.393  55.041  1.00  0.00     0.002 A 
HETATM   24  C11 UNL     1       6.046   0.345  54.220  1.00  0.00     0.029 A 
ENDBRANCH  17  19
ENDBRANCH  14  15
ENDBRANCH   3  14
BRANCH   8  25
HETATM   25  O7  UNL     1       8.586  -6.565  50.334  1.00  0.00    -0.390 OA
ATOM     26  H7  UNL     1       9.131  -7.194  49.876  1.00  0.00     0.210 HD
ENDBRANCH   8  25
BRANCH   6  27
HETATM   27  C13 UNL     1      12.167  -5.541  51.199  1.00  0.00     0.199 C 
BRANCH  27  28
HETATM   28  O5  UNL     1      11.682  -5.569  49.908  1.00  0.00    -0.398 OA
ATOM     29  H5  UNL     1      12.174  -6.173  49.365  1.00  0.00     0.209 HD
ENDBRANCH  27  28
ENDBRANCH   6  27
BRANCH   7  30
HETATM   30  O6  UNL     1      10.408  -7.676  53.188  1.00  0.00    -0.390 OA
ATOM     31  H6  UNL     1       9.733  -8.343  53.175  1.00  0.00     0.210 HD
ENDBRANCH   7  30
TORSDOF 8
ENDMDL
