MODEL 4
REMARK VINA RESULT: -6.786602694      1.861      3.188
REMARK  8 active torsions:
REMARK  status: ('A' for Active; 'I' for Inactive)
REMARK       I    between atoms: C2_2  and  N1_4 
REMARK    1  A    between atoms: N1_4  and  C3_6 
REMARK    2  A    between atoms: N2_8  and  O2_10 
REMARK    3  A    between atoms: O2_10  and  C5_11 
REMARK       I    between atoms: C5_11  and  N3_13 
REMARK    4  A    between atoms: N3_13  and  C6_15 
REMARK    5  A    between atoms: C12_22  and  C13_23 
REMARK    6  A    between atoms: C13_23  and  O5_24 
REMARK    7  A    between atoms: C14_26  and  O6_27 
REMARK    8  A    between atoms: C15_29  and  O7_30 
ROOT
HETATM    1  C3  UNL     1      10.549  -5.320  52.874  1.00  0.00     0.192 C 
HETATM    2  C4  UNL     1       9.259  -4.610  52.698  1.00  0.00     0.165 C 
HETATM    3  N2  UNL     1       8.560  -4.333  53.740  1.00  0.00    -0.236 N 
ATOM      4  H2  UNL     1       8.926  -4.616  54.649  1.00  0.00     0.197 HD
HETATM    5  O4  UNL     1       8.878  -4.285  51.431  1.00  0.00    -0.326 OA
HETATM    6  C12 UNL     1       9.502  -4.711  50.250  1.00  0.00     0.185 C 
HETATM    7  C14 UNL     1      10.471  -5.818  50.411  1.00  0.00     0.180 C 
HETATM    8  C15 UNL     1      10.623  -6.363  51.780  1.00  0.00     0.180 C 
ENDROOT
BRANCH   1   9
HETATM    9  N1  UNL     1      11.681  -4.419  52.656  1.00  0.00    -0.347 N 
HETATM   10  C2  UNL     1      12.692  -4.208  53.621  1.00  0.00     0.214 C 
HETATM   11  C1  UNL     1      13.848  -3.306  53.432  1.00  0.00     0.117 C 
HETATM   12  O1  UNL     1      12.568  -4.856  54.715  1.00  0.00    -0.274 OA
ATOM     13  H1  UNL     1      11.743  -3.921  51.768  1.00  0.00     0.163 HD
ENDBRANCH   1   9
BRANCH   3  14
HETATM   14  O2  UNL     1       7.365  -3.687  53.709  1.00  0.00    -0.179 OA
BRANCH  14  15
HETATM   15  C5  UNL     1       7.255  -2.507  54.494  1.00  0.00     0.387 C 
HETATM   16  O3  UNL     1       7.345  -2.628  55.737  1.00  0.00    -0.236 OA
HETATM   17  N3  UNL     1       7.056  -1.282  53.874  1.00  0.00    -0.301 N 
ATOM     18  H3  UNL     1       6.992  -1.279  52.856  1.00  0.00     0.171 HD
BRANCH  17  19
HETATM   19  C6  UNL     1       6.937  -0.054  54.524  1.00  0.00     0.036 A 
HETATM   20  C7  UNL     1       8.110   0.513  55.031  1.00  0.00     0.029 A 
HETATM   21  C8  UNL     1       8.064   1.709  55.694  1.00  0.00     0.002 A 
HETATM   22  C9  UNL     1       6.859   2.352  55.861  1.00  0.00     0.000 A 
HETATM   23  C10 UNL     1       5.701   1.805  55.367  1.00  0.00     0.002 A 
HETATM   24  C11 UNL     1       5.746   0.582  54.688  1.00  0.00     0.029 A 
ENDBRANCH  17  19
ENDBRANCH  14  15
ENDBRANCH   3  14
BRANCH   8  25
HETATM   25  O7  UNL     1       9.708  -7.358  52.087  1.00  0.00    -0.390 OA
ATOM     26  H7  UNL     1       9.825  -7.583  53.002  1.00  0.00     0.210 HD
ENDBRANCH   8  25
BRANCH   6  27
HETATM   27  C13 UNL     1       8.377  -5.117  49.289  1.00  0.00     0.199 C 
BRANCH  27  28
HETATM   28  O5  UNL     1       8.783  -6.121  48.435  1.00  0.00    -0.398 OA
ATOM     29  H5  UNL     1       8.381  -6.952  48.660  1.00  0.00     0.209 HD
ENDBRANCH  27  28
ENDBRANCH   6  27
BRANCH   7  30
HETATM   30  O6  UNL     1      11.717  -5.380  49.907  1.00  0.00    -0.390 OA
ATOM     31  H6  UNL     1      12.164  -6.134  49.539  1.00  0.00     0.210 HD
ENDBRANCH   7  30
TORSDOF 8
ENDMDL
