MODEL 11
REMARK VINA RESULT: -7.301939208      4.908      6.439
REMARK  8 active torsions:
REMARK  status: ('A' for Active; 'I' for Inactive)
REMARK    1  A    between atoms: C4_4  and  C5_5 
REMARK    2  A    between atoms: C5_5  and  C6_6 
REMARK    3  A    between atoms: C6_6  and  C7_7 
REMARK    4  A    between atoms: C9_9  and  C10_11 
REMARK    5  A    between atoms: C10_11  and  O1_12 
REMARK    6  A    between atoms: O1_12  and  P1_13 
REMARK    7  A    between atoms: P1_13  and  O4_16 
REMARK    8  A    between atoms: O4_16  and  P2_17 
ROOT
HETATM    1  C7  UNL     1      -8.106  12.520 -18.296  1.00  0.00    -0.047 C 
HETATM    2  C8  UNL     1      -8.389  13.817 -19.001  1.00  0.00     0.046 C 
HETATM    3  C9  UNL     1      -7.195  11.689 -18.767  1.00  0.00     0.120 C 
HETATM    4  F1  UNL     1      -6.906  10.506 -18.166  1.00  0.00    -0.208 F 
ENDROOT
BRANCH   3   5
HETATM    5  C10 UNL     1      -6.470  12.105 -20.023  1.00  0.00     0.251 C 
BRANCH   5   6
HETATM    6  O1  UNL     1      -5.108  12.185 -19.745  1.00  0.00    -0.283 OA
BRANCH   6   7
HETATM    7  P1  UNL     1      -4.344  13.365 -20.662  1.00  0.00     0.418 P 
HETATM    8  O2  UNL     1      -3.959  12.847 -22.034  1.00  0.00    -0.624 OA
HETATM    9  O3  UNL     1      -5.413  14.678 -20.844  1.00  0.00    -0.624 OA
BRANCH   7  10
HETATM   10  O4  UNL     1      -2.972  13.928 -19.859  1.00  0.00    -0.173 OA
BRANCH  10  11
HETATM   11  P2  UNL     1      -3.334  14.909 -18.558  1.00  0.00     0.431 P 
HETATM   12  O5  UNL     1      -2.282  14.812 -17.456  1.00  0.00    -0.616 OA
HETATM   13  O6  UNL     1      -4.818  14.493 -17.872  1.00  0.00    -0.616 OA
HETATM   14  O7  UNL     1      -3.436  16.509 -19.093  1.00  0.00    -0.616 OA
ENDBRANCH  10  11
ENDBRANCH   7  10
ENDBRANCH   6   7
ENDBRANCH   5   6
ENDBRANCH   3   5
BRANCH   1  15
HETATM   15  C6  UNL     1      -8.909  12.255 -17.065  1.00  0.00     0.040 C 
BRANCH  15  16
HETATM   16  C5  UNL     1      -8.209  12.393 -15.787  1.00  0.00     0.032 C 
BRANCH  16  17
HETATM   17  C4  UNL     1      -8.671  13.523 -14.974  1.00  0.00    -0.024 C 
HETATM   18  C2  UNL     1      -8.433  14.802 -15.006  1.00  0.00    -0.091 C 
HETATM   19  C1  UNL     1      -7.570  15.552 -15.928  1.00  0.00     0.042 C 
HETATM   20  C3  UNL     1      -9.163  15.625 -13.921  1.00  0.00     0.042 C 
ENDBRANCH  16  17
ENDBRANCH  15  16
ENDBRANCH   1  15
TORSDOF 8
ENDMDL
