MODEL 2
REMARK VINA RESULT: -7.874358703      0.747      1.411
REMARK  8 active torsions:
REMARK  status: ('A' for Active; 'I' for Inactive)
REMARK    1  A    between atoms: C4_4  and  C5_5 
REMARK    2  A    between atoms: C5_5  and  C6_6 
REMARK    3  A    between atoms: C6_6  and  C7_7 
REMARK    4  A    between atoms: C9_9  and  C10_11 
REMARK    5  A    between atoms: C10_11  and  O1_12 
REMARK    6  A    between atoms: O1_12  and  P1_13 
REMARK    7  A    between atoms: P1_13  and  O4_16 
REMARK    8  A    between atoms: O4_16  and  P2_17 
ROOT
HETATM    1  C7  UNL     1      -8.451  14.458 -18.697  1.00  0.00    -0.047 C 
HETATM    2  C8  UNL     1      -9.637  15.256 -19.160  1.00  0.00     0.046 C 
HETATM    3  C9  UNL     1      -8.505  13.140 -18.664  1.00  0.00     0.120 C 
HETATM    4  F1  UNL     1      -7.460  12.376 -18.251  1.00  0.00    -0.208 F 
ENDROOT
BRANCH   3   5
HETATM    5  C10 UNL     1      -9.794  12.494 -19.108  1.00  0.00     0.251 C 
BRANCH   5   6
HETATM    6  O1  UNL     1      -9.619  11.990 -20.395  1.00  0.00    -0.283 OA
BRANCH   6   7
HETATM    7  P1  UNL     1     -10.639  10.695 -20.710  1.00  0.00     0.418 P 
HETATM    8  O2  UNL     1     -10.579   9.653 -19.609  1.00  0.00    -0.624 OA
HETATM    9  O3  UNL     1     -12.232  11.284 -20.831  1.00  0.00    -0.624 OA
BRANCH   7  10
HETATM   10  O4  UNL     1     -10.241   9.987 -22.188  1.00  0.00    -0.173 OA
BRANCH  10  11
HETATM   11  P2  UNL     1     -11.574   9.434 -23.028  1.00  0.00     0.431 P 
HETATM   12  O5  UNL     1     -12.569   8.720 -22.118  1.00  0.00    -0.616 OA
HETATM   13  O6  UNL     1     -11.127   8.343 -24.235  1.00  0.00    -0.616 OA
HETATM   14  O7  UNL     1     -12.336  10.749 -23.767  1.00  0.00    -0.616 OA
ENDBRANCH  10  11
ENDBRANCH   7  10
ENDBRANCH   6   7
ENDBRANCH   5   6
ENDBRANCH   3   5
BRANCH   1  15
HETATM   15  C6  UNL     1      -7.249  15.246 -18.290  1.00  0.00     0.040 C 
BRANCH  15  16
HETATM   16  C5  UNL     1      -6.775  15.053 -16.918  1.00  0.00     0.032 C 
BRANCH  16  17
HETATM   17  C4  UNL     1      -7.772  15.375 -15.893  1.00  0.00    -0.024 C 
HETATM   18  C2  UNL     1      -8.456  14.652 -15.054  1.00  0.00    -0.091 C 
HETATM   19  C1  UNL     1      -8.435  13.195 -14.868  1.00  0.00     0.042 C 
HETATM   20  C3  UNL     1      -9.413  15.451 -14.140  1.00  0.00     0.042 C 
ENDBRANCH  16  17
ENDBRANCH  15  16
ENDBRANCH   1  15
TORSDOF 8
ENDMDL
