MODEL 1
REMARK VINA RESULT: -7.908615505      0.000      0.000
REMARK  8 active torsions:
REMARK  status: ('A' for Active; 'I' for Inactive)
REMARK    1  A    between atoms: C4_4  and  C5_5 
REMARK    2  A    between atoms: C5_5  and  C6_6 
REMARK    3  A    between atoms: C6_6  and  C7_7 
REMARK    4  A    between atoms: C9_9  and  C10_11 
REMARK    5  A    between atoms: C10_11  and  O1_12 
REMARK    6  A    between atoms: O1_12  and  P1_13 
REMARK    7  A    between atoms: P1_13  and  O4_16 
REMARK    8  A    between atoms: O4_16  and  P2_17 
ROOT
HETATM    1  C7  UNL     1      -8.895  13.710 -18.475  1.00  0.00    -0.047 C 
HETATM    2  C8  UNL     1     -10.359  14.049 -18.467  1.00  0.00     0.046 C 
HETATM    3  C9  UNL     1      -8.502  12.451 -18.519  1.00  0.00     0.120 C 
HETATM    4  F1  UNL     1      -7.192  12.095 -18.527  1.00  0.00    -0.208 F 
ENDROOT
BRANCH   3   5
HETATM    5  C10 UNL     1      -9.581  11.396 -18.560  1.00  0.00     0.251 C 
BRANCH   5   6
HETATM    6  O1  UNL     1      -9.349  10.565 -19.654  1.00  0.00    -0.283 OA
BRANCH   6   7
HETATM    7  P1  UNL     1     -10.425  10.860 -20.909  1.00  0.00     0.418 P 
HETATM    8  O2  UNL     1     -11.864  10.835 -20.430  1.00  0.00    -0.624 OA
HETATM    9  O3  UNL     1     -10.082  12.395 -21.560  1.00  0.00    -0.624 OA
BRANCH   7  10
HETATM   10  O4  UNL     1     -10.212   9.722 -22.135  1.00  0.00    -0.173 OA
BRANCH  10  11
HETATM   11  P2  UNL     1     -11.596   9.465 -23.034  1.00  0.00     0.431 P 
HETATM   12  O5  UNL     1     -12.209  10.771 -23.530  1.00  0.00    -0.616 OA
HETATM   13  O6  UNL     1     -12.776   8.669 -22.127  1.00  0.00    -0.616 OA
HETATM   14  O7  UNL     1     -11.211   8.490 -24.360  1.00  0.00    -0.616 OA
ENDBRANCH  10  11
ENDBRANCH   7  10
ENDBRANCH   6   7
ENDBRANCH   5   6
ENDBRANCH   3   5
BRANCH   1  15
HETATM   15  C6  UNL     1      -7.953  14.868 -18.431  1.00  0.00     0.040 C 
BRANCH  15  16
HETATM   16  C5  UNL     1      -7.150  15.012 -17.215  1.00  0.00     0.032 C 
BRANCH  16  17
HETATM   17  C4  UNL     1      -7.928  15.380 -16.028  1.00  0.00    -0.024 C 
HETATM   18  C2  UNL     1      -8.436  14.696 -15.045  1.00  0.00    -0.091 C 
HETATM   19  C1  UNL     1      -8.383  13.246 -14.812  1.00  0.00     0.042 C 
HETATM   20  C3  UNL     1      -9.196  15.536 -13.994  1.00  0.00     0.042 C 
ENDBRANCH  16  17
ENDBRANCH  15  16
ENDBRANCH   1  15
TORSDOF 8
ENDMDL
