MODEL 6
REMARK VINA RESULT: -7.715231715      1.333      1.805
REMARK  8 active torsions:
REMARK  status: ('A' for Active; 'I' for Inactive)
REMARK    1  A    between atoms: C4_4  and  C5_5 
REMARK    2  A    between atoms: C5_5  and  C6_6 
REMARK    3  A    between atoms: C6_6  and  C7_7 
REMARK    4  A    between atoms: C9_9  and  C10_11 
REMARK    5  A    between atoms: C10_11  and  O1_12 
REMARK    6  A    between atoms: O1_12  and  P1_13 
REMARK    7  A    between atoms: P1_13  and  O4_16 
REMARK    8  A    between atoms: O4_16  and  P2_17 
ROOT
HETATM    1  C7  UNL     1      -8.381  13.795 -18.828  1.00  0.00    -0.047 C 
HETATM    2  C8  UNL     1      -7.655  12.518 -18.513  1.00  0.00     0.046 C 
HETATM    3  C9  UNL     1      -9.551  13.764 -19.437  1.00  0.00     0.120 C 
HETATM    4  F1  UNL     1     -10.244  14.891 -19.744  1.00  0.00    -0.208 F 
ENDROOT
BRANCH   3   5
HETATM    5  C10 UNL     1     -10.106  12.406 -19.790  1.00  0.00     0.251 C 
BRANCH   5   6
HETATM    6  O1  UNL     1     -10.465  12.408 -21.136  1.00  0.00    -0.283 OA
BRANCH   6   7
HETATM    7  P1  UNL     1      -9.771  11.132 -21.977  1.00  0.00     0.418 P 
HETATM    8  O2  UNL     1      -9.602  11.456 -23.448  1.00  0.00    -0.624 OA
HETATM    9  O3  UNL     1      -8.242  10.812 -21.299  1.00  0.00    -0.624 OA
BRANCH   7  10
HETATM   10  O4  UNL     1     -10.710   9.742 -21.802  1.00  0.00    -0.173 OA
BRANCH  10  11
HETATM   11  P2  UNL     1     -11.789   9.521 -23.058  1.00  0.00     0.431 P 
HETATM   12  O5  UNL     1     -12.267  10.847 -23.643  1.00  0.00    -0.616 OA
HETATM   13  O6  UNL     1     -13.157   8.676 -22.548  1.00  0.00    -0.616 OA
HETATM   14  O7  UNL     1     -11.036   8.616 -24.270  1.00  0.00    -0.616 OA
ENDBRANCH  10  11
ENDBRANCH   7  10
ENDBRANCH   6   7
ENDBRANCH   5   6
ENDBRANCH   3   5
BRANCH   1  15
HETATM   15  C6  UNL     1      -7.698  15.057 -18.413  1.00  0.00     0.040 C 
BRANCH  15  16
HETATM   16  C5  UNL     1      -6.994  15.027 -17.130  1.00  0.00     0.032 C 
BRANCH  16  17
HETATM   17  C4  UNL     1      -7.837  15.366 -15.979  1.00  0.00    -0.024 C 
HETATM   18  C2  UNL     1      -8.421  14.655 -15.059  1.00  0.00    -0.091 C 
HETATM   19  C1  UNL     1      -8.412  13.197 -14.883  1.00  0.00     0.042 C 
HETATM   20  C3  UNL     1      -9.227  15.470 -14.024  1.00  0.00     0.042 C 
ENDBRANCH  16  17
ENDBRANCH  15  16
ENDBRANCH   1  15
TORSDOF 8
ENDMDL
