MODEL 4
REMARK VINA RESULT: -7.748257137      0.628      1.363
REMARK  8 active torsions:
REMARK  status: ('A' for Active; 'I' for Inactive)
REMARK    1  A    between atoms: C4_4  and  C5_5 
REMARK    2  A    between atoms: C5_5  and  C6_6 
REMARK    3  A    between atoms: C6_6  and  C7_7 
REMARK    4  A    between atoms: C9_9  and  C10_11 
REMARK    5  A    between atoms: C10_11  and  O1_12 
REMARK    6  A    between atoms: O1_12  and  P1_13 
REMARK    7  A    between atoms: P1_13  and  O4_16 
REMARK    8  A    between atoms: O4_16  and  P2_17 
ROOT
HETATM    1  C7  UNL     1      -8.646  13.714 -18.593  1.00  0.00    -0.047 C 
HETATM    2  C8  UNL     1     -10.128  13.911 -18.440  1.00  0.00     0.046 C 
HETATM    3  C9  UNL     1      -8.158  12.522 -18.881  1.00  0.00     0.120 C 
HETATM    4  F1  UNL     1      -6.827  12.295 -19.028  1.00  0.00    -0.208 F 
ENDROOT
BRANCH   3   5
HETATM    5  C10 UNL     1      -9.148  11.395 -19.044  1.00  0.00     0.251 C 
BRANCH   5   6
HETATM    6  O1  UNL     1      -8.793  10.649 -20.165  1.00  0.00    -0.283 OA
BRANCH   6   7
HETATM    7  P1  UNL     1      -9.875  10.857 -21.431  1.00  0.00     0.418 P 
HETATM    8  O2  UNL     1     -10.428  12.269 -21.470  1.00  0.00    -0.624 OA
HETATM    9  O3  UNL     1      -9.059  10.540 -22.892  1.00  0.00    -0.624 OA
BRANCH   7  10
HETATM   10  O4  UNL     1     -11.142   9.752 -21.300  1.00  0.00    -0.173 OA
BRANCH  10  11
HETATM   11  P2  UNL     1     -11.877   9.425 -22.764  1.00  0.00     0.431 P 
HETATM   12  O5  UNL     1     -10.989   8.585 -23.677  1.00  0.00    -0.616 OA
HETATM   13  O6  UNL     1     -12.247  10.847 -23.594  1.00  0.00    -0.616 OA
HETATM   14  O7  UNL     1     -13.322   8.598 -22.475  1.00  0.00    -0.616 OA
ENDBRANCH  10  11
ENDBRANCH   7  10
ENDBRANCH   6   7
ENDBRANCH   5   6
ENDBRANCH   3   5
BRANCH   1  15
HETATM   15  C6  UNL     1      -7.800  14.929 -18.401  1.00  0.00     0.040 C 
BRANCH  15  16
HETATM   16  C5  UNL     1      -7.052  15.013 -17.145  1.00  0.00     0.032 C 
BRANCH  16  17
HETATM   17  C4  UNL     1      -7.883  15.325 -15.977  1.00  0.00    -0.024 C 
HETATM   18  C2  UNL     1      -8.414  14.597 -15.039  1.00  0.00    -0.091 C 
HETATM   19  C1  UNL     1      -8.340  13.142 -14.853  1.00  0.00     0.042 C 
HETATM   20  C3  UNL     1      -9.231  15.386 -13.991  1.00  0.00     0.042 C 
ENDBRANCH  16  17
ENDBRANCH  15  16
ENDBRANCH   1  15
TORSDOF 8
ENDMDL
