MODEL 14
REMARK VINA RESULT: -7.189609752      4.733      6.534
REMARK  8 active torsions:
REMARK  status: ('A' for Active; 'I' for Inactive)
REMARK    1  A    between atoms: C4_4  and  C5_5 
REMARK    2  A    between atoms: C5_5  and  C6_6 
REMARK    3  A    between atoms: C6_6  and  C7_7 
REMARK    4  A    between atoms: C9_9  and  C10_11 
REMARK    5  A    between atoms: C10_11  and  O1_12 
REMARK    6  A    between atoms: O1_12  and  P1_13 
REMARK    7  A    between atoms: P1_13  and  O4_16 
REMARK    8  A    between atoms: O4_16  and  P2_17 
ROOT
HETATM    1  C7  UNL     1      -8.204  11.998 -18.317  1.00  0.00    -0.047 C 
HETATM    2  C8  UNL     1      -7.352  10.783 -18.551  1.00  0.00     0.046 C 
HETATM    3  C9  UNL     1      -8.284  12.944 -19.234  1.00  0.00     0.120 C 
HETATM    4  F1  UNL     1      -9.039  14.060 -19.067  1.00  0.00    -0.208 F 
ENDROOT
BRANCH   3   5
HETATM    5  C10 UNL     1      -7.490  12.741 -20.501  1.00  0.00     0.251 C 
BRANCH   5   6
HETATM    6  O1  UNL     1      -6.822  13.925 -20.802  1.00  0.00    -0.283 OA
BRANCH   6   7
HETATM    7  P1  UNL     1      -5.220  13.891 -20.301  1.00  0.00     0.418 P 
HETATM    8  O2  UNL     1      -4.703  12.471 -20.171  1.00  0.00    -0.624 OA
HETATM    9  O3  UNL     1      -4.280  14.722 -21.453  1.00  0.00    -0.624 OA
BRANCH   7  10
HETATM   10  O4  UNL     1      -5.055  14.695 -18.828  1.00  0.00    -0.173 OA
BRANCH  10  11
HETATM   11  P2  UNL     1      -3.512  15.281 -18.573  1.00  0.00     0.431 P 
HETATM   12  O5  UNL     1      -2.445  14.364 -19.165  1.00  0.00    -0.616 OA
HETATM   13  O6  UNL     1      -3.181  15.437 -16.925  1.00  0.00    -0.616 OA
HETATM   14  O7  UNL     1      -3.387  16.811 -19.278  1.00  0.00    -0.616 OA
ENDBRANCH  10  11
ENDBRANCH   7  10
ENDBRANCH   6   7
ENDBRANCH   5   6
ENDBRANCH   3   5
BRANCH   1  15
HETATM   15  C6  UNL     1      -8.927  12.050 -17.012  1.00  0.00     0.040 C 
BRANCH  15  16
HETATM   16  C5  UNL     1      -8.116  12.332 -15.826  1.00  0.00     0.032 C 
BRANCH  16  17
HETATM   17  C4  UNL     1      -8.522  13.539 -15.100  1.00  0.00    -0.024 C 
HETATM   18  C2  UNL     1      -8.306  14.809 -15.286  1.00  0.00    -0.091 C 
HETATM   19  C1  UNL     1      -7.534  15.462 -16.351  1.00  0.00     0.042 C 
HETATM   20  C3  UNL     1      -8.952  15.738 -14.234  1.00  0.00     0.042 C 
ENDBRANCH  16  17
ENDBRANCH  15  16
ENDBRANCH   1  15
TORSDOF 8
ENDMDL
