MODEL 3
REMARK VINA RESULT: -7.851989505      1.247      1.760
REMARK  8 active torsions:
REMARK  status: ('A' for Active; 'I' for Inactive)
REMARK    1  A    between atoms: C4_4  and  C5_5 
REMARK    2  A    between atoms: C5_5  and  C6_6 
REMARK    3  A    between atoms: C6_6  and  C7_7 
REMARK    4  A    between atoms: C9_9  and  C10_11 
REMARK    5  A    between atoms: C10_11  and  O1_12 
REMARK    6  A    between atoms: O1_12  and  P1_13 
REMARK    7  A    between atoms: P1_13  and  O4_16 
REMARK    8  A    between atoms: O4_16  and  P2_17 
ROOT
HETATM    1  C7  UNL     1      -8.432  14.497 -19.412  1.00  0.00    -0.047 C 
HETATM    2  C8  UNL     1      -9.850  14.989 -19.339  1.00  0.00     0.046 C 
HETATM    3  C9  UNL     1      -8.135  13.421 -20.115  1.00  0.00     0.120 C 
HETATM    4  F1  UNL     1      -6.869  12.938 -20.210  1.00  0.00    -0.208 F 
ENDROOT
BRANCH   3   5
HETATM    5  C10 UNL     1      -9.272  12.729 -20.826  1.00  0.00     0.251 C 
BRANCH   5   6
HETATM    6  O1  UNL     1      -9.287  11.390 -20.441  1.00  0.00    -0.283 OA
BRANCH   6   7
HETATM    7  P1  UNL     1     -10.808  10.899 -19.926  1.00  0.00     0.418 P 
HETATM    8  O2  UNL     1     -10.806   9.451 -19.476  1.00  0.00    -0.624 OA
HETATM    9  O3  UNL     1     -11.276  11.887 -18.621  1.00  0.00    -0.624 OA
BRANCH   7  10
HETATM   10  O4  UNL     1     -11.936  11.111 -21.161  1.00  0.00    -0.173 OA
BRANCH  10  11
HETATM   11  P2  UNL     1     -11.732  10.037 -22.424  1.00  0.00     0.431 P 
HETATM   12  O5  UNL     1     -10.262   9.708 -22.665  1.00  0.00    -0.616 OA
HETATM   13  O6  UNL     1     -12.349  10.662 -23.865  1.00  0.00    -0.616 OA
HETATM   14  O7  UNL     1     -12.572   8.614 -22.070  1.00  0.00    -0.616 OA
ENDBRANCH  10  11
ENDBRANCH   7  10
ENDBRANCH   6   7
ENDBRANCH   5   6
ENDBRANCH   3   5
BRANCH   1  15
HETATM   15  C6  UNL     1      -7.422  15.294 -18.653  1.00  0.00     0.040 C 
BRANCH  15  16
HETATM   16  C5  UNL     1      -7.002  14.752 -17.359  1.00  0.00     0.032 C 
BRANCH  16  17
HETATM   17  C4  UNL     1      -7.803  15.226 -16.226  1.00  0.00    -0.024 C 
HETATM   18  C2  UNL     1      -8.386  14.624 -15.231  1.00  0.00    -0.091 C 
HETATM   19  C1  UNL     1      -8.422  13.189 -14.920  1.00  0.00     0.042 C 
HETATM   20  C3  UNL     1      -9.138  15.560 -14.258  1.00  0.00     0.042 C 
ENDBRANCH  16  17
ENDBRANCH  15  16
ENDBRANCH   1  15
TORSDOF 8
ENDMDL
