MODEL 8
REMARK VINA RESULT: -7.112592413      4.550      6.812
REMARK  9 active torsions:
REMARK  status: ('A' for Active; 'I' for Inactive)
REMARK    1  A    between atoms: C2_2  and  C4_4 
REMARK    2  A    between atoms: C4_4  and  C5_5 
REMARK    3  A    between atoms: C5_5  and  C6_6 
REMARK    4  A    between atoms: C6_6  and  C7_7 
REMARK    5  A    between atoms: C9_9  and  C10_11 
REMARK    6  A    between atoms: C10_11  and  O1_12 
REMARK    7  A    between atoms: O1_12  and  P1_13 
REMARK    8  A    between atoms: P1_13  and  O4_16 
REMARK    9  A    between atoms: O4_16  and  P2_17 
ROOT
HETATM    1  C7  UNL     1      -8.721  14.441 -16.157  1.00  0.00    -0.047 C 
HETATM    2  C8  UNL     1      -8.727  14.540 -14.656  1.00  0.00     0.046 C 
HETATM    3  C9  UNL     1      -7.842  15.118 -16.739  1.00  0.00     0.120 C 
HETATM    4  F1  UNL     1      -6.872  15.804 -15.875  1.00  0.00    -0.208 F 
ENDROOT
BRANCH   3   5
HETATM    5  C10 UNL     1      -7.477  15.417 -18.189  1.00  0.00     0.251 C 
BRANCH   5   6
HETATM    6  O1  UNL     1      -6.145  15.199 -18.067  1.00  0.00    -0.283 OA
BRANCH   6   7
HETATM    7  P1  UNL     1      -5.245  13.980 -18.335  1.00  0.00     0.418 P 
HETATM    8  O2  UNL     1      -6.050  13.508 -19.593  1.00  0.00    -0.624 OA
HETATM    9  O3  UNL     1      -5.791  12.578 -17.425  1.00  0.00    -0.624 OA
BRANCH   7  10
HETATM   10  O4  UNL     1      -3.856  13.684 -19.110  1.00  0.00    -0.173 OA
BRANCH  10  11
HETATM   11  P2  UNL     1      -2.632  14.547 -18.460  1.00  0.00     0.431 P 
HETATM   12  O5  UNL     1      -2.969  15.715 -19.373  1.00  0.00    -0.616 OA
HETATM   13  O6  UNL     1      -3.025  15.464 -17.147  1.00  0.00    -0.616 OA
HETATM   14  O7  UNL     1      -2.181  13.423 -17.522  1.00  0.00    -0.616 OA
ENDBRANCH  10  11
ENDBRANCH   7  10
ENDBRANCH   6   7
ENDBRANCH   5   6
ENDBRANCH   3   5
BRANCH   1  15
HETATM   15  C6  UNL     1      -9.732  13.805 -17.001  1.00  0.00     0.037 C 
BRANCH  15  16
HETATM   16  C5  UNL     1      -9.307  12.326 -17.322  1.00  0.00     0.005 C 
BRANCH  16  17
HETATM   17  C4  UNL     1      -9.530  12.194 -18.812  1.00  0.00     0.004 C 
BRANCH  17  18
HETATM   18  C2  UNL     1      -9.278  10.812 -19.206  1.00  0.00    -0.023 C 
HETATM   19  C1  UNL     1     -10.587  10.123 -19.609  1.00  0.00     0.009 C 
HETATM   20  C3  UNL     1      -7.958  10.325 -19.071  1.00  0.00     0.009 C 
ENDBRANCH  17  18
ENDBRANCH  16  17
ENDBRANCH  15  16
ENDBRANCH   1  15
TORSDOF 9
ENDMDL
