MODEL 12
REMARK VINA RESULT: -7.042777133      4.350      6.007
REMARK  9 active torsions:
REMARK  status: ('A' for Active; 'I' for Inactive)
REMARK    1  A    between atoms: C2_2  and  C4_4 
REMARK    2  A    between atoms: C4_4  and  C5_5 
REMARK    3  A    between atoms: C5_5  and  C6_6 
REMARK    4  A    between atoms: C6_6  and  C7_7 
REMARK    5  A    between atoms: C9_9  and  C10_11 
REMARK    6  A    between atoms: C10_11  and  O1_12 
REMARK    7  A    between atoms: O1_12  and  P1_13 
REMARK    8  A    between atoms: P1_13  and  O4_16 
REMARK    9  A    between atoms: O4_16  and  P2_17 
ROOT
HETATM    1  C7  UNL     1      -9.311  12.439 -19.312  1.00  0.00    -0.047 C 
HETATM    2  C8  UNL     1      -9.631  10.975 -19.443  1.00  0.00     0.046 C 
HETATM    3  C9  UNL     1      -8.290  12.825 -19.928  1.00  0.00     0.120 C 
HETATM    4  F1  UNL     1      -7.633  11.829 -20.786  1.00  0.00    -0.208 F 
ENDROOT
BRANCH   3   5
HETATM    5  C10 UNL     1      -7.519  14.135 -20.051  1.00  0.00     0.251 C 
BRANCH   5   6
HETATM    6  O1  UNL     1      -6.325  13.659 -19.622  1.00  0.00    -0.283 OA
BRANCH   6   7
HETATM    7  P1  UNL     1      -5.375  14.063 -18.481  1.00  0.00     0.418 P 
HETATM    8  O2  UNL     1      -5.994  13.062 -17.447  1.00  0.00    -0.624 OA
HETATM    9  O3  UNL     1      -6.012  15.432 -17.581  1.00  0.00    -0.624 OA
BRANCH   7  10
HETATM   10  O4  UNL     1      -3.889  13.662 -17.983  1.00  0.00    -0.173 OA
BRANCH  10  11
HETATM   11  P2  UNL     1      -2.774  14.683 -18.598  1.00  0.00     0.431 P 
HETATM   12  O5  UNL     1      -2.748  13.881 -19.889  1.00  0.00    -0.616 OA
HETATM   13  O6  UNL     1      -3.372  15.981 -19.420  1.00  0.00    -0.616 OA
HETATM   14  O7  UNL     1      -2.691  15.542 -17.331  1.00  0.00    -0.616 OA
ENDBRANCH  10  11
ENDBRANCH   7  10
ENDBRANCH   6   7
ENDBRANCH   5   6
ENDBRANCH   3   5
BRANCH   1  15
HETATM   15  C6  UNL     1      -9.937  13.399 -18.405  1.00  0.00     0.037 C 
BRANCH  15  16
HETATM   16  C5  UNL     1      -9.442  13.148 -16.935  1.00  0.00     0.005 C 
BRANCH  16  17
HETATM   17  C4  UNL     1      -9.114  14.530 -16.415  1.00  0.00     0.004 C 
BRANCH  17  18
HETATM   18  C2  UNL     1      -8.782  14.434 -14.998  1.00  0.00    -0.023 C 
HETATM   19  C1  UNL     1      -8.327  13.012 -14.649  1.00  0.00     0.009 C 
HETATM   20  C3  UNL     1      -9.011  15.575 -14.194  1.00  0.00     0.009 C 
ENDBRANCH  17  18
ENDBRANCH  16  17
ENDBRANCH  15  16
ENDBRANCH   1  15
TORSDOF 9
ENDMDL
