MODEL 7
REMARK VINA RESULT: -7.152050521      1.409      2.283
REMARK  9 active torsions:
REMARK  status: ('A' for Active; 'I' for Inactive)
REMARK    1  A    between atoms: C2_2  and  C4_4 
REMARK    2  A    between atoms: C4_4  and  C5_5 
REMARK    3  A    between atoms: C5_5  and  C6_6 
REMARK    4  A    between atoms: C6_6  and  C7_7 
REMARK    5  A    between atoms: C9_9  and  C10_11 
REMARK    6  A    between atoms: C10_11  and  O1_12 
REMARK    7  A    between atoms: O1_12  and  P1_13 
REMARK    8  A    between atoms: P1_13  and  O4_16 
REMARK    9  A    between atoms: O4_16  and  P2_17 
ROOT
HETATM    1  C7  UNL     1      -6.435  13.871 -18.687  1.00  0.00    -0.047 C 
HETATM    2  C8  UNL     1      -4.950  13.834 -18.925  1.00  0.00     0.046 C 
HETATM    3  C9  UNL     1      -7.053  12.820 -18.975  1.00  0.00     0.120 C 
HETATM    4  F1  UNL     1      -6.230  11.671 -19.378  1.00  0.00    -0.208 F 
ENDROOT
BRANCH   3   5
HETATM    5  C10 UNL     1      -8.515  12.384 -18.996  1.00  0.00     0.251 C 
BRANCH   5   6
HETATM    6  O1  UNL     1      -8.688  12.469 -20.337  1.00  0.00    -0.283 OA
BRANCH   6   7
HETATM    7  P1  UNL     1      -9.345  11.548 -21.379  1.00  0.00     0.418 P 
HETATM    8  O2  UNL     1      -7.997  10.884 -21.822  1.00  0.00    -0.624 OA
HETATM    9  O3  UNL     1      -9.492  12.354 -22.935  1.00  0.00    -0.624 OA
BRANCH   7  10
HETATM   10  O4  UNL     1     -10.065  10.099 -21.389  1.00  0.00    -0.173 OA
BRANCH  10  11
HETATM   11  P2  UNL     1     -11.432  10.134 -22.280  1.00  0.00     0.431 P 
HETATM   12  O5  UNL     1     -10.810   9.169 -23.276  1.00  0.00    -0.616 OA
HETATM   13  O6  UNL     1     -12.565   8.999 -21.893  1.00  0.00    -0.616 OA
HETATM   14  O7  UNL     1     -12.143  11.135 -21.363  1.00  0.00    -0.616 OA
ENDBRANCH  10  11
ENDBRANCH   7  10
ENDBRANCH   6   7
ENDBRANCH   5   6
ENDBRANCH   3   5
BRANCH   1  15
HETATM   15  C6  UNL     1      -7.243  15.041 -18.347  1.00  0.00     0.037 C 
BRANCH  15  16
HETATM   16  C5  UNL     1      -7.102  15.361 -16.814  1.00  0.00     0.005 C 
BRANCH  16  17
HETATM   17  C4  UNL     1      -8.530  15.517 -16.338  1.00  0.00     0.004 C 
BRANCH  17  18
HETATM   18  C2  UNL     1      -8.658  14.901 -15.022  1.00  0.00    -0.023 C 
HETATM   19  C1  UNL     1      -8.376  13.396 -15.105  1.00  0.00     0.009 C 
HETATM   20  C3  UNL     1      -9.091  15.723 -13.955  1.00  0.00     0.009 C 
ENDBRANCH  17  18
ENDBRANCH  16  17
ENDBRANCH  15  16
ENDBRANCH   1  15
TORSDOF 9
ENDMDL
