MODEL 2
REMARK VINA RESULT: -7.324126570      1.616      2.567
REMARK  9 active torsions:
REMARK  status: ('A' for Active; 'I' for Inactive)
REMARK    1  A    between atoms: C2_2  and  C4_4 
REMARK    2  A    between atoms: C4_4  and  C5_5 
REMARK    3  A    between atoms: C5_5  and  C6_6 
REMARK    4  A    between atoms: C6_6  and  C7_7 
REMARK    5  A    between atoms: C9_9  and  C10_11 
REMARK    6  A    between atoms: C10_11  and  O1_12 
REMARK    7  A    between atoms: O1_12  and  P1_13 
REMARK    8  A    between atoms: P1_13  and  O4_16 
REMARK    9  A    between atoms: O4_16  and  P2_17 
ROOT
HETATM    1  C7  UNL     1      -7.591  13.325 -18.040  1.00  0.00    -0.047 C 
HETATM    2  C8  UNL     1      -6.456  12.538 -17.444  1.00  0.00     0.046 C 
HETATM    3  C9  UNL     1      -8.488  12.645 -18.591  1.00  0.00     0.120 C 
HETATM    4  F1  UNL     1      -8.368  11.186 -18.465  1.00  0.00    -0.208 F 
ENDROOT
BRANCH   3   5
HETATM    5  C10 UNL     1      -9.756  12.948 -19.383  1.00  0.00     0.251 C 
BRANCH   5   6
HETATM    6  O1  UNL     1      -9.228  12.747 -20.615  1.00  0.00    -0.283 OA
BRANCH   6   7
HETATM    7  P1  UNL     1      -9.464  11.689 -21.707  1.00  0.00     0.418 P 
HETATM    8  O2  UNL     1      -7.978  11.197 -21.723  1.00  0.00    -0.624 OA
HETATM    9  O3  UNL     1      -9.281  12.385 -23.311  1.00  0.00    -0.624 OA
BRANCH   7  10
HETATM   10  O4  UNL     1      -9.976  10.156 -21.777  1.00  0.00    -0.173 OA
BRANCH  10  11
HETATM   11  P2  UNL     1     -11.483  10.073 -22.398  1.00  0.00     0.431 P 
HETATM   12  O5  UNL     1     -11.009   9.044 -23.413  1.00  0.00    -0.616 OA
HETATM   13  O6  UNL     1     -12.473   8.943 -21.719  1.00  0.00    -0.616 OA
HETATM   14  O7  UNL     1     -12.059  11.128 -21.449  1.00  0.00    -0.616 OA
ENDBRANCH  10  11
ENDBRANCH   7  10
ENDBRANCH   6   7
ENDBRANCH   5   6
ENDBRANCH   3   5
BRANCH   1  15
HETATM   15  C6  UNL     1      -7.662  14.775 -18.213  1.00  0.00     0.037 C 
BRANCH  15  16
HETATM   16  C5  UNL     1      -8.610  15.398 -17.124  1.00  0.00     0.005 C 
BRANCH  16  17
HETATM   17  C4  UNL     1      -7.768  15.412 -15.867  1.00  0.00     0.004 C 
BRANCH  17  18
HETATM   18  C2  UNL     1      -8.544  14.837 -14.774  1.00  0.00    -0.023 C 
HETATM   19  C1  UNL     1      -9.142  15.947 -13.901  1.00  0.00     0.009 C 
HETATM   20  C3  UNL     1      -8.544  13.430 -14.641  1.00  0.00     0.009 C 
ENDBRANCH  17  18
ENDBRANCH  16  17
ENDBRANCH  15  16
ENDBRANCH   1  15
TORSDOF 9
ENDMDL
