MODEL 9
REMARK VINA RESULT: -7.086540912      1.173      1.739
REMARK  9 active torsions:
REMARK  status: ('A' for Active; 'I' for Inactive)
REMARK    1  A    between atoms: C2_2  and  C4_4 
REMARK    2  A    between atoms: C4_4  and  C5_5 
REMARK    3  A    between atoms: C5_5  and  C6_6 
REMARK    4  A    between atoms: C6_6  and  C7_7 
REMARK    5  A    between atoms: C9_9  and  C10_11 
REMARK    6  A    between atoms: C10_11  and  O1_12 
REMARK    7  A    between atoms: O1_12  and  P1_13 
REMARK    8  A    between atoms: P1_13  and  O4_16 
REMARK    9  A    between atoms: O4_16  and  P2_17 
ROOT
HETATM    1  C7  UNL     1      -7.031  12.311 -18.139  1.00  0.00    -0.047 C 
HETATM    2  C8  UNL     1      -5.844  13.234 -18.206  1.00  0.00     0.046 C 
HETATM    3  C9  UNL     1      -7.118  11.477 -19.071  1.00  0.00     0.120 C 
HETATM    4  F1  UNL     1      -5.992  11.436 -20.014  1.00  0.00    -0.208 F 
ENDROOT
BRANCH   3   5
HETATM    5  C10 UNL     1      -8.128  10.416 -19.496  1.00  0.00     0.251 C 
BRANCH   5   6
HETATM    6  O1  UNL     1      -8.443  10.966 -20.693  1.00  0.00    -0.283 OA
BRANCH   6   7
HETATM    7  P1  UNL     1      -9.693  11.686 -21.230  1.00  0.00     0.418 P 
HETATM    8  O2  UNL     1      -8.960  12.286 -22.478  1.00  0.00    -0.624 OA
HETATM    9  O3  UNL     1      -9.854  13.286 -20.520  1.00  0.00    -0.624 OA
BRANCH   7  10
HETATM   10  O4  UNL     1     -10.967  11.312 -22.154  1.00  0.00    -0.173 OA
BRANCH  10  11
HETATM   11  P2  UNL     1     -11.481   9.793 -21.849  1.00  0.00     0.431 P 
HETATM   12  O5  UNL     1     -12.224  10.290 -20.619  1.00  0.00    -0.616 OA
HETATM   13  O6  UNL     1     -12.916   9.373 -22.544  1.00  0.00    -0.616 OA
HETATM   14  O7  UNL     1     -10.740   9.177 -23.041  1.00  0.00    -0.616 OA
ENDBRANCH  10  11
ENDBRANCH   7  10
ENDBRANCH   6   7
ENDBRANCH   5   6
ENDBRANCH   3   5
BRANCH   1  15
HETATM   15  C6  UNL     1      -8.172  12.408 -17.231  1.00  0.00     0.037 C 
BRANCH  15  16
HETATM   16  C5  UNL     1      -7.685  12.862 -15.807  1.00  0.00     0.005 C 
BRANCH  16  17
HETATM   17  C4  UNL     1      -8.823  13.708 -15.281  1.00  0.00     0.004 C 
BRANCH  17  18
HETATM   18  C2  UNL     1      -8.341  15.069 -15.072  1.00  0.00    -0.023 C 
HETATM   19  C1  UNL     1      -9.140  15.754 -13.956  1.00  0.00     0.009 C 
HETATM   20  C3  UNL     1      -7.337  15.548 -15.944  1.00  0.00     0.009 C 
ENDBRANCH  17  18
ENDBRANCH  16  17
ENDBRANCH  15  16
ENDBRANCH   1  15
TORSDOF 9
ENDMDL
