MODEL 4
REMARK VINA RESULT: -7.218460554      1.728      2.650
REMARK  9 active torsions:
REMARK  status: ('A' for Active; 'I' for Inactive)
REMARK    1  A    between atoms: C2_2  and  C4_4 
REMARK    2  A    between atoms: C4_4  and  C5_5 
REMARK    3  A    between atoms: C5_5  and  C6_6 
REMARK    4  A    between atoms: C6_6  and  C7_7 
REMARK    5  A    between atoms: C9_9  and  C10_11 
REMARK    6  A    between atoms: C10_11  and  O1_12 
REMARK    7  A    between atoms: O1_12  and  P1_13 
REMARK    8  A    between atoms: P1_13  and  O4_16 
REMARK    9  A    between atoms: O4_16  and  P2_17 
ROOT
HETATM    1  C7  UNL     1      -9.162  13.617 -18.507  1.00  0.00    -0.047 C 
HETATM    2  C8  UNL     1      -9.599  15.050 -18.645  1.00  0.00     0.046 C 
HETATM    3  C9  UNL     1      -8.858  13.041 -19.577  1.00  0.00     0.120 C 
HETATM    4  F1  UNL     1      -8.848  13.876 -20.786  1.00  0.00    -0.208 F 
ENDROOT
BRANCH   3   5
HETATM    5  C10 UNL     1      -8.448  11.627 -19.977  1.00  0.00     0.251 C 
BRANCH   5   6
HETATM    6  O1  UNL     1      -8.381  11.851 -21.312  1.00  0.00    -0.283 OA
BRANCH   6   7
HETATM    7  P1  UNL     1      -9.152  11.288 -22.519  1.00  0.00     0.418 P 
HETATM    8  O2  UNL     1      -7.916  10.529 -23.109  1.00  0.00    -0.624 OA
HETATM    9  O3  UNL     1      -9.137  12.419 -23.864  1.00  0.00    -0.624 OA
BRANCH   7  10
HETATM   10  O4  UNL     1     -10.090  10.006 -22.828  1.00  0.00    -0.173 OA
BRANCH  10  11
HETATM   11  P2  UNL     1     -11.584  10.214 -22.204  1.00  0.00     0.431 P 
HETATM   12  O5  UNL     1     -12.067  10.760 -23.538  1.00  0.00    -0.616 OA
HETATM   13  O6  UNL     1     -12.608   8.931 -22.362  1.00  0.00    -0.616 OA
HETATM   14  O7  UNL     1     -11.198   9.715 -20.808  1.00  0.00    -0.616 OA
ENDBRANCH  10  11
ENDBRANCH   7  10
ENDBRANCH   6   7
ENDBRANCH   5   6
ENDBRANCH   3   5
BRANCH   1  15
HETATM   15  C6  UNL     1      -9.240  12.785 -17.308  1.00  0.00     0.037 C 
BRANCH  15  16
HETATM   16  C5  UNL     1      -7.927  12.949 -16.458  1.00  0.00     0.005 C 
BRANCH  16  17
HETATM   17  C4  UNL     1      -8.419  13.426 -15.109  1.00  0.00     0.004 C 
BRANCH  17  18
HETATM   18  C2  UNL     1      -8.425  14.885 -15.099  1.00  0.00    -0.023 C 
HETATM   19  C1  UNL     1      -7.199  15.430 -15.841  1.00  0.00     0.009 C 
HETATM   20  C3  UNL     1      -9.448  15.529 -14.365  1.00  0.00     0.009 C 
ENDBRANCH  17  18
ENDBRANCH  16  17
ENDBRANCH  15  16
ENDBRANCH   1  15
TORSDOF 9
ENDMDL
