MODEL 11
REMARK VINA RESULT: -7.048520162      1.763      3.031
REMARK  9 active torsions:
REMARK  status: ('A' for Active; 'I' for Inactive)
REMARK    1  A    between atoms: C2_2  and  C4_4 
REMARK    2  A    between atoms: C4_4  and  C5_5 
REMARK    3  A    between atoms: C5_5  and  C6_6 
REMARK    4  A    between atoms: C6_6  and  C7_7 
REMARK    5  A    between atoms: C9_9  and  C10_11 
REMARK    6  A    between atoms: C10_11  and  O1_12 
REMARK    7  A    between atoms: O1_12  and  P1_13 
REMARK    8  A    between atoms: P1_13  and  O4_16 
REMARK    9  A    between atoms: O4_16  and  P2_17 
ROOT
HETATM    1  C7  UNL     1      -9.016  12.798 -18.876  1.00  0.00    -0.047 C 
HETATM    2  C8  UNL     1      -9.377  12.078 -17.605  1.00  0.00     0.046 C 
HETATM    3  C9  UNL     1      -8.167  12.225 -19.597  1.00  0.00     0.120 C 
HETATM    4  F1  UNL     1      -7.745  10.885 -19.167  1.00  0.00    -0.208 F 
ENDROOT
BRANCH   3   5
HETATM    5  C10 UNL     1      -7.431  12.558 -20.892  1.00  0.00     0.251 C 
BRANCH   5   6
HETATM    6  O1  UNL     1      -7.826  11.464 -21.586  1.00  0.00    -0.283 OA
BRANCH   6   7
HETATM    7  P1  UNL     1      -8.905  11.223 -22.656  1.00  0.00     0.418 P 
HETATM    8  O2  UNL     1      -7.923  10.543 -23.669  1.00  0.00    -0.624 OA
HETATM    9  O3  UNL     1      -9.072  12.619 -23.712  1.00  0.00    -0.624 OA
BRANCH   7  10
HETATM   10  O4  UNL     1     -10.021  10.096 -22.977  1.00  0.00    -0.173 OA
BRANCH  10  11
HETATM   11  P2  UNL     1     -11.377  10.356 -22.106  1.00  0.00     0.431 P 
HETATM   12  O5  UNL     1     -12.123  10.730 -23.377  1.00  0.00    -0.616 OA
HETATM   13  O6  UNL     1     -12.363   9.048 -21.915  1.00  0.00    -0.616 OA
HETATM   14  O7  UNL     1     -10.716  10.036 -20.762  1.00  0.00    -0.616 OA
ENDBRANCH  10  11
ENDBRANCH   7  10
ENDBRANCH   6   7
ENDBRANCH   5   6
ENDBRANCH   3   5
BRANCH   1  15
HETATM   15  C6  UNL     1      -9.397  14.157 -19.256  1.00  0.00     0.037 C 
BRANCH  15  16
HETATM   16  C5  UNL     1      -8.397  15.190 -18.621  1.00  0.00     0.005 C 
BRANCH  16  17
HETATM   17  C4  UNL     1      -9.009  15.517 -17.276  1.00  0.00     0.004 C 
BRANCH  17  18
HETATM   18  C2  UNL     1      -7.971  15.434 -16.254  1.00  0.00    -0.023 C 
HETATM   19  C1  UNL     1      -8.578  15.634 -14.859  1.00  0.00     0.009 C 
HETATM   20  C3  UNL     1      -6.634  15.288 -16.690  1.00  0.00     0.009 C 
ENDBRANCH  17  18
ENDBRANCH  16  17
ENDBRANCH  15  16
ENDBRANCH   1  15
TORSDOF 9
ENDMDL
