MODEL 13
REMARK VINA RESULT: -7.000105331      3.637      5.319
REMARK  9 active torsions:
REMARK  status: ('A' for Active; 'I' for Inactive)
REMARK    1  A    between atoms: C2_2  and  C4_4 
REMARK    2  A    between atoms: C4_4  and  C5_5 
REMARK    3  A    between atoms: C5_5  and  C6_6 
REMARK    4  A    between atoms: C6_6  and  C7_7 
REMARK    5  A    between atoms: C9_9  and  C10_11 
REMARK    6  A    between atoms: C10_11  and  O1_12 
REMARK    7  A    between atoms: O1_12  and  P1_13 
REMARK    8  A    between atoms: P1_13  and  O4_16 
REMARK    9  A    between atoms: O4_16  and  P2_17 
ROOT
HETATM    1  C7  UNL     1      -8.980  14.005 -18.884  1.00  0.00    -0.047 C 
HETATM    2  C8  UNL     1     -10.114  13.364 -18.132  1.00  0.00     0.046 C 
HETATM    3  C9  UNL     1      -8.755  13.535 -20.024  1.00  0.00     0.120 C 
HETATM    4  F1  UNL     1      -9.704  12.525 -20.509  1.00  0.00    -0.208 F 
ENDROOT
BRANCH   3   5
HETATM    5  C10 UNL     1      -7.712  13.766 -21.113  1.00  0.00     0.251 C 
BRANCH   5   6
HETATM    6  O1  UNL     1      -7.034  12.607 -20.933  1.00  0.00    -0.283 OA
BRANCH   6   7
HETATM    7  P1  UNL     1      -5.832  12.211 -20.057  1.00  0.00     0.418 P 
HETATM    8  O2  UNL     1      -5.521  10.904 -20.862  1.00  0.00    -0.624 OA
HETATM    9  O3  UNL     1      -6.346  11.267 -18.667  1.00  0.00    -0.624 OA
BRANCH   7  10
HETATM   10  O4  UNL     1      -4.252  12.552 -19.996  1.00  0.00    -0.173 OA
BRANCH  10  11
HETATM   11  P2  UNL     1      -4.010  14.126 -19.637  1.00  0.00     0.431 P 
HETATM   12  O5  UNL     1      -4.239  13.827 -18.164  1.00  0.00    -0.616 OA
HETATM   13  O6  UNL     1      -2.451  14.551 -19.305  1.00  0.00    -0.616 OA
HETATM   14  O7  UNL     1      -3.799  14.547 -21.095  1.00  0.00    -0.616 OA
ENDBRANCH  10  11
ENDBRANCH   7  10
ENDBRANCH   6   7
ENDBRANCH   5   6
ENDBRANCH   3   5
BRANCH   1  15
HETATM   15  C6  UNL     1      -8.008  14.964 -18.361  1.00  0.00     0.037 C 
BRANCH  15  16
HETATM   16  C5  UNL     1      -8.583  15.662 -17.075  1.00  0.00     0.005 C 
BRANCH  16  17
HETATM   17  C4  UNL     1      -7.655  15.216 -15.968  1.00  0.00     0.004 C 
BRANCH  17  18
HETATM   18  C2  UNL     1      -8.451  14.655 -14.882  1.00  0.00    -0.023 C 
HETATM   19  C1  UNL     1      -8.324  13.127 -14.860  1.00  0.00     0.009 C 
HETATM   20  C3  UNL     1      -9.246  15.547 -14.126  1.00  0.00     0.009 C 
ENDBRANCH  17  18
ENDBRANCH  16  17
ENDBRANCH  15  16
ENDBRANCH   1  15
TORSDOF 9
ENDMDL
