MODEL 18
REMARK VINA RESULT: -9.194290797      2.761     11.890
REMARK  4 active torsions:
REMARK  status: ('A' for Active; 'I' for Inactive)
REMARK    1  A    between atoms: N5_13  and  C6_14 
REMARK    2  A    between atoms: C13_32  and  O10_33 
REMARK    3  A    between atoms: C14_36  and  N6_37 
REMARK    4  A    between atoms: C20_50  and  O12_51 
ROOT
HETATM    1  C6  UNL     1     111.516  78.975   8.466  1.00  0.00     0.262 C 
HETATM    2  O1  UNL     1     110.609  78.144   7.818  1.00  0.00    -0.353 OA
HETATM    3  C7  UNL     1     111.463  77.608   6.813  1.00  0.00     0.180 C 
HETATM    4  C8  UNL     1     110.765  76.405   6.206  1.00  0.00     0.216 C 
HETATM    5  O2  UNL     1     111.608  75.402   5.851  1.00  0.00    -0.287 OA
HETATM    6  P1  UNL     1     111.248  74.827   4.312  1.00  0.00     0.408 P 
HETATM    7  O3  UNL     1     109.646  74.924   3.847  1.00  0.00    -0.624 OA
HETATM    8  O4  UNL     1     110.995  73.450   4.958  1.00  0.00    -0.624 OA
HETATM    9  O5  UNL     1     112.367  74.296   3.295  1.00  0.00    -0.279 OA
HETATM   10  C9  UNL     1     113.616  74.789   3.248  1.00  0.00     0.198 C 
HETATM   11  C10 UNL     1     113.820  76.154   2.690  1.00  0.00     0.180 C 
HETATM   12  C11 UNL     1     115.035  76.884   3.251  1.00  0.00     0.216 C 
HETATM   13  O6  UNL     1     115.200  76.541   4.551  1.00  0.00    -0.287 OA
HETATM   14  P2  UNL     1     114.605  77.263   5.758  1.00  0.00     0.408 P 
HETATM   15  O7  UNL     1     114.553  75.822   6.562  1.00  0.00    -0.624 OA
HETATM   16  O8  UNL     1     113.314  77.713   4.831  1.00  0.00    -0.624 OA
HETATM   17  O9  UNL     1     113.877  77.958   6.934  1.00  0.00    -0.279 OA
HETATM   18  C12 UNL     1     112.749  77.306   7.489  1.00  0.00     0.198 C 
HETATM   19  C13 UNL     1     112.592  77.973   8.837  1.00  0.00     0.199 C 
HETATM   20  O11 UNL     1     114.086  76.026   1.319  1.00  0.00    -0.353 OA
HETATM   21  C14 UNL     1     113.838  74.733   0.950  1.00  0.00     0.262 C 
HETATM   22  C20 UNL     1     114.350  73.957   2.168  1.00  0.00     0.199 C 
ENDROOT
BRANCH   1  23
HETATM   23  N5  UNL     1     110.990  79.694   9.560  1.00  0.00    -0.297 N 
HETATM   24  C3  UNL     1     111.707  80.545  10.338  1.00  0.00     0.142 A 
HETATM   25  N3  UNL     1     113.012  80.918  10.298  1.00  0.00    -0.336 N 
HETATM   26  C4  UNL     1     110.916  81.076  11.301  1.00  0.00     0.119 A 
HETATM   27  C2  UNL     1     113.530  81.787  11.175  1.00  0.00     0.183 A 
ATOM     28  H3  UNL     1     113.617  80.525   9.577  1.00  0.00     0.168 HD
HETATM   29  N2  UNL     1     112.745  82.307  12.122  1.00  0.00    -0.339 N 
HETATM   30  C1  UNL     1     111.441  81.983  12.223  1.00  0.00     0.148 A 
ATOM     31  H2  UNL     1     113.144  82.968  12.788  1.00  0.00     0.167 HD
HETATM   32  N1  UNL     1     110.588  82.508  13.204  1.00  0.00    -0.080 NA
HETATM   33  N4  UNL     1     109.684  80.550  11.124  1.00  0.00    -0.346 N 
HETATM   34  C5  UNL     1     109.755  79.719  10.067  1.00  0.00     0.188 A 
ATOM     35  H4  UNL     1     108.856  80.745  11.687  1.00  0.00     0.167 HD
ENDBRANCH   1  23
BRANCH  19  36
HETATM   36  O10 UNL     1     113.745  78.591   9.284  1.00  0.00    -0.388 OA
ATOM     37  H10 UNL     1     114.054  79.254   8.677  1.00  0.00     0.210 HD
ENDBRANCH  19  36
BRANCH  22  38
HETATM   38  O12 UNL     1     113.890  72.666   2.127  1.00  0.00    -0.388 OA
ATOM     39  H12 UNL     1     114.586  72.041   2.291  1.00  0.00     0.210 HD
ENDBRANCH  22  38
BRANCH  21  40
HETATM   40  N6  UNL     1     114.522  74.371  -0.248  1.00  0.00    -0.297 N 
HETATM   41  C15 UNL     1     113.954  73.593  -1.215  1.00  0.00     0.188 A 
HETATM   42  N7  UNL     1     114.809  73.412  -2.218  1.00  0.00    -0.346 N 
HETATM   43  C16 UNL     1     115.930  74.076  -1.893  1.00  0.00     0.119 A 
ATOM     44  H7  UNL     1     114.646  72.874  -3.069  1.00  0.00     0.167 HD
HETATM   45  C17 UNL     1     117.114  74.210  -2.582  1.00  0.00     0.148 A 
HETATM   46  C19 UNL     1     115.747  74.670  -0.670  1.00  0.00     0.142 A 
HETATM   47  N8  UNL     1     117.277  73.589  -3.839  1.00  0.00    -0.080 NA
HETATM   48  N9  UNL     1     118.097  74.948  -2.012  1.00  0.00    -0.339 N 
HETATM   49  C18 UNL     1     117.902  75.525  -0.811  1.00  0.00     0.183 A 
ATOM     50  H9  UNL     1     118.987  75.066  -2.495  1.00  0.00     0.167 HD
HETATM   51  N10 UNL     1     116.734  75.388  -0.140  1.00  0.00    -0.336 N 
ATOM     52  H10 UNL     1     116.610  75.833   0.769  1.00  0.00     0.168 HD
ENDBRANCH  21  40
TORSDOF 4
ENDMDL
