MODEL 1
REMARK VINA RESULT: -12.338241371      0.000      0.000
REMARK  4 active torsions:
REMARK  status: ('A' for Active; 'I' for Inactive)
REMARK    1  A    between atoms: N5_13  and  C6_14 
REMARK    2  A    between atoms: C13_32  and  O10_33 
REMARK    3  A    between atoms: C14_36  and  N6_37 
REMARK    4  A    between atoms: C20_50  and  O12_51 
ROOT
HETATM    1  C6  UNL     1     114.979  71.964  -0.815  1.00  0.00     0.262 C 
HETATM    2  O1  UNL     1     114.016  71.570   0.107  1.00  0.00    -0.353 OA
HETATM    3  C7  UNL     1     114.030  72.710   0.959  1.00  0.00     0.180 C 
HETATM    4  C8  UNL     1     112.796  72.645   1.839  1.00  0.00     0.216 C 
HETATM    5  O2  UNL     1     112.256  73.860   2.118  1.00  0.00    -0.287 OA
HETATM    6  P1  UNL     1     111.894  73.997   3.756  1.00  0.00     0.408 P 
HETATM    7  O3  UNL     1     111.489  72.580   4.541  1.00  0.00    -0.624 OA
HETATM    8  O4  UNL     1     110.424  74.211   3.345  1.00  0.00    -0.624 OA
HETATM    9  O5  UNL     1     112.012  75.377   4.561  1.00  0.00    -0.279 OA
HETATM   10  C9  UNL     1     112.925  76.322   4.279  1.00  0.00     0.198 C 
HETATM   11  C10 UNL     1     114.350  76.055   4.616  1.00  0.00     0.180 C 
HETATM   12  C11 UNL     1     115.351  76.782   3.725  1.00  0.00     0.216 C 
HETATM   13  O6  UNL     1     114.849  76.866   2.468  1.00  0.00    -0.287 OA
HETATM   14  P2  UNL     1     115.060  75.855   1.344  1.00  0.00     0.408 P 
HETATM   15  O7  UNL     1     113.574  76.252   0.743  1.00  0.00    -0.624 OA
HETATM   16  O8  UNL     1     115.178  74.651   2.467  1.00  0.00    -0.624 OA
HETATM   17  O9  UNL     1     115.205  74.741   0.279  1.00  0.00    -0.279 OA
HETATM   18  C12 UNL     1     114.093  73.890   0.061  1.00  0.00     0.198 C 
HETATM   19  C13 UNL     1     114.387  73.276  -1.290  1.00  0.00     0.199 C 
HETATM   20  O11 UNL     1     114.592  76.558   5.903  1.00  0.00    -0.353 OA
HETATM   21  C14 UNL     1     113.394  76.900   6.465  1.00  0.00     0.262 C 
HETATM   22  C20 UNL     1     112.640  77.482   5.265  1.00  0.00     0.199 C 
ENDROOT
BRANCH   1  23
HETATM   23  N5  UNL     1     115.234  71.035  -1.846  1.00  0.00    -0.297 N 
HETATM   24  C3  UNL     1     114.273  70.376  -2.543  1.00  0.00     0.142 A 
HETATM   25  N3  UNL     1     112.918  70.412  -2.462  1.00  0.00    -0.336 N 
HETATM   26  C4  UNL     1     114.841  69.557  -3.461  1.00  0.00     0.119 A 
HETATM   27  C2  UNL     1     112.138  69.668  -3.258  1.00  0.00     0.183 A 
ATOM     28  H3  UNL     1     112.480  71.025  -1.774  1.00  0.00     0.168 HD
HETATM   29  N2  UNL     1     112.705  68.864  -4.161  1.00  0.00    -0.339 N 
HETATM   30  C1  UNL     1     114.042  68.776  -4.298  1.00  0.00     0.148 A 
ATOM     31  H2  UNL     1     112.107  68.299  -4.764  1.00  0.00     0.167 HD
HETATM   32  N1  UNL     1     114.670  67.943  -5.233  1.00  0.00    -0.080 NA
HETATM   33  N4  UNL     1     116.178  69.706  -3.338  1.00  0.00    -0.346 N 
HETATM   34  C5  UNL     1     116.390  70.603  -2.356  1.00  0.00     0.188 A 
ATOM     35  H4  UNL     1     116.893  69.227  -3.885  1.00  0.00     0.167 HD
ENDBRANCH   1  23
BRANCH  19  36
HETATM   36  O10 UNL     1     115.284  74.008  -2.045  1.00  0.00    -0.388 OA
ATOM     37  H10 UNL     1     115.214  74.941  -1.878  1.00  0.00     0.210 HD
ENDBRANCH  19  36
BRANCH  22  38
HETATM   38  O12 UNL     1     111.303  77.579   5.556  1.00  0.00    -0.388 OA
ATOM     39  H12 UNL     1     111.133  77.412   6.475  1.00  0.00     0.210 HD
ENDBRANCH  22  38
BRANCH  21  40
HETATM   40  N6  UNL     1     113.542  77.847   7.521  1.00  0.00    -0.297 N 
HETATM   41  C15 UNL     1     114.762  78.267   7.968  1.00  0.00     0.188 A 
HETATM   42  N7  UNL     1     114.609  79.148   8.954  1.00  0.00    -0.346 N 
HETATM   43  C16 UNL     1     113.287  79.293   9.141  1.00  0.00     0.119 A 
ATOM     44  H7  UNL     1     115.351  79.622   9.469  1.00  0.00     0.167 HD
HETATM   45  C17 UNL     1     112.597  80.081  10.034  1.00  0.00     0.148 A 
HETATM   46  C19 UNL     1     112.629  78.484   8.248  1.00  0.00     0.142 A 
HETATM   47  N8  UNL     1     113.297  80.903  10.941  1.00  0.00    -0.080 NA
HETATM   48  N9  UNL     1     111.244  80.031  10.004  1.00  0.00    -0.339 N 
HETATM   49  C18 UNL     1     110.612  79.233   9.123  1.00  0.00     0.183 A 
ATOM     50  H9  UNL     1     110.701  80.601  10.653  1.00  0.00     0.167 HD
HETATM   51  N10 UNL     1     111.300  78.460   8.248  1.00  0.00    -0.336 N 
ATOM     52  H10 UNL     1     110.799  77.862   7.590  1.00  0.00     0.168 HD
ENDBRANCH  21  40
TORSDOF 4
ENDMDL
