MODEL 17
REMARK VINA RESULT: -9.198200602      6.971     10.772
REMARK  4 active torsions:
REMARK  status: ('A' for Active; 'I' for Inactive)
REMARK    1  A    between atoms: N5_13  and  C6_14 
REMARK    2  A    between atoms: C13_32  and  O10_33 
REMARK    3  A    between atoms: C14_36  and  N6_37 
REMARK    4  A    between atoms: C20_50  and  O12_51 
ROOT
HETATM    1  C6  UNL     1     113.548  76.362   2.744  1.00  0.00     0.262 C 
HETATM    2  O1  UNL     1     113.312  76.050   1.410  1.00  0.00    -0.353 OA
HETATM    3  C7  UNL     1     114.456  76.659   0.823  1.00  0.00     0.180 C 
HETATM    4  C8  UNL     1     114.583  76.135  -0.595  1.00  0.00     0.216 C 
HETATM    5  O2  UNL     1     115.867  75.975  -1.009  1.00  0.00    -0.287 OA
HETATM    6  P1  UNL     1     116.088  76.614  -2.549  1.00  0.00     0.408 P 
HETATM    7  O3  UNL     1     114.759  76.577  -3.559  1.00  0.00    -0.624 OA
HETATM    8  O4  UNL     1     116.496  75.199  -3.005  1.00  0.00    -0.624 OA
HETATM    9  O5  UNL     1     117.455  77.307  -3.017  1.00  0.00    -0.279 OA
HETATM   10  C9  UNL     1     118.257  77.995  -2.186  1.00  0.00     0.198 C 
HETATM   11  C10 UNL     1     117.801  79.326  -1.700  1.00  0.00     0.180 C 
HETATM   12  C11 UNL     1     118.362  79.720  -0.338  1.00  0.00     0.216 C 
HETATM   13  O6  UNL     1     118.488  78.610   0.430  1.00  0.00    -0.287 OA
HETATM   14  P2  UNL     1     117.435  78.045   1.379  1.00  0.00     0.408 P 
HETATM   15  O7  UNL     1     118.022  76.530   1.088  1.00  0.00    -0.624 OA
HETATM   16  O8  UNL     1     116.250  78.650   0.400  1.00  0.00    -0.624 OA
HETATM   17  O9  UNL     1     116.288  77.450   2.232  1.00  0.00    -0.279 OA
HETATM   18  C12 UNL     1     115.597  76.327   1.713  1.00  0.00     0.198 C 
HETATM   19  C13 UNL     1     114.919  75.745   2.934  1.00  0.00     0.199 C 
HETATM   20  O11 UNL     1     118.294  80.300  -2.581  1.00  0.00    -0.353 OA
HETATM   21  C14 UNL     1     118.811  79.670  -3.677  1.00  0.00     0.262 C 
HETATM   22  C20 UNL     1     119.467  78.436  -3.048  1.00  0.00     0.199 C 
ENDROOT
BRANCH   1  23
HETATM   23  N5  UNL     1     112.570  75.895   3.648  1.00  0.00    -0.297 N 
HETATM   24  C3  UNL     1     111.788  74.804   3.440  1.00  0.00     0.142 A 
HETATM   25  N3  UNL     1     111.722  73.928   2.404  1.00  0.00    -0.336 N 
HETATM   26  C4  UNL     1     110.954  74.621   4.492  1.00  0.00     0.119 A 
HETATM   27  C2  UNL     1     110.863  72.900   2.397  1.00  0.00     0.183 A 
ATOM     28  H3  UNL     1     112.345  74.057   1.607  1.00  0.00     0.168 HD
HETATM   29  N2  UNL     1     110.043  72.726   3.437  1.00  0.00    -0.339 N 
HETATM   30  C1  UNL     1     110.053  73.554   4.498  1.00  0.00     0.148 A 
ATOM     31  H2  UNL     1     109.391  71.942   3.426  1.00  0.00     0.167 HD
HETATM   32  N1  UNL     1     109.207  73.401   5.606  1.00  0.00    -0.080 NA
HETATM   33  N4  UNL     1     111.217  75.611   5.372  1.00  0.00    -0.346 N 
HETATM   34  C5  UNL     1     112.196  76.367   4.840  1.00  0.00     0.188 A 
ATOM     35  H4  UNL     1     110.759  75.759   6.271  1.00  0.00     0.167 HD
ENDBRANCH   1  23
BRANCH  19  36
HETATM   36  O10 UNL     1     115.502  76.131   4.126  1.00  0.00    -0.388 OA
ATOM     37  H10 UNL     1     116.137  75.496   4.436  1.00  0.00     0.210 HD
ENDBRANCH  19  36
BRANCH  22  38
HETATM   38  O12 UNL     1     119.756  77.513  -4.020  1.00  0.00    -0.388 OA
ATOM     39  H12 UNL     1     120.535  77.753  -4.508  1.00  0.00     0.210 HD
ENDBRANCH  22  38
BRANCH  21  40
HETATM   40  N6  UNL     1     119.751  80.483  -4.376  1.00  0.00    -0.297 N 
HETATM   41  C15 UNL     1     121.095  80.424  -4.141  1.00  0.00     0.188 A 
HETATM   42  N7  UNL     1     121.734  81.286  -4.928  1.00  0.00    -0.346 N 
HETATM   43  C16 UNL     1     120.799  81.900  -5.669  1.00  0.00     0.119 A 
ATOM     44  H7  UNL     1     122.741  81.448  -4.963  1.00  0.00     0.167 HD
HETATM   45  C17 UNL     1     120.927  82.874  -6.634  1.00  0.00     0.148 A 
HETATM   46  C19 UNL     1     119.569  81.399  -5.323  1.00  0.00     0.142 A 
HETATM   47  N8  UNL     1     122.203  83.373  -6.971  1.00  0.00    -0.080 NA
HETATM   48  N9  UNL     1     119.798  83.323  -7.231  1.00  0.00    -0.339 N 
HETATM   49  C18 UNL     1     118.598  82.821  -6.882  1.00  0.00     0.183 A 
ATOM     50  H9  UNL     1     119.857  84.045  -7.949  1.00  0.00     0.167 HD
HETATM   51  N10 UNL     1     118.481  81.864  -5.931  1.00  0.00    -0.336 N 
ATOM     52  H10 UNL     1     117.561  81.499  -5.681  1.00  0.00     0.168 HD
ENDBRANCH  21  40
TORSDOF 4
ENDMDL
