MODEL 19
REMARK VINA RESULT: -9.035027759      2.514     11.410
REMARK  4 active torsions:
REMARK  status: ('A' for Active; 'I' for Inactive)
REMARK    1  A    between atoms: N5_13  and  C6_14 
REMARK    2  A    between atoms: C13_32  and  O10_33 
REMARK    3  A    between atoms: C14_36  and  N6_37 
REMARK    4  A    between atoms: C20_50  and  O12_51 
ROOT
HETATM    1  C6  UNL     1     110.902  77.752   6.924  1.00  0.00     0.262 C 
HETATM    2  O1  UNL     1     110.535  76.468   6.538  1.00  0.00    -0.353 OA
HETATM    3  C7  UNL     1     111.560  76.211   5.585  1.00  0.00     0.180 C 
HETATM    4  C8  UNL     1     111.558  74.722   5.293  1.00  0.00     0.216 C 
HETATM    5  O2  UNL     1     112.792  74.204   5.067  1.00  0.00    -0.287 OA
HETATM    6  P1  UNL     1     112.790  73.208   3.711  1.00  0.00     0.408 P 
HETATM    7  O3  UNL     1     111.358  72.414   3.384  1.00  0.00    -0.624 OA
HETATM    8  O4  UNL     1     113.238  72.060   4.636  1.00  0.00    -0.624 OA
HETATM    9  O5  UNL     1     114.044  73.082   2.722  1.00  0.00    -0.279 OA
HETATM   10  C9  UNL     1     114.888  74.095   2.464  1.00  0.00     0.198 C 
HETATM   11  C10 UNL     1     114.402  75.230   1.632  1.00  0.00     0.180 C 
HETATM   12  C11 UNL     1     115.089  76.559   1.924  1.00  0.00     0.216 C 
HETATM   13  O6  UNL     1     115.378  76.630   3.246  1.00  0.00    -0.287 OA
HETATM   14  P2  UNL     1     114.482  77.214   4.336  1.00  0.00     0.408 P 
HETATM   15  O7  UNL     1     115.133  76.142   5.410  1.00  0.00    -0.624 OA
HETATM   16  O8  UNL     1     113.154  76.769   3.461  1.00  0.00    -0.624 OA
HETATM   17  O9  UNL     1     113.485  77.705   5.413  1.00  0.00    -0.279 OA
HETATM   18  C12 UNL     1     112.816  76.725   6.187  1.00  0.00     0.198 C 
HETATM   19  C13 UNL     1     112.325  77.506   7.385  1.00  0.00     0.199 C 
HETATM   20  O11 UNL     1     114.722  74.953   0.294  1.00  0.00    -0.353 OA
HETATM   21  C14 UNL     1     115.151  73.658   0.211  1.00  0.00     0.262 C 
HETATM   22  C20 UNL     1     115.957  73.512   1.506  1.00  0.00     0.199 C 
ENDROOT
BRANCH   1  23
HETATM   23  N5  UNL     1     110.070  78.343   7.898  1.00  0.00    -0.297 N 
HETATM   24  C3  UNL     1     110.509  78.861   9.075  1.00  0.00     0.142 A 
HETATM   25  N3  UNL     1     111.755  78.954   9.608  1.00  0.00    -0.336 N 
HETATM   26  C4  UNL     1     109.467  79.352   9.787  1.00  0.00     0.119 A 
HETATM   27  C2  UNL     1     111.976  79.511  10.806  1.00  0.00     0.183 A 
ATOM     28  H3  UNL     1     112.547  78.587   9.080  1.00  0.00     0.168 HD
HETATM   29  N2  UNL     1     110.943  79.993  11.502  1.00  0.00    -0.339 N 
HETATM   30  C1  UNL     1     109.681  79.936  11.037  1.00  0.00     0.148 A 
ATOM     31  H2  UNL     1     111.116  80.416  12.414  1.00  0.00     0.167 HD
HETATM   32  N1  UNL     1     108.574  80.431  11.741  1.00  0.00    -0.080 NA
HETATM   33  N4  UNL     1     108.357  79.139   9.046  1.00  0.00    -0.346 N 
HETATM   34  C5  UNL     1     108.748  78.529   7.911  1.00  0.00     0.188 A 
ATOM     35  H4  UNL     1     107.403  79.392   9.300  1.00  0.00     0.167 HD
ENDBRANCH   1  23
BRANCH  19  36
HETATM   36  O10 UNL     1     113.015  78.686   7.595  1.00  0.00    -0.388 OA
ATOM     37  H10 UNL     1     112.670  79.175   8.333  1.00  0.00     0.210 HD
ENDBRANCH  19  36
BRANCH  22  38
HETATM   38  O12 UNL     1     116.193  72.186   1.763  1.00  0.00    -0.388 OA
ATOM     39  H12 UNL     1     115.410  71.744   2.068  1.00  0.00     0.210 HD
ENDBRANCH  22  38
BRANCH  21  40
HETATM   40  N6  UNL     1     115.946  73.424  -0.949  1.00  0.00    -0.297 N 
HETATM   41  C15 UNL     1     115.626  72.482  -1.884  1.00  0.00     0.188 A 
HETATM   42  N7  UNL     1     116.535  72.476  -2.856  1.00  0.00    -0.346 N 
HETATM   43  C16 UNL     1     117.441  73.415  -2.544  1.00  0.00     0.119 A 
ATOM     44  H7  UNL     1     116.542  71.874  -3.680  1.00  0.00     0.167 HD
HETATM   45  C17 UNL     1     118.577  73.811  -3.212  1.00  0.00     0.148 A 
HETATM   46  C19 UNL     1     117.071  74.002  -1.359  1.00  0.00     0.142 A 
HETATM   47  N8  UNL     1     118.935  73.193  -4.428  1.00  0.00    -0.080 NA
HETATM   48  N9  UNL     1     119.322  74.800  -2.662  1.00  0.00    -0.339 N 
HETATM   49  C18 UNL     1     118.946  75.366  -1.499  1.00  0.00     0.183 A 
ATOM     50  H9  UNL     1     120.171  75.116  -3.130  1.00  0.00     0.167 HD
HETATM   51  N10 UNL     1     117.826  74.970  -0.848  1.00  0.00    -0.336 N 
ATOM     52  H10 UNL     1     117.562  75.413   0.033  1.00  0.00     0.168 HD
ENDBRANCH  21  40
TORSDOF 4
ENDMDL
