MODEL 2
REMARK VINA RESULT: -11.763285232      0.995      1.520
REMARK  10 active torsions:
REMARK  status: ('A' for Active; 'I' for Inactive)
REMARK    1  A    between atoms: C2_2  and  C3_3 
REMARK    2  A    between atoms: C8_9  and  C9_10 
REMARK       I    between atoms: C9_10  and  N2_12 
REMARK    3  A    between atoms: N2_12  and  C10_14 
REMARK    4  A    between atoms: C10_14  and  C11_15 
REMARK    5  A    between atoms: C10_14  and  C18_22 
REMARK    6  A    between atoms: C11_15  and  C12_16 
REMARK    7  A    between atoms: C18_22  and  O2_23 
REMARK    8  A    between atoms: C18_22  and  C19_25 
REMARK    9  A    between atoms: N4_31  and  C22_32 
REMARK   10  A    between atoms: C22_32  and  C23_33 
ROOT
HETATM    1  C10 UNL     1      -2.467 -18.164  33.501  1.00  0.00     0.120 C 
ENDROOT
BRANCH   1   2
HETATM    2  N2  UNL     1      -1.520 -17.963  32.409  1.00  0.00    -0.349 N 
HETATM    3  C9  UNL     1      -0.171 -17.611  32.546  1.00  0.00     0.252 C 
HETATM    4  O1  UNL     1       0.323 -17.436  33.711  1.00  0.00    -0.268 OA
ATOM      5  H2  UNL     1      -1.873 -18.090  31.461  1.00  0.00     0.163 HD
BRANCH   3   6
HETATM    6  C8  UNL     1       0.754 -17.421  31.438  1.00  0.00     0.035 A 
HETATM    7  C7  UNL     1       1.943 -18.113  31.369  1.00  0.00     0.049 A 
HETATM    8  C6  UNL     1       2.855 -17.979  30.344  1.00  0.00     0.073 A 
HETATM    9  C5  UNL     1       2.556 -17.100  29.327  1.00  0.00     0.073 A 
HETATM   10  N5  UNL     1       3.999 -18.809  30.539  1.00  0.00    -0.277 N 
HETATM   11  N1  UNL     1       3.246 -16.779  28.221  1.00  0.00    -0.352 N 
HETATM   12  C31 UNL     1       1.369 -16.366  29.333  1.00  0.00     0.002 A 
HETATM   13  C4  UNL     1       2.499 -15.852  27.542  1.00  0.00     0.099 A 
HETATM   14  C36 UNL     1       4.510 -17.286  27.791  1.00  0.00     0.155 C 
HETATM   15  C3  UNL     1       1.340 -15.578  28.202  1.00  0.00    -0.030 A 
HETATM   16  C33 UNL     1       5.624 -17.201  28.778  1.00  0.00     0.092 C 
HETATM   17  S1  UNL     1       5.597 -18.550  29.938  1.00  0.00     0.242 S 
HETATM   18  C34 UNL     1       6.933 -17.356  27.991  1.00  0.00     0.035 C 
HETATM   19  C35 UNL     1       5.698 -15.869  29.482  1.00  0.00     0.035 C 
HETATM   20  O4  UNL     1       6.462 -18.166  31.104  1.00  0.00    -0.205 OA
HETATM   21  O5  UNL     1       6.166 -19.786  29.327  1.00  0.00    -0.205 OA
HETATM   22  C30 UNL     1       0.501 -16.555  30.400  1.00  0.00     0.031 A 
HETATM   23  C32 UNL     1       3.774 -19.995  31.337  1.00  0.00     0.169 C 
BRANCH  15  24
HETATM   24  C2  UNL     1       0.244 -14.647  27.834  1.00  0.00     0.036 C 
HETATM   25  C1  UNL     1      -0.949 -15.465  27.335  1.00  0.00     0.010 C 
ENDBRANCH  15  24
ENDBRANCH   3   6
ENDBRANCH   1   2
BRANCH   1  26
HETATM   26  C11 UNL     1      -3.742 -17.428  33.196  1.00  0.00     0.066 C 
BRANCH  26  27
HETATM   27  C12 UNL     1      -3.482 -16.097  32.589  1.00  0.00    -0.056 A 
HETATM   28  C13 UNL     1      -4.015 -15.849  31.343  1.00  0.00     0.007 A 
HETATM   29  C14 UNL     1      -3.796 -14.654  30.715  1.00  0.00     0.001 A 
HETATM   30  C15 UNL     1      -3.016 -13.706  31.390  1.00  0.00     0.000 A 
HETATM   31  C16 UNL     1      -2.478 -13.932  32.627  1.00  0.00     0.001 A 
HETATM   32  C17 UNL     1      -2.723 -15.170  33.238  1.00  0.00     0.007 A 
ENDBRANCH  26  27
ENDBRANCH   1  26
BRANCH   1  33
HETATM   33  C18 UNL     1      -2.566 -19.612  33.743  1.00  0.00     0.181 C 
BRANCH  33  34
HETATM   34  O2  UNL     1      -3.845 -20.128  33.591  1.00  0.00    -0.391 OA
ATOM     35  H2  UNL     1      -4.079 -20.785  34.236  1.00  0.00     0.210 HD
ENDBRANCH  33  34
BRANCH  33  36
HETATM   36  C19 UNL     1      -1.912 -20.214  34.935  1.00  0.00     0.307 C 
HETATM   37  N3  UNL     1      -1.238 -21.449  34.720  1.00  0.00    -0.058 N 
HETATM   38  C20 UNL     1      -1.730 -22.514  35.570  1.00  0.00     0.253 C 
ATOM     39  H32 UNL     1      -1.278 -21.719  33.736  1.00  0.00     0.278 HD
ATOM     40  H31 UNL     1      -0.229 -21.336  34.821  1.00  0.00     0.278 HD
HETATM   41  C21 UNL     1      -1.480 -22.046  37.013  1.00  0.00     0.153 C 
HETATM   42  N4  UNL     1      -2.513 -21.033  37.220  1.00  0.00    -0.344 N 
HETATM   43  C29 UNL     1      -2.764 -20.172  36.147  1.00  0.00     0.253 C 
HETATM   44  O3  UNL     1      -3.703 -19.362  36.194  1.00  0.00    -0.271 OA
BRANCH  42  45
HETATM   45  C22 UNL     1      -3.197 -20.978  38.491  1.00  0.00     0.164 C 
BRANCH  45  46
HETATM   46  C23 UNL     1      -2.325 -20.480  39.590  1.00  0.00    -0.040 A 
HETATM   47  C24 UNL     1      -2.616 -20.816  40.894  1.00  0.00     0.009 A 
HETATM   48  C25 UNL     1      -1.839 -20.390  41.964  1.00  0.00     0.001 A 
HETATM   49  C26 UNL     1      -0.731 -19.599  41.738  1.00  0.00     0.000 A 
HETATM   50  C27 UNL     1      -0.460 -19.274  40.410  1.00  0.00     0.001 A 
HETATM   51  C28 UNL     1      -1.226 -19.696  39.361  1.00  0.00     0.009 A 
ENDBRANCH  45  46
ENDBRANCH  42  45
ENDBRANCH  33  36
ENDBRANCH   1  33
TORSDOF 10
ENDMDL
