MODEL 4
REMARK VINA RESULT: -9.979672513      3.155     10.446
REMARK  10 active torsions:
REMARK  status: ('A' for Active; 'I' for Inactive)
REMARK    1  A    between atoms: C2_2  and  C3_3 
REMARK    2  A    between atoms: C8_9  and  C9_10 
REMARK       I    between atoms: C9_10  and  N2_12 
REMARK    3  A    between atoms: N2_12  and  C10_14 
REMARK    4  A    between atoms: C10_14  and  C11_15 
REMARK    5  A    between atoms: C10_14  and  C18_22 
REMARK    6  A    between atoms: C11_15  and  C12_16 
REMARK    7  A    between atoms: C18_22  and  O2_23 
REMARK    8  A    between atoms: C18_22  and  C19_25 
REMARK    9  A    between atoms: N4_31  and  C22_32 
REMARK   10  A    between atoms: C22_32  and  C23_33 
ROOT
HETATM    1  C10 UNL     1       5.453 -17.927  31.340  1.00  0.00     0.120 C 
ENDROOT
BRANCH   1   2
HETATM    2  N2  UNL     1       4.049 -17.550  31.451  1.00  0.00    -0.349 N 
HETATM    3  C9  UNL     1       3.024 -18.343  31.984  1.00  0.00     0.252 C 
HETATM    4  O1  UNL     1       3.293 -19.513  32.424  1.00  0.00    -0.268 OA
ATOM      5  H2  UNL     1       3.788 -16.625  31.110  1.00  0.00     0.163 HD
BRANCH   3   6
HETATM    6  C8  UNL     1       1.630 -17.940  32.088  1.00  0.00     0.035 A 
HETATM    7  C7  UNL     1       1.081 -17.021  31.221  1.00  0.00     0.049 A 
HETATM    8  C6  UNL     1      -0.232 -16.606  31.267  1.00  0.00     0.073 A 
HETATM    9  C5  UNL     1      -1.045 -17.144  32.240  1.00  0.00     0.073 A 
HETATM   10  N5  UNL     1      -0.520 -15.641  30.256  1.00  0.00    -0.277 N 
HETATM   11  N1  UNL     1      -2.341 -16.928  32.511  1.00  0.00    -0.352 N 
HETATM   12  C31 UNL     1      -0.556 -18.080  33.152  1.00  0.00     0.002 A 
HETATM   13  C4  UNL     1      -2.661 -17.721  33.582  1.00  0.00     0.099 A 
HETATM   14  C36 UNL     1      -3.252 -16.060  31.834  1.00  0.00     0.155 C 
HETATM   15  C3  UNL     1      -1.582 -18.440  33.998  1.00  0.00    -0.030 A 
HETATM   16  C33 UNL     1      -2.820 -14.642  31.683  1.00  0.00     0.092 C 
HETATM   17  S1  UNL     1      -1.735 -14.414  30.291  1.00  0.00     0.242 S 
HETATM   18  C34 UNL     1      -4.078 -13.820  31.368  1.00  0.00     0.035 C 
HETATM   19  C35 UNL     1      -2.229 -14.059  32.944  1.00  0.00     0.035 C 
HETATM   20  O4  UNL     1      -1.040 -13.094  30.464  1.00  0.00    -0.205 OA
HETATM   21  O5  UNL     1      -2.510 -14.366  29.018  1.00  0.00    -0.205 OA
HETATM   22  C30 UNL     1       0.779 -18.448  33.043  1.00  0.00     0.031 A 
HETATM   23  C32 UNL     1       0.316 -15.713  29.076  1.00  0.00     0.169 C 
BRANCH  15  24
HETATM   24  C2  UNL     1      -1.474 -19.415  35.112  1.00  0.00     0.036 C 
HETATM   25  C1  UNL     1      -2.609 -19.157  36.103  1.00  0.00     0.010 C 
ENDBRANCH  15  24
ENDBRANCH   3   6
ENDBRANCH   1   2
BRANCH   1  26
HETATM   26  C11 UNL     1       6.078 -17.929  32.707  1.00  0.00     0.066 C 
BRANCH  26  27
HETATM   27  C12 UNL     1       6.357 -16.552  33.191  1.00  0.00    -0.056 A 
HETATM   28  C13 UNL     1       7.089 -15.723  32.370  1.00  0.00     0.007 A 
HETATM   29  C14 UNL     1       7.402 -14.451  32.762  1.00  0.00     0.001 A 
HETATM   30  C15 UNL     1       6.949 -14.035  34.021  1.00  0.00     0.000 A 
HETATM   31  C16 UNL     1       6.222 -14.844  34.852  1.00  0.00     0.001 A 
HETATM   32  C17 UNL     1       5.922 -16.141  34.416  1.00  0.00     0.007 A 
ENDBRANCH  26  27
ENDBRANCH   1  26
BRANCH   1  33
HETATM   33  C18 UNL     1       5.518 -19.178  30.567  1.00  0.00     0.181 C 
BRANCH  33  34
HETATM   34  O2  UNL     1       6.057 -20.250  31.265  1.00  0.00    -0.391 OA
ATOM     35  H2  UNL     1       5.422 -20.912  31.511  1.00  0.00     0.210 HD
ENDBRANCH  33  34
BRANCH  33  36
HETATM   36  C19 UNL     1       6.034 -19.166  29.173  1.00  0.00     0.307 C 
HETATM   37  N3  UNL     1       7.430 -18.941  29.026  1.00  0.00    -0.058 N 
HETATM   38  C20 UNL     1       7.732 -17.796  28.191  1.00  0.00     0.253 C 
ATOM     39  H32 UNL     1       7.884 -18.858  29.936  1.00  0.00     0.278 HD
ATOM     40  H31 UNL     1       7.900 -19.779  28.682  1.00  0.00     0.278 HD
HETATM   41  C21 UNL     1       7.122 -18.110  26.816  1.00  0.00     0.153 C 
HETATM   42  N4  UNL     1       5.690 -17.920  27.032  1.00  0.00    -0.344 N 
HETATM   43  C29 UNL     1       5.176 -18.390  28.245  1.00  0.00     0.253 C 
HETATM   44  O3  UNL     1       3.998 -18.166  28.561  1.00  0.00    -0.271 OA
BRANCH  42  45
HETATM   45  C22 UNL     1       4.904 -17.275  26.006  1.00  0.00     0.164 C 
BRANCH  45  46
HETATM   46  C23 UNL     1       4.782 -15.806  26.215  1.00  0.00    -0.040 A 
HETATM   47  C24 UNL     1       3.692 -15.304  26.892  1.00  0.00     0.009 A 
HETATM   48  C25 UNL     1       3.523 -13.945  27.126  1.00  0.00     0.001 A 
HETATM   49  C26 UNL     1       4.467 -13.046  26.673  1.00  0.00     0.000 A 
HETATM   50  C27 UNL     1       5.559 -13.581  25.992  1.00  0.00     0.001 A 
HETATM   51  C28 UNL     1       5.722 -14.918  25.765  1.00  0.00     0.009 A 
ENDBRANCH  45  46
ENDBRANCH  42  45
ENDBRANCH  33  36
ENDBRANCH   1  33
TORSDOF 10
ENDMDL
