MODEL 6
REMARK VINA RESULT: -9.847056128      3.109     10.734
REMARK  10 active torsions:
REMARK  status: ('A' for Active; 'I' for Inactive)
REMARK    1  A    between atoms: C2_2  and  C3_3 
REMARK    2  A    between atoms: C8_9  and  C9_10 
REMARK       I    between atoms: C9_10  and  N2_12 
REMARK    3  A    between atoms: N2_12  and  C10_14 
REMARK    4  A    between atoms: C10_14  and  C11_15 
REMARK    5  A    between atoms: C10_14  and  C18_22 
REMARK    6  A    between atoms: C11_15  and  C12_16 
REMARK    7  A    between atoms: C18_22  and  O2_23 
REMARK    8  A    between atoms: C18_22  and  C19_25 
REMARK    9  A    between atoms: N4_31  and  C22_32 
REMARK   10  A    between atoms: C22_32  and  C23_33 
ROOT
HETATM    1  C10 UNL     1       5.433 -18.230  31.461  1.00  0.00     0.120 C 
ENDROOT
BRANCH   1   2
HETATM    2  N2  UNL     1       4.043 -17.802  31.571  1.00  0.00    -0.349 N 
HETATM    3  C9  UNL     1       2.974 -18.587  32.025  1.00  0.00     0.252 C 
HETATM    4  O1  UNL     1       3.184 -19.795  32.382  1.00  0.00    -0.268 OA
ATOM      5  H2  UNL     1       3.829 -16.844  31.293  1.00  0.00     0.163 HD
BRANCH   3   6
HETATM    6  C8  UNL     1       1.596 -18.132  32.130  1.00  0.00     0.035 A 
HETATM    7  C7  UNL     1       1.080 -17.195  31.261  1.00  0.00     0.049 A 
HETATM    8  C6  UNL     1      -0.217 -16.732  31.308  1.00  0.00     0.073 A 
HETATM    9  C5  UNL     1      -1.048 -17.238  32.284  1.00  0.00     0.073 A 
HETATM   10  N5  UNL     1      -0.471 -15.759  30.295  1.00  0.00    -0.277 N 
HETATM   11  N1  UNL     1      -2.335 -16.974  32.556  1.00  0.00    -0.352 N 
HETATM   12  C31 UNL     1      -0.592 -18.189  33.197  1.00  0.00     0.002 A 
HETATM   13  C4  UNL     1      -2.682 -17.752  33.630  1.00  0.00     0.099 A 
HETATM   14  C36 UNL     1      -3.214 -16.074  31.879  1.00  0.00     0.155 C 
HETATM   15  C3  UNL     1      -1.630 -18.509  34.045  1.00  0.00    -0.030 A 
HETATM   16  C33 UNL     1      -2.730 -14.673  31.724  1.00  0.00     0.092 C 
HETATM   17  S1  UNL     1      -1.640 -14.488  30.330  1.00  0.00     0.242 S 
HETATM   18  C34 UNL     1      -3.957 -13.806  31.409  1.00  0.00     0.035 C 
HETATM   19  C35 UNL     1      -2.116 -14.110  32.983  1.00  0.00     0.035 C 
HETATM   20  O4  UNL     1      -0.897 -13.194  30.499  1.00  0.00    -0.205 OA
HETATM   21  O5  UNL     1      -2.415 -14.414  29.058  1.00  0.00    -0.205 OA
HETATM   22  C30 UNL     1       0.728 -18.607  33.087  1.00  0.00     0.031 A 
HETATM   23  C32 UNL     1       0.360 -15.864  29.115  1.00  0.00     0.169 C 
BRANCH  15  24
HETATM   24  C2  UNL     1      -1.555 -19.485  35.161  1.00  0.00     0.036 C 
HETATM   25  C1  UNL     1      -2.555 -19.073  36.243  1.00  0.00     0.010 C 
ENDBRANCH  15  24
ENDBRANCH   3   6
ENDBRANCH   1   2
BRANCH   1  26
HETATM   26  C11 UNL     1       5.946 -18.611  32.822  1.00  0.00     0.066 C 
BRANCH  26  27
HETATM   27  C12 UNL     1       7.412 -18.405  32.940  1.00  0.00    -0.056 A 
HETATM   28  C13 UNL     1       7.922 -17.195  32.523  1.00  0.00     0.007 A 
HETATM   29  C14 UNL     1       9.265 -16.945  32.582  1.00  0.00     0.001 A 
HETATM   30  C15 UNL     1      10.088 -17.964  33.080  1.00  0.00     0.000 A 
HETATM   31  C16 UNL     1       9.602 -19.173  33.498  1.00  0.00     0.001 A 
HETATM   32  C17 UNL     1       8.220 -19.391  33.421  1.00  0.00     0.007 A 
ENDBRANCH  26  27
ENDBRANCH   1  26
BRANCH   1  33
HETATM   33  C18 UNL     1       5.501 -19.252  30.404  1.00  0.00     0.181 C 
BRANCH  33  34
HETATM   34  O2  UNL     1       5.978 -20.482  30.833  1.00  0.00    -0.391 OA
ATOM     35  H2  UNL     1       5.447 -21.222  30.560  1.00  0.00     0.210 HD
ENDBRANCH  33  34
BRANCH  33  36
HETATM   36  C19 UNL     1       6.081 -18.914  29.078  1.00  0.00     0.307 C 
HETATM   37  N3  UNL     1       7.345 -18.262  29.098  1.00  0.00    -0.058 N 
HETATM   38  C20 UNL     1       7.332 -16.986  28.412  1.00  0.00     0.253 C 
ATOM     39  H32 UNL     1       7.687 -18.160  30.054  1.00  0.00     0.278 HD
ATOM     40  H31 UNL     1       8.074 -18.870  28.724  1.00  0.00     0.278 HD
HETATM   41  C21 UNL     1       6.945 -17.297  26.958  1.00  0.00     0.153 C 
HETATM   42  N4  UNL     1       5.513 -17.575  27.043  1.00  0.00    -0.344 N 
HETATM   43  C29 UNL     1       5.090 -18.324  28.145  1.00  0.00     0.253 C 
HETATM   44  O3  UNL     1       3.882 -18.505  28.359  1.00  0.00    -0.271 OA
BRANCH  42  45
HETATM   45  C22 UNL     1       4.639 -17.076  26.008  1.00  0.00     0.164 C 
BRANCH  45  46
HETATM   46  C23 UNL     1       4.286 -15.641  26.198  1.00  0.00    -0.040 A 
HETATM   47  C24 UNL     1       4.715 -14.708  25.279  1.00  0.00     0.009 A 
HETATM   48  C25 UNL     1       4.414 -13.357  25.396  1.00  0.00     0.001 A 
HETATM   49  C26 UNL     1       3.661 -12.909  26.461  1.00  0.00     0.000 A 
HETATM   50  C27 UNL     1       3.241 -13.874  27.376  1.00  0.00     0.001 A 
HETATM   51  C28 UNL     1       3.538 -15.201  27.257  1.00  0.00     0.009 A 
ENDBRANCH  45  46
ENDBRANCH  42  45
ENDBRANCH  33  36
ENDBRANCH   1  33
TORSDOF 10
ENDMDL
