MODEL 5
REMARK VINA RESULT: -9.930560069      5.024     12.106
REMARK  10 active torsions:
REMARK  status: ('A' for Active; 'I' for Inactive)
REMARK    1  A    between atoms: C2_2  and  C3_3 
REMARK    2  A    between atoms: C8_9  and  C9_10 
REMARK       I    between atoms: C9_10  and  N2_12 
REMARK    3  A    between atoms: N2_12  and  C10_14 
REMARK    4  A    between atoms: C10_14  and  C11_15 
REMARK    5  A    between atoms: C10_14  and  C18_22 
REMARK    6  A    between atoms: C11_15  and  C12_16 
REMARK    7  A    between atoms: C18_22  and  O2_23 
REMARK    8  A    between atoms: C18_22  and  C19_25 
REMARK    9  A    between atoms: N4_31  and  C22_32 
REMARK   10  A    between atoms: C22_32  and  C23_33 
ROOT
HETATM    1  C10 UNL     1      -1.591 -20.800  36.140  1.00  0.00     0.120 C 
ENDROOT
BRANCH   1   2
HETATM    2  N2  UNL     1      -2.231 -20.934  37.444  1.00  0.00    -0.349 N 
HETATM    3  C9  UNL     1      -1.888 -20.228  38.604  1.00  0.00     0.252 C 
HETATM    4  O1  UNL     1      -0.932 -19.380  38.570  1.00  0.00    -0.268 OA
ATOM      5  H2  UNL     1      -2.998 -21.603  37.518  1.00  0.00     0.163 HD
BRANCH   3   6
HETATM    6  C8  UNL     1      -2.547 -20.378  39.893  1.00  0.00     0.035 A 
HETATM    7  C7  UNL     1      -1.966 -21.091  40.918  1.00  0.00     0.049 A 
HETATM    8  C6  UNL     1      -2.539 -21.262  42.160  1.00  0.00     0.073 A 
HETATM    9  C5  UNL     1      -3.767 -20.682  42.389  1.00  0.00     0.073 A 
HETATM   10  N5  UNL     1      -1.718 -22.054  43.019  1.00  0.00    -0.277 N 
HETATM   11  N1  UNL     1      -4.540 -20.683  43.485  1.00  0.00    -0.352 N 
HETATM   12  C31 UNL     1      -4.413 -19.946  41.396  1.00  0.00     0.002 A 
HETATM   13  C4  UNL     1      -5.661 -19.954  43.182  1.00  0.00     0.099 A 
HETATM   14  C36 UNL     1      -4.282 -21.300  44.748  1.00  0.00     0.155 C 
HETATM   15  C3  UNL     1      -5.610 -19.489  41.903  1.00  0.00    -0.030 A 
HETATM   16  C33 UNL     1      -3.947 -22.751  44.715  1.00  0.00     0.092 C 
HETATM   17  S1  UNL     1      -2.230 -23.036  44.345  1.00  0.00     0.242 S 
HETATM   18  C34 UNL     1      -4.161 -23.294  46.135  1.00  0.00     0.035 C 
HETATM   19  C35 UNL     1      -4.847 -23.553  43.807  1.00  0.00     0.035 C 
HETATM   20  O4  UNL     1      -2.084 -24.471  43.928  1.00  0.00    -0.205 OA
HETATM   21  O5  UNL     1      -1.384 -22.816  45.554  1.00  0.00    -0.205 OA
HETATM   22  C30 UNL     1      -3.773 -19.818  40.170  1.00  0.00     0.031 A 
HETATM   23  C32 UNL     1      -0.302 -22.021  42.725  1.00  0.00     0.169 C 
BRANCH  15  24
HETATM   24  C2  UNL     1      -6.596 -18.664  41.162  1.00  0.00     0.036 C 
HETATM   25  C1  UNL     1      -7.137 -19.481  39.987  1.00  0.00     0.010 C 
ENDBRANCH  15  24
ENDBRANCH   3   6
ENDBRANCH   1   2
BRANCH   1  26
HETATM   26  C11 UNL     1      -0.838 -22.062  35.824  1.00  0.00     0.066 C 
BRANCH  26  27
HETATM   27  C12 UNL     1      -0.738 -22.959  37.003  1.00  0.00    -0.056 A 
HETATM   28  C13 UNL     1       0.044 -22.543  38.058  1.00  0.00     0.007 A 
HETATM   29  C14 UNL     1       0.199 -23.328  39.166  1.00  0.00     0.001 A 
HETATM   30  C15 UNL     1      -0.466 -24.562  39.179  1.00  0.00     0.000 A 
HETATM   31  C16 UNL     1      -1.247 -24.994  38.142  1.00  0.00     0.001 A 
HETATM   32  C17 UNL     1      -1.381 -24.161  37.024  1.00  0.00     0.007 A 
ENDBRANCH  26  27
ENDBRANCH   1  26
BRANCH   1  33
HETATM   33  C18 UNL     1      -2.621 -20.371  35.181  1.00  0.00     0.181 C 
BRANCH  33  34
HETATM   34  O2  UNL     1      -3.457 -21.392  34.750  1.00  0.00    -0.391 OA
ATOM     35  H2  UNL     1      -4.365 -21.288  35.012  1.00  0.00     0.210 HD
ENDBRANCH  33  34
BRANCH  33  36
HETATM   36  C19 UNL     1      -2.255 -19.495  34.037  1.00  0.00     0.307 C 
HETATM   37  N3  UNL     1      -0.889 -19.105  33.962  1.00  0.00    -0.058 N 
HETATM   38  C20 UNL     1      -0.713 -17.667  33.955  1.00  0.00     0.253 C 
ATOM     39  H32 UNL     1      -0.346 -19.536  34.711  1.00  0.00     0.278 HD
ATOM     40  H31 UNL     1      -0.431 -19.534  33.158  1.00  0.00     0.278 HD
HETATM   41  C21 UNL     1      -1.453 -17.162  32.706  1.00  0.00     0.153 C 
HETATM   42  N4  UNL     1      -2.860 -17.263  33.085  1.00  0.00    -0.344 N 
HETATM   43  C29 UNL     1      -3.229 -18.400  33.811  1.00  0.00     0.253 C 
HETATM   44  O3  UNL     1      -4.375 -18.510  34.275  1.00  0.00    -0.271 OA
BRANCH  42  45
HETATM   45  C22 UNL     1      -3.769 -16.209  32.698  1.00  0.00     0.164 C 
BRANCH  45  46
HETATM   46  C23 UNL     1      -3.079 -15.079  32.017  1.00  0.00    -0.040 A 
HETATM   47  C24 UNL     1      -3.109 -14.994  30.642  1.00  0.00     0.009 A 
HETATM   48  C25 UNL     1      -2.491 -13.962  29.946  1.00  0.00     0.001 A 
HETATM   49  C26 UNL     1      -1.818 -12.974  30.636  1.00  0.00     0.000 A 
HETATM   50  C27 UNL     1      -1.803 -13.085  32.025  1.00  0.00     0.001 A 
HETATM   51  C28 UNL     1      -2.412 -14.101  32.705  1.00  0.00     0.009 A 
ENDBRANCH  45  46
ENDBRANCH  42  45
ENDBRANCH  33  36
ENDBRANCH   1  33
TORSDOF 10
ENDMDL
