MODEL 1
REMARK VINA RESULT: -12.387920079      0.000      0.000
REMARK  10 active torsions:
REMARK  status: ('A' for Active; 'I' for Inactive)
REMARK    1  A    between atoms: C2_2  and  C3_3 
REMARK    2  A    between atoms: C8_9  and  C9_10 
REMARK       I    between atoms: C9_10  and  N2_12 
REMARK    3  A    between atoms: N2_12  and  C10_14 
REMARK    4  A    between atoms: C10_14  and  C11_15 
REMARK    5  A    between atoms: C10_14  and  C18_22 
REMARK    6  A    between atoms: C11_15  and  C12_16 
REMARK    7  A    between atoms: C18_22  and  O2_23 
REMARK    8  A    between atoms: C18_22  and  C19_25 
REMARK    9  A    between atoms: N4_31  and  C22_32 
REMARK   10  A    between atoms: C22_32  and  C23_33 
ROOT
HETATM    1  C10 UNL     1      -2.485 -18.203  33.439  1.00  0.00     0.120 C 
ENDROOT
BRANCH   1   2
HETATM    2  N2  UNL     1      -1.511 -18.024  32.368  1.00  0.00    -0.349 N 
HETATM    3  C9  UNL     1      -0.168 -17.657  32.532  1.00  0.00     0.252 C 
HETATM    4  O1  UNL     1       0.292 -17.446  33.705  1.00  0.00    -0.268 OA
ATOM      5  H2  UNL     1      -1.836 -18.180  31.414  1.00  0.00     0.163 HD
BRANCH   3   6
HETATM    6  C8  UNL     1       0.785 -17.490  31.445  1.00  0.00     0.035 A 
HETATM    7  C7  UNL     1       1.954 -18.217  31.397  1.00  0.00     0.049 A 
HETATM    8  C6  UNL     1       2.891 -18.106  30.392  1.00  0.00     0.073 A 
HETATM    9  C5  UNL     1       2.641 -17.213  29.373  1.00  0.00     0.073 A 
HETATM   10  N5  UNL     1       4.005 -18.971  30.607  1.00  0.00    -0.277 N 
HETATM   11  N1  UNL     1       3.363 -16.908  28.285  1.00  0.00    -0.352 N 
HETATM   12  C31 UNL     1       1.477 -16.444  29.358  1.00  0.00     0.002 A 
HETATM   13  C4  UNL     1       2.659 -15.956  27.594  1.00  0.00     0.099 A 
HETATM   14  C36 UNL     1       4.621 -17.451  27.878  1.00  0.00     0.155 C 
HETATM   15  C3  UNL     1       1.495 -15.651  28.232  1.00  0.00    -0.030 A 
HETATM   16  C33 UNL     1       5.715 -17.405  28.889  1.00  0.00     0.092 C 
HETATM   17  S1  UNL     1       5.623 -18.757  30.041  1.00  0.00     0.242 S 
HETATM   18  C34 UNL     1       7.035 -17.595  28.129  1.00  0.00     0.035 C 
HETATM   19  C35 UNL     1       5.815 -16.078  29.602  1.00  0.00     0.035 C 
HETATM   20  O4  UNL     1       6.475 -18.405  31.227  1.00  0.00    -0.205 OA
HETATM   21  O5  UNL     1       6.168 -20.007  29.435  1.00  0.00    -0.205 OA
HETATM   22  C30 UNL     1       0.581 -16.611  30.406  1.00  0.00     0.031 A 
HETATM   23  C32 UNL     1       3.728 -20.154  31.394  1.00  0.00     0.169 C 
BRANCH  15  24
HETATM   24  C2  UNL     1       0.436 -14.685  27.846  1.00  0.00     0.036 C 
HETATM   25  C1  UNL     1      -0.768 -15.464  27.313  1.00  0.00     0.010 C 
ENDBRANCH  15  24
ENDBRANCH   3   6
ENDBRANCH   1   2
BRANCH   1  26
HETATM   26  C11 UNL     1      -3.756 -17.484  33.081  1.00  0.00     0.066 C 
BRANCH  26  27
HETATM   27  C12 UNL     1      -3.490 -16.132  32.524  1.00  0.00    -0.056 A 
HETATM   28  C13 UNL     1      -3.971 -15.855  31.264  1.00  0.00     0.007 A 
HETATM   29  C14 UNL     1      -3.744 -14.639  30.681  1.00  0.00     0.001 A 
HETATM   30  C15 UNL     1      -3.008 -13.700  31.416  1.00  0.00     0.000 A 
HETATM   31  C16 UNL     1      -2.521 -13.956  32.669  1.00  0.00     0.001 A 
HETATM   32  C17 UNL     1      -2.774 -15.214  33.232  1.00  0.00     0.007 A 
ENDBRANCH  26  27
ENDBRANCH   1  26
BRANCH   1  33
HETATM   33  C18 UNL     1      -2.582 -19.645  33.717  1.00  0.00     0.181 C 
BRANCH  33  34
HETATM   34  O2  UNL     1      -3.877 -20.141  33.704  1.00  0.00    -0.391 OA
ATOM     35  H2  UNL     1      -4.001 -20.893  33.136  1.00  0.00     0.210 HD
ENDBRANCH  33  34
BRANCH  33  36
HETATM   36  C19 UNL     1      -1.820 -20.238  34.847  1.00  0.00     0.307 C 
HETATM   37  N3  UNL     1      -1.638 -21.648  34.804  1.00  0.00    -0.058 N 
HETATM   38  C20 UNL     1      -2.155 -22.319  35.981  1.00  0.00     0.253 C 
ATOM     39  H32 UNL     1      -2.041 -22.043  33.954  1.00  0.00     0.278 HD
ATOM     40  H31 UNL     1      -0.658 -21.885  34.650  1.00  0.00     0.278 HD
HETATM   41  C21 UNL     1      -1.369 -21.742  37.169  1.00  0.00     0.153 C 
HETATM   42  N4  UNL     1      -1.945 -20.410  37.339  1.00  0.00    -0.344 N 
HETATM   43  C29 UNL     1      -2.229 -19.702  36.167  1.00  0.00     0.253 C 
HETATM   44  O3  UNL     1      -2.827 -18.616  36.215  1.00  0.00    -0.271 OA
BRANCH  42  45
HETATM   45  C22 UNL     1      -2.181 -19.912  38.673  1.00  0.00     0.164 C 
BRANCH  45  46
HETATM   46  C23 UNL     1      -3.623 -19.928  39.045  1.00  0.00    -0.040 A 
HETATM   47  C24 UNL     1      -4.250 -21.131  39.287  1.00  0.00     0.009 A 
HETATM   48  C25 UNL     1      -5.590 -21.213  39.643  1.00  0.00     0.001 A 
HETATM   49  C26 UNL     1      -6.341 -20.062  39.766  1.00  0.00     0.000 A 
HETATM   50  C27 UNL     1      -5.682 -18.859  39.516  1.00  0.00     0.001 A 
HETATM   51  C28 UNL     1      -4.364 -18.783  39.166  1.00  0.00     0.009 A 
ENDBRANCH  45  46
ENDBRANCH  42  45
ENDBRANCH  33  36
ENDBRANCH   1  33
TORSDOF 10
ENDMDL
