MODEL 4
REMARK VINA RESULT: -8.676247332      2.259      3.789
REMARK  8 active torsions:
REMARK  status: ('A' for Active; 'I' for Inactive)
REMARK    1  A    between atoms: O1_2  and  C2_3 
REMARK    2  A    between atoms: C2_3  and  C3_5 
REMARK    3  A    between atoms: C4_6  and  C6_8 
REMARK    4  A    between atoms: C6_8  and  C7_9 
REMARK    5  A    between atoms: C7_9  and  C8_10 
REMARK    6  A    between atoms: C9_11  and  C11_13 
REMARK    7  A    between atoms: C11_13  and  C12_14 
REMARK    8  A    between atoms: C12_14  and  C13_15 
ROOT
HETATM    1  C8  UNL     1     239.655 -27.246 350.991  1.00  0.00    -0.024 C 
HETATM    2  C9  UNL     1     239.574 -26.754 352.232  1.00  0.00    -0.087 C 
HETATM    3  C10 UNL     1     239.104 -27.667 353.304  1.00  0.00     0.043 C 
ENDROOT
BRANCH   1   4
HETATM    4  C7  UNL     1     239.313 -28.612 350.636  1.00  0.00     0.031 C 
BRANCH   4   5
HETATM    5  C6  UNL     1     237.982 -28.865 350.010  1.00  0.00     0.038 C 
BRANCH   5   6
HETATM    6  C4  UNL     1     236.880 -29.160 350.941  1.00  0.00    -0.078 C 
HETATM    7  C3  UNL     1     235.745 -28.492 350.847  1.00  0.00     0.084 C 
HETATM    8  C5  UNL     1     237.054 -30.244 351.962  1.00  0.00     0.043 C 
BRANCH   7   9
HETATM    9  C2  UNL     1     234.604 -28.730 351.689  1.00  0.00     0.282 C 
HETATM   10  O2  UNL     1     233.894 -29.737 351.534  1.00  0.00    -0.260 OA
BRANCH   9  11
HETATM   11  O1  UNL     1     234.303 -27.801 352.694  1.00  0.00    -0.323 OA
HETATM   12  C1  UNL     1     234.582 -26.442 352.450  1.00  0.00     0.213 C 
ENDBRANCH   9  11
ENDBRANCH   7   9
ENDBRANCH   5   6
ENDBRANCH   4   5
ENDBRANCH   1   4
BRANCH   2  13
HETATM   13  C11 UNL     1     239.924 -25.362 352.597  1.00  0.00     0.036 C 
BRANCH  13  14
HETATM   14  C12 UNL     1     241.403 -25.208 352.878  1.00  0.00     0.039 C 
BRANCH  14  15
HETATM   15  C13 UNL     1     241.844 -23.877 352.324  1.00  0.00     0.156 A 
HETATM   16  O3  UNL     1     241.028 -22.814 352.744  1.00  0.00    -0.370 OA
HETATM   17  C14 UNL     1     242.305 -22.802 353.255  1.00  0.00     0.080 A 
HETATM   18  C15 UNL     1     242.581 -23.245 354.661  1.00  0.00     0.048 C 
HETATM   19  C16 UNL     1     243.188 -21.708 352.690  1.00  0.00     0.048 C 
ENDBRANCH  14  15
ENDBRANCH  13  14
ENDBRANCH   2  13
TORSDOF 8
ENDMDL
