MODEL 1
REMARK VINA RESULT: -8.734843631      0.000      0.000
REMARK  8 active torsions:
REMARK  status: ('A' for Active; 'I' for Inactive)
REMARK    1  A    between atoms: O1_2  and  C2_3 
REMARK    2  A    between atoms: C2_3  and  C3_5 
REMARK    3  A    between atoms: C4_6  and  C6_8 
REMARK    4  A    between atoms: C6_8  and  C7_9 
REMARK    5  A    between atoms: C7_9  and  C8_10 
REMARK    6  A    between atoms: C9_11  and  C11_13 
REMARK    7  A    between atoms: C11_13  and  C12_14 
REMARK    8  A    between atoms: C12_14  and  C13_15 
ROOT
HETATM    1  C8  UNL     1     241.290 -24.341 352.788  1.00  0.00    -0.024 C 
HETATM    2  C9  UNL     1     242.188 -24.534 353.760  1.00  0.00    -0.087 C 
HETATM    3  C10 UNL     1     242.606 -25.930 354.042  1.00  0.00     0.043 C 
ENDROOT
BRANCH   1   4
HETATM    4  C7  UNL     1     240.705 -25.411 351.999  1.00  0.00     0.031 C 
BRANCH   4   5
HETATM    5  C6  UNL     1     239.398 -25.980 352.441  1.00  0.00     0.038 C 
BRANCH   5   6
HETATM    6  C4  UNL     1     239.063 -27.311 351.907  1.00  0.00    -0.078 C 
HETATM    7  C3  UNL     1     238.095 -28.016 352.462  1.00  0.00     0.084 C 
HETATM    8  C5  UNL     1     239.807 -27.828 350.712  1.00  0.00     0.043 C 
BRANCH   7   9
HETATM    9  C2  UNL     1     237.676 -29.309 351.991  1.00  0.00     0.282 C 
HETATM   10  O2  UNL     1     238.135 -30.349 352.490  1.00  0.00    -0.260 OA
BRANCH   9  11
HETATM   11  O1  UNL     1     236.737 -29.376 350.954  1.00  0.00    -0.323 OA
HETATM   12  C1  UNL     1     237.026 -30.197 349.846  1.00  0.00     0.213 C 
ENDBRANCH   9  11
ENDBRANCH   7   9
ENDBRANCH   5   6
ENDBRANCH   4   5
ENDBRANCH   1   4
BRANCH   2  13
HETATM   13  C11 UNL     1     242.786 -23.443 354.566  1.00  0.00     0.036 C 
BRANCH  13  14
HETATM   14  C12 UNL     1     242.765 -22.122 353.828  1.00  0.00     0.039 C 
BRANCH  14  15
HETATM   15  C13 UNL     1     242.138 -21.095 354.736  1.00  0.00     0.156 A 
HETATM   16  O3  UNL     1     242.264 -19.784 354.245  1.00  0.00    -0.370 OA
HETATM   17  C14 UNL     1     240.981 -20.282 354.248  1.00  0.00     0.080 A 
HETATM   18  C15 UNL     1     240.338 -20.774 352.986  1.00  0.00     0.048 C 
HETATM   19  C16 UNL     1     240.074 -19.650 355.285  1.00  0.00     0.048 C 
ENDBRANCH  14  15
ENDBRANCH  13  14
ENDBRANCH   2  13
TORSDOF 8
ENDMDL
