MODEL 12
REMARK VINA RESULT: -8.436193295      1.959      8.612
REMARK  8 active torsions:
REMARK  status: ('A' for Active; 'I' for Inactive)
REMARK    1  A    between atoms: O1_2  and  C2_3 
REMARK    2  A    between atoms: C2_3  and  C3_5 
REMARK    3  A    between atoms: C4_6  and  C6_8 
REMARK    4  A    between atoms: C6_8  and  C7_9 
REMARK    5  A    between atoms: C7_9  and  C8_10 
REMARK    6  A    between atoms: C9_11  and  C11_13 
REMARK    7  A    between atoms: C11_13  and  C12_14 
REMARK    8  A    between atoms: C12_14  and  C13_15 
ROOT
HETATM    1  C8  UNL     1     239.685 -25.896 352.603  1.00  0.00    -0.024 C 
HETATM    2  C9  UNL     1     239.139 -26.959 352.003  1.00  0.00    -0.087 C 
HETATM    3  C10 UNL     1     239.852 -27.529 350.832  1.00  0.00     0.043 C 
ENDROOT
BRANCH   1   4
HETATM    4  C7  UNL     1     240.928 -25.275 352.179  1.00  0.00     0.031 C 
BRANCH   4   5
HETATM    5  C6  UNL     1     242.014 -25.110 353.190  1.00  0.00     0.038 C 
BRANCH   5   6
HETATM    6  C4  UNL     1     242.257 -23.734 353.654  1.00  0.00    -0.078 C 
HETATM    7  C3  UNL     1     242.534 -23.509 354.924  1.00  0.00     0.084 C 
HETATM    8  C5  UNL     1     242.221 -22.610 352.662  1.00  0.00     0.043 C 
BRANCH   7   9
HETATM    9  C2  UNL     1     242.816 -22.207 355.464  1.00  0.00     0.282 C 
HETATM   10  O2  UNL     1     241.942 -21.325 355.496  1.00  0.00    -0.260 OA
BRANCH   9  11
HETATM   11  O1  UNL     1     244.101 -21.944 355.955  1.00  0.00    -0.323 OA
HETATM   12  C1  UNL     1     244.763 -22.964 356.667  1.00  0.00     0.213 C 
ENDBRANCH   9  11
ENDBRANCH   7   9
ENDBRANCH   5   6
ENDBRANCH   4   5
ENDBRANCH   1   4
BRANCH   2  13
HETATM   13  C11 UNL     1     237.872 -27.595 352.434  1.00  0.00     0.036 C 
BRANCH  13  14
HETATM   14  C12 UNL     1     237.228 -28.383 351.314  1.00  0.00     0.039 C 
BRANCH  14  15
HETATM   15  C13 UNL     1     235.738 -28.161 351.389  1.00  0.00     0.156 A 
HETATM   16  O3  UNL     1     235.035 -28.836 350.377  1.00  0.00    -0.370 OA
HETATM   17  C14 UNL     1     234.829 -29.319 351.649  1.00  0.00     0.080 A 
HETATM   18  C15 UNL     1     235.504 -30.573 352.120  1.00  0.00     0.048 C 
HETATM   19  C16 UNL     1     233.451 -29.024 352.207  1.00  0.00     0.048 C 
ENDBRANCH  14  15
ENDBRANCH  13  14
ENDBRANCH   2  13
TORSDOF 8
ENDMDL
