MODEL 2
REMARK VINA RESULT: -9.483610164      0.136      1.164
REMARK  1 active torsions:
REMARK  status: ('A' for Active; 'I' for Inactive)
REMARK    1  A    between atoms: C5_6  and  C6_7 
ROOT
HETATM    1  N1  UNL     1      16.074  26.589  -7.435  1.00  0.00    -0.191 NA
HETATM    2  C1  UNL     1      15.552  26.261  -6.449  1.00  0.00     0.099 C 
HETATM    3  C2  UNL     1      14.916  25.848  -5.216  1.00  0.00     0.044 A 
HETATM    4  C3  UNL     1      15.335  24.690  -4.581  1.00  0.00     0.023 A 
HETATM    5  C4  UNL     1      14.744  24.275  -3.404  1.00  0.00     0.015 A 
HETATM    6  C5  UNL     1      13.717  25.019  -2.841  1.00  0.00    -0.007 A 
HETATM    7  C12 UNL     1      13.293  26.170  -3.462  1.00  0.00     0.015 A 
HETATM    8  C13 UNL     1      13.893  26.579  -4.644  1.00  0.00     0.023 A 
ENDROOT
BRANCH   6   9
HETATM    9  C6  UNL     1      13.130  24.541  -1.604  1.00  0.00     0.068 A 
HETATM   10  C7  UNL     1      12.496  25.379  -0.711  1.00  0.00     0.032 A 
HETATM   11  C8  UNL     1      11.947  24.894   0.457  1.00  0.00     0.006 A 
HETATM   12  C9  UNL     1      12.024  23.550   0.753  1.00  0.00     0.050 A 
HETATM   13  C10 UNL     1      12.663  22.732  -0.156  1.00  0.00     0.128 A 
HETATM   14  N2  UNL     1      12.905  21.410  -0.171  1.00  0.00    -0.336 N 
HETATM   15  N4  UNL     1      13.195  23.217  -1.291  1.00  0.00    -0.238 N 
HETATM   16  C11 UNL     1      13.572  21.069  -1.287  1.00  0.00     0.199 A 
ATOM     17  H2  UNL     1      12.624  20.759   0.560  1.00  0.00     0.168 HD
HETATM   18  N3  UNL     1      13.745  22.210  -1.976  1.00  0.00    -0.287 N 
ATOM     19  H3  UNL     1      14.220  22.293  -2.875  1.00  0.00     0.188 HD
ENDBRANCH   6   9
TORSDOF 1
ENDMDL
