MODEL 5
REMARK VINA RESULT: -8.755535824      2.297      6.434
REMARK  1 active torsions:
REMARK  status: ('A' for Active; 'I' for Inactive)
REMARK    1  A    between atoms: C5_6  and  C6_7 
ROOT
HETATM    1  N1  UNL     1      12.359  22.770   1.559  1.00  0.00    -0.191 NA
HETATM    2  C1  UNL     1      12.744  23.359   0.634  1.00  0.00     0.099 C 
HETATM    3  C2  UNL     1      13.229  24.080  -0.524  1.00  0.00     0.044 A 
HETATM    4  C3  UNL     1      14.480  23.786  -1.041  1.00  0.00     0.023 A 
HETATM    5  C4  UNL     1      14.965  24.460  -2.144  1.00  0.00     0.015 A 
HETATM    6  C5  UNL     1      14.200  25.445  -2.751  1.00  0.00    -0.007 A 
HETATM    7  C12 UNL     1      12.956  25.746  -2.246  1.00  0.00     0.015 A 
HETATM    8  C13 UNL     1      12.478  25.063  -1.137  1.00  0.00     0.023 A 
ENDROOT
BRANCH   6   9
HETATM    9  C6  UNL     1      14.754  26.124  -3.907  1.00  0.00     0.068 A 
HETATM   10  C7  UNL     1      14.184  26.042  -5.159  1.00  0.00     0.032 A 
HETATM   11  C8  UNL     1      14.734  26.699  -6.239  1.00  0.00     0.006 A 
HETATM   12  C9  UNL     1      15.877  27.455  -6.081  1.00  0.00     0.050 A 
HETATM   13  C10 UNL     1      16.429  27.520  -4.818  1.00  0.00     0.128 A 
HETATM   14  N2  UNL     1      17.512  28.152  -4.335  1.00  0.00    -0.336 N 
HETATM   15  N4  UNL     1      15.882  26.875  -3.774  1.00  0.00    -0.238 N 
HETATM   16  C11 UNL     1      17.645  27.913  -3.019  1.00  0.00     0.199 A 
ATOM     17  H2  UNL     1      18.143  28.731  -4.888  1.00  0.00     0.168 HD
HETATM   18  N3  UNL     1      16.619  27.113  -2.684  1.00  0.00    -0.287 N 
ATOM     19  H3  UNL     1      16.433  26.747  -1.751  1.00  0.00     0.188 HD
ENDBRANCH   6   9
TORSDOF 1
ENDMDL
