MODEL 6
REMARK VINA RESULT: -8.740322878      2.319      6.346
REMARK  1 active torsions:
REMARK  status: ('A' for Active; 'I' for Inactive)
REMARK    1  A    between atoms: C5_6  and  C6_7 
ROOT
HETATM    1  N1  UNL     1      12.316  22.755   1.567  1.00  0.00    -0.191 NA
HETATM    2  C1  UNL     1      12.769  23.294   0.641  1.00  0.00     0.099 C 
HETATM    3  C2  UNL     1      13.327  23.977  -0.507  1.00  0.00     0.044 A 
HETATM    4  C3  UNL     1      12.566  24.916  -1.183  1.00  0.00     0.023 A 
HETATM    5  C4  UNL     1      13.075  25.581  -2.281  1.00  0.00     0.015 A 
HETATM    6  C5  UNL     1      14.364  25.314  -2.722  1.00  0.00    -0.007 A 
HETATM    7  C12 UNL     1      15.128  24.383  -2.058  1.00  0.00     0.015 A 
HETATM    8  C13 UNL     1      14.608  23.721  -0.956  1.00  0.00     0.023 A 
ENDROOT
BRANCH   6   9
HETATM    9  C6  UNL     1      14.852  26.039  -3.879  1.00  0.00     0.068 A 
HETATM   10  C7  UNL     1      14.256  25.945  -5.119  1.00  0.00     0.032 A 
HETATM   11  C8  UNL     1      14.743  26.647  -6.200  1.00  0.00     0.006 A 
HETATM   12  C9  UNL     1      15.847  27.461  -6.057  1.00  0.00     0.050 A 
HETATM   13  C10 UNL     1      16.426  27.538  -4.807  1.00  0.00     0.128 A 
HETATM   14  N2  UNL     1      17.484  28.221  -4.339  1.00  0.00    -0.336 N 
HETATM   15  N4  UNL     1      15.940  26.848  -3.761  1.00  0.00    -0.238 N 
HETATM   16  C11 UNL     1      17.663  27.970  -3.031  1.00  0.00     0.199 A 
ATOM     17  H2  UNL     1      18.069  28.842  -4.898  1.00  0.00     0.168 HD
HETATM   18  N3  UNL     1      16.690  27.110  -2.685  1.00  0.00    -0.287 N 
ATOM     19  H3  UNL     1      16.547  26.720  -1.754  1.00  0.00     0.188 HD
ENDBRANCH   6   9
TORSDOF 1
ENDMDL
