MODEL 3
REMARK VINA RESULT: -9.364450206      1.714      2.212
REMARK  1 active torsions:
REMARK  status: ('A' for Active; 'I' for Inactive)
REMARK    1  A    between atoms: C5_6  and  C6_7 
ROOT
HETATM    1  N1  UNL     1      16.198  26.265  -8.070  1.00  0.00    -0.191 NA
HETATM    2  C1  UNL     1      15.688  26.079  -7.042  1.00  0.00     0.099 C 
HETATM    3  C2  UNL     1      15.065  25.842  -5.757  1.00  0.00     0.044 A 
HETATM    4  C3  UNL     1      15.385  24.700  -5.040  1.00  0.00     0.023 A 
HETATM    5  C4  UNL     1      14.804  24.451  -3.812  1.00  0.00     0.015 A 
HETATM    6  C5  UNL     1      13.889  25.348  -3.280  1.00  0.00    -0.007 A 
HETATM    7  C12 UNL     1      13.565  26.484  -3.983  1.00  0.00     0.015 A 
HETATM    8  C13 UNL     1      14.153  26.726  -5.215  1.00  0.00     0.023 A 
ENDROOT
BRANCH   6   9
HETATM    9  C6  UNL     1      13.308  25.041  -1.986  1.00  0.00     0.068 A 
HETATM   10  C7  UNL     1      11.946  25.016  -1.773  1.00  0.00     0.032 A 
HETATM   11  C8  UNL     1      11.424  24.720  -0.532  1.00  0.00     0.006 A 
HETATM   12  C9  UNL     1      12.264  24.443   0.526  1.00  0.00     0.050 A 
HETATM   13  C10 UNL     1      13.623  24.475   0.287  1.00  0.00     0.128 A 
HETATM   14  N2  UNL     1      14.687  24.259   1.077  1.00  0.00    -0.336 N 
HETATM   15  N4  UNL     1      14.119  24.765  -0.928  1.00  0.00    -0.238 N 
HETATM   16  C11 UNL     1      15.826  24.407   0.381  1.00  0.00     0.199 A 
ATOM     17  H2  UNL     1      14.637  24.016   2.067  1.00  0.00     0.168 HD
HETATM   18  N3  UNL     1      15.454  24.724  -0.871  1.00  0.00    -0.287 N 
ATOM     19  H3  UNL     1      16.087  24.904  -1.650  1.00  0.00     0.188 HD
ENDBRANCH   6   9
TORSDOF 1
ENDMDL
