MODEL 4
REMARK VINA RESULT: -8.764351588      1.985      5.914
REMARK  1 active torsions:
REMARK  status: ('A' for Active; 'I' for Inactive)
REMARK    1  A    between atoms: C5_6  and  C6_7 
ROOT
HETATM    1  N1  UNL     1       9.562  23.741   2.990  1.00  0.00    -0.191 NA
HETATM    2  C1  UNL     1      10.136  24.017   2.018  1.00  0.00     0.099 C 
HETATM    3  C2  UNL     1      10.863  24.360   0.813  1.00  0.00     0.044 A 
HETATM    4  C3  UNL     1      12.002  25.145   0.899  1.00  0.00     0.023 A 
HETATM    5  C4  UNL     1      12.713  25.485  -0.235  1.00  0.00     0.015 A 
HETATM    6  C5  UNL     1      12.292  25.041  -1.481  1.00  0.00    -0.007 A 
HETATM    7  C12 UNL     1      11.163  24.261  -1.577  1.00  0.00     0.015 A 
HETATM    8  C13 UNL     1      10.456  23.924  -0.432  1.00  0.00     0.023 A 
ENDROOT
BRANCH   6   9
HETATM    9  C6  UNL     1      13.073  25.425  -2.641  1.00  0.00     0.068 A 
HETATM   10  C7  UNL     1      12.888  26.625  -3.295  1.00  0.00     0.032 A 
HETATM   11  C8  UNL     1      13.647  26.962  -4.395  1.00  0.00     0.006 A 
HETATM   12  C9  UNL     1      14.612  26.095  -4.863  1.00  0.00     0.050 A 
HETATM   13  C10 UNL     1      14.778  24.901  -4.192  1.00  0.00     0.128 A 
HETATM   14  N2  UNL     1      15.608  23.862  -4.383  1.00  0.00    -0.336 N 
HETATM   15  N4  UNL     1      14.031  24.584  -3.120  1.00  0.00    -0.238 N 
HETATM   16  C11 UNL     1      15.392  22.913  -3.456  1.00  0.00     0.199 A 
ATOM     17  H2  UNL     1      16.303  23.802  -5.126  1.00  0.00     0.168 HD
HETATM   18  N3  UNL     1      14.403  23.380  -2.674  1.00  0.00    -0.287 N 
ATOM     19  H3  UNL     1      14.002  22.895  -1.873  1.00  0.00     0.188 HD
ENDBRANCH   6   9
TORSDOF 1
ENDMDL
