MODEL 1
REMARK VINA RESULT: -9.597990699      0.000      0.000
REMARK  1 active torsions:
REMARK  status: ('A' for Active; 'I' for Inactive)
REMARK    1  A    between atoms: C5_6  and  C6_7 
ROOT
HETATM    1  N1  UNL     1      16.010  26.627  -7.408  1.00  0.00    -0.191 NA
HETATM    2  C1  UNL     1      15.542  26.242  -6.416  1.00  0.00     0.099 C 
HETATM    3  C2  UNL     1      14.946  25.766  -5.185  1.00  0.00     0.044 A 
HETATM    4  C3  UNL     1      13.915  26.483  -4.600  1.00  0.00     0.023 A 
HETATM    5  C4  UNL     1      13.330  26.050  -3.426  1.00  0.00     0.015 A 
HETATM    6  C5  UNL     1      13.773  24.885  -2.816  1.00  0.00    -0.007 A 
HETATM    7  C12 UNL     1      14.796  24.165  -3.388  1.00  0.00     0.015 A 
HETATM    8  C13 UNL     1      15.376  24.608  -4.568  1.00  0.00     0.023 A 
ENDROOT
BRANCH   6   9
HETATM    9  C6  UNL     1      13.126  24.473  -1.585  1.00  0.00     0.068 A 
HETATM   10  C7  UNL     1      12.519  25.369  -0.730  1.00  0.00     0.032 A 
HETATM   11  C8  UNL     1      11.912  24.946   0.433  1.00  0.00     0.006 A 
HETATM   12  C9  UNL     1      11.904  23.608   0.764  1.00  0.00     0.050 A 
HETATM   13  C10 UNL     1      12.518  22.731  -0.107  1.00  0.00     0.128 A 
HETATM   14  N2  UNL     1      12.684  21.398  -0.084  1.00  0.00    -0.336 N 
HETATM   15  N4  UNL     1      13.106  23.156  -1.238  1.00  0.00    -0.238 N 
HETATM   16  C11 UNL     1      13.358  20.991  -1.173  1.00  0.00     0.199 A 
ATOM     17  H2  UNL     1      12.345  20.783   0.655  1.00  0.00     0.168 HD
HETATM   18  N3  UNL     1      13.615  22.101  -1.884  1.00  0.00    -0.287 N 
ATOM     19  H3  UNL     1      14.117  22.135  -2.771  1.00  0.00     0.188 HD
ENDBRANCH   6   9
TORSDOF 1
ENDMDL
