MODEL 1
REMARK VINA RESULT: -10.108367492      0.000      0.000
REMARK  6 active torsions:
REMARK  status: ('A' for Active; 'I' for Inactive)
REMARK       I    between atoms: N1_2  and  C2_4 
REMARK    1  A    between atoms: C2_4  and  C3_6 
REMARK    2  A    between atoms: C4_7  and  C5_8 
REMARK    3  A    between atoms: C8_11  and  O2_12 
REMARK    4  A    between atoms: C14_20  and  O4_21 
REMARK    5  A    between atoms: C15_23  and  C16_24 
REMARK    6  A    between atoms: C16_24  and  N2_25 
ROOT
HETATM    1  C3  UNL     1       4.823  25.936   6.817  1.00  0.00     0.080 A 
HETATM    2  C4  UNL     1       4.561  24.673   7.245  1.00  0.00     0.103 A 
HETATM    3  O3  UNL     1       3.499  24.746   8.063  1.00  0.00    -0.308 OA
HETATM    4  C11 UNL     1       3.078  25.956   8.178  1.00  0.00     0.088 A 
HETATM    5  C12 UNL     1       2.069  26.517   8.915  1.00  0.00     0.041 A 
HETATM    6  C13 UNL     1       1.827  27.863   8.910  1.00  0.00     0.040 A 
HETATM    7  C14 UNL     1       2.617  28.673   8.127  1.00  0.00     0.074 A 
HETATM    8  C15 UNL     1       3.638  28.121   7.366  1.00  0.00     0.007 A 
HETATM    9  C22 UNL     1       3.889  26.785   7.381  1.00  0.00     0.027 A 
ENDROOT
BRANCH   2  10
HETATM   10  C5  UNL     1       5.228  23.429   6.937  1.00  0.00    -0.001 A 
HETATM   11  C6  UNL     1       4.582  22.502   6.081  1.00  0.00     0.017 A 
HETATM   12  C7  UNL     1       5.110  21.283   5.756  1.00  0.00     0.037 A 
HETATM   13  C8  UNL     1       6.331  20.903   6.264  1.00  0.00     0.065 A 
HETATM   14  C9  UNL     1       6.985  21.799   7.107  1.00  0.00     0.037 A 
HETATM   15  C10 UNL     1       6.449  23.048   7.448  1.00  0.00     0.017 A 
BRANCH  13  16
HETATM   16  O2  UNL     1       6.904  19.684   5.959  1.00  0.00    -0.361 OA
ATOM     17  H2  UNL     1       6.574  18.868   6.318  1.00  0.00     0.217 HD
ENDBRANCH  13  16
ENDBRANCH   2  10
BRANCH   1  18
HETATM   18  C2  UNL     1       6.025  26.383   6.089  1.00  0.00     0.255 C 
HETATM   19  N1  UNL     1       7.211  26.422   6.909  1.00  0.00    -0.361 N 
HETATM   20  C1  UNL     1       8.511  26.794   6.501  1.00  0.00     0.149 C 
ATOM     21  H1  UNL     1       7.100  26.153   7.887  1.00  0.00     0.162 HD
HETATM   22  O1  UNL     1       6.099  26.708   4.898  1.00  0.00    -0.268 OA
ENDBRANCH   1  18
BRANCH   8  23
HETATM   23  C16 UNL     1       4.412  29.074   6.497  1.00  0.00     0.164 C 
BRANCH  23  24
HETATM   24  N2  UNL     1       5.355  29.756   7.355  1.00  0.00    -0.389 N 
HETATM   25  C17 UNL     1       5.047  30.097   8.631  1.00  0.00     0.058 C 
HETATM   26  C18 UNL     1       6.134  30.817   9.414  1.00  0.00     0.044 C 
HETATM   27  C19 UNL     1       6.979  31.681   8.540  1.00  0.00     0.007 C 
HETATM   28  C20 UNL     1       7.608  30.766   7.541  1.00  0.00     0.020 C 
HETATM   29  C21 UNL     1       6.683  29.838   6.869  1.00  0.00     0.122 C 
ENDBRANCH  23  24
ENDBRANCH   8  23
BRANCH   7  30
HETATM   30  O4  UNL     1       2.390  30.007   8.114  1.00  0.00    -0.360 OA
ATOM     31  H4  UNL     1       2.069  30.417   7.319  1.00  0.00     0.217 HD
ENDBRANCH   7  30
TORSDOF 6
ENDMDL
