MODEL 4
REMARK VINA RESULT: -8.892420881      8.361     10.835
REMARK  6 active torsions:
REMARK  status: ('A' for Active; 'I' for Inactive)
REMARK       I    between atoms: N1_2  and  C2_4 
REMARK    1  A    between atoms: C2_4  and  C3_6 
REMARK    2  A    between atoms: C4_7  and  C5_8 
REMARK    3  A    between atoms: C8_11  and  O2_12 
REMARK    4  A    between atoms: C14_20  and  O4_21 
REMARK    5  A    between atoms: C15_23  and  C16_24 
REMARK    6  A    between atoms: C16_24  and  N2_25 
ROOT
HETATM    1  C3  UNL     1      -0.528  20.469   3.140  1.00  0.00     0.080 A 
HETATM    2  C4  UNL     1      -0.978  21.303   2.166  1.00  0.00     0.103 A 
HETATM    3  O3  UNL     1      -2.246  20.953   1.901  1.00  0.00    -0.308 OA
HETATM    4  C11 UNL     1      -2.623  19.965   2.636  1.00  0.00     0.088 A 
HETATM    5  C12 UNL     1      -3.792  19.254   2.697  1.00  0.00     0.041 A 
HETATM    6  C13 UNL     1      -3.953  18.194   3.547  1.00  0.00     0.040 A 
HETATM    7  C14 UNL     1      -2.909  17.845   4.373  1.00  0.00     0.074 A 
HETATM    8  C15 UNL     1      -1.721  18.561   4.331  1.00  0.00     0.007 A 
HETATM    9  C22 UNL     1      -1.554  19.605   3.477  1.00  0.00     0.027 A 
ENDROOT
BRANCH   2  10
HETATM   10  C5  UNL     1      -0.307  22.387   1.486  1.00  0.00    -0.001 A 
HETATM   11  C6  UNL     1      -0.583  23.718   1.887  1.00  0.00     0.017 A 
HETATM   12  C7  UNL     1      -0.030  24.816   1.287  1.00  0.00     0.037 A 
HETATM   13  C8  UNL     1       0.846  24.659   0.238  1.00  0.00     0.065 A 
HETATM   14  C9  UNL     1       1.134  23.359  -0.172  1.00  0.00     0.037 A 
HETATM   15  C10 UNL     1       0.568  22.229   0.435  1.00  0.00     0.017 A 
BRANCH  13  16
HETATM   16  O2  UNL     1       1.432  25.738  -0.395  1.00  0.00    -0.361 OA
ATOM     17  H2  UNL     1       1.455  25.815  -1.342  1.00  0.00     0.217 HD
ENDBRANCH  13  16
ENDBRANCH   2  10
BRANCH   1  18
HETATM   18  C2  UNL     1       0.868  20.322   3.592  1.00  0.00     0.255 C 
HETATM   19  N1  UNL     1       1.673  19.507   2.715  1.00  0.00    -0.361 N 
HETATM   20  C1  UNL     1       3.041  19.193   2.870  1.00  0.00     0.149 C 
ATOM     21  H1  UNL     1       1.205  19.116   1.897  1.00  0.00     0.162 HD
HETATM   22  O1  UNL     1       1.380  20.814   4.604  1.00  0.00    -0.268 OA
ENDBRANCH   1  18
BRANCH   8  23
HETATM   23  C16 UNL     1      -0.657  18.146   5.310  1.00  0.00     0.164 C 
BRANCH  23  24
HETATM   24  N2  UNL     1      -0.914  18.860   6.540  1.00  0.00    -0.389 N 
HETATM   25  C17 UNL     1      -0.395  18.454   7.727  1.00  0.00     0.058 C 
HETATM   26  C18 UNL     1      -0.754  19.297   8.940  1.00  0.00     0.044 C 
HETATM   27  C19 UNL     1      -2.117  19.892   8.828  1.00  0.00     0.007 C 
HETATM   28  C20 UNL     1      -2.090  20.758   7.611  1.00  0.00     0.020 C 
HETATM   29  C21 UNL     1      -1.537  20.124   6.401  1.00  0.00     0.122 C 
ENDBRANCH  23  24
ENDBRANCH   8  23
BRANCH   7  30
HETATM   30  O4  UNL     1      -3.054  16.797   5.217  1.00  0.00    -0.360 OA
ATOM     31  H4  UNL     1      -2.280  16.367   5.563  1.00  0.00     0.217 HD
ENDBRANCH   7  30
TORSDOF 6
ENDMDL
