MODEL 5
REMARK VINA RESULT: -8.758649367      2.422      7.028
REMARK  6 active torsions:
REMARK  status: ('A' for Active; 'I' for Inactive)
REMARK       I    between atoms: N1_2  and  C2_4 
REMARK    1  A    between atoms: C2_4  and  C3_6 
REMARK    2  A    between atoms: C4_7  and  C5_8 
REMARK    3  A    between atoms: C8_11  and  O2_12 
REMARK    4  A    between atoms: C14_20  and  O4_21 
REMARK    5  A    between atoms: C15_23  and  C16_24 
REMARK    6  A    between atoms: C16_24  and  N2_25 
ROOT
HETATM    1  C3  UNL     1       6.808  25.568   6.122  1.00  0.00     0.080 A 
HETATM    2  C4  UNL     1       5.484  25.769   6.357  1.00  0.00     0.103 A 
HETATM    3  O3  UNL     1       4.865  24.594   6.160  1.00  0.00    -0.308 OA
HETATM    4  C11 UNL     1       5.700  23.675   5.821  1.00  0.00     0.088 A 
HETATM    5  C12 UNL     1       5.537  22.357   5.487  1.00  0.00     0.041 A 
HETATM    6  C13 UNL     1       6.589  21.567   5.112  1.00  0.00     0.040 A 
HETATM    7  C14 UNL     1       7.850  22.116   5.084  1.00  0.00     0.074 A 
HETATM    8  C15 UNL     1       8.036  23.448   5.429  1.00  0.00     0.007 A 
HETATM    9  C22 UNL     1       6.989  24.238   5.788  1.00  0.00     0.027 A 
ENDROOT
BRANCH   2  10
HETATM   10  C5  UNL     1       4.781  26.967   6.752  1.00  0.00    -0.001 A 
HETATM   11  C6  UNL     1       3.691  26.854   7.650  1.00  0.00     0.017 A 
HETATM   12  C7  UNL     1       2.937  27.921   8.058  1.00  0.00     0.037 A 
HETATM   13  C8  UNL     1       3.224  29.185   7.595  1.00  0.00     0.065 A 
HETATM   14  C9  UNL     1       4.293  29.320   6.712  1.00  0.00     0.037 A 
HETATM   15  C10 UNL     1       5.067  28.231   6.286  1.00  0.00     0.017 A 
BRANCH  13  16
HETATM   16  O2  UNL     1       2.493  30.291   7.983  1.00  0.00    -0.361 OA
ATOM     17  H2  UNL     1       2.358  30.509   8.898  1.00  0.00     0.217 HD
ENDBRANCH  13  16
ENDBRANCH   2  10
BRANCH   1  18
HETATM   18  C2  UNL     1       7.843  26.609   5.992  1.00  0.00     0.255 C 
HETATM   19  N1  UNL     1       8.468  26.958   7.245  1.00  0.00    -0.361 N 
HETATM   20  C1  UNL     1       9.496  27.905   7.444  1.00  0.00     0.149 C 
ATOM     21  H1  UNL     1       8.131  26.468   8.075  1.00  0.00     0.162 HD
HETATM   22  O1  UNL     1       8.204  27.178   4.955  1.00  0.00    -0.268 OA
ENDBRANCH   1  18
BRANCH   8  23
HETATM   23  C16 UNL     1       9.455  23.946   5.426  1.00  0.00     0.164 C 
BRANCH  23  24
HETATM   24  N2  UNL     1      10.095  23.401   6.602  1.00  0.00    -0.389 N 
HETATM   25  C17 UNL     1      11.375  22.950   6.577  1.00  0.00     0.058 C 
HETATM   26  C18 UNL     1      11.917  22.397   7.886  1.00  0.00     0.044 C 
HETATM   27  C19 UNL     1      10.855  21.737   8.700  1.00  0.00     0.007 C 
HETATM   28  C20 UNL     1       9.842  22.796   8.990  1.00  0.00     0.020 C 
HETATM   29  C21 UNL     1       9.399  23.578   7.822  1.00  0.00     0.122 C 
ENDBRANCH  23  24
ENDBRANCH   8  23
BRANCH   7  30
HETATM   30  O4  UNL     1       8.900  21.347   4.713  1.00  0.00    -0.360 OA
ATOM     31  H4  UNL     1       8.740  20.539   4.239  1.00  0.00     0.217 HD
ENDBRANCH   7  30
TORSDOF 6
ENDMDL
