MODEL 2
REMARK VINA RESULT: -9.395644250      0.951      1.116
REMARK  6 active torsions:
REMARK  status: ('A' for Active; 'I' for Inactive)
REMARK       I    between atoms: N1_2  and  C2_4 
REMARK    1  A    between atoms: C2_4  and  C3_6 
REMARK    2  A    between atoms: C4_7  and  C5_8 
REMARK    3  A    between atoms: C8_11  and  O2_12 
REMARK    4  A    between atoms: C14_20  and  O4_21 
REMARK    5  A    between atoms: C15_23  and  C16_24 
REMARK    6  A    between atoms: C16_24  and  N2_25 
ROOT
HETATM    1  C3  UNL     1       5.102  25.986   6.519  1.00  0.00     0.080 A 
HETATM    2  C4  UNL     1       4.657  24.793   6.994  1.00  0.00     0.103 A 
HETATM    3  O3  UNL     1       3.645  25.056   7.837  1.00  0.00    -0.308 OA
HETATM    4  C11 UNL     1       3.425  26.321   7.923  1.00  0.00     0.088 A 
HETATM    5  C12 UNL     1       2.540  27.055   8.668  1.00  0.00     0.041 A 
HETATM    6  C13 UNL     1       2.515  28.422   8.626  1.00  0.00     0.040 A 
HETATM    7  C14 UNL     1       3.400  29.074   7.799  1.00  0.00     0.074 A 
HETATM    8  C15 UNL     1       4.297  28.346   7.029  1.00  0.00     0.007 A 
HETATM    9  C22 UNL     1       4.333  26.988   7.080  1.00  0.00     0.027 A 
ENDROOT
BRANCH   2  10
HETATM   10  C5  UNL     1       5.108  23.450   6.709  1.00  0.00    -0.001 A 
HETATM   11  C6  UNL     1       5.463  23.119   5.377  1.00  0.00     0.017 A 
HETATM   12  C7  UNL     1       5.868  21.870   4.995  1.00  0.00     0.037 A 
HETATM   13  C8  UNL     1       5.950  20.857   5.923  1.00  0.00     0.065 A 
HETATM   14  C9  UNL     1       5.608  21.161   7.239  1.00  0.00     0.037 A 
HETATM   15  C10 UNL     1       5.189  22.438   7.638  1.00  0.00     0.017 A 
BRANCH  13  16
HETATM   16  O2  UNL     1       6.358  19.582   5.583  1.00  0.00    -0.361 OA
ATOM     17  H2  UNL     1       5.921  18.807   5.917  1.00  0.00     0.217 HD
ENDBRANCH  13  16
ENDBRANCH   2  10
BRANCH   1  18
HETATM   18  C2  UNL     1       6.337  26.216   5.747  1.00  0.00     0.255 C 
HETATM   19  N1  UNL     1       7.541  26.043   6.525  1.00  0.00    -0.361 N 
HETATM   20  C1  UNL     1       8.870  26.181   6.069  1.00  0.00     0.149 C 
ATOM     21  H1  UNL     1       7.419  25.797   7.507  1.00  0.00     0.162 HD
HETATM   22  O1  UNL     1       6.425  26.524   4.553  1.00  0.00    -0.268 OA
ENDBRANCH   1  18
BRANCH   8  23
HETATM   23  C16 UNL     1       5.185  29.140   6.111  1.00  0.00     0.164 C 
BRANCH  23  24
HETATM   24  N2  UNL     1       6.181  29.783   6.939  1.00  0.00    -0.389 N 
HETATM   25  C17 UNL     1       7.205  29.090   7.497  1.00  0.00     0.058 C 
HETATM   26  C18 UNL     1       8.174  29.895   8.350  1.00  0.00     0.044 C 
HETATM   27  C19 UNL     1       7.499  31.024   9.053  1.00  0.00     0.007 C 
HETATM   28  C20 UNL     1       6.936  31.898   7.980  1.00  0.00     0.020 C 
HETATM   29  C21 UNL     1       6.159  31.198   6.943  1.00  0.00     0.122 C 
ENDBRANCH  23  24
ENDBRANCH   8  23
BRANCH   7  30
HETATM   30  O4  UNL     1       3.387  30.426   7.749  1.00  0.00    -0.360 OA
ATOM     31  H4  UNL     1       3.873  30.872   7.065  1.00  0.00     0.217 HD
ENDBRANCH   7  30
TORSDOF 6
ENDMDL
