MODEL 3
REMARK VINA RESULT: -9.151938296      1.920      6.557
REMARK  6 active torsions:
REMARK  status: ('A' for Active; 'I' for Inactive)
REMARK       I    between atoms: N1_2  and  C2_4 
REMARK    1  A    between atoms: C2_4  and  C3_6 
REMARK    2  A    between atoms: C4_7  and  C5_8 
REMARK    3  A    between atoms: C8_11  and  O2_12 
REMARK    4  A    between atoms: C14_20  and  O4_21 
REMARK    5  A    between atoms: C15_23  and  C16_24 
REMARK    6  A    between atoms: C16_24  and  N2_25 
ROOT
HETATM    1  C3  UNL     1       5.364  24.544   6.562  1.00  0.00     0.080 A 
HETATM    2  C4  UNL     1       4.323  25.046   7.278  1.00  0.00     0.103 A 
HETATM    3  O3  UNL     1       3.691  24.003   7.839  1.00  0.00    -0.308 OA
HETATM    4  C11 UNL     1       4.258  22.889   7.530  1.00  0.00     0.088 A 
HETATM    5  C12 UNL     1       3.958  21.587   7.827  1.00  0.00     0.041 A 
HETATM    6  C13 UNL     1       4.696  20.542   7.342  1.00  0.00     0.040 A 
HETATM    7  C14 UNL     1       5.780  20.816   6.540  1.00  0.00     0.074 A 
HETATM    8  C15 UNL     1       6.105  22.130   6.236  1.00  0.00     0.007 A 
HETATM    9  C22 UNL     1       5.364  23.169   6.706  1.00  0.00     0.027 A 
ENDROOT
BRANCH   2  10
HETATM   10  C5  UNL     1       3.897  26.413   7.467  1.00  0.00    -0.001 A 
HETATM   11  C6  UNL     1       2.811  26.674   8.339  1.00  0.00     0.017 A 
HETATM   12  C7  UNL     1       2.307  27.927   8.560  1.00  0.00     0.037 A 
HETATM   13  C8  UNL     1       2.860  29.014   7.923  1.00  0.00     0.065 A 
HETATM   14  C9  UNL     1       3.931  28.781   7.063  1.00  0.00     0.037 A 
HETATM   15  C10 UNL     1       4.450  27.500   6.828  1.00  0.00     0.017 A 
BRANCH  13  16
HETATM   16  O2  UNL     1       2.387  30.297   8.119  1.00  0.00    -0.361 OA
ATOM     17  H2  UNL     1       2.188  30.877   7.394  1.00  0.00     0.217 HD
ENDBRANCH  13  16
ENDBRANCH   2  10
BRANCH   1  18
HETATM   18  C2  UNL     1       6.199  25.281   5.596  1.00  0.00     0.255 C 
HETATM   19  N1  UNL     1       7.289  26.001   6.211  1.00  0.00    -0.361 N 
HETATM   20  C1  UNL     1       8.263  26.785   5.555  1.00  0.00     0.149 C 
ATOM     21  H1  UNL     1       7.362  25.937   7.226  1.00  0.00     0.162 HD
HETATM   22  O1  UNL     1       6.055  25.331   4.369  1.00  0.00    -0.268 OA
ENDBRANCH   1  18
BRANCH   8  23
HETATM   23  C16 UNL     1       7.340  22.336   5.403  1.00  0.00     0.164 C 
BRANCH  23  24
HETATM   24  N2  UNL     1       8.396  22.739   6.305  1.00  0.00    -0.389 N 
HETATM   25  C17 UNL     1       8.365  22.432   7.627  1.00  0.00     0.058 C 
HETATM   26  C18 UNL     1       9.539  22.926   8.458  1.00  0.00     0.044 C 
HETATM   27  C19 UNL     1      10.081  24.220   7.952  1.00  0.00     0.007 C 
HETATM   28  C20 UNL     1      10.537  23.956   6.554  1.00  0.00     0.020 C 
HETATM   29  C21 UNL     1       9.562  23.260   5.696  1.00  0.00     0.122 C 
ENDBRANCH  23  24
ENDBRANCH   8  23
BRANCH   7  30
HETATM   30  O4  UNL     1       6.518  19.792   6.051  1.00  0.00    -0.360 OA
ATOM     31  H4  UNL     1       6.303  19.429   5.200  1.00  0.00     0.217 HD
ENDBRANCH   7  30
TORSDOF 6
ENDMDL
