MODEL 2
REMARK VINA RESULT: -7.228819218      3.696      7.890
REMARK  4 active torsions:
REMARK  status: ('A' for Active; 'I' for Inactive)
REMARK    1  A    between atoms: C2_3  and  S1_4 
REMARK    2  A    between atoms: S1_4  and  C3_5 
REMARK    3  A    between atoms: C3_5  and  C4_6 
REMARK       I    between atoms: C4_6  and  N2_8 
REMARK    4  A    between atoms: N2_8  and  C5_10 
ROOT
HETATM    1  C1  UNL     1     -20.965   3.196 103.158  1.00  0.00     0.160 C 
HETATM    2  N1  UNL     1     -21.777   2.983 104.334  1.00  0.00    -0.316 N 
HETATM    3  C2  UNL     1     -23.132   3.117 104.418  1.00  0.00     0.148 A 
HETATM    4  N3  UNL     1     -23.530   2.839 105.661  1.00  0.00    -0.329 N 
ATOM      5  H3  UNL     1     -24.492   2.862 105.998  1.00  0.00     0.168 HD
HETATM    6  C11 UNL     1     -22.454   2.524 106.390  1.00  0.00     0.148 A 
HETATM    7  C12 UNL     1     -22.242   2.152 107.710  1.00  0.00     0.278 A 
HETATM    8  O2  UNL     1     -23.251   2.073 108.465  1.00  0.00    -0.265 OA
HETATM    9  N4  UNL     1     -21.014   1.880 108.192  1.00  0.00    -0.295 N 
ATOM     10  H4  UNL     1     -20.866   1.607 109.163  1.00  0.00     0.171 HD
HETATM   11  C13 UNL     1     -19.989   1.989 107.319  1.00  0.00     0.196 A 
HETATM   12  N5  UNL     1     -18.651   1.709 107.759  1.00  0.00    -0.063 NA
HETATM   13  N6  UNL     1     -20.154   2.344 106.050  1.00  0.00    -0.314 N 
ATOM     14  H6  UNL     1     -19.338   2.409 105.440  1.00  0.00     0.170 HD
HETATM   15  C14 UNL     1     -21.356   2.615 105.555  1.00  0.00     0.144 A 
ENDROOT
BRANCH   3  16
HETATM   16  S1  UNL     1     -24.125   3.610 103.017  1.00  0.00    -0.084 SA
BRANCH  16  17
HETATM   17  C3  UNL     1     -25.266   4.878 103.516  1.00  0.00     0.185 C 
BRANCH  17  18
HETATM   18  C4  UNL     1     -25.230   6.134 102.743  1.00  0.00     0.231 C 
HETATM   19  O1  UNL     1     -26.247   6.894 102.910  1.00  0.00    -0.272 OA
HETATM   20  N2  UNL     1     -24.234   6.567 101.873  1.00  0.00    -0.327 N 
ATOM     21  H2  UNL     1     -23.441   5.936 101.753  1.00  0.00     0.169 HD
BRANCH  20  22
HETATM   22  C5  UNL     1     -24.183   7.766 101.138  1.00  0.00     0.034 A 
HETATM   23  C6  UNL     1     -23.688   8.939 101.629  1.00  0.00     0.029 A 
HETATM   24  C7  UNL     1     -23.708  10.087 100.823  1.00  0.00     0.002 A 
HETATM   25  C8  UNL     1     -24.207  10.093  99.544  1.00  0.00     0.000 A 
HETATM   26  C9  UNL     1     -24.703   8.905  99.057  1.00  0.00     0.002 A 
HETATM   27  C10 UNL     1     -24.697   7.767  99.826  1.00  0.00     0.029 A 
ENDBRANCH  20  22
ENDBRANCH  17  18
ENDBRANCH  16  17
ENDBRANCH   3  16
TORSDOF 4
ENDMDL
