MODEL 1
REMARK VINA RESULT: -7.239853366      0.000      0.000
REMARK  4 active torsions:
REMARK  status: ('A' for Active; 'I' for Inactive)
REMARK    1  A    between atoms: C2_3  and  S1_4 
REMARK    2  A    between atoms: S1_4  and  C3_5 
REMARK    3  A    between atoms: C3_5  and  C4_6 
REMARK       I    between atoms: C4_6  and  N2_8 
REMARK    4  A    between atoms: N2_8  and  C5_10 
ROOT
HETATM    1  C1  UNL     1     -24.018   5.529  99.151  1.00  0.00     0.160 C 
HETATM    2  N1  UNL     1     -24.242   6.413 100.271  1.00  0.00    -0.316 N 
HETATM    3  C2  UNL     1     -24.147   6.089 101.592  1.00  0.00     0.148 A 
HETATM    4  N3  UNL     1     -24.423   7.162 102.336  1.00  0.00    -0.329 N 
ATOM      5  H3  UNL     1     -24.425   7.197 103.355  1.00  0.00     0.168 HD
HETATM    6  C11 UNL     1     -24.698   8.184 101.518  1.00  0.00     0.148 A 
HETATM    7  C12 UNL     1     -25.044   9.516 101.699  1.00  0.00     0.278 A 
HETATM    8  O2  UNL     1     -25.147   9.937 102.885  1.00  0.00    -0.265 OA
HETATM    9  N4  UNL     1     -25.266  10.348 100.664  1.00  0.00    -0.295 N 
ATOM     10  H4  UNL     1     -25.520  11.326 100.806  1.00  0.00     0.171 HD
HETATM   11  C13 UNL     1     -25.136   9.818  99.429  1.00  0.00     0.196 A 
HETATM   12  N5  UNL     1     -25.351  10.647  98.276  1.00  0.00    -0.063 NA
HETATM   13  N6  UNL     1     -24.808   8.549  99.217  1.00  0.00    -0.314 N 
ATOM     14  H6  UNL     1     -24.725   8.208  98.259  1.00  0.00     0.170 HD
HETATM   15  C14 UNL     1     -24.583   7.711 100.224  1.00  0.00     0.144 A 
ENDROOT
BRANCH   3  16
HETATM   16  S1  UNL     1     -23.721   4.440 102.135  1.00  0.00    -0.084 SA
BRANCH  16  17
HETATM   17  C3  UNL     1     -23.126   4.504 103.809  1.00  0.00     0.185 C 
BRANCH  17  18
HETATM   18  C4  UNL     1     -21.897   5.288 104.039  1.00  0.00     0.231 C 
HETATM   19  O1  UNL     1     -20.833   4.772 103.548  1.00  0.00    -0.272 OA
HETATM   20  N2  UNL     1     -21.777   6.498 104.717  1.00  0.00    -0.327 N 
ATOM     21  H2  UNL     1     -22.640   6.879 105.105  1.00  0.00     0.169 HD
BRANCH  20  22
HETATM   22  C5  UNL     1     -20.614   7.260 104.934  1.00  0.00     0.034 A 
HETATM   23  C6  UNL     1     -19.997   8.000 103.968  1.00  0.00     0.029 A 
HETATM   24  C7  UNL     1     -18.825   8.704 104.281  1.00  0.00     0.002 A 
HETATM   25  C8  UNL     1     -18.255   8.688 105.530  1.00  0.00     0.000 A 
HETATM   26  C9  UNL     1     -18.884   7.939 106.499  1.00  0.00     0.002 A 
HETATM   27  C10 UNL     1     -20.032   7.240 106.218  1.00  0.00     0.029 A 
ENDBRANCH  20  22
ENDBRANCH  17  18
ENDBRANCH  16  17
ENDBRANCH   3  16
TORSDOF 4
ENDMDL
