MODEL 3
REMARK VINA RESULT: -7.186152767      1.143      1.534
REMARK  4 active torsions:
REMARK  status: ('A' for Active; 'I' for Inactive)
REMARK    1  A    between atoms: C2_3  and  S1_4 
REMARK    2  A    between atoms: S1_4  and  C3_5 
REMARK    3  A    between atoms: C3_5  and  C4_6 
REMARK       I    between atoms: C4_6  and  N2_8 
REMARK    4  A    between atoms: N2_8  and  C5_10 
ROOT
HETATM    1  C1  UNL     1     -26.068   5.254  99.894  1.00  0.00     0.160 C 
HETATM    2  N1  UNL     1     -25.177   6.333 100.252  1.00  0.00    -0.316 N 
HETATM    3  C2  UNL     1     -23.991   6.219 100.918  1.00  0.00     0.148 A 
HETATM    4  N3  UNL     1     -23.447   7.428 101.069  1.00  0.00    -0.329 N 
ATOM      5  H3  UNL     1     -22.561   7.629 101.532  1.00  0.00     0.168 HD
HETATM    6  C11 UNL     1     -24.259   8.331 100.509  1.00  0.00     0.148 A 
HETATM    7  C12 UNL     1     -24.228   9.709 100.351  1.00  0.00     0.278 A 
HETATM    8  O2  UNL     1     -23.236  10.329 100.824  1.00  0.00    -0.265 OA
HETATM    9  N4  UNL     1     -25.210  10.383  99.723  1.00  0.00    -0.295 N 
ATOM     10  H4  UNL     1     -25.180  11.396  99.610  1.00  0.00     0.171 HD
HETATM   11  C13 UNL     1     -26.237   9.645  99.248  1.00  0.00     0.196 A 
HETATM   12  N5  UNL     1     -27.318  10.293  98.560  1.00  0.00    -0.063 NA
HETATM   13  N6  UNL     1     -26.301   8.324  99.381  1.00  0.00    -0.314 N 
ATOM     14  H6  UNL     1     -27.104   7.824  99.001  1.00  0.00     0.170 HD
HETATM   15  C14 UNL     1     -25.343   7.641  99.997  1.00  0.00     0.144 A 
ENDROOT
BRANCH   3  16
HETATM   16  S1  UNL     1     -23.364   4.640 101.473  1.00  0.00    -0.084 SA
BRANCH  16  17
HETATM   17  C3  UNL     1     -23.083   4.698 103.227  1.00  0.00     0.185 C 
BRANCH  17  18
HETATM   18  C4  UNL     1     -21.860   5.392 103.673  1.00  0.00     0.231 C 
HETATM   19  O1  UNL     1     -20.784   4.707 103.555  1.00  0.00    -0.272 OA
HETATM   20  N2  UNL     1     -21.755   6.677 104.196  1.00  0.00    -0.327 N 
ATOM     21  H2  UNL     1     -22.630   7.194 104.287  1.00  0.00     0.169 HD
BRANCH  20  22
HETATM   22  C5  UNL     1     -20.594   7.353 104.616  1.00  0.00     0.034 A 
HETATM   23  C6  UNL     1     -20.137   7.355 105.901  1.00  0.00     0.029 A 
HETATM   24  C7  UNL     1     -18.982   8.083 106.222  1.00  0.00     0.002 A 
HETATM   25  C8  UNL     1     -18.274   8.807 105.294  1.00  0.00     0.000 A 
HETATM   26  C9  UNL     1     -18.742   8.798 103.999  1.00  0.00     0.002 A 
HETATM   27  C10 UNL     1     -19.871   8.094 103.659  1.00  0.00     0.029 A 
ENDBRANCH  20  22
ENDBRANCH  17  18
ENDBRANCH  16  17
ENDBRANCH   3  16
TORSDOF 4
ENDMDL
