MODEL 2
REMARK VINA RESULT: -6.130917475      5.466      8.204
REMARK  3 active torsions:
REMARK  status: ('A' for Active; 'I' for Inactive)
REMARK    1  A    between atoms: C2_3  and  S1_4 
REMARK    2  A    between atoms: S1_4  and  C3_5 
REMARK    3  A    between atoms: C3_5  and  C4_6 
ROOT
HETATM    1  C1  UNL     1     -24.364   3.402 104.760  1.00  0.00     0.160 C 
HETATM    2  N1  UNL     1     -22.929   3.203 104.862  1.00  0.00    -0.316 N 
HETATM    3  C2  UNL     1     -21.992   3.467 103.946  1.00  0.00     0.148 A 
HETATM    4  N2  UNL     1     -20.761   3.118 104.432  1.00  0.00    -0.329 N 
ATOM      5  H2  UNL     1     -19.879   3.217 103.929  1.00  0.00     0.168 HD
HETATM    6  C5  UNL     1     -20.895   2.628 105.667  1.00  0.00     0.148 A 
HETATM    7  C6  UNL     1     -20.014   2.138 106.610  1.00  0.00     0.278 A 
HETATM    8  O3  UNL     1     -18.789   2.077 106.398  1.00  0.00    -0.265 OA
HETATM    9  N3  UNL     1     -20.513   1.722 107.779  1.00  0.00    -0.295 N 
ATOM     10  H3  UNL     1     -19.879   1.356 108.490  1.00  0.00     0.171 HD
HETATM   11  C7  UNL     1     -21.843   1.776 108.042  1.00  0.00     0.196 A 
HETATM   12  N4  UNL     1     -22.370   1.344 109.266  1.00  0.00    -0.063 NA
HETATM   13  N5  UNL     1     -22.712   2.258 107.115  1.00  0.00    -0.314 N 
ATOM     14  H5  UNL     1     -23.710   2.295 107.323  1.00  0.00     0.170 HD
HETATM   15  C8  UNL     1     -22.260   2.683 105.935  1.00  0.00     0.144 A 
ENDROOT
BRANCH   3  16
HETATM   16  S1  UNL     1     -22.261   4.192 102.332  1.00  0.00    -0.083 SA
BRANCH  16  17
HETATM   17  C3  UNL     1     -20.937   5.368 101.925  1.00  0.00     0.195 C 
BRANCH  17  18
HETATM   18  C4  UNL     1     -20.744   6.303 103.037  1.00  0.00     0.182 C 
HETATM   19  O1  UNL     1     -21.468   7.315 103.131  1.00  0.00    -0.647 OA
HETATM   20  O2  UNL     1     -19.767   6.081 103.984  1.00  0.00    -0.647 OA
ENDBRANCH  17  18
ENDBRANCH  16  17
ENDBRANCH   3  16
TORSDOF 3
ENDMDL
