MODEL 1
REMARK VINA RESULT: -6.183738234      0.000      0.000
REMARK  3 active torsions:
REMARK  status: ('A' for Active; 'I' for Inactive)
REMARK    1  A    between atoms: C2_3  and  S1_4 
REMARK    2  A    between atoms: S1_4  and  C3_5 
REMARK    3  A    between atoms: C3_5  and  C4_6 
ROOT
HETATM    1  C1  UNL     1     -24.691   5.176  97.693  1.00  0.00     0.160 C 
HETATM    2  N1  UNL     1     -24.055   5.944  98.748  1.00  0.00    -0.316 N 
HETATM    3  C2  UNL     1     -23.150   5.528  99.641  1.00  0.00     0.148 A 
HETATM    4  N2  UNL     1     -22.817   6.561 100.476  1.00  0.00    -0.329 N 
ATOM      5  H2  UNL     1     -22.149   6.505 101.244  1.00  0.00     0.168 HD
HETATM    6  C5  UNL     1     -23.505   7.651 100.126  1.00  0.00     0.148 A 
HETATM    7  C6  UNL     1     -23.565   8.945 100.603  1.00  0.00     0.278 A 
HETATM    8  O3  UNL     1     -22.883   9.323 101.573  1.00  0.00    -0.265 OA
HETATM    9  N3  UNL     1     -24.389   9.802  99.990  1.00  0.00    -0.295 N 
ATOM     10  H3  UNL     1     -24.449  10.763 100.326  1.00  0.00     0.171 HD
HETATM   11  C7  UNL     1     -25.147   9.422  98.930  1.00  0.00     0.196 A 
HETATM   12  N4  UNL     1     -26.009  10.317  98.283  1.00  0.00    -0.063 NA
HETATM   13  N5  UNL     1     -25.089   8.149  98.459  1.00  0.00    -0.314 N 
ATOM     14  H5  UNL     1     -25.662   7.873  97.662  1.00  0.00     0.170 HD
HETATM   15  C8  UNL     1     -24.282   7.260  99.040  1.00  0.00     0.144 A 
ENDROOT
BRANCH   3  16
HETATM   16  S1  UNL     1     -22.435   3.890  99.743  1.00  0.00    -0.083 SA
BRANCH  16  17
HETATM   17  C3  UNL     1     -21.927   3.514 101.446  1.00  0.00     0.195 C 
BRANCH  17  18
HETATM   18  C4  UNL     1     -20.515   3.861 101.632  1.00  0.00     0.182 C 
HETATM   19  O1  UNL     1     -20.100   4.987 101.289  1.00  0.00    -0.647 OA
HETATM   20  O2  UNL     1     -19.632   2.956 102.183  1.00  0.00    -0.647 OA
ENDBRANCH  17  18
ENDBRANCH  16  17
ENDBRANCH   3  16
TORSDOF 3
ENDMDL
