MODEL 3
REMARK VINA RESULT: -6.036176971      3.252      5.769
REMARK  3 active torsions:
REMARK  status: ('A' for Active; 'I' for Inactive)
REMARK    1  A    between atoms: C2_3  and  S1_4 
REMARK    2  A    between atoms: S1_4  and  C3_5 
REMARK    3  A    between atoms: C3_5  and  C4_6 
ROOT
HETATM    1  C1  UNL     1     -23.178   9.036 101.448  1.00  0.00     0.160 C 
HETATM    2  N1  UNL     1     -22.978   7.658 101.037  1.00  0.00    -0.316 N 
HETATM    3  C2  UNL     1     -23.489   7.031  99.973  1.00  0.00     0.148 A 
HETATM    4  N2  UNL     1     -23.067   5.729  99.957  1.00  0.00    -0.329 N 
ATOM      5  H2  UNL     1     -23.316   5.037  99.251  1.00  0.00     0.168 HD
HETATM    6  C5  UNL     1     -22.279   5.507 101.013  1.00  0.00     0.148 A 
HETATM    7  C6  UNL     1     -21.589   4.408 101.486  1.00  0.00     0.278 A 
HETATM    8  O3  UNL     1     -21.620   3.309 100.902  1.00  0.00    -0.265 OA
HETATM    9  N3  UNL     1     -20.874   4.551 102.607  1.00  0.00    -0.295 N 
ATOM     10  H3  UNL     1     -20.358   3.752 102.974  1.00  0.00     0.171 HD
HETATM   11  C7  UNL     1     -20.820   5.735 103.267  1.00  0.00     0.196 A 
HETATM   12  N4  UNL     1     -20.070   5.890 104.440  1.00  0.00    -0.063 NA
HETATM   13  N5  UNL     1     -21.497   6.818 102.803  1.00  0.00    -0.314 N 
ATOM     14  H5  UNL     1     -21.449   7.704 103.307  1.00  0.00     0.170 HD
HETATM   15  C8  UNL     1     -22.225   6.722 101.689  1.00  0.00     0.144 A 
ENDROOT
BRANCH   3  16
HETATM   16  S1  UNL     1     -24.543   7.755  98.720  1.00  0.00    -0.083 SA
BRANCH  16  17
HETATM   17  C3  UNL     1     -26.051   6.766  98.496  1.00  0.00     0.195 C 
BRANCH  17  18
HETATM   18  C4  UNL     1     -25.732   5.529  97.778  1.00  0.00     0.182 C 
HETATM   19  O1  UNL     1     -25.658   4.449  98.401  1.00  0.00    -0.647 OA
HETATM   20  O2  UNL     1     -25.511   5.539  96.417  1.00  0.00    -0.647 OA
ENDBRANCH  17  18
ENDBRANCH  16  17
ENDBRANCH   3  16
TORSDOF 3
ENDMDL
