MODEL 2
REMARK VINA RESULT: -11.363681912      2.091      5.733
REMARK  3 active torsions:
REMARK  status: ('A' for Active; 'I' for Inactive)
REMARK    1  A    between atoms: C5_7  and  C6_8 
REMARK    2  A    between atoms: N4_18  and  C12_19 
REMARK    3  A    between atoms: C16_23  and  C17_24 
ROOT
HETATM    1  C6  UNL     1     -21.299  31.996   0.616  1.00  0.00     0.062 A 
HETATM    2  C7  UNL     1     -21.647  32.977  -0.276  1.00  0.00     0.064 A 
HETATM    3  C8  UNL     1     -21.587  32.741  -1.655  1.00  0.00     0.073 A 
HETATM    4  C9  UNL     1     -21.177  31.518  -2.144  1.00  0.00     0.025 A 
HETATM    5  C10 UNL     1     -20.836  30.559  -1.228  1.00  0.00     0.103 A 
HETATM    6  N2  UNL     1     -20.899  30.801   0.079  1.00  0.00    -0.363 N 
ATOM      7  H2  UNL     1     -20.633  30.053   0.719  1.00  0.00     0.165 HD
HETATM    8  C11 UNL     1     -21.232  31.620  -3.515  1.00  0.00     0.122 A 
HETATM    9  N3  UNL     1     -21.656  32.848  -3.807  1.00  0.00    -0.302 N 
ATOM     10  H3  UNL     1     -21.793  33.212  -4.750  1.00  0.00     0.186 HD
HETATM   11  N4  UNL     1     -21.872  33.530  -2.682  1.00  0.00    -0.239 N 
ENDROOT
BRANCH  11  12
HETATM   12  C12 UNL     1     -22.335  34.890  -2.583  1.00  0.00     0.127 A 
HETATM   13  C13 UNL     1     -22.927  35.518  -3.659  1.00  0.00     0.050 A 
HETATM   14  C14 UNL     1     -23.374  36.828  -3.568  1.00  0.00     0.006 A 
HETATM   15  C15 UNL     1     -23.220  37.502  -2.381  1.00  0.00     0.026 A 
HETATM   16  C16 UNL     1     -22.623  36.867  -1.300  1.00  0.00     0.022 A 
HETATM   17  N6  UNL     1     -22.213  35.601  -1.449  1.00  0.00    -0.344 N 
ATOM     18  H6  UNL     1     -21.777  35.145  -0.648  1.00  0.00     0.167 HD
BRANCH  16  19
HETATM   19  C17 UNL     1     -22.464  37.617  -0.014  1.00  0.00     0.125 C 
HETATM   20  C18 UNL     1     -23.433  38.747   0.124  1.00  0.00     0.130 C 
HETATM   21  N5  UNL     1     -24.438  38.553   1.115  1.00  0.00    -0.420 N 
HETATM   22  C19 UNL     1     -23.972  38.163   2.406  1.00  0.00     0.119 C 
ATOM     23  H5  UNL     1     -25.429  38.685   0.914  1.00  0.00     0.153 HD
HETATM   24  C20 UNL     1     -22.565  37.606   2.410  1.00  0.00     0.099 C 
HETATM   25  C21 UNL     1     -22.472  36.690   1.182  1.00  0.00     0.255 C 
HETATM   26  F1  UNL     1     -23.535  35.840   1.200  1.00  0.00    -0.205 F 
HETATM   27  F2  UNL     1     -21.319  35.974   1.247  1.00  0.00    -0.205 F 
ENDBRANCH  16  19
ENDBRANCH  11  12
BRANCH   1  28
HETATM   28  C5  UNL     1     -21.331  32.152   2.061  1.00  0.00     0.075 A 
HETATM   29  C4  UNL     1     -20.695  33.207   2.653  1.00  0.00     0.119 A 
HETATM   30  N1  UNL     1     -20.706  33.381   4.006  1.00  0.00    -0.371 N 
HETATM   31  C3  UNL     1     -21.360  32.490   4.769  1.00  0.00     0.112 A 
ATOM     32  H1  UNL     1     -20.225  34.175   4.430  1.00  0.00     0.164 HD
HETATM   33  C2  UNL     1     -22.010  31.414   4.198  1.00  0.00     0.021 A 
HETATM   34  C1  UNL     1     -22.714  30.461   5.069  1.00  0.00     0.069 C 
HETATM   35  N7  UNL     1     -21.979  31.272   2.841  1.00  0.00    -0.356 N 
ATOM     36  H7  UNL     1     -22.456  30.480   2.411  1.00  0.00     0.166 HD
ENDBRANCH   1  28
TORSDOF 3
ENDMDL
