MODEL 1
REMARK VINA RESULT: -11.451512492      0.000      0.000
REMARK  3 active torsions:
REMARK  status: ('A' for Active; 'I' for Inactive)
REMARK    1  A    between atoms: C5_7  and  C6_8 
REMARK    2  A    between atoms: N4_18  and  C12_19 
REMARK    3  A    between atoms: C16_23  and  C17_24 
ROOT
HETATM    1  C6  UNL     1     -22.769  37.181   0.154  1.00  0.00     0.062 A 
HETATM    2  C7  UNL     1     -22.439  35.943  -0.332  1.00  0.00     0.064 A 
HETATM    3  C8  UNL     1     -22.517  35.670  -1.702  1.00  0.00     0.073 A 
HETATM    4  C9  UNL     1     -22.927  36.641  -2.592  1.00  0.00     0.025 A 
HETATM    5  C10 UNL     1     -23.249  37.868  -2.077  1.00  0.00     0.103 A 
HETATM    6  N2  UNL     1     -23.170  38.109  -0.770  1.00  0.00    -0.363 N 
ATOM      7  H2  UNL     1     -23.423  39.039  -0.437  1.00  0.00     0.165 HD
HETATM    8  C11 UNL     1     -22.892  36.055  -3.837  1.00  0.00     0.122 A 
HETATM    9  N3  UNL     1     -22.480  34.799  -3.675  1.00  0.00    -0.302 N 
ATOM     10  H3  UNL     1     -22.357  34.120  -4.426  1.00  0.00     0.186 HD
HETATM   11  N4  UNL     1     -22.251  34.563  -2.383  1.00  0.00    -0.239 N 
ENDROOT
BRANCH  11  12
HETATM   12  C12 UNL     1     -21.795  33.323  -1.808  1.00  0.00     0.127 A 
HETATM   13  C13 UNL     1     -21.389  32.277  -2.610  1.00  0.00     0.050 A 
HETATM   14  C14 UNL     1     -20.949  31.082  -2.061  1.00  0.00     0.006 A 
HETATM   15  C15 UNL     1     -20.920  30.948  -0.695  1.00  0.00     0.026 A 
HETATM   16  C16 UNL     1     -21.330  32.004   0.110  1.00  0.00     0.022 A 
HETATM   17  N6  UNL     1     -21.744  33.133  -0.479  1.00  0.00    -0.344 N 
ATOM     18  H6  UNL     1     -22.041  33.901   0.122  1.00  0.00     0.167 HD
BRANCH  16  19
HETATM   19  C17 UNL     1     -21.292  31.841   1.597  1.00  0.00     0.125 C 
HETATM   20  C18 UNL     1     -21.468  33.132   2.328  1.00  0.00     0.130 C 
HETATM   21  N5  UNL     1     -22.704  33.259   3.026  1.00  0.00    -0.420 N 
HETATM   22  C19 UNL     1     -23.049  32.173   3.885  1.00  0.00     0.119 C 
ATOM     23  H5  UNL     1     -23.305  34.076   2.918  1.00  0.00     0.153 HD
HETATM   24  C20 UNL     1     -22.288  30.897   3.598  1.00  0.00     0.099 C 
HETATM   25  C21 UNL     1     -22.247  30.766   2.070  1.00  0.00     0.255 C 
HETATM   26  F1  UNL     1     -23.512  30.920   1.592  1.00  0.00    -0.205 F 
HETATM   27  F2  UNL     1     -21.786  29.531   1.741  1.00  0.00    -0.205 F 
ENDBRANCH  16  19
ENDBRANCH  11  12
BRANCH   1  28
HETATM   28  C5  UNL     1     -22.718  37.552   1.558  1.00  0.00     0.075 A 
HETATM   29  C4  UNL     1     -22.248  36.668   2.488  1.00  0.00     0.119 A 
HETATM   30  N1  UNL     1     -22.187  36.985   3.812  1.00  0.00    -0.371 N 
HETATM   31  C3  UNL     1     -22.601  38.201   4.208  1.00  0.00     0.112 A 
ATOM     32  H1  UNL     1     -21.834  36.311   4.492  1.00  0.00     0.164 HD
HETATM   33  C2  UNL     1     -23.082  39.114   3.291  1.00  0.00     0.021 A 
HETATM   34  C1  UNL     1     -23.526  40.433   3.764  1.00  0.00     0.069 C 
HETATM   35  N7  UNL     1     -23.128  38.762   1.974  1.00  0.00    -0.356 N 
ATOM     36  H7  UNL     1     -23.481  39.431   1.290  1.00  0.00     0.166 HD
ENDBRANCH   1  28
TORSDOF 3
ENDMDL
