MODEL 3
REMARK VINA RESULT: -11.348661308      1.300      1.688
REMARK  3 active torsions:
REMARK  status: ('A' for Active; 'I' for Inactive)
REMARK    1  A    between atoms: C5_7  and  C6_8 
REMARK    2  A    between atoms: N4_18  and  C12_19 
REMARK    3  A    between atoms: C16_23  and  C17_24 
ROOT
HETATM    1  C6  UNL     1     -23.153  37.533  -0.035  1.00  0.00     0.062 A 
HETATM    2  C7  UNL     1     -22.734  36.259  -0.317  1.00  0.00     0.064 A 
HETATM    3  C8  UNL     1     -22.602  35.829  -1.643  1.00  0.00     0.073 A 
HETATM    4  C9  UNL     1     -22.891  36.677  -2.691  1.00  0.00     0.025 A 
HETATM    5  C10 UNL     1     -23.307  37.944  -2.377  1.00  0.00     0.103 A 
HETATM    6  N2  UNL     1     -23.427  38.335  -1.110  1.00  0.00    -0.363 N 
ATOM      7  H2  UNL     1     -23.742  39.288  -0.931  1.00  0.00     0.165 HD
HETATM    8  C11 UNL     1     -22.661  35.954  -3.839  1.00  0.00     0.122 A 
HETATM    9  N3  UNL     1     -22.257  34.740  -3.472  1.00  0.00    -0.302 N 
ATOM     10  H3  UNL     1     -22.013  33.984  -4.112  1.00  0.00     0.186 HD
HETATM   11  N4  UNL     1     -22.220  34.660  -2.141  1.00  0.00    -0.239 N 
ENDROOT
BRANCH  11  12
HETATM   12  C12 UNL     1     -21.834  33.511  -1.364  1.00  0.00     0.127 A 
HETATM   13  C13 UNL     1     -21.797  32.253  -1.928  1.00  0.00     0.050 A 
HETATM   14  C14 UNL     1     -21.426  31.143  -1.183  1.00  0.00     0.006 A 
HETATM   15  C15 UNL     1     -21.091  31.311   0.138  1.00  0.00     0.026 A 
HETATM   16  C16 UNL     1     -21.129  32.579   0.703  1.00  0.00     0.022 A 
HETATM   17  N6  UNL     1     -21.495  33.612  -0.067  1.00  0.00    -0.344 N 
ATOM     18  H6  UNL     1     -21.518  34.538   0.359  1.00  0.00     0.167 HD
BRANCH  16  19
HETATM   19  C17 UNL     1     -20.761  32.744   2.144  1.00  0.00     0.125 C 
HETATM   20  C18 UNL     1     -20.094  34.051   2.429  1.00  0.00     0.130 C 
HETATM   21  N5  UNL     1     -20.874  34.963   3.197  1.00  0.00    -0.420 N 
HETATM   22  C19 UNL     1     -21.437  34.442   4.400  1.00  0.00     0.119 C 
ATOM     23  H5  UNL     1     -21.021  35.929   2.905  1.00  0.00     0.153 HD
HETATM   24  C20 UNL     1     -21.483  32.931   4.454  1.00  0.00     0.099 C 
HETATM   25  C21 UNL     1     -21.935  32.474   3.059  1.00  0.00     0.255 C 
HETATM   26  F1  UNL     1     -23.054  33.173   2.722  1.00  0.00    -0.205 F 
HETATM   27  F2  UNL     1     -22.224  31.147   3.097  1.00  0.00    -0.205 F 
ENDBRANCH  16  19
ENDBRANCH  11  12
BRANCH   1  28
HETATM   28  C5  UNL     1     -23.318  38.064   1.308  1.00  0.00     0.075 A 
HETATM   29  C4  UNL     1     -23.093  39.389   1.557  1.00  0.00     0.119 A 
HETATM   30  N1  UNL     1     -23.239  39.918   2.805  1.00  0.00    -0.371 N 
HETATM   31  C3  UNL     1     -23.614  39.111   3.812  1.00  0.00     0.112 A 
ATOM     32  H1  UNL     1     -23.065  40.910   2.972  1.00  0.00     0.164 HD
HETATM   33  C2  UNL     1     -23.847  37.768   3.590  1.00  0.00     0.021 A 
HETATM   34  C1  UNL     1     -24.255  36.919   4.718  1.00  0.00     0.069 C 
HETATM   35  N7  UNL     1     -23.691  37.274   2.328  1.00  0.00    -0.356 N 
ATOM     36  H7  UNL     1     -23.862  36.284   2.155  1.00  0.00     0.166 HD
ENDBRANCH   1  28
TORSDOF 3
ENDMDL
