MODEL 8
REMARK VINA RESULT: -11.124267750      1.635      5.647
REMARK  3 active torsions:
REMARK  status: ('A' for Active; 'I' for Inactive)
REMARK    1  A    between atoms: C5_7  and  C6_8 
REMARK    2  A    between atoms: N4_18  and  C12_19 
REMARK    3  A    between atoms: C16_23  and  C17_24 
ROOT
HETATM    1  C6  UNL     1     -22.151  34.368  -1.879  1.00  0.00     0.062 A 
HETATM    2  C7  UNL     1     -22.354  35.335  -0.929  1.00  0.00     0.064 A 
HETATM    3  C8  UNL     1     -22.786  36.615  -1.295  1.00  0.00     0.073 A 
HETATM    4  C9  UNL     1     -23.017  36.930  -2.618  1.00  0.00     0.025 A 
HETATM    5  C10 UNL     1     -22.806  35.943  -3.544  1.00  0.00     0.103 A 
HETATM    6  N2  UNL     1     -22.394  34.731  -3.177  1.00  0.00    -0.363 N 
ATOM      7  H2  UNL     1     -22.251  34.032  -3.905  1.00  0.00     0.165 HD
HETATM    8  C11 UNL     1     -23.424  38.244  -2.630  1.00  0.00     0.122 A 
HETATM    9  N3  UNL     1     -23.429  38.672  -1.370  1.00  0.00    -0.302 N 
ATOM     10  H3  UNL     1     -23.688  39.612  -1.070  1.00  0.00     0.186 HD
HETATM   11  N4  UNL     1     -23.043  37.687  -0.558  1.00  0.00    -0.239 N 
ENDROOT
BRANCH  11  12
HETATM   12  C12 UNL     1     -22.921  37.760   0.876  1.00  0.00     0.127 A 
HETATM   13  C13 UNL     1     -23.377  38.860   1.571  1.00  0.00     0.050 A 
HETATM   14  C14 UNL     1     -23.261  38.934   2.952  1.00  0.00     0.006 A 
HETATM   15  C15 UNL     1     -22.681  37.889   3.627  1.00  0.00     0.026 A 
HETATM   16  C16 UNL     1     -22.223  36.782   2.923  1.00  0.00     0.022 A 
HETATM   17  N6  UNL     1     -22.363  36.769   1.592  1.00  0.00    -0.344 N 
ATOM     18  H6  UNL     1     -22.024  35.951   1.086  1.00  0.00     0.167 HD
BRANCH  16  19
HETATM   19  C17 UNL     1     -21.594  35.652   3.676  1.00  0.00     0.125 C 
HETATM   20  C18 UNL     1     -22.230  35.415   5.008  1.00  0.00     0.130 C 
HETATM   21  N5  UNL     1     -22.977  34.206   5.105  1.00  0.00    -0.420 N 
HETATM   22  C19 UNL     1     -22.305  33.022   4.679  1.00  0.00     0.119 C 
ATOM     23  H5  UNL     1     -23.935  34.188   5.457  1.00  0.00     0.153 HD
HETATM   24  C20 UNL     1     -21.096  33.281   3.807  1.00  0.00     0.099 C 
HETATM   25  C21 UNL     1     -21.508  34.396   2.837  1.00  0.00     0.255 C 
HETATM   26  F1  UNL     1     -22.693  34.048   2.263  1.00  0.00    -0.205 F 
HETATM   27  F2  UNL     1     -20.558  34.522   1.873  1.00  0.00    -0.205 F 
ENDBRANCH  16  19
ENDBRANCH  11  12
BRANCH   1  28
HETATM   28  C5  UNL     1     -21.704  33.015  -1.590  1.00  0.00     0.075 A 
HETATM   29  C4  UNL     1     -21.139  32.253  -2.574  1.00  0.00     0.119 A 
HETATM   30  N1  UNL     1     -20.709  30.981  -2.336  1.00  0.00    -0.371 N 
HETATM   31  C3  UNL     1     -20.848  30.470  -1.101  1.00  0.00     0.112 A 
ATOM     32  H1  UNL     1     -20.290  30.427  -3.083  1.00  0.00     0.164 HD
HETATM   33  C2  UNL     1     -21.416  31.217  -0.088  1.00  0.00     0.021 A 
HETATM   34  C1  UNL     1     -21.550  30.621   1.249  1.00  0.00     0.069 C 
HETATM   35  N7  UNL     1     -21.834  32.486  -0.363  1.00  0.00    -0.356 N 
ATOM     36  H7  UNL     1     -22.254  33.045   0.379  1.00  0.00     0.166 HD
ENDBRANCH   1  28
TORSDOF 3
ENDMDL
