MODEL 2
REMARK VINA RESULT: -8.072438576      0.139      1.114
REMARK  4 active torsions:
REMARK  status: ('A' for Active; 'I' for Inactive)
REMARK    1  A    between atoms: N1_2  and  C3_4 
REMARK    2  A    between atoms: C3_4  and  C4_5 
REMARK    3  A    between atoms: C8_9  and  C9_10 
REMARK    4  A    between atoms: C16_17  and  O1_18 
ROOT
HETATM    1  C4  UNL     1      19.394  -7.086   6.728  1.00  0.00     0.048 C 
HETATM    2  C5  UNL     1      18.564  -8.198   6.104  1.00  0.00    -0.005 C 
HETATM    3  C6  UNL     1      18.965  -8.533   4.702  1.00  0.00     0.006 C 
HETATM    4  C7  UNL     1      20.395  -8.994   4.870  1.00  0.00     0.017 C 
HETATM    5  C8  UNL     1      20.625  -9.057   6.373  1.00  0.00     0.013 C 
HETATM    6  C15 UNL     1      19.199  -9.378   6.828  1.00  0.00     0.022 C 
HETATM    7  C16 UNL     1      20.781  -7.673   6.900  1.00  0.00     0.137 C 
ENDROOT
BRANCH   5   8
HETATM    8  C9  UNL     1      21.584 -10.055   6.773  1.00  0.00    -0.047 A 
HETATM    9  C10 UNL     1      22.689 -10.241   5.955  1.00  0.00     0.008 A 
HETATM   10  C11 UNL     1      23.668 -11.163   6.241  1.00  0.00     0.001 A 
HETATM   11  C12 UNL     1      23.590 -11.952   7.371  1.00  0.00     0.000 A 
HETATM   12  C13 UNL     1      22.496 -11.775   8.191  1.00  0.00     0.001 A 
HETATM   13  C14 UNL     1      21.498 -10.834   7.898  1.00  0.00     0.008 A 
ENDBRANCH   5   8
BRANCH   7  14
HETATM   14  O1  UNL     1      21.742  -6.941   6.202  1.00  0.00    -0.394 OA
ATOM     15  H1  UNL     1      22.322  -7.506   5.706  1.00  0.00     0.210 HD
ENDBRANCH   7  14
BRANCH   1  16
HETATM   16  C3  UNL     1      19.359  -5.837   5.944  1.00  0.00     0.279 C 
BRANCH  16  17
HETATM   17  N1  UNL     1      19.650  -4.620   6.656  1.00  0.00     0.080 N 
HETATM   18  C1  UNL     1      19.067  -3.536   5.871  1.00  0.00     0.309 C 
HETATM   19  C2  UNL     1      18.823  -4.676   7.880  1.00  0.00     0.309 C 
ENDBRANCH  16  17
ENDBRANCH   1  16
TORSDOF 4
ENDMDL
