MODEL 4
REMARK VINA RESULT: -6.887081100      1.837      5.897
REMARK  4 active torsions:
REMARK  status: ('A' for Active; 'I' for Inactive)
REMARK    1  A    between atoms: N1_2  and  C3_4 
REMARK    2  A    between atoms: C3_4  and  C4_5 
REMARK    3  A    between atoms: C8_9  and  C9_10 
REMARK    4  A    between atoms: C16_17  and  O1_18 
ROOT
HETATM    1  C4  UNL     1      20.936  -8.664   5.329  1.00  0.00     0.048 C 
HETATM    2  C5  UNL     1      19.505  -8.826   4.840  1.00  0.00    -0.005 C 
HETATM    3  C6  UNL     1      18.520  -9.082   5.936  1.00  0.00     0.006 C 
HETATM    4  C7  UNL     1      18.635  -7.832   6.779  1.00  0.00     0.017 C 
HETATM    5  C8  UNL     1      19.538  -6.895   5.991  1.00  0.00     0.013 C 
HETATM    6  C15 UNL     1      19.198  -7.358   4.572  1.00  0.00     0.022 C 
HETATM    7  C16 UNL     1      20.947  -7.363   6.107  1.00  0.00     0.137 C 
ENDROOT
BRANCH   5   8
HETATM    8  C9  UNL     1      19.260  -5.498   6.211  1.00  0.00    -0.047 A 
HETATM    9  C10 UNL     1      18.990  -5.099   7.512  1.00  0.00     0.008 A 
HETATM   10  C11 UNL     1      18.714  -3.792   7.838  1.00  0.00     0.001 A 
HETATM   11  C12 UNL     1      18.697  -2.809   6.868  1.00  0.00     0.000 A 
HETATM   12  C13 UNL     1      18.964  -3.195   5.572  1.00  0.00     0.001 A 
HETATM   13  C14 UNL     1      19.244  -4.529   5.242  1.00  0.00     0.008 A 
ENDBRANCH   5   8
BRANCH   7  14
HETATM   14  O1  UNL     1      21.337  -7.557   7.433  1.00  0.00    -0.394 OA
ATOM     15  H1  UNL     1      20.967  -6.899   8.008  1.00  0.00     0.210 HD
ENDBRANCH   7  14
BRANCH   1  16
HETATM   16  C3  UNL     1      21.415  -9.831   6.095  1.00  0.00     0.279 C 
BRANCH  16  17
HETATM   17  N1  UNL     1      22.796 -10.197   5.918  1.00  0.00     0.080 N 
HETATM   18  C1  UNL     1      23.100 -11.171   6.963  1.00  0.00     0.309 C 
HETATM   19  C2  UNL     1      22.835 -10.977   4.663  1.00  0.00     0.309 C 
ENDBRANCH  16  17
ENDBRANCH   1  16
TORSDOF 4
ENDMDL
