MODEL 5
REMARK VINA RESULT: -6.857430587      1.857      6.000
REMARK  4 active torsions:
REMARK  status: ('A' for Active; 'I' for Inactive)
REMARK    1  A    between atoms: N1_2  and  C3_4 
REMARK    2  A    between atoms: C3_4  and  C4_5 
REMARK    3  A    between atoms: C8_9  and  C9_10 
REMARK    4  A    between atoms: C16_17  and  O1_18 
ROOT
HETATM    1  C4  UNL     1      20.946  -8.630   5.284  1.00  0.00     0.048 C 
HETATM    2  C5  UNL     1      19.518  -8.770   4.777  1.00  0.00    -0.005 C 
HETATM    3  C6  UNL     1      18.526  -9.084   5.852  1.00  0.00     0.006 C 
HETATM    4  C7  UNL     1      18.632  -7.878   6.758  1.00  0.00     0.017 C 
HETATM    5  C8  UNL     1      19.538  -6.900   6.025  1.00  0.00     0.013 C 
HETATM    6  C15 UNL     1      19.208  -7.291   4.582  1.00  0.00     0.022 C 
HETATM    7  C16 UNL     1      20.947  -7.370   6.127  1.00  0.00     0.137 C 
ENDROOT
BRANCH   5   8
HETATM    8  C9  UNL     1      19.254  -5.517   6.314  1.00  0.00    -0.047 A 
HETATM    9  C10 UNL     1      19.230  -4.634   5.245  1.00  0.00     0.008 A 
HETATM   10  C11 UNL     1      18.967  -3.293   5.405  1.00  0.00     0.001 A 
HETATM   11  C12 UNL     1      18.712  -2.765   6.655  1.00  0.00     0.000 A 
HETATM   12  C13 UNL     1      18.733  -3.635   7.724  1.00  0.00     0.001 A 
HETATM   13  C14 UNL     1      19.002  -5.001   7.559  1.00  0.00     0.008 A 
ENDBRANCH   5   8
BRANCH   7  14
HETATM   14  O1  UNL     1      21.329  -7.630   7.444  1.00  0.00    -0.394 OA
ATOM     15  H1  UNL     1      20.612  -7.493   8.051  1.00  0.00     0.210 HD
ENDBRANCH   7  14
BRANCH   1  16
HETATM   16  C3  UNL     1      21.422  -9.833   5.993  1.00  0.00     0.279 C 
BRANCH  16  17
HETATM   17  N1  UNL     1      22.798 -10.202   5.784  1.00  0.00     0.080 N 
HETATM   18  C1  UNL     1      23.101 -11.232   6.773  1.00  0.00     0.309 C 
HETATM   19  C2  UNL     1      22.818 -10.916   4.490  1.00  0.00     0.309 C 
ENDBRANCH  16  17
ENDBRANCH   1  16
TORSDOF 4
ENDMDL
