MODEL 14
REMARK VINA RESULT: -5.550931217      1.397      2.108
REMARK  4 active torsions:
REMARK  status: ('A' for Active; 'I' for Inactive)
REMARK    1  A    between atoms: N1_2  and  C3_4 
REMARK    2  A    between atoms: C3_4  and  C4_5 
REMARK    3  A    between atoms: C8_9  and  C9_10 
REMARK    4  A    between atoms: C16_17  and  O1_18 
ROOT
HETATM    1  C4  UNL     1      19.671  -6.379   5.008  1.00  0.00     0.048 C 
HETATM    2  C5  UNL     1      19.301  -7.419   3.962  1.00  0.00    -0.005 C 
HETATM    3  C6  UNL     1      20.396  -7.704   2.983  1.00  0.00     0.006 C 
HETATM    4  C7  UNL     1      21.498  -8.238   3.870  1.00  0.00     0.017 C 
HETATM    5  C8  UNL     1      20.871  -8.386   5.248  1.00  0.00     0.013 C 
HETATM    6  C15 UNL     1      19.424  -8.662   4.834  1.00  0.00     0.022 C 
HETATM    7  C16 UNL     1      20.732  -7.038   5.867  1.00  0.00     0.137 C 
ENDROOT
BRANCH   5   8
HETATM    8  C9  UNL     1      21.446  -9.445   6.037  1.00  0.00    -0.047 A 
HETATM    9  C10 UNL     1      22.659  -9.969   5.615  1.00  0.00     0.008 A 
HETATM   10  C11 UNL     1      23.299 -10.981   6.293  1.00  0.00     0.001 A 
HETATM   11  C12 UNL     1      22.752 -11.522   7.439  1.00  0.00     0.000 A 
HETATM   12  C13 UNL     1      21.547 -11.008   7.868  1.00  0.00     0.001 A 
HETATM   13  C14 UNL     1      20.895  -9.977   7.175  1.00  0.00     0.008 A 
ENDBRANCH   5   8
BRANCH   7  14
HETATM   14  O1  UNL     1      21.928  -6.318   5.852  1.00  0.00    -0.394 OA
ATOM     15  H1  UNL     1      22.376  -6.399   5.019  1.00  0.00     0.210 HD
ENDBRANCH   7  14
BRANCH   1  16
HETATM   16  C3  UNL     1      20.083  -5.093   4.416  1.00  0.00     0.279 C 
BRANCH  16  17
HETATM   17  N1  UNL     1      19.519  -3.903   4.998  1.00  0.00     0.080 N 
HETATM   18  C1  UNL     1      20.629  -2.976   5.195  1.00  0.00     0.309 C 
HETATM   19  C2  UNL     1      18.710  -3.289   3.924  1.00  0.00     0.309 C 
ENDBRANCH  16  17
ENDBRANCH   1  16
TORSDOF 4
ENDMDL
