MODEL 1
REMARK VINA RESULT: -8.119205357      0.000      0.000
REMARK  4 active torsions:
REMARK  status: ('A' for Active; 'I' for Inactive)
REMARK    1  A    between atoms: N1_2  and  C3_4 
REMARK    2  A    between atoms: C3_4  and  C4_5 
REMARK    3  A    between atoms: C8_9  and  C9_10 
REMARK    4  A    between atoms: C16_17  and  O1_18 
ROOT
HETATM    1  C4  UNL     1      19.406  -7.103   6.738  1.00  0.00     0.048 C 
HETATM    2  C5  UNL     1      18.575  -8.216   6.119  1.00  0.00    -0.005 C 
HETATM    3  C6  UNL     1      18.953  -8.536   4.707  1.00  0.00     0.006 C 
HETATM    4  C7  UNL     1      20.390  -8.986   4.846  1.00  0.00     0.017 C 
HETATM    5  C8  UNL     1      20.647  -9.060   6.344  1.00  0.00     0.013 C 
HETATM    6  C15 UNL     1      19.232  -9.397   6.821  1.00  0.00     0.022 C 
HETATM    7  C16 UNL     1      20.801  -7.680   6.880  1.00  0.00     0.137 C 
ENDROOT
BRANCH   5   8
HETATM    8  C9  UNL     1      21.622 -10.053   6.717  1.00  0.00    -0.047 A 
HETATM    9  C10 UNL     1      21.364 -10.804   7.855  1.00  0.00     0.008 A 
HETATM   10  C11 UNL     1      22.223 -11.780   8.302  1.00  0.00     0.001 A 
HETATM   11  C12 UNL     1      23.394 -12.057   7.624  1.00  0.00     0.000 A 
HETATM   12  C13 UNL     1      23.660 -11.317   6.492  1.00  0.00     0.001 A 
HETATM   13  C14 UNL     1      22.783 -10.321   6.038  1.00  0.00     0.008 A 
ENDBRANCH   5   8
BRANCH   7  14
HETATM   14  O1  UNL     1      21.743  -6.933   6.171  1.00  0.00    -0.394 OA
ATOM     15  H1  UNL     1      21.978  -6.136   6.631  1.00  0.00     0.210 HD
ENDBRANCH   7  14
BRANCH   1  16
HETATM   16  C3  UNL     1      19.346  -5.847   5.965  1.00  0.00     0.279 C 
BRANCH  16  17
HETATM   17  N1  UNL     1      19.661  -4.636   6.677  1.00  0.00     0.080 N 
HETATM   18  C1  UNL     1      19.114  -3.540   5.884  1.00  0.00     0.309 C 
HETATM   19  C2  UNL     1      18.819  -4.668   7.892  1.00  0.00     0.309 C 
ENDBRANCH  16  17
ENDBRANCH   1  16
TORSDOF 4
ENDMDL
