MODEL 9
REMARK VINA RESULT: -5.906211419      2.541      5.811
REMARK  4 active torsions:
REMARK  status: ('A' for Active; 'I' for Inactive)
REMARK    1  A    between atoms: N1_2  and  C3_4 
REMARK    2  A    between atoms: C3_4  and  C4_5 
REMARK    3  A    between atoms: C8_9  and  C9_10 
REMARK    4  A    between atoms: C16_17  and  O1_18 
ROOT
HETATM    1  C4  UNL     1      20.049  -8.646   4.363  1.00  0.00     0.048 C 
HETATM    2  C5  UNL     1      19.477  -9.163   5.674  1.00  0.00    -0.005 C 
HETATM    3  C6  UNL     1      20.439  -9.095   6.818  1.00  0.00     0.006 C 
HETATM    4  C7  UNL     1      20.713  -7.613   6.929  1.00  0.00     0.017 C 
HETATM    5  C8  UNL     1      19.745  -6.949   5.961  1.00  0.00     0.013 C 
HETATM    6  C15 UNL     1      18.601  -7.965   6.020  1.00  0.00     0.022 C 
HETATM    7  C16 UNL     1      20.230  -7.155   4.568  1.00  0.00     0.137 C 
ENDROOT
BRANCH   5   8
HETATM    8  C9  UNL     1      19.344  -5.623   6.358  1.00  0.00    -0.047 A 
HETATM    9  C10 UNL     1      18.998  -5.433   7.688  1.00  0.00     0.008 A 
HETATM   10  C11 UNL     1      18.604  -4.210   8.177  1.00  0.00     0.001 A 
HETATM   11  C12 UNL     1      18.536  -3.105   7.351  1.00  0.00     0.000 A 
HETATM   12  C13 UNL     1      18.878  -3.283   6.028  1.00  0.00     0.001 A 
HETATM   13  C14 UNL     1      19.279  -4.532   5.530  1.00  0.00     0.008 A 
ENDBRANCH   5   8
BRANCH   7  14
HETATM   14  O1  UNL     1      21.561  -6.769   4.404  1.00  0.00    -0.394 OA
ATOM     15  H1  UNL     1      21.864  -6.923   3.518  1.00  0.00     0.210 HD
ENDBRANCH   7  14
BRANCH   1  16
HETATM   16  C3  UNL     1      21.277  -9.354   3.955  1.00  0.00     0.279 C 
BRANCH  16  17
HETATM   17  N1  UNL     1      21.272  -9.953   2.646  1.00  0.00     0.080 N 
HETATM   18  C1  UNL     1      21.669  -8.902   1.713  1.00  0.00     0.309 C 
HETATM   19  C2  UNL     1      22.409 -10.898   2.644  1.00  0.00     0.309 C 
ENDBRANCH  16  17
ENDBRANCH   1  16
TORSDOF 4
ENDMDL
