MODEL 3
REMARK VINA RESULT: -10.503371460      1.615      2.299
REMARK  11 active torsions:
REMARK  status: ('A' for Active; 'I' for Inactive)
REMARK    1  A    between atoms: C2_2  and  C4_4 
REMARK    2  A    between atoms: C4_4  and  C5_5 
REMARK    3  A    between atoms: C5_5  and  C6_6 
REMARK       I    between atoms: C6_6  and  N1_8 
REMARK    4  A    between atoms: N1_8  and  C7_10 
REMARK    5  A    between atoms: C7_10  and  C8_11 
REMARK    6  A    between atoms: C7_10  and  C24_31 
REMARK    7  A    between atoms: C8_11  and  C9_12 
REMARK    8  A    between atoms: C12_15  and  N2_16 
REMARK       I    between atoms: N2_16  and  C13_18 
REMARK    9  A    between atoms: C13_18  and  C14_20 
REMARK   10  A    between atoms: C14_20  and  C15_21 
REMARK   11  A    between atoms: C15_21  and  C16_22 
REMARK       I    between atoms: C24_31  and  N3_33 
ROOT
HETATM    1  C8  UNL     1      -4.848  22.989  15.629  1.00  0.00     0.073 C 
ENDROOT
BRANCH   1   2
HETATM    2  C7  UNL     1      -4.203  23.747  14.542  1.00  0.00     0.181 C 
BRANCH   2   3
HETATM    3  N1  UNL     1      -4.418  25.188  14.693  1.00  0.00    -0.347 N 
HETATM    4  C6  UNL     1      -5.041  25.937  13.672  1.00  0.00     0.218 C 
HETATM    5  O1  UNL     1      -5.402  25.380  12.630  1.00  0.00    -0.274 OA
ATOM      6  H1  UNL     1      -4.114  25.656  15.546  1.00  0.00     0.163 HD
BRANCH   4   7
HETATM    7  C5  UNL     1      -5.268  27.400  13.838  1.00  0.00     0.103 C 
BRANCH   7   8
HETATM    8  C4  UNL     1      -6.753  27.636  13.913  1.00  0.00     0.013 C 
BRANCH   8   9
HETATM    9  C2  UNL     1      -7.359  27.178  15.224  1.00  0.00    -0.022 C 
HETATM   10  C1  UNL     1      -8.849  27.365  15.291  1.00  0.00     0.009 C 
HETATM   11  C3  UNL     1      -6.725  27.943  16.361  1.00  0.00     0.009 C 
ENDBRANCH   8   9
ENDBRANCH   7   8
ENDBRANCH   4   7
ENDBRANCH   2   3
BRANCH   2  12
HETATM   12  C24 UNL     1      -2.713  23.520  14.620  1.00  0.00     0.242 C 
HETATM   13  O3  UNL     1      -2.271  23.271  15.800  1.00  0.00    -0.271 OA
HETATM   14  N3  UNL     1      -1.843  23.570  13.538  1.00  0.00    -0.350 N 
HETATM   15  C25 UNL     1      -0.406  23.330  13.757  1.00  0.00     0.126 C 
HETATM   16  C30 UNL     1      -2.258  23.878  12.213  1.00  0.00     0.126 C 
HETATM   17  C26 UNL     1       0.352  24.611  13.366  1.00  0.00     0.024 C 
HETATM   18  C27 UNL     1      -0.653  25.631  12.833  1.00  0.00    -0.015 C 
HETATM   19  C28 UNL     1       0.043  26.893  12.398  1.00  0.00     0.010 C 
HETATM   20  C29 UNL     1      -1.436  25.042  11.696  1.00  0.00     0.024 C 
ENDBRANCH   2  12
ENDBRANCH   1   2
BRANCH   1  21
HETATM   21  C9  UNL     1      -6.315  23.150  15.657  1.00  0.00    -0.056 A 
HETATM   22  C10 UNL     1      -7.059  22.714  14.548  1.00  0.00     0.009 A 
HETATM   23  C11 UNL     1      -8.456  22.803  14.564  1.00  0.00     0.030 A 
HETATM   24  C12 UNL     1      -9.148  23.307  15.631  1.00  0.00     0.034 A 
HETATM   25  C22 UNL     1      -8.359  23.729  16.713  1.00  0.00     0.030 A 
HETATM   26  C23 UNL     1      -6.993  23.652  16.719  1.00  0.00     0.009 A 
BRANCH  24  27
HETATM   27  N2  UNL     1     -10.547  23.416  15.751  1.00  0.00    -0.327 N 
HETATM   28  C13 UNL     1     -11.401  24.268  14.987  1.00  0.00     0.222 C 
HETATM   29  O2  UNL     1     -10.871  25.008  14.142  1.00  0.00    -0.273 OA
ATOM     30  H2  UNL     1     -10.996  22.827  16.453  1.00  0.00     0.169 HD
BRANCH  28  31
HETATM   31  C14 UNL     1     -12.854  24.276  15.183  1.00  0.00     0.108 C 
BRANCH  31  32
HETATM   32  C15 UNL     1     -13.561  23.300  14.330  1.00  0.00     0.048 C 
BRANCH  32  33
HETATM   33  C16 UNL     1     -13.305  21.888  14.621  1.00  0.00    -0.058 A 
HETATM   34  C17 UNL     1     -12.374  21.090  14.018  1.00  0.00     0.009 A 
HETATM   35  C18 UNL     1     -12.259  19.749  14.379  1.00  0.00     0.024 A 
HETATM   36  C19 UNL     1     -13.046  19.160  15.333  1.00  0.00     0.034 A 
HETATM   37 CL1  UNL     1     -12.921  17.488  15.804  1.00  0.00    -0.084 Cl
HETATM   38  C20 UNL     1     -13.994  19.974  15.952  1.00  0.00     0.024 A 
HETATM   39  C21 UNL     1     -14.102  21.287  15.591  1.00  0.00     0.009 A 
ENDBRANCH  32  33
ENDBRANCH  31  32
ENDBRANCH  28  31
ENDBRANCH  24  27
ENDBRANCH   1  21
TORSDOF 11
ENDMDL
