MODEL 2
REMARK VINA RESULT: -10.567659405      1.778      2.590
REMARK  11 active torsions:
REMARK  status: ('A' for Active; 'I' for Inactive)
REMARK    1  A    between atoms: C2_2  and  C4_4 
REMARK    2  A    between atoms: C4_4  and  C5_5 
REMARK    3  A    between atoms: C5_5  and  C6_6 
REMARK       I    between atoms: C6_6  and  N1_8 
REMARK    4  A    between atoms: N1_8  and  C7_10 
REMARK    5  A    between atoms: C7_10  and  C8_11 
REMARK    6  A    between atoms: C7_10  and  C24_31 
REMARK    7  A    between atoms: C8_11  and  C9_12 
REMARK    8  A    between atoms: C12_15  and  N2_16 
REMARK       I    between atoms: N2_16  and  C13_18 
REMARK    9  A    between atoms: C13_18  and  C14_20 
REMARK   10  A    between atoms: C14_20  and  C15_21 
REMARK   11  A    between atoms: C15_21  and  C16_22 
REMARK       I    between atoms: C24_31  and  N3_33 
ROOT
HETATM    1  C8  UNL     1      -4.604  23.207  14.992  1.00  0.00     0.073 C 
ENDROOT
BRANCH   1   2
HETATM    2  C7  UNL     1      -4.171  24.186  13.978  1.00  0.00     0.181 C 
BRANCH   2   3
HETATM    3  N1  UNL     1      -4.713  25.518  14.254  1.00  0.00    -0.347 N 
HETATM    4  C6  UNL     1      -5.727  26.068  13.443  1.00  0.00     0.218 C 
HETATM    5  O1  UNL     1      -6.161  25.429  12.479  1.00  0.00    -0.274 OA
ATOM      6  H1  UNL     1      -4.352  26.055  15.043  1.00  0.00     0.163 HD
BRANCH   4   7
HETATM    7  C5  UNL     1      -6.284  27.418  13.738  1.00  0.00     0.103 C 
BRANCH   7   8
HETATM    8  C4  UNL     1      -7.642  27.238  14.360  1.00  0.00     0.013 C 
BRANCH   8   9
HETATM    9  C2  UNL     1      -7.846  28.092  15.595  1.00  0.00    -0.022 C 
HETATM   10  C1  UNL     1      -6.740  27.957  16.603  1.00  0.00     0.009 C 
HETATM   11  C3  UNL     1      -9.150  27.712  16.254  1.00  0.00     0.009 C 
ENDBRANCH   8   9
ENDBRANCH   7   8
ENDBRANCH   4   7
ENDBRANCH   2   3
BRANCH   2  12
HETATM   12  C24 UNL     1      -2.667  24.307  14.043  1.00  0.00     0.242 C 
HETATM   13  O3  UNL     1      -2.219  24.825  15.130  1.00  0.00    -0.271 OA
HETATM   14  N3  UNL     1      -1.793  23.913  13.037  1.00  0.00    -0.350 N 
HETATM   15  C25 UNL     1      -0.344  24.091  13.232  1.00  0.00     0.126 C 
HETATM   16  C30 UNL     1      -2.223  23.368  11.796  1.00  0.00     0.126 C 
HETATM   17  C26 UNL     1       0.162  25.061  12.150  1.00  0.00     0.024 C 
HETATM   18  C27 UNL     1      -1.006  25.427  11.235  1.00  0.00    -0.015 C 
HETATM   19  C28 UNL     1      -0.557  26.347  10.132  1.00  0.00     0.010 C 
HETATM   20  C29 UNL     1      -1.628  24.186  10.667  1.00  0.00     0.024 C 
ENDBRANCH   2  12
ENDBRANCH   1   2
BRANCH   1  21
HETATM   21  C9  UNL     1      -6.061  23.220  15.225  1.00  0.00    -0.056 A 
HETATM   22  C10 UNL     1      -6.554  23.895  16.355  1.00  0.00     0.009 A 
HETATM   23  C11 UNL     1      -7.934  23.973  16.576  1.00  0.00     0.030 A 
HETATM   24  C12 UNL     1      -8.848  23.410  15.728  1.00  0.00     0.034 A 
HETATM   25  C22 UNL     1      -8.305  22.746  14.616  1.00  0.00     0.030 A 
HETATM   26  C23 UNL     1      -6.960  22.657  14.379  1.00  0.00     0.009 A 
BRANCH  24  27
HETATM   27  N2  UNL     1     -10.250  23.453  15.852  1.00  0.00    -0.327 N 
HETATM   28  C13 UNL     1     -11.138  24.319  15.145  1.00  0.00     0.222 C 
HETATM   29  O2  UNL     1     -10.641  25.135  14.353  1.00  0.00    -0.273 OA
ATOM     30  H2  UNL     1     -10.673  22.800  16.512  1.00  0.00     0.169 HD
BRANCH  28  31
HETATM   31  C14 UNL     1     -12.590  24.254  15.340  1.00  0.00     0.108 C 
BRANCH  31  32
HETATM   32  C15 UNL     1     -13.261  23.330  14.403  1.00  0.00     0.048 C 
BRANCH  32  33
HETATM   33  C16 UNL     1     -13.103  21.902  14.684  1.00  0.00    -0.058 A 
HETATM   34  C17 UNL     1     -12.175  21.063  14.134  1.00  0.00     0.009 A 
HETATM   35  C18 UNL     1     -12.159  19.713  14.477  1.00  0.00     0.024 A 
HETATM   36  C19 UNL     1     -13.043  19.154  15.362  1.00  0.00     0.034 A 
HETATM   37 CL1  UNL     1     -13.043  17.471  15.809  1.00  0.00    -0.084 Cl
HETATM   38  C20 UNL     1     -13.989  20.009  15.926  1.00  0.00     0.024 A 
HETATM   39  C21 UNL     1     -13.999  21.331  15.584  1.00  0.00     0.009 A 
ENDBRANCH  32  33
ENDBRANCH  31  32
ENDBRANCH  28  31
ENDBRANCH  24  27
ENDBRANCH   1  21
TORSDOF 11
ENDMDL
