MODEL 1
REMARK VINA RESULT: -10.697898688      0.000      0.000
REMARK  11 active torsions:
REMARK  status: ('A' for Active; 'I' for Inactive)
REMARK    1  A    between atoms: C2_2  and  C4_4 
REMARK    2  A    between atoms: C4_4  and  C5_5 
REMARK    3  A    between atoms: C5_5  and  C6_6 
REMARK       I    between atoms: C6_6  and  N1_8 
REMARK    4  A    between atoms: N1_8  and  C7_10 
REMARK    5  A    between atoms: C7_10  and  C8_11 
REMARK    6  A    between atoms: C7_10  and  C24_31 
REMARK    7  A    between atoms: C8_11  and  C9_12 
REMARK    8  A    between atoms: C12_15  and  N2_16 
REMARK       I    between atoms: N2_16  and  C13_18 
REMARK    9  A    between atoms: C13_18  and  C14_20 
REMARK   10  A    between atoms: C14_20  and  C15_21 
REMARK   11  A    between atoms: C15_21  and  C16_22 
REMARK       I    between atoms: C24_31  and  N3_33 
ROOT
HETATM    1  C8  UNL     1      -4.052  23.631  12.998  1.00  0.00     0.073 C 
ENDROOT
BRANCH   1   2
HETATM    2  C7  UNL     1      -3.286  24.512  13.898  1.00  0.00     0.181 C 
BRANCH   2   3
HETATM    3  N1  UNL     1      -4.172  25.350  14.709  1.00  0.00    -0.347 N 
HETATM    4  C6  UNL     1      -3.803  26.666  15.057  1.00  0.00     0.218 C 
HETATM    5  O1  UNL     1      -2.716  27.121  14.687  1.00  0.00    -0.274 OA
ATOM      6  H1  UNL     1      -5.067  24.978  15.026  1.00  0.00     0.163 HD
BRANCH   4   7
HETATM    7  C5  UNL     1      -4.715  27.518  15.870  1.00  0.00     0.103 C 
BRANCH   7   8
HETATM    8  C4  UNL     1      -6.065  27.526  15.204  1.00  0.00     0.013 C 
BRANCH   8   9
HETATM    9  C2  UNL     1      -7.199  27.220  16.161  1.00  0.00    -0.022 C 
HETATM   10  C1  UNL     1      -7.231  25.785  16.610  1.00  0.00     0.009 C 
HETATM   11  C3  UNL     1      -8.514  27.548  15.497  1.00  0.00     0.009 C 
ENDBRANCH   8   9
ENDBRANCH   7   8
ENDBRANCH   4   7
ENDBRANCH   2   3
BRANCH   2  12
HETATM   12  C24 UNL     1      -2.505  23.649  14.860  1.00  0.00     0.242 C 
HETATM   13  O3  UNL     1      -3.136  23.345  15.937  1.00  0.00    -0.271 OA
HETATM   14  N3  UNL     1      -1.208  23.197  14.650  1.00  0.00    -0.350 N 
HETATM   15  C25 UNL     1      -0.562  22.361  15.676  1.00  0.00     0.126 C 
HETATM   16  C30 UNL     1      -0.440  23.527  13.500  1.00  0.00     0.126 C 
HETATM   17  C26 UNL     1       0.671  23.119  16.198  1.00  0.00     0.024 C 
HETATM   18  C27 UNL     1       0.809  24.425  15.415  1.00  0.00    -0.015 C 
HETATM   19  C28 UNL     1       2.026  25.191  15.859  1.00  0.00     0.010 C 
HETATM   20  C29 UNL     1       0.872  24.141  13.943  1.00  0.00     0.024 C 
ENDBRANCH   2  12
ENDBRANCH   1   2
BRANCH   1  21
HETATM   21  C9  UNL     1      -5.513  23.750  13.175  1.00  0.00    -0.056 A 
HETATM   22  C10 UNL     1      -6.181  22.759  13.913  1.00  0.00     0.009 A 
HETATM   23  C11 UNL     1      -7.557  22.870  14.146  1.00  0.00     0.030 A 
HETATM   24  C12 UNL     1      -8.300  23.920  13.679  1.00  0.00     0.034 A 
HETATM   25  C22 UNL     1      -7.586  24.882  12.947  1.00  0.00     0.030 A 
HETATM   26  C23 UNL     1      -6.241  24.794  12.707  1.00  0.00     0.009 A 
BRANCH  24  27
HETATM   27  N2  UNL     1      -9.678  24.131  13.879  1.00  0.00    -0.327 N 
HETATM   28  C13 UNL     1     -10.399  23.935  15.096  1.00  0.00     0.222 C 
HETATM   29  O2  UNL     1      -9.768  23.519  16.081  1.00  0.00    -0.273 OA
ATOM     30  H2  UNL     1     -10.215  24.456  13.074  1.00  0.00     0.169 HD
BRANCH  28  31
HETATM   31  C14 UNL     1     -11.835  24.215  15.191  1.00  0.00     0.108 C 
BRANCH  31  32
HETATM   32  C15 UNL     1     -12.650  23.387  14.279  1.00  0.00     0.048 C 
BRANCH  32  33
HETATM   33  C16 UNL     1     -12.874  22.001  14.696  1.00  0.00    -0.058 A 
HETATM   34  C17 UNL     1     -13.862  21.552  15.525  1.00  0.00     0.009 A 
HETATM   35  C18 UNL     1     -13.938  20.201  15.858  1.00  0.00     0.024 A 
HETATM   36  C19 UNL     1     -13.056  19.263  15.389  1.00  0.00     0.034 A 
HETATM   37 CL1  UNL     1     -13.130  17.569  15.788  1.00  0.00    -0.084 Cl
HETATM   38  C20 UNL     1     -12.049  19.720  14.540  1.00  0.00     0.024 A 
HETATM   39  C21 UNL     1     -11.980  21.046  14.220  1.00  0.00     0.009 A 
ENDBRANCH  32  33
ENDBRANCH  31  32
ENDBRANCH  28  31
ENDBRANCH  24  27
ENDBRANCH   1  21
TORSDOF 11
ENDMDL
