MODEL 5
REMARK VINA RESULT: -10.034043681      1.423      2.524
REMARK  11 active torsions:
REMARK  status: ('A' for Active; 'I' for Inactive)
REMARK    1  A    between atoms: C2_2  and  C4_4 
REMARK    2  A    between atoms: C4_4  and  C5_5 
REMARK    3  A    between atoms: C5_5  and  N1_6 
REMARK    4  A    between atoms: N1_6  and  C6_7 
REMARK    5  A    between atoms: N1_6  and  C19_25 
REMARK    6  A    between atoms: C6_7  and  O1_8 
REMARK    7  A    between atoms: C6_7  and  N2_10 
REMARK    8  A    between atoms: N2_10  and  C8_12 
REMARK    9  A    between atoms: C11_15  and  C12_16 
REMARK   10  A    between atoms: C23_29  and  N4_30 
REMARK       I    between atoms: N4_30  and  C24_32 
REMARK   11  A    between atoms: C24_32  and  C25_34 
ROOT
HETATM    1  N1  UNL     1      -6.732  25.733  13.599  1.00  0.00    -0.288 N 
ENDROOT
BRANCH   1   2
HETATM    2  C5  UNL     1      -6.570  24.311  13.706  1.00  0.00     0.101 C 
BRANCH   2   3
HETATM    3  C4  UNL     1      -6.779  23.549  14.889  1.00  0.00     0.020 C 
BRANCH   3   4
HETATM    4  C2  UNL     1      -6.761  23.766  16.165  1.00  0.00    -0.086 C 
HETATM    5  C1  UNL     1      -8.034  24.092  16.936  1.00  0.00     0.043 C 
HETATM    6  C3  UNL     1      -5.538  23.750  16.982  1.00  0.00     0.043 C 
ENDBRANCH   3   4
ENDBRANCH   2   3
ENDBRANCH   1   2
BRANCH   1   7
HETATM    7  C6  UNL     1      -8.046  26.220  13.499  1.00  0.00     0.226 C 
BRANCH   7   8
HETATM    8  O1  UNL     1      -8.189  27.041  12.470  1.00  0.00    -0.332 OA
ATOM      9  H1  UNL     1      -7.838  26.668  11.670  1.00  0.00     0.221 HD
ENDBRANCH   7   8
BRANCH   7  10
HETATM   10  N2  UNL     1      -9.212  26.032  14.222  1.00  0.00    -0.347 N 
HETATM   11  C7  UNL     1      -9.458  27.114  15.257  1.00  0.00     0.153 C 
BRANCH  10  12
HETATM   12  C8  UNL     1     -10.263  25.095  14.164  1.00  0.00     0.087 C 
HETATM   13  C9  UNL     1     -11.643  25.711  13.977  1.00  0.00     0.026 C 
HETATM   14  C10 UNL     1     -12.653  24.807  13.389  1.00  0.00     0.011 C 
HETATM   15  C11 UNL     1     -12.496  23.340  13.601  1.00  0.00     0.019 C 
HETATM   16  C17 UNL     1     -11.117  22.861  13.919  1.00  0.00     0.011 C 
HETATM   17  C18 UNL     1     -10.153  23.899  13.276  1.00  0.00     0.026 C 
BRANCH  15  18
HETATM   18  C12 UNL     1     -13.535  22.769  14.495  1.00  0.00    -0.051 A 
HETATM   19  C13 UNL     1     -13.658  21.396  14.587  1.00  0.00     0.024 A 
HETATM   20  C14 UNL     1     -14.607  20.852  15.424  1.00  0.00     0.088 A 
HETATM   21  N3  UNL     1     -15.401  21.660  16.144  1.00  0.00    -0.375 N 
HETATM   22  C15 UNL     1     -15.306  22.994  16.077  1.00  0.00     0.088 A 
ATOM     23  H3  UNL     1     -16.098  21.245  16.762  1.00  0.00     0.164 HD
HETATM   24  C16 UNL     1     -14.371  23.582  15.251  1.00  0.00     0.024 A 
ENDBRANCH  15  18
ENDBRANCH  10  12
ENDBRANCH   7  10
ENDBRANCH   1   7
BRANCH   1  25
HETATM   25  C19 UNL     1      -5.541  26.512  13.721  1.00  0.00     0.044 A 
HETATM   26  C20 UNL     1      -5.557  27.873  13.410  1.00  0.00     0.030 A 
HETATM   27  C21 UNL     1      -4.418  28.645  13.556  1.00  0.00     0.004 A 
HETATM   28  C22 UNL     1      -3.273  28.040  14.014  1.00  0.00     0.029 A 
HETATM   29  C23 UNL     1      -3.204  26.684  14.339  1.00  0.00     0.037 A 
HETATM   30  C31 UNL     1      -4.357  25.967  14.175  1.00  0.00     0.059 A 
BRANCH  29  31
HETATM   31  N4  UNL     1      -1.961  26.196  14.793  1.00  0.00    -0.323 N 
HETATM   32  C24 UNL     1      -0.939  25.605  14.036  1.00  0.00     0.256 C 
HETATM   33  O2  UNL     1      -1.109  25.472  12.801  1.00  0.00    -0.267 OA
ATOM     34  H4  UNL     1      -1.784  26.283  15.793  1.00  0.00     0.169 HD
BRANCH  32  35
HETATM   35  C25 UNL     1       0.339  25.121  14.583  1.00  0.00     0.032 A 
HETATM   36  C26 UNL     1       0.698  23.797  14.583  1.00  0.00     0.017 A 
HETATM   37  C27 UNL     1       1.925  23.373  15.117  1.00  0.00     0.001 A 
HETATM   38  C28 UNL     1       2.820  24.286  15.665  1.00  0.00     0.000 A 
HETATM   39  C29 UNL     1       2.447  25.601  15.656  1.00  0.00     0.001 A 
HETATM   40  C30 UNL     1       1.236  26.031  15.132  1.00  0.00     0.017 A 
ENDBRANCH  32  35
ENDBRANCH  29  31
ENDBRANCH   1  25
TORSDOF 11
ENDMDL
