MODEL 1
REMARK VINA RESULT: -10.597564209      0.000      0.000
REMARK  11 active torsions:
REMARK  status: ('A' for Active; 'I' for Inactive)
REMARK    1  A    between atoms: C2_2  and  C4_4 
REMARK    2  A    between atoms: C4_4  and  C5_5 
REMARK    3  A    between atoms: C5_5  and  N1_6 
REMARK    4  A    between atoms: N1_6  and  C6_7 
REMARK    5  A    between atoms: N1_6  and  C19_25 
REMARK    6  A    between atoms: C6_7  and  O1_8 
REMARK    7  A    between atoms: C6_7  and  N2_10 
REMARK    8  A    between atoms: N2_10  and  C8_12 
REMARK    9  A    between atoms: C11_15  and  C12_16 
REMARK   10  A    between atoms: C23_29  and  N4_30 
REMARK       I    between atoms: N4_30  and  C24_32 
REMARK   11  A    between atoms: C24_32  and  C25_34 
ROOT
HETATM    1  N1  UNL     1      -6.451  25.575  13.870  1.00  0.00    -0.288 N 
ENDROOT
BRANCH   1   2
HETATM    2  C5  UNL     1      -7.056  26.713  14.501  1.00  0.00     0.101 C 
BRANCH   2   3
HETATM    3  C4  UNL     1      -8.188  27.418  14.006  1.00  0.00     0.020 C 
BRANCH   3   4
HETATM    4  C2  UNL     1      -9.140  28.140  14.504  1.00  0.00    -0.086 C 
HETATM    5  C1  UNL     1     -10.573  28.026  14.001  1.00  0.00     0.043 C 
HETATM    6  C3  UNL     1      -8.941  29.143  15.561  1.00  0.00     0.043 C 
ENDBRANCH   3   4
ENDBRANCH   2   3
ENDBRANCH   1   2
BRANCH   1   7
HETATM    7  C6  UNL     1      -7.171  24.369  13.904  1.00  0.00     0.226 C 
BRANCH   7   8
HETATM    8  O1  UNL     1      -6.801  23.548  12.933  1.00  0.00    -0.332 OA
ATOM      9  H1  UNL     1      -7.487  23.435  12.286  1.00  0.00     0.221 HD
ENDBRANCH   7   8
BRANCH   7  10
HETATM   10  N2  UNL     1      -8.164  23.849  14.717  1.00  0.00    -0.347 N 
HETATM   11  C7  UNL     1      -7.687  23.539  16.123  1.00  0.00     0.153 C 
BRANCH  10  12
HETATM   12  C8  UNL     1      -9.543  23.608  14.552  1.00  0.00     0.087 C 
HETATM   13  C9  UNL     1     -10.442  24.532  15.362  1.00  0.00     0.026 C 
HETATM   14  C10 UNL     1     -11.814  24.681  14.835  1.00  0.00     0.011 C 
HETATM   15  C11 UNL     1     -12.392  23.561  14.041  1.00  0.00     0.019 C 
HETATM   16  C17 UNL     1     -11.413  22.629  13.402  1.00  0.00     0.011 C 
HETATM   17  C18 UNL     1     -10.120  23.464  13.182  1.00  0.00     0.026 C 
BRANCH  15  18
HETATM   18  C12 UNL     1     -13.496  22.859  14.743  1.00  0.00    -0.051 A 
HETATM   19  C13 UNL     1     -13.557  21.481  14.686  1.00  0.00     0.024 A 
HETATM   20  C14 UNL     1     -14.566  20.815  15.347  1.00  0.00     0.088 A 
HETATM   21  N3  UNL     1     -15.479  21.513  16.040  1.00  0.00    -0.375 N 
HETATM   22  C15 UNL     1     -15.447  22.849  16.115  1.00  0.00     0.088 A 
ATOM     23  H3  UNL     1     -16.221  21.008  16.526  1.00  0.00     0.164 HD
HETATM   24  C16 UNL     1     -14.456  23.556  15.468  1.00  0.00     0.024 A 
ENDBRANCH  15  18
ENDBRANCH  10  12
ENDBRANCH   7  10
ENDBRANCH   1   7
BRANCH   1  25
HETATM   25  C19 UNL     1      -5.227  25.818  13.176  1.00  0.00     0.044 A 
HETATM   26  C20 UNL     1      -5.227  26.550  11.988  1.00  0.00     0.030 A 
HETATM   27  C21 UNL     1      -4.042  26.821  11.324  1.00  0.00     0.004 A 
HETATM   28  C22 UNL     1      -2.870  26.351  11.863  1.00  0.00     0.029 A 
HETATM   29  C23 UNL     1      -2.815  25.614  13.047  1.00  0.00     0.037 A 
HETATM   30  C31 UNL     1      -4.014  25.374  13.662  1.00  0.00     0.059 A 
BRANCH  29  31
HETATM   31  N4  UNL     1      -1.541  25.191  13.482  1.00  0.00    -0.323 N 
HETATM   32  C24 UNL     1      -0.713  25.796  14.437  1.00  0.00     0.256 C 
HETATM   33  O2  UNL     1      -1.111  26.844  14.998  1.00  0.00    -0.267 OA
ATOM     34  H4  UNL     1      -1.180  24.342  13.048  1.00  0.00     0.169 HD
BRANCH  32  35
HETATM   35  C25 UNL     1       0.610  25.291  14.843  1.00  0.00     0.032 A 
HETATM   36  C26 UNL     1       1.586  26.095  15.372  1.00  0.00     0.017 A 
HETATM   37  C27 UNL     1       2.836  25.577  15.745  1.00  0.00     0.001 A 
HETATM   38  C28 UNL     1       3.125  24.225  15.590  1.00  0.00     0.000 A 
HETATM   39  C29 UNL     1       2.141  23.438  15.062  1.00  0.00     0.001 A 
HETATM   40  C30 UNL     1       0.902  23.940  14.689  1.00  0.00     0.017 A 
ENDBRANCH  32  35
ENDBRANCH  29  31
ENDBRANCH   1  25
TORSDOF 11
ENDMDL
