MODEL 15
REMARK VINA RESULT: -9.788421668      1.875     10.659
REMARK  11 active torsions:
REMARK  status: ('A' for Active; 'I' for Inactive)
REMARK    1  A    between atoms: C2_2  and  C4_4 
REMARK    2  A    between atoms: C4_4  and  C5_5 
REMARK    3  A    between atoms: C5_5  and  N1_6 
REMARK    4  A    between atoms: N1_6  and  C6_7 
REMARK    5  A    between atoms: N1_6  and  C19_25 
REMARK    6  A    between atoms: C6_7  and  O1_8 
REMARK    7  A    between atoms: C6_7  and  N2_10 
REMARK    8  A    between atoms: N2_10  and  C8_12 
REMARK    9  A    between atoms: C11_15  and  C12_16 
REMARK   10  A    between atoms: C23_29  and  N4_30 
REMARK       I    between atoms: N4_30  and  C24_32 
REMARK   11  A    between atoms: C24_32  and  C25_34 
ROOT
HETATM    1  N1  UNL     1      -5.999  26.498  13.529  1.00  0.00    -0.288 N 
ENDROOT
BRANCH   1   2
HETATM    2  C5  UNL     1      -6.351  27.832  13.924  1.00  0.00     0.101 C 
BRANCH   2   3
HETATM    3  C4  UNL     1      -7.656  28.393  13.844  1.00  0.00     0.020 C 
BRANCH   3   4
HETATM    4  C2  UNL     1      -8.654  28.576  14.647  1.00  0.00    -0.086 C 
HETATM    5  C1  UNL     1     -10.029  27.990  14.355  1.00  0.00     0.043 C 
HETATM    6  C3  UNL     1      -8.578  29.372  15.881  1.00  0.00     0.043 C 
ENDBRANCH   3   4
ENDBRANCH   2   3
ENDBRANCH   1   2
BRANCH   1   7
HETATM    7  C6  UNL     1      -5.129  26.365  12.433  1.00  0.00     0.226 C 
BRANCH   7   8
HETATM    8  O1  UNL     1      -5.790  26.180  11.301  1.00  0.00    -0.332 OA
ATOM      9  H1  UNL     1      -5.732  25.280  11.002  1.00  0.00     0.221 HD
ENDBRANCH   7   8
BRANCH   7  10
HETATM   10  N2  UNL     1      -3.754  26.390  12.272  1.00  0.00    -0.347 N 
HETATM   11  C7  UNL     1      -3.291  27.379  11.220  1.00  0.00     0.153 C 
BRANCH  10  12
HETATM   12  C8  UNL     1      -2.678  25.749  12.918  1.00  0.00     0.087 C 
HETATM   13  C9  UNL     1      -2.602  26.010  14.417  1.00  0.00     0.026 C 
HETATM   14  C10 UNL     1      -1.872  24.985  15.190  1.00  0.00     0.011 C 
HETATM   15  C11 UNL     1      -0.808  24.204  14.499  1.00  0.00     0.019 C 
HETATM   16  C17 UNL     1      -0.902  24.131  13.009  1.00  0.00     0.011 C 
HETATM   17  C18 UNL     1      -2.412  24.300  12.675  1.00  0.00     0.026 C 
BRANCH  15  18
HETATM   18  C12 UNL     1       0.558  24.528  14.984  1.00  0.00    -0.051 A 
HETATM   19  C13 UNL     1       0.898  25.850  15.193  1.00  0.00     0.024 A 
HETATM   20  C14 UNL     1       2.155  26.165  15.659  1.00  0.00     0.088 A 
HETATM   21  N3  UNL     1       3.037  25.184  15.906  1.00  0.00    -0.375 N 
HETATM   22  C15 UNL     1       2.738  23.893  15.713  1.00  0.00     0.088 A 
ATOM     23  H3  UNL     1       3.965  25.430  16.251  1.00  0.00     0.164 HD
HETATM   24  C16 UNL     1       1.491  23.532  15.247  1.00  0.00     0.024 A 
ENDBRANCH  15  18
ENDBRANCH  10  12
ENDBRANCH   7  10
ENDBRANCH   1   7
BRANCH   1  25
HETATM   25  C19 UNL     1      -6.482  25.447  14.366  1.00  0.00     0.044 A 
HETATM   26  C20 UNL     1      -5.591  24.693  15.132  1.00  0.00     0.030 A 
HETATM   27  C21 UNL     1      -6.051  23.694  15.973  1.00  0.00     0.004 A 
HETATM   28  C22 UNL     1      -7.403  23.465  16.035  1.00  0.00     0.029 A 
HETATM   29  C23 UNL     1      -8.336  24.189  15.290  1.00  0.00     0.037 A 
HETATM   30  C31 UNL     1      -7.828  25.163  14.475  1.00  0.00     0.059 A 
BRANCH  29  31
HETATM   31  N4  UNL     1      -9.694  23.842  15.449  1.00  0.00    -0.323 N 
HETATM   32  C24 UNL     1     -10.585  23.382  14.470  1.00  0.00     0.256 C 
HETATM   33  O2  UNL     1     -10.169  23.251  13.294  1.00  0.00    -0.267 OA
ATOM     34  H4  UNL     1     -10.073  23.936  16.391  1.00  0.00     0.169 HD
BRANCH  32  35
HETATM   35  C25 UNL     1     -11.995  23.034  14.714  1.00  0.00     0.032 A 
HETATM   36  C26 UNL     1     -12.531  21.814  14.387  1.00  0.00     0.017 A 
HETATM   37  C27 UNL     1     -13.880  21.520  14.633  1.00  0.00     0.001 A 
HETATM   38  C28 UNL     1     -14.722  22.460  15.219  1.00  0.00     0.000 A 
HETATM   39  C29 UNL     1     -14.173  23.669  15.538  1.00  0.00     0.001 A 
HETATM   40  C30 UNL     1     -12.840  23.971  15.299  1.00  0.00     0.017 A 
ENDBRANCH  32  35
ENDBRANCH  29  31
ENDBRANCH   1  25
TORSDOF 11
ENDMDL
