MODEL 4
REMARK VINA RESULT: -10.157508100      1.990     10.601
REMARK  11 active torsions:
REMARK  status: ('A' for Active; 'I' for Inactive)
REMARK    1  A    between atoms: C2_2  and  C4_4 
REMARK    2  A    between atoms: C4_4  and  C5_5 
REMARK    3  A    between atoms: C5_5  and  N1_6 
REMARK    4  A    between atoms: N1_6  and  C6_7 
REMARK    5  A    between atoms: N1_6  and  C19_25 
REMARK    6  A    between atoms: C6_7  and  O1_8 
REMARK    7  A    between atoms: C6_7  and  N2_10 
REMARK    8  A    between atoms: N2_10  and  C8_12 
REMARK    9  A    between atoms: C11_15  and  C12_16 
REMARK   10  A    between atoms: C23_29  and  N4_30 
REMARK       I    between atoms: N4_30  and  C24_32 
REMARK   11  A    between atoms: C24_32  and  C25_34 
ROOT
HETATM    1  N1  UNL     1      -5.910  27.514  13.164  1.00  0.00    -0.288 N 
ENDROOT
BRANCH   1   2
HETATM    2  C5  UNL     1      -6.831  28.558  13.513  1.00  0.00     0.101 C 
BRANCH   2   3
HETATM    3  C4  UNL     1      -7.528  28.656  14.749  1.00  0.00     0.020 C 
BRANCH   3   4
HETATM    4  C2  UNL     1      -8.760  28.768  15.130  1.00  0.00    -0.086 C 
HETATM    5  C1  UNL     1      -9.898  28.131  14.344  1.00  0.00     0.043 C 
HETATM    6  C3  UNL     1      -9.185  29.528  16.316  1.00  0.00     0.043 C 
ENDBRANCH   3   4
ENDBRANCH   2   3
ENDBRANCH   1   2
BRANCH   1   7
HETATM    7  C6  UNL     1      -4.579  27.892  12.917  1.00  0.00     0.226 C 
BRANCH   7   8
HETATM    8  O1  UNL     1      -4.341  29.135  13.306  1.00  0.00    -0.332 OA
ATOM      9  H1  UNL     1      -3.440  29.389  13.142  1.00  0.00     0.221 HD
ENDBRANCH   7   8
BRANCH   7  10
HETATM   10  N2  UNL     1      -3.472  27.263  12.372  1.00  0.00    -0.347 N 
HETATM   11  C7  UNL     1      -3.295  27.537  10.890  1.00  0.00     0.153 C 
BRANCH  10  12
HETATM   12  C8  UNL     1      -2.430  26.476  12.902  1.00  0.00     0.087 C 
HETATM   13  C9  UNL     1      -2.478  26.311  14.415  1.00  0.00     0.026 C 
HETATM   14  C10 UNL     1      -1.777  25.117  14.931  1.00  0.00     0.011 C 
HETATM   15  C11 UNL     1      -0.639  24.569  14.141  1.00  0.00     0.019 C 
HETATM   16  C17 UNL     1      -0.617  24.913  12.687  1.00  0.00     0.011 C 
HETATM   17  C18 UNL     1      -2.101  25.154  12.290  1.00  0.00     0.026 C 
BRANCH  15  18
HETATM   18  C12 UNL     1       0.674  24.756  14.808  1.00  0.00    -0.051 A 
HETATM   19  C13 UNL     1       1.063  26.030  15.174  1.00  0.00     0.024 A 
HETATM   20  C14 UNL     1       2.271  26.218  15.808  1.00  0.00     0.088 A 
HETATM   21  N3  UNL     1       3.059  25.162  16.065  1.00  0.00    -0.375 N 
HETATM   22  C15 UNL     1       2.710  23.915  15.722  1.00  0.00     0.088 A 
ATOM     23  H3  UNL     1       3.950  25.314  16.536  1.00  0.00     0.164 HD
HETATM   24  C16 UNL     1       1.510  23.681  15.085  1.00  0.00     0.024 A 
ENDBRANCH  15  18
ENDBRANCH  10  12
ENDBRANCH   7  10
ENDBRANCH   1   7
BRANCH   1  25
HETATM   25  C19 UNL     1      -6.421  26.182  13.214  1.00  0.00     0.044 A 
HETATM   26  C20 UNL     1      -5.552  25.093  13.141  1.00  0.00     0.030 A 
HETATM   27  C21 UNL     1      -6.034  23.797  13.223  1.00  0.00     0.004 A 
HETATM   28  C22 UNL     1      -7.385  23.611  13.379  1.00  0.00     0.029 A 
HETATM   29  C23 UNL     1      -8.297  24.666  13.457  1.00  0.00     0.037 A 
HETATM   30  C31 UNL     1      -7.769  25.925  13.369  1.00  0.00     0.059 A 
BRANCH  29  31
HETATM   31  N4  UNL     1      -9.658  24.328  13.612  1.00  0.00    -0.323 N 
HETATM   32  C24 UNL     1     -10.366  24.134  14.806  1.00  0.00     0.256 C 
HETATM   33  O2  UNL     1      -9.756  24.265  15.893  1.00  0.00    -0.267 OA
ATOM     34  H4  UNL     1     -10.191  24.210  12.751  1.00  0.00     0.169 HD
BRANCH  32  35
HETATM   35  C25 UNL     1     -11.795  23.785  14.888  1.00  0.00     0.032 A 
HETATM   36  C26 UNL     1     -12.729  24.597  15.479  1.00  0.00     0.017 A 
HETATM   37  C27 UNL     1     -14.082  24.228  15.540  1.00  0.00     0.001 A 
HETATM   38  C28 UNL     1     -14.520  23.023  15.001  1.00  0.00     0.000 A 
HETATM   39  C29 UNL     1     -13.576  22.227  14.415  1.00  0.00     0.001 A 
HETATM   40  C30 UNL     1     -12.236  22.581  14.350  1.00  0.00     0.017 A 
ENDBRANCH  32  35
ENDBRANCH  29  31
ENDBRANCH   1  25
TORSDOF 11
ENDMDL
